MODEL 1
REMARK VINA RESULT:     -11.6      0.000      0.000
REMARK SMILES Cc1oc2cc3oc(=O)c(CCC(=O)N[C@@H](C)C(=O)OCCOC(=O)c4ccc(-c5c6nc(c(-c7ccccc7)c7ccc([nH]7)c(-c7ccccc7)c7nc(c(-c8ccccc8)c8ccc5[nH]8)C=C7)C=C6)cc4)c(C)c3cc2c1C
REMARK SMILES IDX 21 1 20 2 18 3 19 4 16 5 17 6 15 7 13 8 14 9 12 11 11 12
REMARK SMILES IDX 10 13 1 14 2 15 3 16 79 17 4 18 78 19 80 20 5 21 77 22 6 23
REMARK SMILES IDX 76 24 7 25 74 26 8 27 75 28 9 29 22 30 23 31 24 32 25 33
REMARK SMILES IDX 26 34 27 35 73 36 28 37 72 38 29 39 30 40 31 41 66 42 32 43
REMARK SMILES IDX 71 44 65 45 67 46 33 47 70 48 64 49 63 50 34 52 56 53 41 54
REMARK SMILES IDX 55 55 42 56 45 57 54 58 68 59 43 60 44 61 53 63 69 64 46 65
REMARK SMILES IDX 35 66 36 67 40 68 37 69 39 70 38 71 57 72 58 73 62 74 59 75
REMARK SMILES IDX 61 76 60 77 47 78 48 79 52 80 49 81 51 82 50 83
REMARK H PARENT 15 10 67 51 45 62
REMARK Flexibility Score: inf
ROOT
ATOM      1  C   UNL A   1      36.995  21.709  24.313  1.00  0.00     0.274 C 
ENDROOT
BRANCH   1   2
ATOM      2  O   UNL A   1      36.719  23.074  24.673  1.00  0.00    -0.461 OA
BRANCH   2   3
ATOM      3  C   UNL A   1      35.586  23.603  24.143  1.00  0.00     0.328 C 
ATOM      4  O   UNL A   1      35.443  23.928  22.970  1.00  0.00    -0.250 OA
BRANCH   3   5
ATOM      5  C   UNL A   1      34.542  23.886  25.216  1.00  0.00     0.189 C 
ATOM      6  C   UNL A   1      34.584  25.383  25.516  1.00  0.00     0.043 C 
BRANCH   5   7
ATOM      7  N   UNL A   1      34.533  23.153  26.475  1.00  0.00    -0.343 N 
ATOM      8  C   UNL A   1      33.835  22.024  26.797  1.00  0.00     0.221 C 
ATOM      9  O   UNL A   1      33.480  21.880  27.969  1.00  0.00    -0.275 OA
ATOM     10  H   UNL A   1      35.105  23.519  27.188  1.00  0.00     0.164 HD
BRANCH   8  11
ATOM     11  C   UNL A   1      33.551  20.944  25.762  1.00  0.00     0.105 C 
BRANCH  11  12
ATOM     12  C   UNL A   1      32.088  20.808  25.297  1.00  0.00     0.053 C 
BRANCH  12  13
ATOM     13  C   UNL A   1      31.538  22.124  24.775  1.00  0.00     0.042 A 
ATOM     14  C   UNL A   1      32.313  30.264  25.517  1.00  0.00     0.088 C 
ATOM     15  C   UNL A   1      31.844  28.862  25.456  1.00  0.00     0.105 A 
ATOM     16  O   UNL A   1      31.850  28.286  24.224  1.00  0.00    -0.461 OA
ATOM     17  C   UNL A   1      31.450  27.948  26.420  1.00  0.00    -0.002 A 
ATOM     18  C   UNL A   1      31.475  26.990  24.383  1.00  0.00     0.138 A 
ATOM     19  C   UNL A   1      31.131  26.743  25.706  1.00  0.00     0.024 A 
ATOM     20  C   UNL A   1      31.475  28.177  27.887  1.00  0.00     0.049 C 
ATOM     21  C   UNL A   1      31.501  26.021  23.389  1.00  0.00     0.095 A 
ATOM     22  C   UNL A   1      30.691  25.441  26.049  1.00  0.00     0.024 A 
ATOM     23  C   UNL A   1      31.236  24.715  23.818  1.00  0.00     0.142 A 
ATOM     24  C   UNL A   1      30.805  24.395  25.107  1.00  0.00     0.022 A 
ATOM     25  O   UNL A   1      31.565  23.704  22.899  1.00  0.00    -0.422 OA
ATOM     26  C   UNL A   1      30.769  22.965  25.503  1.00  0.00    -0.030 A 
ATOM     27  C   UNL A   1      31.968  22.476  23.389  1.00  0.00     0.339 A 
ATOM     28  C   UNL A   1      30.163  22.549  26.814  1.00  0.00     0.046 C 
ATOM     29  O   UNL A   1      32.601  21.685  22.697  1.00  0.00    -0.246 OA
ENDBRANCH  12  13
ENDBRANCH  11  12
ENDBRANCH   8  11
ENDBRANCH   5   7
ENDBRANCH   3   5
ENDBRANCH   2   3
ENDBRANCH   1   2
BRANCH   1  30
ATOM     30  C   UNL A   1      38.174  21.210  25.141  1.00  0.00     0.275 C 
BRANCH  30  31
ATOM     31  O   UNL A   1      38.467  22.126  26.204  1.00  0.00    -0.458 OA
BRANCH  31  32
ATOM     32  C   UNL A   1      39.681  22.027  26.796  1.00  0.00     0.338 C 
ATOM     33  O   UNL A   1      40.334  21.025  27.024  1.00  0.00    -0.246 OA
BRANCH  32  34
ATOM     34  C   UNL A   1      40.126  23.404  27.015  1.00  0.00     0.060 A 
ATOM     35  C   UNL A   1      41.431  23.747  26.664  1.00  0.00     0.016 A 
ATOM     36  C   UNL A   1      39.283  24.312  27.661  1.00  0.00     0.016 A 
ATOM     37  C   UNL A   1      41.907  25.005  27.000  1.00  0.00     0.010 A 
ATOM     38  C   UNL A   1      39.767  25.567  28.008  1.00  0.00     0.010 A 
ATOM     39  C   UNL A   1      41.081  25.914  27.680  1.00  0.00    -0.014 A 
BRANCH  39  40
ATOM     40  C   UNL A   1      41.623  27.255  27.932  1.00  0.00     0.031 A 
ATOM     41  C   UNL A   1      40.616  28.362  27.947  1.00  0.00     0.074 A 
ATOM     42  C   UNL A   1      42.785  27.394  28.602  1.00  0.00     0.049 A 
ATOM     43  N   UNL A   1      39.955  28.728  29.007  1.00  0.00    -0.248 NA
ATOM     44  C   UNL A   1      40.097  28.931  26.702  1.00  0.00     0.031 C 
ATOM     45  C   UNL A   1      43.163  26.583  29.768  1.00  0.00     0.029 A 
ATOM     46  N   UNL A   1      43.731  28.386  28.556  1.00  0.00    -0.354 N 
ATOM     47  C   UNL A   1      38.909  29.534  28.580  1.00  0.00     0.074 A 
ATOM     48  C   UNL A   1      39.049  29.643  27.145  1.00  0.00     0.031 C 
ATOM     49  C   UNL A   1      44.151  27.218  30.432  1.00  0.00     0.029 A 
ATOM     50  C   UNL A   1      44.569  28.391  29.668  1.00  0.00     0.049 A 
ATOM     51  H   UNL A   1      43.810  29.028  27.814  1.00  0.00     0.167 HD
ATOM     52  C   UNL A   1      37.983  30.069  29.423  1.00  0.00     0.031 A 
ATOM     53  C   UNL A   1      45.138  29.517  30.180  1.00  0.00     0.031 A 
ATOM     54  C   UNL A   1      38.149  29.746  30.808  1.00  0.00     0.049 A 
ATOM     55  C   UNL A   1      43.936  30.121  30.876  1.00  0.00     0.074 A 
ATOM     56  C   UNL A   1      37.577  28.908  31.740  1.00  0.00     0.029 A 
ATOM     57  N   UNL A   1      39.136  30.401  31.499  1.00  0.00    -0.354 N 
ATOM     58  N   UNL A   1      43.416  29.746  32.014  1.00  0.00    -0.248 NA
ATOM     59  C   UNL A   1      43.056  30.949  30.046  1.00  0.00     0.031 C 
ATOM     60  C   UNL A   1      38.548  28.784  32.786  1.00  0.00     0.029 A 
ATOM     61  C   UNL A   1      39.670  29.515  32.395  1.00  0.00     0.049 A 
ATOM     62  H   UNL A   1      39.411  31.338  31.374  1.00  0.00     0.167 HD
ATOM     63  C   UNL A   1      42.049  30.022  31.906  1.00  0.00     0.074 A 
ATOM     64  C   UNL A   1      41.902  30.768  30.671  1.00  0.00     0.031 C 
ATOM     65  C   UNL A   1      41.084  29.483  32.711  1.00  0.00     0.031 A 
BRANCH  52  66
ATOM     66  C   UNL A   1      36.955  31.063  29.037  1.00  0.00    -0.014 A 
ATOM     67  C   UNL A   1      37.195  32.439  28.994  1.00  0.00     0.009 A 
ATOM     68  C   UNL A   1      35.745  30.568  28.514  1.00  0.00     0.009 A 
ATOM     69  C   UNL A   1      36.246  33.295  28.416  1.00  0.00     0.001 A 
ATOM     70  C   UNL A   1      34.810  31.418  27.929  1.00  0.00     0.001 A 
ATOM     71  C   UNL A   1      35.064  32.784  27.874  1.00  0.00     0.000 A 
ENDBRANCH  52  66
BRANCH  53  72
ATOM     72  C   UNL A   1      45.977  30.293  29.201  1.00  0.00    -0.014 A 
ATOM     73  C   UNL A   1      46.190  31.678  29.253  1.00  0.00     0.009 A 
ATOM     74  C   UNL A   1      46.565  29.593  28.127  1.00  0.00     0.009 A 
ATOM     75  C   UNL A   1      46.795  32.354  28.185  1.00  0.00     0.001 A 
ATOM     76  C   UNL A   1      47.198  30.262  27.076  1.00  0.00     0.001 A 
ATOM     77  C   UNL A   1      47.276  31.649  27.086  1.00  0.00     0.000 A 
ENDBRANCH  53  72
BRANCH  65  78
ATOM     78  C   UNL A   1      41.545  28.643  33.861  1.00  0.00    -0.014 A 
ATOM     79  C   UNL A   1      41.772  27.266  33.697  1.00  0.00     0.009 A 
ATOM     80  C   UNL A   1      41.660  29.194  35.143  1.00  0.00     0.009 A 
ATOM     81  C   UNL A   1      42.032  26.448  34.797  1.00  0.00     0.001 A 
ATOM     82  C   UNL A   1      41.946  28.380  36.240  1.00  0.00     0.001 A 
ATOM     83  C   UNL A   1      42.111  27.006  36.070  1.00  0.00     0.000 A 
ENDBRANCH  65  78
ENDBRANCH  39  40
ENDBRANCH  32  34
ENDBRANCH  31  32
ENDBRANCH  30  31
ENDBRANCH   1  30
TORSDOF 15
ENDMDL
MODEL 2
REMARK VINA RESULT:     -11.1      1.361      2.105
REMARK SMILES Cc1oc2cc3oc(=O)c(CCC(=O)N[C@@H](C)C(=O)OCCOC(=O)c4ccc(-c5c6nc(c(-c7ccccc7)c7ccc([nH]7)c(-c7ccccc7)c7nc(c(-c8ccccc8)c8ccc5[nH]8)C=C7)C=C6)cc4)c(C)c3cc2c1C
REMARK SMILES IDX 21 1 20 2 18 3 19 4 16 5 17 6 15 7 13 8 14 9 12 11 11 12
REMARK SMILES IDX 10 13 1 14 2 15 3 16 79 17 4 18 78 19 80 20 5 21 77 22 6 23
REMARK SMILES IDX 76 24 7 25 74 26 8 27 75 28 9 29 22 30 23 31 24 32 25 33
REMARK SMILES IDX 26 34 27 35 73 36 28 37 72 38 29 39 30 40 31 41 66 42 32 43
REMARK SMILES IDX 71 44 65 45 67 46 33 47 70 48 64 49 63 50 34 52 56 53 41 54
REMARK SMILES IDX 55 55 42 56 45 57 54 58 68 59 43 60 44 61 53 63 69 64 46 65
REMARK SMILES IDX 35 66 36 67 40 68 37 69 39 70 38 71 57 72 58 73 62 74 59 75
REMARK SMILES IDX 61 76 60 77 47 78 48 79 52 80 49 81 51 82 50 83
REMARK H PARENT 15 10 67 51 45 62
REMARK Flexibility Score: inf
ROOT
ATOM      1  C   UNL A   1      38.443  22.257  26.129  1.00  0.00     0.274 C 
ENDROOT
BRANCH   1   2
ATOM      2  O   UNL A   1      37.562  22.010  25.019  1.00  0.00    -0.461 OA
BRANCH   2   3
ATOM      3  C   UNL A   1      36.663  21.008  25.195  1.00  0.00     0.328 C 
ATOM      4  O   UNL A   1      36.805  19.857  24.798  1.00  0.00    -0.250 OA
BRANCH   3   5
ATOM      5  C   UNL A   1      35.373  21.515  25.827  1.00  0.00     0.189 C 
ATOM      6  C   UNL A   1      34.260  20.540  25.447  1.00  0.00     0.043 C 
BRANCH   5   7
ATOM      7  N   UNL A   1      34.904  22.876  25.601  1.00  0.00    -0.343 N 
ATOM      8  C   UNL A   1      34.920  23.600  24.442  1.00  0.00     0.221 C 
ATOM      9  O   UNL A   1      35.050  24.823  24.528  1.00  0.00    -0.275 OA
ATOM     10  H   UNL A   1      34.526  23.336  26.386  1.00  0.00     0.164 HD
BRANCH   8  11
ATOM     11  C   UNL A   1      34.724  22.933  23.088  1.00  0.00     0.105 C 
BRANCH  11  12
ATOM     12  C   UNL A   1      33.269  22.660  22.661  1.00  0.00     0.053 C 
BRANCH  12  13
ATOM     13  C   UNL A   1      32.422  23.920  22.709  1.00  0.00     0.042 A 
ATOM     14  C   UNL A   1      31.785  31.208  26.435  1.00  0.00     0.088 C 
ATOM     15  C   UNL A   1      31.577  29.856  25.874  1.00  0.00     0.105 A 
ATOM     16  O   UNL A   1      31.522  29.776  24.517  1.00  0.00    -0.461 OA
ATOM     17  C   UNL A   1      31.491  28.594  26.441  1.00  0.00    -0.002 A 
ATOM     18  C   UNL A   1      31.417  28.461  24.195  1.00  0.00     0.138 A 
ATOM     19  C   UNL A   1      31.305  27.686  25.343  1.00  0.00     0.024 A 
ATOM     20  C   UNL A   1      31.671  28.281  27.881  1.00  0.00     0.049 C 
ATOM     21  C   UNL A   1      31.485  27.944  22.907  1.00  0.00     0.095 A 
ATOM     22  C   UNL A   1      31.161  26.286  25.191  1.00  0.00     0.024 A 
ATOM     23  C   UNL A   1      31.524  26.547  22.824  1.00  0.00     0.142 A 
ATOM     24  C   UNL A   1      31.337  25.699  23.918  1.00  0.00     0.022 A 
ATOM     25  O   UNL A   1      31.906  26.032  21.574  1.00  0.00    -0.422 OA
ATOM     26  C   UNL A   1      31.617  24.253  23.743  1.00  0.00    -0.030 A 
ATOM     27  C   UNL A   1      32.590  24.831  21.538  1.00  0.00     0.339 A 
ATOM     28  C   UNL A   1      31.280  23.271  24.831  1.00  0.00     0.046 C 
ATOM     29  O   UNL A   1      33.257  24.501  20.564  1.00  0.00    -0.246 OA
ENDBRANCH  12  13
ENDBRANCH  11  12
ENDBRANCH   8  11
ENDBRANCH   5   7
ENDBRANCH   3   5
ENDBRANCH   2   3
ENDBRANCH   1   2
BRANCH   1  30
ATOM     30  C   UNL A   1      39.618  21.290  26.051  1.00  0.00     0.275 C 
BRANCH  30  31
ATOM     31  O   UNL A   1      40.524  21.507  27.141  1.00  0.00    -0.458 OA
BRANCH  31  32
ATOM     32  C   UNL A   1      41.838  21.634  26.844  1.00  0.00     0.338 C 
ATOM     33  O   UNL A   1      42.583  20.817  26.333  1.00  0.00    -0.246 OA
BRANCH  32  34
ATOM     34  C   UNL A   1      42.181  23.021  27.159  1.00  0.00     0.060 A 
ATOM     35  C   UNL A   1      41.490  23.663  28.186  1.00  0.00     0.016 A 
ATOM     36  C   UNL A   1      43.107  23.705  26.367  1.00  0.00     0.016 A 
ATOM     37  C   UNL A   1      41.704  25.016  28.395  1.00  0.00     0.010 A 
ATOM     38  C   UNL A   1      43.310  25.065  26.570  1.00  0.00     0.010 A 
ATOM     39  C   UNL A   1      42.607  25.722  27.583  1.00  0.00    -0.014 A 
BRANCH  39  40
ATOM     40  C   UNL A   1      42.844  27.133  27.912  1.00  0.00     0.031 A 
ATOM     41  C   UNL A   1      41.649  28.027  27.802  1.00  0.00     0.074 A 
ATOM     42  C   UNL A   1      43.862  27.470  28.730  1.00  0.00     0.049 A 
ATOM     43  N   UNL A   1      40.801  28.228  28.769  1.00  0.00    -0.248 NA
ATOM     44  C   UNL A   1      41.194  28.526  26.504  1.00  0.00     0.031 C 
ATOM     45  C   UNL A   1      44.238  26.709  29.931  1.00  0.00     0.029 A 
ATOM     46  N   UNL A   1      44.598  28.625  28.814  1.00  0.00    -0.354 N 
ATOM     47  C   UNL A   1      39.682  28.833  28.214  1.00  0.00     0.074 A 
ATOM     48  C   UNL A   1      39.981  29.011  26.809  1.00  0.00     0.031 C 
ATOM     49  C   UNL A   1      44.992  27.499  30.722  1.00  0.00     0.029 A 
ATOM     50  C   UNL A   1      45.271  28.754  30.027  1.00  0.00     0.049 A 
ATOM     51  H   UNL A   1      44.646  29.292  28.093  1.00  0.00     0.167 HD
ATOM     52  C   UNL A   1      38.570  29.156  28.931  1.00  0.00     0.031 A 
ATOM     53  C   UNL A   1      45.542  29.951  30.616  1.00  0.00     0.031 A 
ATOM     54  C   UNL A   1      38.618  28.827  30.323  1.00  0.00     0.049 A 
ATOM     55  C   UNL A   1      44.167  30.294  31.152  1.00  0.00     0.074 A 
ATOM     56  C   UNL A   1      38.104  27.867  31.168  1.00  0.00     0.029 A 
ATOM     57  N   UNL A   1      39.364  29.636  31.142  1.00  0.00    -0.354 N 
ATOM     58  N   UNL A   1      43.588  29.791  32.209  1.00  0.00    -0.248 NA
ATOM     59  C   UNL A   1      43.257  30.965  30.219  1.00  0.00     0.031 C 
ATOM     60  C   UNL A   1      38.939  27.897  32.330  1.00  0.00     0.029 A 
ATOM     61  C   UNL A   1      39.940  28.840  32.094  1.00  0.00     0.049 A 
ATOM     62  H   UNL A   1      39.466  30.612  31.060  1.00  0.00     0.167 HD
ATOM     63  C   UNL A   1      42.219  29.805  31.925  1.00  0.00     0.074 A 
ATOM     64  C   UNL A   1      42.090  30.548  30.686  1.00  0.00     0.031 C 
ATOM     65  C   UNL A   1      41.281  29.067  32.593  1.00  0.00     0.031 A 
BRANCH  52  66
ATOM     66  C   UNL A   1      37.428  29.948  28.419  1.00  0.00    -0.014 A 
ATOM     67  C   UNL A   1      36.275  29.371  27.880  1.00  0.00     0.009 A 
ATOM     68  C   UNL A   1      37.442  31.333  28.665  1.00  0.00     0.009 A 
ATOM     69  C   UNL A   1      35.153  30.170  27.616  1.00  0.00     0.001 A 
ATOM     70  C   UNL A   1      36.323  32.123  28.414  1.00  0.00     0.001 A 
ATOM     71  C   UNL A   1      35.174  31.539  27.895  1.00  0.00     0.000 A 
ENDBRANCH  52  66
BRANCH  53  72
ATOM     72  C   UNL A   1      46.334  30.903  29.760  1.00  0.00    -0.014 A 
ATOM     73  C   UNL A   1      45.782  31.755  28.793  1.00  0.00     0.009 A 
ATOM     74  C   UNL A   1      47.736  30.919  29.906  1.00  0.00     0.009 A 
ATOM     75  C   UNL A   1      46.601  32.443  27.888  1.00  0.00     0.001 A 
ATOM     76  C   UNL A   1      48.556  31.631  29.024  1.00  0.00     0.001 A 
ATOM     77  C   UNL A   1      47.987  32.360  27.988  1.00  0.00     0.000 A 
ENDBRANCH  53  72
BRANCH  65  78
ATOM     78  C   UNL A   1      41.745  28.295  33.789  1.00  0.00    -0.014 A 
ATOM     79  C   UNL A   1      41.521  28.784  35.088  1.00  0.00     0.009 A 
ATOM     80  C   UNL A   1      42.497  27.125  33.632  1.00  0.00     0.009 A 
ATOM     81  C   UNL A   1      42.098  28.162  36.195  1.00  0.00     0.001 A 
ATOM     82  C   UNL A   1      43.053  26.487  34.742  1.00  0.00     0.001 A 
ATOM     83  C   UNL A   1      42.871  27.016  36.019  1.00  0.00     0.000 A 
ENDBRANCH  65  78
ENDBRANCH  39  40
ENDBRANCH  32  34
ENDBRANCH  31  32
ENDBRANCH  30  31
ENDBRANCH   1  30
TORSDOF 15
ENDMDL
MODEL 3
REMARK VINA RESULT:     -11.0      1.789      2.568
REMARK SMILES Cc1oc2cc3oc(=O)c(CCC(=O)N[C@@H](C)C(=O)OCCOC(=O)c4ccc(-c5c6nc(c(-c7ccccc7)c7ccc([nH]7)c(-c7ccccc7)c7nc(c(-c8ccccc8)c8ccc5[nH]8)C=C7)C=C6)cc4)c(C)c3cc2c1C
REMARK SMILES IDX 21 1 20 2 18 3 19 4 16 5 17 6 15 7 13 8 14 9 12 11 11 12
REMARK SMILES IDX 10 13 1 14 2 15 3 16 79 17 4 18 78 19 80 20 5 21 77 22 6 23
REMARK SMILES IDX 76 24 7 25 74 26 8 27 75 28 9 29 22 30 23 31 24 32 25 33
REMARK SMILES IDX 26 34 27 35 73 36 28 37 72 38 29 39 30 40 31 41 66 42 32 43
REMARK SMILES IDX 71 44 65 45 67 46 33 47 70 48 64 49 63 50 34 52 56 53 41 54
REMARK SMILES IDX 55 55 42 56 45 57 54 58 68 59 43 60 44 61 53 63 69 64 46 65
REMARK SMILES IDX 35 66 36 67 40 68 37 69 39 70 38 71 57 72 58 73 62 74 59 75
REMARK SMILES IDX 61 76 60 77 47 78 48 79 52 80 49 81 51 82 50 83
REMARK H PARENT 15 10 67 51 45 62
REMARK Flexibility Score: inf
ROOT
ATOM      1  C   UNL A   1      39.536  19.787  25.903  1.00  0.00     0.274 C 
ENDROOT
BRANCH   1   2
ATOM      2  O   UNL A   1      38.718  20.826  25.340  1.00  0.00    -0.461 OA
BRANCH   2   3
ATOM      3  C   UNL A   1      37.416  20.501  25.129  1.00  0.00     0.328 C 
ATOM      4  O   UNL A   1      37.024  19.445  24.646  1.00  0.00    -0.250 OA
BRANCH   3   5
ATOM      5  C   UNL A   1      36.488  21.669  25.435  1.00  0.00     0.189 C 
ATOM      6  C   UNL A   1      37.352  22.921  25.573  1.00  0.00     0.043 C 
BRANCH   5   7
ATOM      7  N   UNL A   1      35.551  21.619  26.551  1.00  0.00    -0.343 N 
ATOM      8  C   UNL A   1      34.480  22.429  26.798  1.00  0.00     0.221 C 
ATOM      9  O   UNL A   1      34.177  22.642  27.975  1.00  0.00    -0.275 OA
ATOM     10  H   UNL A   1      35.712  20.909  27.214  1.00  0.00     0.164 HD
BRANCH   8  11
ATOM     11  C   UNL A   1      33.643  23.007  25.665  1.00  0.00     0.105 C 
BRANCH  11  12
ATOM     12  C   UNL A   1      32.520  23.981  26.071  1.00  0.00     0.053 C 
BRANCH  12  13
ATOM     13  C   UNL A   1      32.407  25.145  25.102  1.00  0.00     0.042 A 
ATOM     14  C   UNL A   1      27.724  31.617  23.206  1.00  0.00     0.088 C 
ATOM     15  C   UNL A   1      28.516  30.368  23.218  1.00  0.00     0.105 A 
ATOM     16  O   UNL A   1      29.860  30.518  23.364  1.00  0.00    -0.461 OA
ATOM     17  C   UNL A   1      28.177  29.025  23.181  1.00  0.00    -0.002 A 
ATOM     18  C   UNL A   1      30.399  29.274  23.440  1.00  0.00     0.138 A 
ATOM     19  C   UNL A   1      29.420  28.308  23.245  1.00  0.00     0.024 A 
ATOM     20  C   UNL A   1      26.794  28.485  23.186  1.00  0.00     0.049 C 
ATOM     21  C   UNL A   1      31.725  28.992  23.742  1.00  0.00     0.095 A 
ATOM     22  C   UNL A   1      29.812  26.947  23.268  1.00  0.00     0.024 A 
ATOM     23  C   UNL A   1      32.021  27.637  23.934  1.00  0.00     0.142 A 
ATOM     24  C   UNL A   1      31.118  26.602  23.681  1.00  0.00     0.022 A 
ATOM     25  O   UNL A   1      33.262  27.374  24.540  1.00  0.00    -0.422 OA
ATOM     26  C   UNL A   1      31.472  25.233  24.129  1.00  0.00    -0.030 A 
ATOM     27  C   UNL A   1      33.378  26.253  25.340  1.00  0.00     0.339 A 
ATOM     28  C   UNL A   1      30.619  24.057  23.742  1.00  0.00     0.046 C 
ATOM     29  O   UNL A   1      34.276  26.147  26.169  1.00  0.00    -0.246 OA
ENDBRANCH  12  13
ENDBRANCH  11  12
ENDBRANCH   8  11
ENDBRANCH   5   7
ENDBRANCH   3   5
ENDBRANCH   2   3
ENDBRANCH   1   2
BRANCH   1  30
ATOM     30  C   UNL A   1      40.754  20.421  26.564  1.00  0.00     0.275 C 
BRANCH  30  31
ATOM     31  O   UNL A   1      40.994  21.730  26.029  1.00  0.00    -0.458 OA
BRANCH  31  32
ATOM     32  C   UNL A   1      42.280  22.084  25.801  1.00  0.00     0.338 C 
ATOM     33  O   UNL A   1      43.169  21.427  25.291  1.00  0.00    -0.246 OA
BRANCH  32  34
ATOM     34  C   UNL A   1      42.376  23.491  26.191  1.00  0.00     0.060 A 
ATOM     35  C   UNL A   1      43.240  24.323  25.481  1.00  0.00     0.016 A 
ATOM     36  C   UNL A   1      41.692  23.946  27.321  1.00  0.00     0.016 A 
ATOM     37  C   UNL A   1      43.447  25.618  25.932  1.00  0.00     0.010 A 
ATOM     38  C   UNL A   1      41.911  25.241  27.778  1.00  0.00     0.010 A 
ATOM     39  C   UNL A   1      42.791  26.076  27.086  1.00  0.00    -0.014 A 
BRANCH  39  40
ATOM     40  C   UNL A   1      42.994  27.482  27.460  1.00  0.00     0.031 A 
ATOM     41  C   UNL A   1      41.762  28.331  27.458  1.00  0.00     0.074 A 
ATOM     42  C   UNL A   1      44.046  27.826  28.230  1.00  0.00     0.049 A 
ATOM     43  N   UNL A   1      40.967  28.458  28.480  1.00  0.00    -0.248 NA
ATOM     44  C   UNL A   1      41.211  28.863  26.211  1.00  0.00     0.031 C 
ATOM     45  C   UNL A   1      44.523  27.033  29.373  1.00  0.00     0.029 A 
ATOM     46  N   UNL A   1      44.742  29.005  28.319  1.00  0.00    -0.354 N 
ATOM     47  C   UNL A   1      39.794  29.040  28.018  1.00  0.00     0.074 A 
ATOM     48  C   UNL A   1      40.001  29.286  26.607  1.00  0.00     0.031 C 
ATOM     49  C   UNL A   1      45.292  27.821  30.151  1.00  0.00     0.029 A 
ATOM     50  C   UNL A   1      45.481  29.112  29.495  1.00  0.00     0.049 A 
ATOM     51  H   UNL A   1      44.721  29.702  27.625  1.00  0.00     0.167 HD
ATOM     52  C   UNL A   1      38.717  29.289  28.812  1.00  0.00     0.031 A 
ATOM     53  C   UNL A   1      45.742  30.296  30.117  1.00  0.00     0.031 A 
ATOM     54  C   UNL A   1      38.861  28.907  30.184  1.00  0.00     0.049 A 
ATOM     55  C   UNL A   1      44.390  30.561  30.747  1.00  0.00     0.074 A 
ATOM     56  C   UNL A   1      38.435  27.895  31.016  1.00  0.00     0.029 A 
ATOM     57  N   UNL A   1      39.623  29.712  30.991  1.00  0.00    -0.354 N 
ATOM     58  N   UNL A   1      43.896  29.993  31.814  1.00  0.00    -0.248 NA
ATOM     59  C   UNL A   1      43.401  31.231  29.898  1.00  0.00     0.031 C 
ATOM     60  C   UNL A   1      39.337  27.912  32.128  1.00  0.00     0.029 A 
ATOM     61  C   UNL A   1      40.286  28.902  31.873  1.00  0.00     0.049 A 
ATOM     62  H   UNL A   1      39.684  30.694  30.944  1.00  0.00     0.167 HD
ATOM     63  C   UNL A   1      42.512  29.964  31.612  1.00  0.00     0.074 A 
ATOM     64  C   UNL A   1      42.281  30.750  30.415  1.00  0.00     0.031 C 
ATOM     65  C   UNL A   1      41.645  29.163  32.302  1.00  0.00     0.031 A 
BRANCH  52  66
ATOM     66  C   UNL A   1      37.516  30.054  28.402  1.00  0.00    -0.014 A 
ATOM     67  C   UNL A   1      36.346  29.452  27.934  1.00  0.00     0.009 A 
ATOM     68  C   UNL A   1      37.507  31.435  28.678  1.00  0.00     0.009 A 
ATOM     69  C   UNL A   1      35.183  30.220  27.770  1.00  0.00     0.001 A 
ATOM     70  C   UNL A   1      36.349  32.193  28.526  1.00  0.00     0.001 A 
ATOM     71  C   UNL A   1      35.183  31.583  28.078  1.00  0.00     0.000 A 
ENDBRANCH  52  66
BRANCH  53  72
ATOM     72  C   UNL A   1      46.445  31.311  29.257  1.00  0.00    -0.014 A 
ATOM     73  C   UNL A   1      46.358  32.700  29.428  1.00  0.00     0.009 A 
ATOM     74  C   UNL A   1      47.218  30.845  28.173  1.00  0.00     0.009 A 
ATOM     75  C   UNL A   1      46.857  33.578  28.457  1.00  0.00     0.001 A 
ATOM     76  C   UNL A   1      47.745  31.721  27.220  1.00  0.00     0.001 A 
ATOM     77  C   UNL A   1      47.528  33.087  27.341  1.00  0.00     0.000 A 
ENDBRANCH  53  72
BRANCH  65  78
ATOM     78  C   UNL A   1      42.208  28.363  33.434  1.00  0.00    -0.014 A 
ATOM     79  C   UNL A   1      42.894  27.160  33.191  1.00  0.00     0.009 A 
ATOM     80  C   UNL A   1      41.976  28.746  34.761  1.00  0.00     0.009 A 
ATOM     81  C   UNL A   1      43.268  26.325  34.243  1.00  0.00     0.001 A 
ATOM     82  C   UNL A   1      42.373  27.923  35.815  1.00  0.00     0.001 A 
ATOM     83  C   UNL A   1      43.000  26.705  35.556  1.00  0.00     0.000 A 
ENDBRANCH  65  78
ENDBRANCH  39  40
ENDBRANCH  32  34
ENDBRANCH  31  32
ENDBRANCH  30  31
ENDBRANCH   1  30
TORSDOF 15
ENDMDL
