MODEL 1
REMARK VINA RESULT:     -12.4      0.000      0.000
REMARK SMILES Cc1cc(C(=O)OCCOC(=O)c2ccc(-c3c4nc(c(-c5ccccc5)c5ccc([nH]5)c(-c5ccccc5)c5nc(c(-c6ccccc6)c6ccc3[nH]6)C=C5)C=C4)cc2)ccc1NS(=O)(=O)c1ccc2c(c1)CCC2
REMARK SMILES IDX 8 1 7 2 5 3 6 4 4 5 1 6 2 7 3 8 63 9 62 10 61 11 64 12 65 14
REMARK SMILES IDX 66 15 67 16 68 17 69 18 73 19 70 20 72 21 71 22 74 23 76 24
REMARK SMILES IDX 75 25 9 26 10 27 11 28 12 29 13 30 14 31 60 32 15 33 59 34
REMARK SMILES IDX 16 35 17 36 18 37 53 38 19 39 58 40 52 41 54 42 20 43 57 44
REMARK SMILES IDX 51 45 50 46 21 48 43 49 28 50 42 51 29 52 32 53 41 54 55 55
REMARK SMILES IDX 30 56 31 57 40 59 56 60 33 61 22 62 23 63 27 64 24 65 26 66
REMARK SMILES IDX 25 67 44 68 45 69 49 70 46 71 48 72 47 73 34 74 35 75 39 76
REMARK SMILES IDX 36 77 38 78 37 79
REMARK H PARENT 64 13 54 47 32 58
REMARK Flexibility Score: inf
ROOT
ATOM      1  C   UNL A   1      32.437  31.578  26.951  1.00  0.00     0.275 C 
ENDROOT
BRANCH   1   2
ATOM      2  O   UNL A   1      31.657  30.394  27.220  1.00  0.00    -0.458 OA
BRANCH   2   3
ATOM      3  C   UNL A   1      32.246  29.290  26.673  1.00  0.00     0.338 C 
ATOM      4  O   UNL A   1      33.238  28.744  27.150  1.00  0.00    -0.246 OA
BRANCH   3   5
ATOM      5  C   UNL A   1      31.651  28.752  25.411  1.00  0.00     0.060 A 
ATOM      6  C   UNL A   1      30.115  29.512  22.025  1.00  0.00     0.046 C 
ATOM      7  C   UNL A   1      30.932  28.802  23.078  1.00  0.00    -0.026 A 
ATOM      8  C   UNL A   1      31.243  29.482  24.288  1.00  0.00     0.021 A 
ATOM      9  C   UNL A   1      31.165  27.416  23.001  1.00  0.00     0.052 A 
ATOM     10  C   UNL A   1      31.272  26.690  24.174  1.00  0.00     0.028 A 
ATOM     11  C   UNL A   1      31.515  27.356  25.369  1.00  0.00     0.018 A 
BRANCH   9  12
ATOM     12  N   UNL A   1      31.412  26.700  21.778  1.00  0.00    -0.279 N 
ATOM     13  H   UNL A   1      30.694  26.594  21.114  1.00  0.00     0.180 HD
BRANCH  12  14
ATOM     14  S   UNL A   1      32.990  26.024  21.479  1.00  0.00     0.261 S 
ATOM     15  O   UNL A   1      32.882  25.438  20.156  1.00  0.00    -0.201 OA
ATOM     16  O   UNL A   1      33.943  27.085  21.726  1.00  0.00    -0.201 OA
BRANCH  14  17
ATOM     17  C   UNL A   1      33.388  24.691  22.607  1.00  0.00     0.088 A 
ATOM     18  C   UNL A   1      32.627  23.513  22.623  1.00  0.00     0.022 A 
ATOM     19  C   UNL A   1      34.442  24.837  23.523  1.00  0.00     0.026 A 
ATOM     20  C   UNL A   1      33.110  22.364  23.263  1.00  0.00     0.005 A 
ATOM     21  C   UNL A   1      34.826  23.725  24.261  1.00  0.00    -0.043 A 
ATOM     22  C   UNL A   1      34.254  22.473  24.025  1.00  0.00    -0.045 A 
ATOM     23  C   UNL A   1      35.798  23.621  25.395  1.00  0.00     0.036 C 
ATOM     24  C   UNL A   1      35.023  21.389  24.720  1.00  0.00     0.036 C 
ATOM     25  C   UNL A   1      36.247  22.165  25.242  1.00  0.00     0.010 C 
ENDBRANCH  14  17
ENDBRANCH  12  14
ENDBRANCH   9  12
ENDBRANCH   3   5
ENDBRANCH   2   3
ENDBRANCH   1   2
BRANCH   1  26
ATOM     26  C   UNL A   1      31.753  32.938  27.192  1.00  0.00     0.275 C 
BRANCH  26  27
ATOM     27  O   UNL A   1      32.505  34.098  27.635  1.00  0.00    -0.458 OA
BRANCH  27  28
ATOM     28  C   UNL A   1      33.100  34.285  28.831  1.00  0.00     0.338 C 
ATOM     29  O   UNL A   1      32.607  34.994  29.705  1.00  0.00    -0.246 OA
BRANCH  28  30
ATOM     30  C   UNL A   1      34.378  33.598  29.050  1.00  0.00     0.060 A 
ATOM     31  C   UNL A   1      34.441  32.599  30.034  1.00  0.00     0.016 A 
ATOM     32  C   UNL A   1      35.454  33.860  28.205  1.00  0.00     0.016 A 
ATOM     33  C   UNL A   1      35.577  31.815  30.145  1.00  0.00     0.010 A 
ATOM     34  C   UNL A   1      36.506  32.984  28.197  1.00  0.00     0.010 A 
ATOM     35  C   UNL A   1      36.594  32.027  29.219  1.00  0.00    -0.014 A 
BRANCH  35  36
ATOM     36  C   UNL A   1      37.966  31.645  29.484  1.00  0.00     0.031 A 
ATOM     37  C   UNL A   1      38.484  30.351  29.037  1.00  0.00     0.074 A 
ATOM     38  C   UNL A   1      38.638  32.687  30.025  1.00  0.00     0.049 A 
ATOM     39  N   UNL A   1      39.466  29.737  29.592  1.00  0.00    -0.248 NA
ATOM     40  C   UNL A   1      37.879  29.577  27.953  1.00  0.00     0.031 C 
ATOM     41  C   UNL A   1      40.045  32.973  30.199  1.00  0.00     0.029 A 
ATOM     42  N   UNL A   1      38.007  33.748  30.692  1.00  0.00    -0.354 N 
ATOM     43  C   UNL A   1      39.859  28.751  28.709  1.00  0.00     0.074 A 
ATOM     44  C   UNL A   1      38.732  28.550  27.837  1.00  0.00     0.031 C 
ATOM     45  C   UNL A   1      40.169  33.922  31.153  1.00  0.00     0.029 A 
ATOM     46  C   UNL A   1      38.840  34.176  31.712  1.00  0.00     0.049 A 
ATOM     47  H   UNL A   1      37.124  34.123  30.472  1.00  0.00     0.167 HD
ATOM     48  C   UNL A   1      41.180  28.414  28.663  1.00  0.00     0.031 A 
ATOM     49  C   UNL A   1      38.435  33.883  32.985  1.00  0.00     0.031 A 
ATOM     50  C   UNL A   1      41.911  29.201  29.657  1.00  0.00     0.049 A 
ATOM     51  C   UNL A   1      39.330  32.805  33.548  1.00  0.00     0.074 A 
ATOM     52  C   UNL A   1      42.608  30.392  29.541  1.00  0.00     0.029 A 
ATOM     53  N   UNL A   1      41.608  29.043  31.002  1.00  0.00    -0.354 N 
ATOM     54  N   UNL A   1      39.844  31.824  32.849  1.00  0.00    -0.248 NA
ATOM     55  C   UNL A   1      39.816  32.847  34.921  1.00  0.00     0.031 C 
ATOM     56  C   UNL A   1      42.613  31.009  30.823  1.00  0.00     0.029 A 
ATOM     57  C   UNL A   1      41.924  30.191  31.705  1.00  0.00     0.049 A 
ATOM     58  H   UNL A   1      41.222  28.229  31.400  1.00  0.00     0.167 HD
ATOM     59  C   UNL A   1      40.807  31.207  33.603  1.00  0.00     0.074 A 
ATOM     60  C   UNL A   1      40.720  31.855  34.903  1.00  0.00     0.031 C 
ATOM     61  C   UNL A   1      41.670  30.259  33.135  1.00  0.00     0.031 A 
BRANCH  48  62
ATOM     62  C   UNL A   1      41.874  27.672  27.544  1.00  0.00    -0.014 A 
ATOM     63  C   UNL A   1      42.178  28.372  26.356  1.00  0.00     0.009 A 
ATOM     64  C   UNL A   1      42.228  26.313  27.558  1.00  0.00     0.009 A 
ATOM     65  C   UNL A   1      42.749  27.747  25.239  1.00  0.00     0.001 A 
ATOM     66  C   UNL A   1      42.793  25.678  26.437  1.00  0.00     0.001 A 
ATOM     67  C   UNL A   1      43.048  26.395  25.276  1.00  0.00     0.000 A 
ENDBRANCH  48  62
BRANCH  49  68
ATOM     68  C   UNL A   1      36.951  34.016  33.225  1.00  0.00    -0.014 A 
ATOM     69  C   UNL A   1      36.299  35.184  32.754  1.00  0.00     0.009 A 
ATOM     70  C   UNL A   1      36.137  32.962  33.662  1.00  0.00     0.009 A 
ATOM     71  C   UNL A   1      34.906  35.251  32.615  1.00  0.00     0.001 A 
ATOM     72  C   UNL A   1      34.734  33.045  33.553  1.00  0.00     0.001 A 
ATOM     73  C   UNL A   1      34.123  34.173  33.002  1.00  0.00     0.000 A 
ENDBRANCH  49  68
BRANCH  61  74
ATOM     74  C   UNL A   1      42.440  29.319  34.021  1.00  0.00    -0.014 A 
ATOM     75  C   UNL A   1      43.689  29.634  34.567  1.00  0.00     0.009 A 
ATOM     76  C   UNL A   1      41.816  28.140  34.486  1.00  0.00     0.009 A 
ATOM     77  C   UNL A   1      44.317  28.781  35.478  1.00  0.00     0.001 A 
ATOM     78  C   UNL A   1      42.405  27.325  35.450  1.00  0.00     0.001 A 
ATOM     79  C   UNL A   1      43.669  27.636  35.929  1.00  0.00     0.000 A 
ENDBRANCH  61  74
ENDBRANCH  35  36
ENDBRANCH  28  30
ENDBRANCH  27  28
ENDBRANCH  26  27
ENDBRANCH   1  26
TORSDOF 14
ENDMDL
MODEL 2
REMARK VINA RESULT:     -12.4      2.871      4.814
REMARK SMILES Cc1cc(C(=O)OCCOC(=O)c2ccc(-c3c4nc(c(-c5ccccc5)c5ccc([nH]5)c(-c5ccccc5)c5nc(c(-c6ccccc6)c6ccc3[nH]6)C=C5)C=C4)cc2)ccc1NS(=O)(=O)c1ccc2c(c1)CCC2
REMARK SMILES IDX 8 1 7 2 5 3 6 4 4 5 1 6 2 7 3 8 63 9 62 10 61 11 64 12 65 14
REMARK SMILES IDX 66 15 67 16 68 17 69 18 73 19 70 20 72 21 71 22 74 23 76 24
REMARK SMILES IDX 75 25 9 26 10 27 11 28 12 29 13 30 14 31 60 32 15 33 59 34
REMARK SMILES IDX 16 35 17 36 18 37 53 38 19 39 58 40 52 41 54 42 20 43 57 44
REMARK SMILES IDX 51 45 50 46 21 48 43 49 28 50 42 51 29 52 32 53 41 54 55 55
REMARK SMILES IDX 30 56 31 57 40 59 56 60 33 61 22 62 23 63 27 64 24 65 26 66
REMARK SMILES IDX 25 67 44 68 45 69 49 70 46 71 48 72 47 73 34 74 35 75 39 76
REMARK SMILES IDX 36 77 38 78 37 79
REMARK H PARENT 64 13 54 47 32 58
REMARK Flexibility Score: inf
ROOT
ATOM      1  C   UNL A   1      33.467  29.984  26.574  1.00  0.00     0.275 C 
ENDROOT
BRANCH   1   2
ATOM      2  O   UNL A   1      32.162  29.899  27.184  1.00  0.00    -0.458 OA
BRANCH   2   3
ATOM      3  C   UNL A   1      31.610  28.666  26.980  1.00  0.00     0.338 C 
ATOM      4  O   UNL A   1      31.479  27.827  27.868  1.00  0.00    -0.246 OA
BRANCH   3   5
ATOM      5  C   UNL A   1      31.176  28.333  25.589  1.00  0.00     0.060 A 
ATOM      6  C   UNL A   1      30.289  29.609  22.127  1.00  0.00     0.046 C 
ATOM      7  C   UNL A   1      30.851  28.705  23.198  1.00  0.00    -0.026 A 
ATOM      8  C   UNL A   1      31.028  29.216  24.513  1.00  0.00     0.021 A 
ATOM      9  C   UNL A   1      30.956  27.316  22.992  1.00  0.00     0.052 A 
ATOM     10  C   UNL A   1      30.800  26.466  24.072  1.00  0.00     0.028 A 
ATOM     11  C   UNL A   1      30.911  26.974  25.361  1.00  0.00     0.018 A 
BRANCH   9  12
ATOM     12  N   UNL A   1      31.325  26.705  21.743  1.00  0.00    -0.279 N 
ATOM     13  H   UNL A   1      30.670  26.644  21.011  1.00  0.00     0.180 HD
BRANCH  12  14
ATOM     14  S   UNL A   1      32.935  26.075  21.534  1.00  0.00     0.261 S 
ATOM     15  O   UNL A   1      32.932  25.522  20.193  1.00  0.00    -0.201 OA
ATOM     16  O   UNL A   1      33.842  27.152  21.871  1.00  0.00    -0.201 OA
BRANCH  14  17
ATOM     17  C   UNL A   1      33.292  24.723  22.653  1.00  0.00     0.088 A 
ATOM     18  C   UNL A   1      32.625  23.495  22.531  1.00  0.00     0.022 A 
ATOM     19  C   UNL A   1      34.212  24.899  23.698  1.00  0.00     0.026 A 
ATOM     20  C   UNL A   1      33.110  22.355  23.183  1.00  0.00     0.005 A 
ATOM     21  C   UNL A   1      34.585  23.785  24.437  1.00  0.00    -0.043 A 
ATOM     22  C   UNL A   1      34.142  22.508  24.086  1.00  0.00    -0.045 A 
ATOM     23  C   UNL A   1      35.417  23.697  25.680  1.00  0.00     0.036 C 
ATOM     24  C   UNL A   1      34.899  21.449  24.832  1.00  0.00     0.036 C 
ATOM     25  C   UNL A   1      35.989  22.284  25.530  1.00  0.00     0.010 C 
ENDBRANCH  14  17
ENDBRANCH  12  14
ENDBRANCH   9  12
ENDBRANCH   3   5
ENDBRANCH   2   3
ENDBRANCH   1   2
BRANCH   1  26
ATOM     26  C   UNL A   1      34.681  29.668  27.468  1.00  0.00     0.275 C 
BRANCH  26  27
ATOM     27  O   UNL A   1      35.965  30.311  27.258  1.00  0.00    -0.458 OA
BRANCH  27  28
ATOM     28  C   UNL A   1      36.883  30.640  28.190  1.00  0.00     0.338 C 
ATOM     29  O   UNL A   1      36.809  31.678  28.846  1.00  0.00    -0.246 OA
BRANCH  28  30
ATOM     30  C   UNL A   1      37.988  29.698  28.395  1.00  0.00     0.060 A 
ATOM     31  C   UNL A   1      37.864  28.728  29.403  1.00  0.00     0.016 A 
ATOM     32  C   UNL A   1      39.070  29.703  27.517  1.00  0.00     0.016 A 
ATOM     33  C   UNL A   1      38.807  27.720  29.506  1.00  0.00     0.010 A 
ATOM     34  C   UNL A   1      39.907  28.621  27.505  1.00  0.00     0.010 A 
ATOM     35  C   UNL A   1      39.817  27.688  28.549  1.00  0.00    -0.014 A 
BRANCH  35  36
ATOM     36  C   UNL A   1      41.082  27.023  28.789  1.00  0.00     0.031 A 
ATOM     37  C   UNL A   1      41.286  25.632  28.383  1.00  0.00     0.074 A 
ATOM     38  C   UNL A   1      41.985  27.910  29.264  1.00  0.00     0.049 A 
ATOM     39  N   UNL A   1      42.131  24.837  28.934  1.00  0.00    -0.248 NA
ATOM     40  C   UNL A   1      40.486  24.972  27.352  1.00  0.00     0.031 C 
ATOM     41  C   UNL A   1      43.426  27.886  29.384  1.00  0.00     0.029 A 
ATOM     42  N   UNL A   1      41.628  29.107  29.903  1.00  0.00    -0.354 N 
ATOM     43  C   UNL A   1      42.265  23.758  28.083  1.00  0.00     0.074 A 
ATOM     44  C   UNL A   1      41.089  23.779  27.254  1.00  0.00     0.031 C 
ATOM     45  C   UNL A   1      43.791  28.818  30.292  1.00  0.00     0.029 A 
ATOM     46  C   UNL A   1      42.572  29.378  30.879  1.00  0.00     0.049 A 
ATOM     47  H   UNL A   1      40.840  29.659  29.695  1.00  0.00     0.167 HD
ATOM     48  C   UNL A   1      43.478  23.138  28.012  1.00  0.00     0.031 A 
ATOM     49  C   UNL A   1      42.162  29.226  32.175  1.00  0.00     0.031 A 
ATOM     50  C   UNL A   1      44.401  23.780  28.949  1.00  0.00     0.049 A 
ATOM     51  C   UNL A   1      42.822  27.998  32.757  1.00  0.00     0.074 A 
ATOM     52  C   UNL A   1      45.336  24.783  28.761  1.00  0.00     0.029 A 
ATOM     53  N   UNL A   1      44.123  23.739  30.308  1.00  0.00    -0.354 N 
ATOM     54  N   UNL A   1      43.082  26.904  32.086  1.00  0.00    -0.248 NA
ATOM     55  C   UNL A   1      43.358  27.981  34.112  1.00  0.00     0.031 C 
ATOM     56  C   UNL A   1      45.525  25.429  30.015  1.00  0.00     0.029 A 
ATOM     57  C   UNL A   1      44.709  24.814  30.951  1.00  0.00     0.049 A 
ATOM     58  H   UNL A   1      43.584  23.045  30.752  1.00  0.00     0.167 HD
ATOM     59  C   UNL A   1      43.914  26.118  32.836  1.00  0.00     0.074 A 
ATOM     60  C   UNL A   1      44.022  26.814  34.110  1.00  0.00     0.031 C 
ATOM     61  C   UNL A   1      44.531  24.987  32.384  1.00  0.00     0.031 A 
BRANCH  48  62
ATOM     62  C   UNL A   1      43.949  22.222  26.906  1.00  0.00    -0.014 A 
ATOM     63  C   UNL A   1      45.166  22.520  26.255  1.00  0.00     0.009 A 
ATOM     64  C   UNL A   1      43.263  21.092  26.429  1.00  0.00     0.009 A 
ATOM     65  C   UNL A   1      45.641  21.773  25.168  1.00  0.00     0.001 A 
ATOM     66  C   UNL A   1      43.730  20.344  25.333  1.00  0.00     0.001 A 
ATOM     67  C   UNL A   1      44.917  20.688  24.700  1.00  0.00     0.000 A 
ENDBRANCH  48  62
BRANCH  49  68
ATOM     68  C   UNL A   1      40.754  29.691  32.453  1.00  0.00    -0.014 A 
ATOM     69  C   UNL A   1      40.359  30.961  31.963  1.00  0.00     0.009 A 
ATOM     70  C   UNL A   1      39.744  28.854  32.947  1.00  0.00     0.009 A 
ATOM     71  C   UNL A   1      39.012  31.332  31.863  1.00  0.00     0.001 A 
ATOM     72  C   UNL A   1      38.390  29.243  32.876  1.00  0.00     0.001 A 
ATOM     73  C   UNL A   1      38.025  30.464  32.307  1.00  0.00     0.000 A 
ENDBRANCH  49  68
BRANCH  61  74
ATOM     74  C   UNL A   1      45.111  23.932  33.286  1.00  0.00    -0.014 A 
ATOM     75  C   UNL A   1      46.398  24.013  33.827  1.00  0.00     0.009 A 
ATOM     76  C   UNL A   1      44.275  22.902  33.772  1.00  0.00     0.009 A 
ATOM     77  C   UNL A   1      46.855  23.072  34.753  1.00  0.00     0.001 A 
ATOM     78  C   UNL A   1      44.702  22.006  34.749  1.00  0.00     0.001 A 
ATOM     79  C   UNL A   1      46.003  22.079  35.223  1.00  0.00     0.000 A 
ENDBRANCH  61  74
ENDBRANCH  35  36
ENDBRANCH  28  30
ENDBRANCH  27  28
ENDBRANCH  26  27
ENDBRANCH   1  26
TORSDOF 14
ENDMDL
MODEL 3
REMARK VINA RESULT:     -12.3      2.350      4.159
REMARK SMILES Cc1cc(C(=O)OCCOC(=O)c2ccc(-c3c4nc(c(-c5ccccc5)c5ccc([nH]5)c(-c5ccccc5)c5nc(c(-c6ccccc6)c6ccc3[nH]6)C=C5)C=C4)cc2)ccc1NS(=O)(=O)c1ccc2c(c1)CCC2
REMARK SMILES IDX 8 1 7 2 5 3 6 4 4 5 1 6 2 7 3 8 63 9 62 10 61 11 64 12 65 14
REMARK SMILES IDX 66 15 67 16 68 17 69 18 73 19 70 20 72 21 71 22 74 23 76 24
REMARK SMILES IDX 75 25 9 26 10 27 11 28 12 29 13 30 14 31 60 32 15 33 59 34
REMARK SMILES IDX 16 35 17 36 18 37 53 38 19 39 58 40 52 41 54 42 20 43 57 44
REMARK SMILES IDX 51 45 50 46 21 48 43 49 28 50 42 51 29 52 32 53 41 54 55 55
REMARK SMILES IDX 30 56 31 57 40 59 56 60 33 61 22 62 23 63 27 64 24 65 26 66
REMARK SMILES IDX 25 67 44 68 45 69 49 70 46 71 48 72 47 73 34 74 35 75 39 76
REMARK SMILES IDX 36 77 38 78 37 79
REMARK H PARENT 64 13 54 47 32 58
REMARK Flexibility Score: inf
ROOT
ATOM      1  C   UNL A   1      32.857  35.953  30.186  1.00  0.00     0.275 C 
ENDROOT
BRANCH   1   2
ATOM      2  O   UNL A   1      32.700  34.648  29.590  1.00  0.00    -0.458 OA
BRANCH   2   3
ATOM      3  C   UNL A   1      33.732  34.376  28.737  1.00  0.00     0.338 C 
ATOM      4  O   UNL A   1      34.638  35.170  28.495  1.00  0.00    -0.246 OA
BRANCH   3   5
ATOM      5  C   UNL A   1      33.723  33.047  28.053  1.00  0.00     0.060 A 
ATOM      6  C   UNL A   1      35.547  29.790  27.372  1.00  0.00     0.046 C 
ATOM      7  C   UNL A   1      34.403  30.739  27.639  1.00  0.00    -0.026 A 
ATOM      8  C   UNL A   1      34.684  32.035  28.153  1.00  0.00     0.021 A 
ATOM      9  C   UNL A   1      33.110  30.469  27.155  1.00  0.00     0.052 A 
ATOM     10  C   UNL A   1      32.297  31.528  26.793  1.00  0.00     0.028 A 
ATOM     11  C   UNL A   1      32.603  32.807  27.242  1.00  0.00     0.018 A 
BRANCH   9  12
ATOM     12  N   UNL A   1      32.517  29.160  27.106  1.00  0.00    -0.279 N 
ATOM     13  H   UNL A   1      32.185  28.736  27.930  1.00  0.00     0.180 HD
BRANCH  12  14
ATOM     14  S   UNL A   1      32.389  28.328  25.580  1.00  0.00     0.261 S 
ATOM     15  O   UNL A   1      30.970  28.353  25.277  1.00  0.00    -0.201 OA
ATOM     16  O   UNL A   1      33.331  28.967  24.686  1.00  0.00    -0.201 OA
BRANCH  14  17
ATOM     17  C   UNL A   1      32.866  26.605  25.697  1.00  0.00     0.088 A 
ATOM     18  C   UNL A   1      34.069  26.154  25.136  1.00  0.00     0.022 A 
ATOM     19  C   UNL A   1      32.009  25.680  26.314  1.00  0.00     0.026 A 
ATOM     20  C   UNL A   1      34.592  24.903  25.488  1.00  0.00     0.005 A 
ATOM     21  C   UNL A   1      32.485  24.394  26.534  1.00  0.00    -0.043 A 
ATOM     22  C   UNL A   1      33.811  24.059  26.249  1.00  0.00    -0.045 A 
ATOM     23  C   UNL A   1      31.761  23.179  27.026  1.00  0.00     0.036 C 
ATOM     24  C   UNL A   1      34.169  22.726  26.836  1.00  0.00     0.036 C 
ATOM     25  C   UNL A   1      32.917  22.413  27.677  1.00  0.00     0.010 C 
ENDBRANCH  14  17
ENDBRANCH  12  14
ENDBRANCH   9  12
ENDBRANCH   3   5
ENDBRANCH   2   3
ENDBRANCH   1   2
BRANCH   1  26
ATOM     26  C   UNL A   1      32.973  36.012  31.721  1.00  0.00     0.275 C 
BRANCH  26  27
ATOM     27  O   UNL A   1      34.036  35.323  32.429  1.00  0.00    -0.458 OA
BRANCH  27  28
ATOM     28  C   UNL A   1      34.128  34.003  32.693  1.00  0.00     0.338 C 
ATOM     29  O   UNL A   1      33.169  33.346  33.093  1.00  0.00    -0.246 OA
BRANCH  28  30
ATOM     30  C   UNL A   1      35.436  33.374  32.481  1.00  0.00     0.060 A 
ATOM     31  C   UNL A   1      36.262  33.872  31.461  1.00  0.00     0.016 A 
ATOM     32  C   UNL A   1      35.879  32.392  33.364  1.00  0.00     0.016 A 
ATOM     33  C   UNL A   1      37.565  33.419  31.349  1.00  0.00     0.010 A 
ATOM     34  C   UNL A   1      37.209  32.067  33.366  1.00  0.00     0.010 A 
ATOM     35  C   UNL A   1      38.015  32.518  32.311  1.00  0.00    -0.014 A 
BRANCH  35  36
ATOM     36  C   UNL A   1      39.133  31.630  32.067  1.00  0.00     0.031 A 
ATOM     37  C   UNL A   1      38.964  30.409  31.279  1.00  0.00     0.074 A 
ATOM     38  C   UNL A   1      40.274  32.190  32.530  1.00  0.00     0.049 A 
ATOM     39  N   UNL A   1      39.709  29.369  31.391  1.00  0.00    -0.248 NA
ATOM     40  C   UNL A   1      37.868  30.213  30.329  1.00  0.00     0.031 C 
ATOM     41  C   UNL A   1      41.675  31.917  32.298  1.00  0.00     0.029 A 
ATOM     42  N   UNL A   1      40.299  33.182  33.522  1.00  0.00    -0.354 N 
ATOM     43  C   UNL A   1      39.456  28.586  30.283  1.00  0.00     0.074 A 
ATOM     44  C   UNL A   1      38.179  29.028  29.788  1.00  0.00     0.031 C 
ATOM     45  C   UNL A   1      42.387  32.470  33.304  1.00  0.00     0.029 A 
ATOM     46  C   UNL A   1      41.441  33.006  34.285  1.00  0.00     0.049 A 
ATOM     47  H   UNL A   1      39.620  33.882  33.654  1.00  0.00     0.167 HD
ATOM     48  C   UNL A   1      40.478  27.840  29.772  1.00  0.00     0.031 A 
ATOM     49  C   UNL A   1      41.252  32.538  35.556  1.00  0.00     0.031 A 
ATOM     50  C   UNL A   1      41.670  28.029  30.600  1.00  0.00     0.049 A 
ATOM     51  C   UNL A   1      41.734  31.108  35.629  1.00  0.00     0.074 A 
ATOM     52  C   UNL A   1      42.745  28.891  30.464  1.00  0.00     0.029 A 
ATOM     53  N   UNL A   1      41.643  27.628  31.928  1.00  0.00    -0.354 N 
ATOM     54  N   UNL A   1      41.632  30.238  34.657  1.00  0.00    -0.248 NA
ATOM     55  C   UNL A   1      42.493  30.609  36.768  1.00  0.00     0.031 C 
ATOM     56  C   UNL A   1      43.291  29.098  31.761  1.00  0.00     0.029 A 
ATOM     57  C   UNL A   1      42.549  28.362  32.670  1.00  0.00     0.049 A 
ATOM     58  H   UNL A   1      41.060  26.921  32.290  1.00  0.00     0.167 HD
ATOM     59  C   UNL A   1      42.403  29.148  34.961  1.00  0.00     0.074 A 
ATOM     60  C   UNL A   1      42.885  29.410  36.309  1.00  0.00     0.031 C 
ATOM     61  C   UNL A   1      42.676  28.125  34.100  1.00  0.00     0.031 A 
BRANCH  48  62
ATOM     62  C   UNL A   1      40.536  27.236  28.388  1.00  0.00    -0.014 A 
ATOM     63  C   UNL A   1      39.953  25.968  28.178  1.00  0.00     0.009 A 
ATOM     64  C   UNL A   1      41.156  27.815  27.267  1.00  0.00     0.009 A 
ATOM     65  C   UNL A   1      40.027  25.298  26.949  1.00  0.00     0.001 A 
ATOM     66  C   UNL A   1      41.242  27.144  26.033  1.00  0.00     0.001 A 
ATOM     67  C   UNL A   1      40.682  25.883  25.877  1.00  0.00     0.000 A 
ENDBRANCH  48  62
BRANCH  49  68
ATOM     68  C   UNL A   1      40.047  33.104  36.267  1.00  0.00    -0.014 A 
ATOM     69  C   UNL A   1      38.973  32.228  36.564  1.00  0.00     0.009 A 
ATOM     70  C   UNL A   1      40.024  34.371  36.867  1.00  0.00     0.009 A 
ATOM     71  C   UNL A   1      37.986  32.556  37.503  1.00  0.00     0.001 A 
ATOM     72  C   UNL A   1      39.011  34.711  37.787  1.00  0.00     0.001 A 
ATOM     73  C   UNL A   1      38.014  33.795  38.127  1.00  0.00     0.000 A 
ENDBRANCH  49  68
BRANCH  61  74
ATOM     74  C   UNL A   1      43.176  26.775  34.536  1.00  0.00    -0.014 A 
ATOM     75  C   UNL A   1      42.378  25.848  35.215  1.00  0.00     0.009 A 
ATOM     76  C   UNL A   1      44.441  26.330  34.092  1.00  0.00     0.009 A 
ATOM     77  C   UNL A   1      42.845  24.563  35.500  1.00  0.00     0.001 A 
ATOM     78  C   UNL A   1      44.881  25.026  34.309  1.00  0.00     0.001 A 
ATOM     79  C   UNL A   1      44.089  24.148  35.035  1.00  0.00     0.000 A 
ENDBRANCH  61  74
ENDBRANCH  35  36
ENDBRANCH  28  30
ENDBRANCH  27  28
ENDBRANCH  26  27
ENDBRANCH   1  26
TORSDOF 14
ENDMDL
