MODEL 1
REMARK VINA RESULT:     -11.4      0.000      0.000
REMARK SMILES O=C(COc1ccccc1/C=C1/SC(=S)N(c2ccc(F)c(Cl)c2)C1=O)OCCOC(=O)c1ccc(-c2c3nc(c(-c4ccccc4)c4ccc([nH]4)c(-c4ccccc4)c4nc(c(-c5ccccc5)c5ccc2[nH]5)C=C4)C=C3)cc1
REMARK SMILES IDX 28 1 27 2 2 3 1 4 3 5 4 6 5 7 6 8 10 9 7 10 9 11 8 12 11 13
REMARK SMILES IDX 12 14 13 15 25 16 14 17 16 18 26 19 15 20 17 21 18 22 24 23
REMARK SMILES IDX 19 24 22 25 20 26 23 27 21 28 29 29 30 30 31 31 32 32 33 33
REMARK SMILES IDX 34 34 80 35 35 36 79 37 36 38 37 39 38 40 73 41 39 42 78 43
REMARK SMILES IDX 72 44 74 45 40 46 77 47 71 48 70 49 41 51 63 52 48 53 62 54
REMARK SMILES IDX 49 55 52 56 61 57 75 58 50 59 51 60 60 62 76 63 53 64 42 65
REMARK SMILES IDX 43 66 47 67 44 68 46 69 45 70 64 71 65 72 69 73 66 74 68 75
REMARK SMILES IDX 67 76 54 77 55 78 59 79 56 80 58 81 57 82
REMARK H PARENT 74 50 52 61
REMARK Flexibility Score: inf
ROOT
ATOM      1  C   UNL A   1      37.136  20.716  24.832  1.00  0.00     0.274 C 
ENDROOT
BRANCH   1   2
ATOM      2  O   UNL A   1      37.469  21.984  24.229  1.00  0.00    -0.460 OA
BRANCH   2   3
ATOM      3  C   UNL A   1      36.591  22.802  23.598  1.00  0.00     0.344 C 
ATOM      4  O   UNL A   1      36.641  22.941  22.377  1.00  0.00    -0.248 OA
BRANCH   3   5
ATOM      5  C   UNL A   1      35.523  23.489  24.424  1.00  0.00     0.352 C 
BRANCH   5   6
ATOM      6  O   UNL A   1      34.258  22.847  24.280  1.00  0.00    -0.481 OA
BRANCH   6   7
ATOM      7  C   UNL A   1      33.618  22.758  25.495  1.00  0.00     0.127 A 
ATOM      8  C   UNL A   1      34.200  21.936  26.465  1.00  0.00     0.047 A 
ATOM      9  C   UNL A   1      32.404  23.424  25.743  1.00  0.00     0.018 A 
ATOM     10  C   UNL A   1      33.608  21.824  27.720  1.00  0.00     0.004 A 
ATOM     11  C   UNL A   1      31.840  23.322  27.021  1.00  0.00     0.012 A 
ATOM     12  C   UNL A   1      32.439  22.528  28.003  1.00  0.00     0.001 A 
BRANCH   9  13
ATOM     13  C   UNL A   1      31.717  24.264  24.747  1.00  0.00     0.033 C 
ATOM     14  C   UNL A   1      31.856  25.590  24.597  1.00  0.00     0.081 C 
ATOM     15  S   UNL A   1      30.854  26.529  23.562  1.00  0.00    -0.054 SA
ATOM     16  C   UNL A   1      32.771  26.489  25.353  1.00  0.00     0.270 C 
ATOM     17  C   UNL A   1      31.312  28.045  24.345  1.00  0.00     0.152 C 
ATOM     18  N   UNL A   1      32.318  27.810  25.275  1.00  0.00    -0.261 N 
ATOM     19  O   UNL A   1      33.757  26.079  25.951  1.00  0.00    -0.268 OA
ATOM     20  S   UNL A   1      30.609  29.486  23.866  1.00  0.00    -0.051 S 
BRANCH  18  21
ATOM     21  C   UNL A   1      32.888  28.793  26.157  1.00  0.00     0.052 A 
ATOM     22  C   UNL A   1      32.147  29.929  26.526  1.00  0.00     0.030 A 
ATOM     23  C   UNL A   1      34.229  28.724  26.571  1.00  0.00     0.050 A 
ATOM     24  C   UNL A   1      32.727  30.972  27.251  1.00  0.00     0.043 A 
ATOM     25  C   UNL A   1      34.819  29.783  27.270  1.00  0.00     0.078 A 
ATOM     26  C   UNL A   1      34.066  30.903  27.606  1.00  0.00     0.141 A 
ATOM     27  Cl  UNL A   1      36.496  29.708  27.652  1.00  0.00    -0.081 Cl
ATOM     28  F   UNL A   1      34.618  31.935  28.257  1.00  0.00    -0.205 F 
ENDBRANCH  18  21
ENDBRANCH   9  13
ENDBRANCH   6   7
ENDBRANCH   5   6
ENDBRANCH   3   5
ENDBRANCH   2   3
ENDBRANCH   1   2
BRANCH   1  29
ATOM     29  C   UNL A   1      38.390  20.011  25.340  1.00  0.00     0.275 C 
BRANCH  29  30
ATOM     30  O   UNL A   1      39.440  20.979  25.420  1.00  0.00    -0.458 OA
BRANCH  30  31
ATOM     31  C   UNL A   1      40.225  20.875  26.522  1.00  0.00     0.338 C 
ATOM     32  O   UNL A   1      40.811  19.893  26.923  1.00  0.00    -0.246 OA
BRANCH  31  33
ATOM     33  C   UNL A   1      40.439  22.245  27.026  1.00  0.00     0.060 A 
ATOM     34  C   UNL A   1      39.621  23.267  26.528  1.00  0.00     0.016 A 
ATOM     35  C   UNL A   1      41.402  22.508  28.004  1.00  0.00     0.016 A 
ATOM     36  C   UNL A   1      39.802  24.573  26.973  1.00  0.00     0.010 A 
ATOM     37  C   UNL A   1      41.590  23.813  28.443  1.00  0.00     0.010 A 
ATOM     38  C   UNL A   1      40.823  24.851  27.889  1.00  0.00    -0.014 A 
BRANCH  38  39
ATOM     39  C   UNL A   1      41.294  26.238  28.053  1.00  0.00     0.031 A 
ATOM     40  C   UNL A   1      42.619  26.590  27.440  1.00  0.00     0.074 A 
ATOM     41  C   UNL A   1      40.576  27.139  28.740  1.00  0.00     0.049 A 
ATOM     42  N   UNL A   1      43.274  27.719  27.468  1.00  0.00    -0.248 NA
ATOM     43  C   UNL A   1      43.303  25.513  26.700  1.00  0.00     0.031 C 
ATOM     44  C   UNL A   1      39.269  26.901  29.351  1.00  0.00     0.029 A 
ATOM     45  N   UNL A   1      40.862  28.443  29.044  1.00  0.00    -0.354 N 
ATOM     46  C   UNL A   1      44.443  27.486  26.755  1.00  0.00     0.074 A 
ATOM     47  C   UNL A   1      44.431  26.104  26.342  1.00  0.00     0.031 C 
ATOM     48  C   UNL A   1      38.865  28.029  29.963  1.00  0.00     0.029 A 
ATOM     49  C   UNL A   1      39.896  29.052  29.804  1.00  0.00     0.049 A 
ATOM     50  H   UNL A   1      41.682  28.900  28.746  1.00  0.00     0.167 HD
ATOM     51  C   UNL A   1      45.438  28.354  26.463  1.00  0.00     0.031 A 
ATOM     52  C   UNL A   1      39.865  30.297  30.315  1.00  0.00     0.031 A 
ATOM     53  C   UNL A   1      45.455  29.719  26.906  1.00  0.00     0.049 A 
ATOM     54  C   UNL A   1      41.017  31.226  30.034  1.00  0.00     0.074 A 
ATOM     55  C   UNL A   1      46.404  30.695  26.668  1.00  0.00     0.029 A 
ATOM     56  N   UNL A   1      44.470  30.295  27.695  1.00  0.00    -0.354 N 
ATOM     57  N   UNL A   1      42.099  31.012  29.322  1.00  0.00    -0.248 NA
ATOM     58  C   UNL A   1      40.936  32.571  30.618  1.00  0.00     0.031 C 
ATOM     59  C   UNL A   1      46.017  31.850  27.358  1.00  0.00     0.029 A 
ATOM     60  C   UNL A   1      44.797  31.608  27.974  1.00  0.00     0.049 A 
ATOM     61  H   UNL A   1      43.657  29.836  28.009  1.00  0.00     0.167 HD
ATOM     62  C   UNL A   1      42.809  32.206  29.343  1.00  0.00     0.074 A 
ATOM     63  C   UNL A   1      42.029  33.141  30.130  1.00  0.00     0.031 C 
ATOM     64  C   UNL A   1      43.996  32.510  28.761  1.00  0.00     0.031 A 
BRANCH  51  65
ATOM     65  C   UNL A   1      46.595  27.823  25.664  1.00  0.00    -0.014 A 
ATOM     66  C   UNL A   1      47.717  27.260  26.294  1.00  0.00     0.009 A 
ATOM     67  C   UNL A   1      46.570  27.904  24.264  1.00  0.00     0.009 A 
ATOM     68  C   UNL A   1      48.810  26.830  25.538  1.00  0.00     0.001 A 
ATOM     69  C   UNL A   1      47.652  27.446  23.511  1.00  0.00     0.001 A 
ATOM     70  C   UNL A   1      48.776  26.921  24.147  1.00  0.00     0.000 A 
ENDBRANCH  51  65
BRANCH  52  71
ATOM     71  C   UNL A   1      38.705  30.745  31.127  1.00  0.00    -0.014 A 
ATOM     72  C   UNL A   1      38.626  30.428  32.492  1.00  0.00     0.009 A 
ATOM     73  C   UNL A   1      37.661  31.479  30.540  1.00  0.00     0.009 A 
ATOM     74  C   UNL A   1      37.515  30.812  33.246  1.00  0.00     0.001 A 
ATOM     75  C   UNL A   1      36.564  31.884  31.304  1.00  0.00     0.001 A 
ATOM     76  C   UNL A   1      36.487  31.543  32.653  1.00  0.00     0.000 A 
ENDBRANCH  52  71
BRANCH  64  77
ATOM     77  C   UNL A   1      44.495  33.918  28.921  1.00  0.00    -0.014 A 
ATOM     78  C   UNL A   1      44.102  34.936  28.040  1.00  0.00     0.009 A 
ATOM     79  C   UNL A   1      45.338  34.233  29.998  1.00  0.00     0.009 A 
ATOM     80  C   UNL A   1      44.574  36.239  28.216  1.00  0.00     0.001 A 
ATOM     81  C   UNL A   1      45.785  35.541  30.188  1.00  0.00     0.001 A 
ATOM     82  C   UNL A   1      45.410  36.540  29.292  1.00  0.00     0.000 A 
ENDBRANCH  64  77
ENDBRANCH  38  39
ENDBRANCH  31  33
ENDBRANCH  30  31
ENDBRANCH  29  30
ENDBRANCH   1  29
TORSDOF 15
ENDMDL
MODEL 2
REMARK VINA RESULT:     -11.2      5.861     10.988
REMARK SMILES O=C(COc1ccccc1/C=C1/SC(=S)N(c2ccc(F)c(Cl)c2)C1=O)OCCOC(=O)c1ccc(-c2c3nc(c(-c4ccccc4)c4ccc([nH]4)c(-c4ccccc4)c4nc(c(-c5ccccc5)c5ccc2[nH]5)C=C4)C=C3)cc1
REMARK SMILES IDX 28 1 27 2 2 3 1 4 3 5 4 6 5 7 6 8 10 9 7 10 9 11 8 12 11 13
REMARK SMILES IDX 12 14 13 15 25 16 14 17 16 18 26 19 15 20 17 21 18 22 24 23
REMARK SMILES IDX 19 24 22 25 20 26 23 27 21 28 29 29 30 30 31 31 32 32 33 33
REMARK SMILES IDX 34 34 80 35 35 36 79 37 36 38 37 39 38 40 73 41 39 42 78 43
REMARK SMILES IDX 72 44 74 45 40 46 77 47 71 48 70 49 41 51 63 52 48 53 62 54
REMARK SMILES IDX 49 55 52 56 61 57 75 58 50 59 51 60 60 62 76 63 53 64 42 65
REMARK SMILES IDX 43 66 47 67 44 68 46 69 45 70 64 71 65 72 69 73 66 74 68 75
REMARK SMILES IDX 67 76 54 77 55 78 59 79 56 80 58 81 57 82
REMARK H PARENT 74 50 52 61
REMARK Flexibility Score: inf
ROOT
ATOM      1  C   UNL A   1      34.336  33.991  30.922  1.00  0.00     0.274 C 
ENDROOT
BRANCH   1   2
ATOM      2  O   UNL A   1      34.192  32.979  31.941  1.00  0.00    -0.460 OA
BRANCH   2   3
ATOM      3  C   UNL A   1      35.028  32.809  32.995  1.00  0.00     0.344 C 
ATOM      4  O   UNL A   1      34.768  33.324  34.081  1.00  0.00    -0.248 OA
BRANCH   3   5
ATOM      5  C   UNL A   1      36.251  31.933  32.812  1.00  0.00     0.352 C 
BRANCH   5   6
ATOM      6  O   UNL A   1      37.216  32.164  33.837  1.00  0.00    -0.481 OA
BRANCH   6   7
ATOM      7  C   UNL A   1      38.281  31.305  33.701  1.00  0.00     0.127 A 
ATOM      8  C   UNL A   1      37.995  29.980  33.362  1.00  0.00     0.047 A 
ATOM      9  C   UNL A   1      39.604  31.721  33.940  1.00  0.00     0.018 A 
ATOM     10  C   UNL A   1      39.035  29.070  33.190  1.00  0.00     0.004 A 
ATOM     11  C   UNL A   1      40.638  30.800  33.734  1.00  0.00     0.012 A 
ATOM     12  C   UNL A   1      40.355  29.483  33.361  1.00  0.00     0.001 A 
BRANCH   9  13
ATOM     13  C   UNL A   1      39.966  33.090  34.347  1.00  0.00     0.033 C 
ATOM     14  C   UNL A   1      39.998  33.563  35.601  1.00  0.00     0.081 C 
ATOM     15  S   UNL A   1      40.211  35.229  35.974  1.00  0.00    -0.054 SA
ATOM     16  C   UNL A   1      39.738  32.803  36.855  1.00  0.00     0.270 C 
ATOM     17  C   UNL A   1      39.609  35.031  37.622  1.00  0.00     0.152 C 
ATOM     18  N   UNL A   1      39.396  33.682  37.887  1.00  0.00    -0.261 N 
ATOM     19  O   UNL A   1      39.815  31.583  36.917  1.00  0.00    -0.268 OA
ATOM     20  S   UNL A   1      39.453  36.359  38.628  1.00  0.00    -0.051 S 
BRANCH  18  21
ATOM     21  C   UNL A   1      38.837  33.146  39.099  1.00  0.00     0.052 A 
ATOM     22  C   UNL A   1      39.657  32.919  40.218  1.00  0.00     0.030 A 
ATOM     23  C   UNL A   1      37.501  32.715  39.168  1.00  0.00     0.050 A 
ATOM     24  C   UNL A   1      39.176  32.258  41.351  1.00  0.00     0.043 A 
ATOM     25  C   UNL A   1      37.028  32.025  40.290  1.00  0.00     0.078 A 
ATOM     26  C   UNL A   1      37.867  31.798  41.375  1.00  0.00     0.141 A 
ATOM     27  Cl  UNL A   1      35.419  31.410  40.282  1.00  0.00    -0.081 Cl
ATOM     28  F   UNL A   1      37.438  31.122  42.449  1.00  0.00    -0.205 F 
ENDBRANCH  18  21
ENDBRANCH   9  13
ENDBRANCH   6   7
ENDBRANCH   5   6
ENDBRANCH   3   5
ENDBRANCH   2   3
ENDBRANCH   1   2
BRANCH   1  29
ATOM     29  C   UNL A   1      34.426  33.358  29.537  1.00  0.00     0.275 C 
BRANCH  29  30
ATOM     30  O   UNL A   1      34.729  31.970  29.704  1.00  0.00    -0.458 OA
BRANCH  30  31
ATOM     31  C   UNL A   1      34.796  31.260  28.550  1.00  0.00     0.338 C 
ATOM     32  O   UNL A   1      34.098  31.380  27.566  1.00  0.00    -0.246 OA
BRANCH  31  33
ATOM     33  C   UNL A   1      36.039  30.468  28.606  1.00  0.00     0.060 A 
ATOM     34  C   UNL A   1      36.331  29.779  29.789  1.00  0.00     0.016 A 
ATOM     35  C   UNL A   1      36.881  30.373  27.493  1.00  0.00     0.016 A 
ATOM     36  C   UNL A   1      37.500  29.031  29.881  1.00  0.00     0.010 A 
ATOM     37  C   UNL A   1      38.053  29.633  27.586  1.00  0.00     0.010 A 
ATOM     38  C   UNL A   1      38.385  29.005  28.797  1.00  0.00    -0.014 A 
BRANCH  38  39
ATOM     39  C   UNL A   1      39.780  28.578  29.009  1.00  0.00     0.031 A 
ATOM     40  C   UNL A   1      40.720  29.581  29.615  1.00  0.00     0.074 A 
ATOM     41  C   UNL A   1      40.195  27.354  28.654  1.00  0.00     0.049 A 
ATOM     42  N   UNL A   1      41.995  29.476  29.872  1.00  0.00    -0.248 NA
ATOM     43  C   UNL A   1      40.137  30.889  29.972  1.00  0.00     0.031 C 
ATOM     44  C   UNL A   1      39.355  26.302  28.081  1.00  0.00     0.029 A 
ATOM     45  N   UNL A   1      41.443  26.794  28.720  1.00  0.00    -0.354 N 
ATOM     46  C   UNL A   1      42.366  30.700  30.415  1.00  0.00     0.074 A 
ATOM     47  C   UNL A   1      41.197  31.546  30.415  1.00  0.00     0.031 C 
ATOM     48  C   UNL A   1      40.118  25.219  27.845  1.00  0.00     0.029 A 
ATOM     49  C   UNL A   1      41.497  25.515  28.227  1.00  0.00     0.049 A 
ATOM     50  H   UNL A   1      42.226  27.265  29.086  1.00  0.00     0.167 HD
ATOM     51  C   UNL A   1      43.576  31.082  30.883  1.00  0.00     0.031 A 
ATOM     52  C   UNL A   1      42.551  24.690  28.097  1.00  0.00     0.031 A 
ATOM     53  C   UNL A   1      44.739  30.243  30.850  1.00  0.00     0.049 A 
ATOM     54  C   UNL A   1      43.904  25.162  28.562  1.00  0.00     0.074 A 
ATOM     55  C   UNL A   1      46.017  30.516  31.299  1.00  0.00     0.029 A 
ATOM     56  N   UNL A   1      44.761  28.961  30.320  1.00  0.00    -0.354 N 
ATOM     57  N   UNL A   1      44.238  26.304  29.115  1.00  0.00    -0.248 NA
ATOM     58  C   UNL A   1      45.022  24.225  28.394  1.00  0.00     0.031 C 
ATOM     59  C   UNL A   1      46.826  29.415  30.994  1.00  0.00     0.029 A 
ATOM     60  C   UNL A   1      46.037  28.435  30.410  1.00  0.00     0.049 A 
ATOM     61  H   UNL A   1      43.983  28.493  29.938  1.00  0.00     0.167 HD
ATOM     62  C   UNL A   1      45.596  26.209  29.394  1.00  0.00     0.074 A 
ATOM     63  C   UNL A   1      46.019  24.893  28.957  1.00  0.00     0.031 C 
ATOM     64  C   UNL A   1      46.422  27.121  29.965  1.00  0.00     0.031 A 
BRANCH  51  65
ATOM     65  C   UNL A   1      43.688  32.479  31.424  1.00  0.00    -0.014 A 
ATOM     66  C   UNL A   1      43.454  32.756  32.781  1.00  0.00     0.009 A 
ATOM     67  C   UNL A   1      44.013  33.536  30.561  1.00  0.00     0.009 A 
ATOM     68  C   UNL A   1      43.500  34.070  33.253  1.00  0.00     0.001 A 
ATOM     69  C   UNL A   1      44.087  34.845  31.042  1.00  0.00     0.001 A 
ATOM     70  C   UNL A   1      43.819  35.112  32.384  1.00  0.00     0.000 A 
ENDBRANCH  51  65
BRANCH  52  71
ATOM     71  C   UNL A   1      42.374  23.333  27.520  1.00  0.00    -0.014 A 
ATOM     72  C   UNL A   1      42.617  23.101  26.158  1.00  0.00     0.009 A 
ATOM     73  C   UNL A   1      41.947  22.263  28.323  1.00  0.00     0.009 A 
ATOM     74  C   UNL A   1      42.409  21.835  25.605  1.00  0.00     0.001 A 
ATOM     75  C   UNL A   1      41.765  20.992  27.773  1.00  0.00     0.001 A 
ATOM     76  C   UNL A   1      41.988  20.781  26.414  1.00  0.00     0.000 A 
ENDBRANCH  52  71
BRANCH  64  77
ATOM     77  C   UNL A   1      47.849  26.707  30.185  1.00  0.00    -0.014 A 
ATOM     78  C   UNL A   1      48.242  26.033  31.351  1.00  0.00     0.009 A 
ATOM     79  C   UNL A   1      48.803  26.960  29.187  1.00  0.00     0.009 A 
ATOM     80  C   UNL A   1      49.574  25.652  31.528  1.00  0.00     0.001 A 
ATOM     81  C   UNL A   1      50.126  26.552  29.353  1.00  0.00     0.001 A 
ATOM     82  C   UNL A   1      50.512  25.908  30.527  1.00  0.00     0.000 A 
ENDBRANCH  64  77
ENDBRANCH  38  39
ENDBRANCH  31  33
ENDBRANCH  30  31
ENDBRANCH  29  30
ENDBRANCH   1  29
TORSDOF 15
ENDMDL
MODEL 3
REMARK VINA RESULT:     -11.1      5.580      9.417
REMARK SMILES O=C(COc1ccccc1/C=C1/SC(=S)N(c2ccc(F)c(Cl)c2)C1=O)OCCOC(=O)c1ccc(-c2c3nc(c(-c4ccccc4)c4ccc([nH]4)c(-c4ccccc4)c4nc(c(-c5ccccc5)c5ccc2[nH]5)C=C4)C=C3)cc1
REMARK SMILES IDX 28 1 27 2 2 3 1 4 3 5 4 6 5 7 6 8 10 9 7 10 9 11 8 12 11 13
REMARK SMILES IDX 12 14 13 15 25 16 14 17 16 18 26 19 15 20 17 21 18 22 24 23
REMARK SMILES IDX 19 24 22 25 20 26 23 27 21 28 29 29 30 30 31 31 32 32 33 33
REMARK SMILES IDX 34 34 80 35 35 36 79 37 36 38 37 39 38 40 73 41 39 42 78 43
REMARK SMILES IDX 72 44 74 45 40 46 77 47 71 48 70 49 41 51 63 52 48 53 62 54
REMARK SMILES IDX 49 55 52 56 61 57 75 58 50 59 51 60 60 62 76 63 53 64 42 65
REMARK SMILES IDX 43 66 47 67 44 68 46 69 45 70 64 71 65 72 69 73 66 74 68 75
REMARK SMILES IDX 67 76 54 77 55 78 59 79 56 80 58 81 57 82
REMARK H PARENT 74 50 52 61
REMARK Flexibility Score: inf
ROOT
ATOM      1  C   UNL A   1      43.360  21.491  25.727  1.00  0.00     0.274 C 
ENDROOT
BRANCH   1   2
ATOM      2  O   UNL A   1      43.399  22.394  24.601  1.00  0.00    -0.460 OA
BRANCH   2   3
ATOM      3  C   UNL A   1      44.246  23.445  24.473  1.00  0.00     0.344 C 
ATOM      4  O   UNL A   1      45.315  23.310  23.879  1.00  0.00    -0.248 OA
BRANCH   3   5
ATOM      5  C   UNL A   1      43.820  24.788  25.030  1.00  0.00     0.352 C 
BRANCH   5   6
ATOM      6  O   UNL A   1      44.948  25.593  25.368  1.00  0.00    -0.481 OA
BRANCH   6   7
ATOM      7  C   UNL A   1      44.543  26.833  25.805  1.00  0.00     0.127 A 
ATOM      8  C   UNL A   1      43.298  27.292  25.365  1.00  0.00     0.047 A 
ATOM      9  C   UNL A   1      45.363  27.635  26.621  1.00  0.00     0.018 A 
ATOM     10  C   UNL A   1      42.827  28.531  25.791  1.00  0.00     0.004 A 
ATOM     11  C   UNL A   1      44.860  28.865  27.063  1.00  0.00     0.012 A 
ATOM     12  C   UNL A   1      43.600  29.309  26.651  1.00  0.00     0.001 A 
BRANCH   9  13
ATOM     13  C   UNL A   1      46.703  27.229  27.078  1.00  0.00     0.033 C 
ATOM     14  C   UNL A   1      47.834  27.276  26.359  1.00  0.00     0.081 C 
ATOM     15  S   UNL A   1      49.314  26.576  26.887  1.00  0.00    -0.054 SA
ATOM     16  C   UNL A   1      47.999  27.802  24.976  1.00  0.00     0.270 C 
ATOM     17  C   UNL A   1      50.010  26.602  25.264  1.00  0.00     0.152 C 
ATOM     18  N   UNL A   1      49.155  27.270  24.395  1.00  0.00    -0.261 N 
ATOM     19  O   UNL A   1      47.202  28.576  24.463  1.00  0.00    -0.268 OA
ATOM     20  S   UNL A   1      51.527  25.953  24.987  1.00  0.00    -0.051 S 
BRANCH  18  21
ATOM     21  C   UNL A   1      49.353  27.422  22.978  1.00  0.00     0.052 A 
ATOM     22  C   UNL A   1      48.731  26.541  22.077  1.00  0.00     0.030 A 
ATOM     23  C   UNL A   1      50.263  28.357  22.457  1.00  0.00     0.050 A 
ATOM     24  C   UNL A   1      49.028  26.567  20.712  1.00  0.00     0.043 A 
ATOM     25  C   UNL A   1      50.584  28.362  21.095  1.00  0.00     0.078 A 
ATOM     26  C   UNL A   1      49.967  27.467  20.229  1.00  0.00     0.141 A 
ATOM     27  Cl  UNL A   1      51.793  29.445  20.520  1.00  0.00    -0.081 Cl
ATOM     28  F   UNL A   1      50.277  27.443  18.926  1.00  0.00    -0.205 F 
ENDBRANCH  18  21
ENDBRANCH   9  13
ENDBRANCH   6   7
ENDBRANCH   5   6
ENDBRANCH   3   5
ENDBRANCH   2   3
ENDBRANCH   1   2
BRANCH   1  29
ATOM     29  C   UNL A   1      41.975  21.479  26.365  1.00  0.00     0.275 C 
BRANCH  29  30
ATOM     30  O   UNL A   1      41.217  22.553  25.799  1.00  0.00    -0.458 OA
BRANCH  30  31
ATOM     31  C   UNL A   1      39.970  22.700  26.313  1.00  0.00     0.338 C 
ATOM     32  O   UNL A   1      39.125  21.844  26.460  1.00  0.00    -0.246 OA
BRANCH  31  33
ATOM     33  C   UNL A   1      39.902  24.055  26.892  1.00  0.00     0.060 A 
ATOM     34  C   UNL A   1      40.401  25.123  26.135  1.00  0.00     0.016 A 
ATOM     35  C   UNL A   1      39.318  24.273  28.143  1.00  0.00     0.016 A 
ATOM     36  C   UNL A   1      40.363  26.412  26.655  1.00  0.00     0.010 A 
ATOM     37  C   UNL A   1      39.287  25.559  28.667  1.00  0.00     0.010 A 
ATOM     38  C   UNL A   1      39.856  26.619  27.943  1.00  0.00    -0.014 A 
BRANCH  38  39
ATOM     39  C   UNL A   1      40.177  27.867  28.658  1.00  0.00     0.031 A 
ATOM     40  C   UNL A   1      41.526  27.955  29.313  1.00  0.00     0.074 A 
ATOM     41  C   UNL A   1      39.292  28.871  28.737  1.00  0.00     0.049 A 
ATOM     42  N   UNL A   1      42.041  28.917  30.029  1.00  0.00    -0.248 NA
ATOM     43  C   UNL A   1      42.412  26.787  29.143  1.00  0.00     0.031 C 
ATOM     44  C   UNL A   1      37.969  28.892  28.115  1.00  0.00     0.029 A 
ATOM     45  N   UNL A   1      39.380  30.072  29.389  1.00  0.00    -0.354 N 
ATOM     46  C   UNL A   1      43.305  28.470  30.395  1.00  0.00     0.074 A 
ATOM     47  C   UNL A   1      43.465  27.140  29.860  1.00  0.00     0.031 C 
ATOM     48  C   UNL A   1      37.365  30.055  28.420  1.00  0.00     0.029 A 
ATOM     49  C   UNL A   1      38.250  30.841  29.276  1.00  0.00     0.049 A 
ATOM     50  H   UNL A   1      40.178  30.356  29.891  1.00  0.00     0.167 HD
ATOM     51  C   UNL A   1      44.253  29.118  31.109  1.00  0.00     0.031 A 
ATOM     52  C   UNL A   1      37.973  32.043  29.815  1.00  0.00     0.031 A 
ATOM     53  C   UNL A   1      44.071  30.430  31.662  1.00  0.00     0.049 A 
ATOM     54  C   UNL A   1      39.019  32.717  30.663  1.00  0.00     0.074 A 
ATOM     55  C   UNL A   1      44.960  31.191  32.397  1.00  0.00     0.029 A 
ATOM     56  N   UNL A   1      42.903  31.169  31.547  1.00  0.00    -0.354 N 
ATOM     57  N   UNL A   1      40.228  32.307  30.968  1.00  0.00    -0.248 NA
ATOM     58  C   UNL A   1      38.665  34.024  31.231  1.00  0.00     0.031 C 
ATOM     59  C   UNL A   1      44.310  32.373  32.770  1.00  0.00     0.029 A 
ATOM     60  C   UNL A   1      43.038  32.371  32.216  1.00  0.00     0.049 A 
ATOM     61  H   UNL A   1      42.097  30.881  31.059  1.00  0.00     0.167 HD
ATOM     62  C   UNL A   1      40.791  33.321  31.733  1.00  0.00     0.074 A 
ATOM     63  C   UNL A   1      39.793  34.368  31.836  1.00  0.00     0.031 C 
ATOM     64  C   UNL A   1      42.023  33.390  32.297  1.00  0.00     0.031 A 
BRANCH  51  65
ATOM     65  C   UNL A   1      45.542  28.386  31.353  1.00  0.00    -0.014 A 
ATOM     66  C   UNL A   1      45.723  27.590  32.497  1.00  0.00     0.009 A 
ATOM     67  C   UNL A   1      46.599  28.510  30.439  1.00  0.00     0.009 A 
ATOM     68  C   UNL A   1      46.949  26.969  32.739  1.00  0.00     0.001 A 
ATOM     69  C   UNL A   1      47.814  27.864  30.670  1.00  0.00     0.001 A 
ATOM     70  C   UNL A   1      47.993  27.104  31.825  1.00  0.00     0.000 A 
ENDBRANCH  51  65
BRANCH  52  71
ATOM     71  C   UNL A   1      36.662  32.694  29.560  1.00  0.00    -0.014 A 
ATOM     72  C   UNL A   1      36.440  33.407  28.373  1.00  0.00     0.009 A 
ATOM     73  C   UNL A   1      35.629  32.618  30.508  1.00  0.00     0.009 A 
ATOM     74  C   UNL A   1      35.222  34.055  28.152  1.00  0.00     0.001 A 
ATOM     75  C   UNL A   1      34.403  33.244  30.272  1.00  0.00     0.001 A 
ATOM     76  C   UNL A   1      34.204  33.969  29.099  1.00  0.00     0.000 A 
ENDBRANCH  52  71
BRANCH  64  77
ATOM     77  C   UNL A   1      42.369  34.652  33.034  1.00  0.00    -0.014 A 
ATOM     78  C   UNL A   1      43.027  35.714  32.396  1.00  0.00     0.009 A 
ATOM     79  C   UNL A   1      41.987  34.793  34.378  1.00  0.00     0.009 A 
ATOM     80  C   UNL A   1      43.329  36.880  33.103  1.00  0.00     0.001 A 
ATOM     81  C   UNL A   1      42.264  35.971  35.073  1.00  0.00     0.001 A 
ATOM     82  C   UNL A   1      42.943  37.008  34.437  1.00  0.00     0.000 A 
ENDBRANCH  64  77
ENDBRANCH  38  39
ENDBRANCH  31  33
ENDBRANCH  30  31
ENDBRANCH  29  30
ENDBRANCH   1  29
TORSDOF 15
ENDMDL
