MODEL 1
REMARK VINA RESULT:     -11.0      0.000      0.000
REMARK SMILES O=C(Cc1cccc(-c2ccn(C(F)F)c(=O)c2)c1)OCCOC(=O)c1ccc(-c2c3nc(c(-c4ccccc4)c4ccc([nH]4)c(-c4ccccc4)c4nc(c(-c5ccccc5)c5ccc2[nH]5)C=C4)C=C3)cc1
REMARK SMILES IDX 21 1 20 2 2 3 1 4 3 5 4 6 5 7 19 8 6 9 8 10 7 11 9 12 10 13
REMARK SMILES IDX 18 14 11 15 16 16 12 17 17 18 13 19 14 20 15 21 22 22 23 23
REMARK SMILES IDX 24 24 25 25 26 26 27 27 73 28 28 29 72 30 29 31 30 32 31 33
REMARK SMILES IDX 66 34 32 35 71 36 65 37 67 38 33 39 70 40 64 41 63 42 34 44
REMARK SMILES IDX 56 45 41 46 55 47 42 48 45 49 54 50 68 51 43 52 44 53 53 55
REMARK SMILES IDX 69 56 46 57 35 58 36 59 40 60 37 61 39 62 38 63 57 64 58 65
REMARK SMILES IDX 62 66 59 67 61 68 60 69 47 70 48 71 52 72 49 73 51 74 50 75
REMARK H PARENT 67 43 45 54
REMARK Flexibility Score: inf
ROOT
ATOM      1  C   UNL A   1      43.606  21.972  25.698  1.00  0.00     0.274 C 
ENDROOT
BRANCH   1   2
ATOM      2  O   UNL A   1      42.330  21.359  25.407  1.00  0.00    -0.462 OA
BRANCH   2   3
ATOM      3  C   UNL A   1      41.836  20.248  26.001  1.00  0.00     0.310 C 
ATOM      4  O   UNL A   1      42.497  19.210  26.018  1.00  0.00    -0.252 OA
BRANCH   3   5
ATOM      5  C   UNL A   1      40.466  20.296  26.625  1.00  0.00     0.158 C 
BRANCH   5   6
ATOM      6  C   UNL A   1      39.658  21.555  26.448  1.00  0.00    -0.036 A 
ATOM      7  C   UNL A   1      40.014  22.787  27.001  1.00  0.00     0.004 A 
ATOM      8  C   UNL A   1      38.448  21.453  25.739  1.00  0.00     0.013 A 
ATOM      9  C   UNL A   1      39.187  23.900  26.824  1.00  0.00     0.001 A 
ATOM     10  C   UNL A   1      37.597  22.554  25.581  1.00  0.00    -0.018 A 
ATOM     11  C   UNL A   1      37.985  23.784  26.122  1.00  0.00     0.009 A 
BRANCH  10  12
ATOM     12  C   UNL A   1      36.289  22.369  24.917  1.00  0.00    -0.011 A 
ATOM     13  C   UNL A   1      35.410  21.260  25.251  1.00  0.00     0.027 A 
ATOM     14  C   UNL A   1      35.897  23.240  23.970  1.00  0.00     0.080 A 
ATOM     15  C   UNL A   1      34.230  21.111  24.640  1.00  0.00     0.095 A 
ATOM     16  C   UNL A   1      34.583  23.090  23.283  1.00  0.00     0.255 A 
ATOM     17  N   UNL A   1      33.813  22.008  23.676  1.00  0.00    -0.258 N 
ATOM     18  O   UNL A   1      34.271  23.918  22.433  1.00  0.00    -0.269 OA
BRANCH  17  19
ATOM     19  C   UNL A   1      32.528  21.851  23.043  1.00  0.00     0.451 C 
ATOM     20  F   UNL A   1      32.162  20.547  23.004  1.00  0.00    -0.185 F 
ATOM     21  F   UNL A   1      31.568  22.539  23.707  1.00  0.00    -0.185 F 
ENDBRANCH  17  19
ENDBRANCH  10  12
ENDBRANCH   5   6
ENDBRANCH   3   5
ENDBRANCH   2   3
ENDBRANCH   1   2
BRANCH   1  22
ATOM     22  C   UNL A   1      44.097  22.820  24.523  1.00  0.00     0.275 C 
BRANCH  22  23
ATOM     23  O   UNL A   1      43.573  24.158  24.623  1.00  0.00    -0.458 OA
BRANCH  23  24
ATOM     24  C   UNL A   1      44.396  25.073  25.191  1.00  0.00     0.338 C 
ATOM     25  O   UNL A   1      45.499  25.409  24.797  1.00  0.00    -0.246 OA
BRANCH  24  26
ATOM     26  C   UNL A   1      43.669  25.774  26.276  1.00  0.00     0.060 A 
ATOM     27  C   UNL A   1      44.001  27.112  26.521  1.00  0.00     0.016 A 
ATOM     28  C   UNL A   1      42.654  25.157  27.016  1.00  0.00     0.016 A 
ATOM     29  C   UNL A   1      43.342  27.824  27.524  1.00  0.00     0.010 A 
ATOM     30  C   UNL A   1      41.995  25.872  28.023  1.00  0.00     0.010 A 
ATOM     31  C   UNL A   1      42.353  27.202  28.299  1.00  0.00    -0.014 A 
BRANCH  31  32
ATOM     32  C   UNL A   1      41.784  27.919  29.466  1.00  0.00     0.031 A 
ATOM     33  C   UNL A   1      42.448  27.778  30.809  1.00  0.00     0.074 A 
ATOM     34  C   UNL A   1      40.717  28.727  29.329  1.00  0.00     0.049 A 
ATOM     35  N   UNL A   1      42.172  28.385  31.935  1.00  0.00    -0.248 NA
ATOM     36  C   UNL A   1      43.572  26.833  30.892  1.00  0.00     0.031 C 
ATOM     37  C   UNL A   1      39.985  28.966  28.086  1.00  0.00     0.029 A 
ATOM     38  N   UNL A   1      40.071  29.506  30.256  1.00  0.00    -0.354 N 
ATOM     39  C   UNL A   1      43.103  27.915  32.853  1.00  0.00     0.074 A 
ATOM     40  C   UNL A   1      43.917  26.935  32.166  1.00  0.00     0.031 C 
ATOM     41  C   UNL A   1      38.988  29.837  28.329  1.00  0.00     0.029 A 
ATOM     42  C   UNL A   1      39.009  30.209  29.742  1.00  0.00     0.049 A 
ATOM     43  H   UNL A   1      40.342  29.557  31.201  1.00  0.00     0.167 HD
ATOM     44  C   UNL A   1      43.281  28.277  34.145  1.00  0.00     0.031 A 
ATOM     45  C   UNL A   1      38.153  31.059  30.343  1.00  0.00     0.031 A 
ATOM     46  C   UNL A   1      42.461  29.226  34.850  1.00  0.00     0.049 A 
ATOM     47  C   UNL A   1      38.331  31.393  31.801  1.00  0.00     0.074 A 
ATOM     48  C   UNL A   1      42.571  29.655  36.162  1.00  0.00     0.029 A 
ATOM     49  N   UNL A   1      41.373  29.884  34.303  1.00  0.00    -0.354 N 
ATOM     50  N   UNL A   1      39.249  30.981  32.640  1.00  0.00    -0.248 NA
ATOM     51  C   UNL A   1      37.359  32.329  32.387  1.00  0.00     0.031 C 
ATOM     52  C   UNL A   1      41.518  30.539  36.422  1.00  0.00     0.029 A 
ATOM     53  C   UNL A   1      40.787  30.699  35.257  1.00  0.00     0.049 A 
ATOM     54  H   UNL A   1      41.061  29.787  33.374  1.00  0.00     0.167 HD
ATOM     55  C   UNL A   1      38.983  31.627  33.842  1.00  0.00     0.074 A 
ATOM     56  C   UNL A   1      37.830  32.473  33.618  1.00  0.00     0.031 C 
ATOM     57  C   UNL A   1      39.634  31.530  35.026  1.00  0.00     0.031 A 
BRANCH  44  58
ATOM     58  C   UNL A   1      44.416  27.632  34.888  1.00  0.00    -0.014 A 
ATOM     59  C   UNL A   1      44.228  26.425  35.578  1.00  0.00     0.009 A 
ATOM     60  C   UNL A   1      45.693  28.212  34.862  1.00  0.00     0.009 A 
ATOM     61  C   UNL A   1      45.292  25.823  36.252  1.00  0.00     0.001 A 
ATOM     62  C   UNL A   1      46.761  27.596  35.518  1.00  0.00     0.001 A 
ATOM     63  C   UNL A   1      46.558  26.406  36.217  1.00  0.00     0.000 A 
ENDBRANCH  44  58
BRANCH  45  64
ATOM     64  C   UNL A   1      37.033  31.662  29.575  1.00  0.00    -0.014 A 
ATOM     65  C   UNL A   1      35.815  30.982  29.426  1.00  0.00     0.009 A 
ATOM     66  C   UNL A   1      37.200  32.903  28.942  1.00  0.00     0.009 A 
ATOM     67  C   UNL A   1      34.802  31.513  28.627  1.00  0.00     0.001 A 
ATOM     68  C   UNL A   1      36.175  33.446  28.166  1.00  0.00     0.001 A 
ATOM     69  C   UNL A   1      34.982  32.745  27.998  1.00  0.00     0.000 A 
ENDBRANCH  45  64
BRANCH  57  70
ATOM     70  C   UNL A   1      39.129  32.375  36.161  1.00  0.00    -0.014 A 
ATOM     71  C   UNL A   1      39.604  33.680  36.366  1.00  0.00     0.009 A 
ATOM     72  C   UNL A   1      38.144  31.869  37.025  1.00  0.00     0.009 A 
ATOM     73  C   UNL A   1      39.135  34.444  37.437  1.00  0.00     0.001 A 
ATOM     74  C   UNL A   1      37.656  32.644  38.077  1.00  0.00     0.001 A 
ATOM     75  C   UNL A   1      38.159  33.927  38.289  1.00  0.00     0.000 A 
ENDBRANCH  57  70
ENDBRANCH  31  32
ENDBRANCH  24  26
ENDBRANCH  23  24
ENDBRANCH  22  23
ENDBRANCH   1  22
TORSDOF 14
ENDMDL
MODEL 2
REMARK VINA RESULT:     -10.8      4.426      6.180
REMARK SMILES O=C(Cc1cccc(-c2ccn(C(F)F)c(=O)c2)c1)OCCOC(=O)c1ccc(-c2c3nc(c(-c4ccccc4)c4ccc([nH]4)c(-c4ccccc4)c4nc(c(-c5ccccc5)c5ccc2[nH]5)C=C4)C=C3)cc1
REMARK SMILES IDX 21 1 20 2 2 3 1 4 3 5 4 6 5 7 19 8 6 9 8 10 7 11 9 12 10 13
REMARK SMILES IDX 18 14 11 15 16 16 12 17 17 18 13 19 14 20 15 21 22 22 23 23
REMARK SMILES IDX 24 24 25 25 26 26 27 27 73 28 28 29 72 30 29 31 30 32 31 33
REMARK SMILES IDX 66 34 32 35 71 36 65 37 67 38 33 39 70 40 64 41 63 42 34 44
REMARK SMILES IDX 56 45 41 46 55 47 42 48 45 49 54 50 68 51 43 52 44 53 53 55
REMARK SMILES IDX 69 56 46 57 35 58 36 59 40 60 37 61 39 62 38 63 57 64 58 65
REMARK SMILES IDX 62 66 59 67 61 68 60 69 47 70 48 71 52 72 49 73 51 74 50 75
REMARK H PARENT 67 43 45 54
REMARK Flexibility Score: inf
ROOT
ATOM      1  C   UNL A   1      37.657  20.417  24.961  1.00  0.00     0.274 C 
ENDROOT
BRANCH   1   2
ATOM      2  O   UNL A   1      38.135  21.780  25.017  1.00  0.00    -0.462 OA
BRANCH   2   3
ATOM      3  C   UNL A   1      37.534  22.800  25.671  1.00  0.00     0.310 C 
ATOM      4  O   UNL A   1      38.202  23.736  26.107  1.00  0.00    -0.252 OA
BRANCH   3   5
ATOM      5  C   UNL A   1      36.040  22.765  25.869  1.00  0.00     0.158 C 
BRANCH   5   6
ATOM      6  C   UNL A   1      35.190  23.604  24.951  1.00  0.00    -0.036 A 
ATOM      7  C   UNL A   1      34.996  23.316  23.598  1.00  0.00     0.004 A 
ATOM      8  C   UNL A   1      34.621  24.774  25.485  1.00  0.00     0.013 A 
ATOM      9  C   UNL A   1      34.225  24.169  22.804  1.00  0.00     0.001 A 
ATOM     10  C   UNL A   1      33.872  25.652  24.692  1.00  0.00    -0.018 A 
ATOM     11  C   UNL A   1      33.670  25.331  23.346  1.00  0.00     0.009 A 
BRANCH  10  12
ATOM     12  C   UNL A   1      33.384  26.919  25.276  1.00  0.00    -0.011 A 
ATOM     13  C   UNL A   1      33.721  28.209  24.698  1.00  0.00     0.027 A 
ATOM     14  C   UNL A   1      32.614  26.887  26.379  1.00  0.00     0.080 A 
ATOM     15  C   UNL A   1      33.268  29.343  25.241  1.00  0.00     0.095 A 
ATOM     16  C   UNL A   1      32.098  28.143  26.994  1.00  0.00     0.255 A 
ATOM     17  N   UNL A   1      32.465  29.321  26.365  1.00  0.00    -0.258 N 
ATOM     18  O   UNL A   1      31.393  28.056  27.993  1.00  0.00    -0.269 OA
BRANCH  17  19
ATOM     19  C   UNL A   1      31.963  30.550  26.926  1.00  0.00     0.451 C 
ATOM     20  F   UNL A   1      32.950  31.240  27.546  1.00  0.00    -0.185 F 
ATOM     21  F   UNL A   1      31.432  31.344  25.965  1.00  0.00    -0.185 F 
ENDBRANCH  17  19
ENDBRANCH  10  12
ENDBRANCH   5   6
ENDBRANCH   3   5
ENDBRANCH   2   3
ENDBRANCH   1   2
BRANCH   1  22
ATOM     22  C   UNL A   1      38.798  19.417  25.160  1.00  0.00     0.275 C 
BRANCH  22  23
ATOM     23  O   UNL A   1      39.533  19.735  26.357  1.00  0.00    -0.458 OA
BRANCH  23  24
ATOM     24  C   UNL A   1      40.881  19.806  26.221  1.00  0.00     0.338 C 
ATOM     25  O   UNL A   1      41.603  18.998  25.664  1.00  0.00    -0.246 OA
BRANCH  24  26
ATOM     26  C   UNL A   1      41.346  21.136  26.681  1.00  0.00     0.060 A 
ATOM     27  C   UNL A   1      41.391  21.365  28.062  1.00  0.00     0.016 A 
ATOM     28  C   UNL A   1      41.770  22.129  25.792  1.00  0.00     0.016 A 
ATOM     29  C   UNL A   1      41.830  22.595  28.553  1.00  0.00     0.010 A 
ATOM     30  C   UNL A   1      42.208  23.364  26.286  1.00  0.00     0.010 A 
ATOM     31  C   UNL A   1      42.217  23.612  27.668  1.00  0.00    -0.014 A 
BRANCH  31  32
ATOM     32  C   UNL A   1      42.519  24.964  28.199  1.00  0.00     0.031 A 
ATOM     33  C   UNL A   1      43.946  25.336  28.492  1.00  0.00     0.074 A 
ATOM     34  C   UNL A   1      41.542  25.871  28.376  1.00  0.00     0.049 A 
ATOM     35  N   UNL A   1      44.440  26.487  28.872  1.00  0.00    -0.248 NA
ATOM     36  C   UNL A   1      44.951  24.273  28.329  1.00  0.00     0.031 C 
ATOM     37  C   UNL A   1      40.118  25.650  28.122  1.00  0.00     0.029 A 
ATOM     38  N   UNL A   1      41.608  27.174  28.807  1.00  0.00    -0.354 N 
ATOM     39  C   UNL A   1      45.811  26.295  28.970  1.00  0.00     0.074 A 
ATOM     40  C   UNL A   1      46.067  24.904  28.660  1.00  0.00     0.031 C 
ATOM     41  C   UNL A   1      39.445  26.781  28.399  1.00  0.00     0.029 A 
ATOM     42  C   UNL A   1      40.388  27.801  28.858  1.00  0.00     0.049 A 
ATOM     43  H   UNL A   1      42.451  27.616  29.056  1.00  0.00     0.167 HD
ATOM     44  C   UNL A   1      46.778  27.194  29.271  1.00  0.00     0.031 A 
ATOM     45  C   UNL A   1      40.068  29.056  29.228  1.00  0.00     0.031 A 
ATOM     46  C   UNL A   1      46.536  28.571  29.611  1.00  0.00     0.049 A 
ATOM     47  C   UNL A   1      41.155  30.019  29.625  1.00  0.00     0.074 A 
ATOM     48  C   UNL A   1      47.457  29.555  29.929  1.00  0.00     0.029 A 
ATOM     49  N   UNL A   1      45.284  29.155  29.689  1.00  0.00    -0.354 N 
ATOM     50  N   UNL A   1      42.453  29.836  29.660  1.00  0.00    -0.248 NA
ATOM     51  C   UNL A   1      40.730  31.372  30.016  1.00  0.00     0.031 C 
ATOM     52  C   UNL A   1      46.756  30.724  30.245  1.00  0.00     0.029 A 
ATOM     53  C   UNL A   1      45.404  30.479  30.073  1.00  0.00     0.049 A 
ATOM     54  H   UNL A   1      44.433  28.695  29.501  1.00  0.00     0.167 HD
ATOM     55  C   UNL A   1      42.998  31.054  30.049  1.00  0.00     0.074 A 
ATOM     56  C   UNL A   1      41.893  31.975  30.218  1.00  0.00     0.031 C 
ATOM     57  C   UNL A   1      44.298  31.384  30.247  1.00  0.00     0.031 A 
BRANCH  44  58
ATOM     58  C   UNL A   1      48.198  26.708  29.250  1.00  0.00    -0.014 A 
ATOM     59  C   UNL A   1      48.785  26.154  30.398  1.00  0.00     0.009 A 
ATOM     60  C   UNL A   1      48.943  26.764  28.062  1.00  0.00     0.009 A 
ATOM     61  C   UNL A   1      50.100  25.688  30.365  1.00  0.00     0.001 A 
ATOM     62  C   UNL A   1      50.251  26.277  28.026  1.00  0.00     0.001 A 
ATOM     63  C   UNL A   1      50.830  25.746  29.178  1.00  0.00     0.000 A 
ENDBRANCH  44  58
BRANCH  45  64
ATOM     64  C   UNL A   1      38.647  29.492  29.252  1.00  0.00    -0.014 A 
ATOM     65  C   UNL A   1      37.836  29.240  30.368  1.00  0.00     0.009 A 
ATOM     66  C   UNL A   1      38.082  30.116  28.128  1.00  0.00     0.009 A 
ATOM     67  C   UNL A   1      36.480  29.569  30.346  1.00  0.00     0.001 A 
ATOM     68  C   UNL A   1      36.732  30.470  28.119  1.00  0.00     0.001 A 
ATOM     69  C   UNL A   1      35.929  30.185  29.222  1.00  0.00     0.000 A 
ENDBRANCH  45  64
BRANCH  57  70
ATOM     70  C   UNL A   1      44.594  32.802  30.647  1.00  0.00    -0.014 A 
ATOM     71  C   UNL A   1      44.673  33.827  29.692  1.00  0.00     0.009 A 
ATOM     72  C   UNL A   1      44.775  33.122  32.003  1.00  0.00     0.009 A 
ATOM     73  C   UNL A   1      44.967  35.136  30.081  1.00  0.00     0.001 A 
ATOM     74  C   UNL A   1      45.041  34.435  32.392  1.00  0.00     0.001 A 
ATOM     75  C   UNL A   1      45.147  35.439  31.431  1.00  0.00     0.000 A 
ENDBRANCH  57  70
ENDBRANCH  31  32
ENDBRANCH  24  26
ENDBRANCH  23  24
ENDBRANCH  22  23
ENDBRANCH   1  22
TORSDOF 14
ENDMDL
MODEL 3
REMARK VINA RESULT:     -10.7      5.201     10.769
REMARK SMILES O=C(Cc1cccc(-c2ccn(C(F)F)c(=O)c2)c1)OCCOC(=O)c1ccc(-c2c3nc(c(-c4ccccc4)c4ccc([nH]4)c(-c4ccccc4)c4nc(c(-c5ccccc5)c5ccc2[nH]5)C=C4)C=C3)cc1
REMARK SMILES IDX 21 1 20 2 2 3 1 4 3 5 4 6 5 7 19 8 6 9 8 10 7 11 9 12 10 13
REMARK SMILES IDX 18 14 11 15 16 16 12 17 17 18 13 19 14 20 15 21 22 22 23 23
REMARK SMILES IDX 24 24 25 25 26 26 27 27 73 28 28 29 72 30 29 31 30 32 31 33
REMARK SMILES IDX 66 34 32 35 71 36 65 37 67 38 33 39 70 40 64 41 63 42 34 44
REMARK SMILES IDX 56 45 41 46 55 47 42 48 45 49 54 50 68 51 43 52 44 53 53 55
REMARK SMILES IDX 69 56 46 57 35 58 36 59 40 60 37 61 39 62 38 63 57 64 58 65
REMARK SMILES IDX 62 66 59 67 61 68 60 69 47 70 48 71 52 72 49 73 51 74 50 75
REMARK H PARENT 67 43 45 54
REMARK Flexibility Score: inf
ROOT
ATOM      1  C   UNL A   1      34.991  33.674  28.839  1.00  0.00     0.274 C 
ENDROOT
BRANCH   1   2
ATOM      2  O   UNL A   1      35.567  32.897  29.913  1.00  0.00    -0.462 OA
BRANCH   2   3
ATOM      3  C   UNL A   1      35.084  32.817  31.174  1.00  0.00     0.310 C 
ATOM      4  O   UNL A   1      34.179  33.566  31.539  1.00  0.00    -0.252 OA
BRANCH   3   5
ATOM      5  C   UNL A   1      35.680  31.812  32.125  1.00  0.00     0.158 C 
BRANCH   5   6
ATOM      6  C   UNL A   1      37.009  32.142  32.755  1.00  0.00    -0.036 A 
ATOM      7  C   UNL A   1      37.511  33.440  32.865  1.00  0.00     0.004 A 
ATOM      8  C   UNL A   1      37.803  31.067  33.191  1.00  0.00     0.013 A 
ATOM      9  C   UNL A   1      38.772  33.658  33.425  1.00  0.00     0.001 A 
ATOM     10  C   UNL A   1      39.080  31.271  33.727  1.00  0.00    -0.018 A 
ATOM     11  C   UNL A   1      39.553  32.581  33.851  1.00  0.00     0.009 A 
BRANCH  10  12
ATOM     12  C   UNL A   1      39.915  30.101  34.075  1.00  0.00    -0.011 A 
ATOM     13  C   UNL A   1      40.013  28.943  33.201  1.00  0.00     0.027 A 
ATOM     14  C   UNL A   1      40.598  30.096  35.233  1.00  0.00     0.080 A 
ATOM     15  C   UNL A   1      40.775  27.896  33.534  1.00  0.00     0.095 A 
ATOM     16  C   UNL A   1      41.456  28.938  35.616  1.00  0.00     0.255 A 
ATOM     17  N   UNL A   1      41.492  27.887  34.715  1.00  0.00    -0.258 N 
ATOM     18  O   UNL A   1      42.064  28.988  36.680  1.00  0.00    -0.269 OA
BRANCH  17  19
ATOM     19  C   UNL A   1      42.329  26.762  35.049  1.00  0.00     0.451 C 
ATOM     20  F   UNL A   1      41.583  25.698  35.432  1.00  0.00    -0.185 F 
ATOM     21  F   UNL A   1      43.089  26.387  33.992  1.00  0.00    -0.185 F 
ENDBRANCH  17  19
ENDBRANCH  10  12
ENDBRANCH   5   6
ENDBRANCH   3   5
ENDBRANCH   2   3
ENDBRANCH   1   2
BRANCH   1  22
ATOM     22  C   UNL A   1      34.212  32.788  27.864  1.00  0.00     0.275 C 
BRANCH  22  23
ATOM     23  O   UNL A   1      34.006  31.483  28.437  1.00  0.00    -0.458 OA
BRANCH  23  24
ATOM     24  C   UNL A   1      34.438  30.436  27.692  1.00  0.00     0.338 C 
ATOM     25  O   UNL A   1      33.888  29.958  26.715  1.00  0.00    -0.246 OA
BRANCH  24  26
ATOM     26  C   UNL A   1      35.809  30.068  28.119  1.00  0.00     0.060 A 
ATOM     27  C   UNL A   1      36.847  30.255  27.198  1.00  0.00     0.016 A 
ATOM     28  C   UNL A   1      36.088  29.588  29.403  1.00  0.00     0.016 A 
ATOM     29  C   UNL A   1      38.159  29.935  27.549  1.00  0.00     0.010 A 
ATOM     30  C   UNL A   1      37.405  29.265  29.753  1.00  0.00     0.010 A 
ATOM     31  C   UNL A   1      38.444  29.414  28.820  1.00  0.00    -0.014 A 
BRANCH  31  32
ATOM     32  C   UNL A   1      39.812  28.923  29.115  1.00  0.00     0.031 A 
ATOM     33  C   UNL A   1      40.753  29.799  29.896  1.00  0.00     0.074 A 
ATOM     34  C   UNL A   1      40.202  27.692  28.738  1.00  0.00     0.049 A 
ATOM     35  N   UNL A   1      41.955  29.531  30.341  1.00  0.00    -0.248 NA
ATOM     36  C   UNL A   1      40.276  31.152  30.223  1.00  0.00     0.031 C 
ATOM     37  C   UNL A   1      39.389  26.734  27.988  1.00  0.00     0.029 A 
ATOM     38  N   UNL A   1      41.390  27.035  28.947  1.00  0.00    -0.354 N 
ATOM     39  C   UNL A   1      42.367  30.670  31.020  1.00  0.00     0.074 A 
ATOM     40  C   UNL A   1      41.310  31.649  30.885  1.00  0.00     0.031 C 
ATOM     41  C   UNL A   1      40.104  25.610  27.802  1.00  0.00     0.029 A 
ATOM     42  C   UNL A   1      41.423  25.772  28.411  1.00  0.00     0.049 A 
ATOM     43  H   UNL A   1      42.147  27.433  29.435  1.00  0.00     0.167 HD
ATOM     44  C   UNL A   1      43.511  30.881  31.712  1.00  0.00     0.031 A 
ATOM     45  C   UNL A   1      42.404  24.849  28.415  1.00  0.00     0.031 A 
ATOM     46  C   UNL A   1      44.584  29.930  31.828  1.00  0.00     0.049 A 
ATOM     47  C   UNL A   1      43.697  25.134  29.133  1.00  0.00     0.074 A 
ATOM     48  C   UNL A   1      45.781  30.059  32.512  1.00  0.00     0.029 A 
ATOM     49  N   UNL A   1      44.594  28.678  31.238  1.00  0.00    -0.354 N 
ATOM     50  N   UNL A   1      44.049  26.196  29.816  1.00  0.00    -0.248 NA
ATOM     51  C   UNL A   1      44.721  24.079  29.096  1.00  0.00     0.031 C 
ATOM     52  C   UNL A   1      46.536  28.901  32.295  1.00  0.00     0.029 A 
ATOM     53  C   UNL A   1      45.785  28.032  31.520  1.00  0.00     0.049 A 
ATOM     54  H   UNL A   1      43.862  28.303  30.696  1.00  0.00     0.167 HD
ATOM     55  C   UNL A   1      45.320  25.926  30.311  1.00  0.00     0.074 A 
ATOM     56  C   UNL A   1      45.669  24.593  29.866  1.00  0.00     0.031 C 
ATOM     57  C   UNL A   1      46.126  26.710  31.066  1.00  0.00     0.031 A 
BRANCH  44  58
ATOM     58  C   UNL A   1      43.663  32.209  32.397  1.00  0.00    -0.014 A 
ATOM     59  C   UNL A   1      44.261  33.294  31.738  1.00  0.00     0.009 A 
ATOM     60  C   UNL A   1      43.168  32.390  33.697  1.00  0.00     0.009 A 
ATOM     61  C   UNL A   1      44.383  34.529  32.377  1.00  0.00     0.001 A 
ATOM     62  C   UNL A   1      43.271  33.632  34.326  1.00  0.00     0.001 A 
ATOM     63  C   UNL A   1      43.884  34.698  33.667  1.00  0.00     0.000 A 
ENDBRANCH  44  58
BRANCH  45  64
ATOM     64  C   UNL A   1      42.219  23.554  27.708  1.00  0.00    -0.014 A 
ATOM     65  C   UNL A   1      42.573  23.415  26.358  1.00  0.00     0.009 A 
ATOM     66  C   UNL A   1      41.635  22.466  28.374  1.00  0.00     0.009 A 
ATOM     67  C   UNL A   1      42.310  22.225  25.678  1.00  0.00     0.001 A 
ATOM     68  C   UNL A   1      41.399  21.267  27.699  1.00  0.00     0.001 A 
ATOM     69  C   UNL A   1      41.725  21.151  26.349  1.00  0.00     0.000 A 
ENDBRANCH  45  64
BRANCH  57  70
ATOM     70  C   UNL A   1      47.454  26.137  31.477  1.00  0.00    -0.014 A 
ATOM     71  C   UNL A   1      47.612  25.467  32.700  1.00  0.00     0.009 A 
ATOM     72  C   UNL A   1      48.559  26.249  30.617  1.00  0.00     0.009 A 
ATOM     73  C   UNL A   1      48.857  24.957  33.072  1.00  0.00     0.001 A 
ATOM     74  C   UNL A   1      49.796  25.714  30.978  1.00  0.00     0.001 A 
ATOM     75  C   UNL A   1      49.947  25.077  32.210  1.00  0.00     0.000 A 
ENDBRANCH  57  70
ENDBRANCH  31  32
ENDBRANCH  24  26
ENDBRANCH  23  24
ENDBRANCH  22  23
ENDBRANCH   1  22
TORSDOF 14
ENDMDL
