MODEL 1
REMARK VINA RESULT:     -10.3      0.000      0.000
REMARK SMILES O=C(OCCOC(=O)[C@@H]1CCC[N@@H+](Cc2nccn2C(F)F)C1)c1ccc(-c2c3nc(c(-c4ccccc4)c4ccc([nH]4)c(-c4ccccc4)c4nc(c(-c5ccccc5)c5ccc2[nH]5)C=C4)C=C3)cc1
REMARK SMILES IDX 5 1 4 2 3 3 2 4 1 5 24 6 25 7 71 8 26 9 70 10 27 11 28 12
REMARK SMILES IDX 29 13 64 14 30 15 69 16 63 17 65 18 31 19 68 20 62 21 61 22
REMARK SMILES IDX 32 24 54 25 39 26 53 27 40 28 43 29 52 30 66 31 41 32 42 33
REMARK SMILES IDX 51 35 67 36 44 37 33 38 34 39 38 40 35 41 37 42 36 43 55 44
REMARK SMILES IDX 56 45 60 46 57 47 59 48 58 49 45 50 46 51 50 52 47 53 49 54
REMARK SMILES IDX 48 55 6 56 7 57 8 58 9 59 10 60 23 61 11 62 13 63 12 64
REMARK SMILES IDX 14 66 15 67 16 68 19 69 17 70 18 71 20 72 21 73 22 74
REMARK H PARENT 65 23 43 34 13 65
REMARK Flexibility Score: inf
ROOT
ATOM      1  C   UNL A   1      37.581  33.583  28.751  1.00  0.00     0.274 C 
ENDROOT
BRANCH   1   2
ATOM      2  C   UNL A   1      36.171  33.001  28.819  1.00  0.00     0.275 C 
BRANCH   2   3
ATOM      3  O   UNL A   1      35.720  32.223  27.688  1.00  0.00    -0.458 OA
BRANCH   3   4
ATOM      4  C   UNL A   1      35.442  30.911  27.862  1.00  0.00     0.338 C 
ATOM      5  O   UNL A   1      34.370  30.391  27.589  1.00  0.00    -0.246 OA
BRANCH   4   6
ATOM      6  C   UNL A   1      36.642  30.130  28.246  1.00  0.00     0.060 A 
ATOM      7  C   UNL A   1      37.779  30.076  27.432  1.00  0.00     0.016 A 
ATOM      8  C   UNL A   1      36.632  29.453  29.472  1.00  0.00     0.016 A 
ATOM      9  C   UNL A   1      38.878  29.325  27.813  1.00  0.00     0.010 A 
ATOM     10  C   UNL A   1      37.733  28.692  29.855  1.00  0.00     0.010 A 
ATOM     11  C   UNL A   1      38.847  28.616  29.013  1.00  0.00    -0.014 A 
BRANCH  11  12
ATOM     12  C   UNL A   1      40.042  27.855  29.361  1.00  0.00     0.031 A 
ATOM     13  C   UNL A   1      40.569  28.021  30.746  1.00  0.00     0.074 A 
ATOM     14  C   UNL A   1      40.591  26.945  28.535  1.00  0.00     0.049 A 
ATOM     15  N   UNL A   1      41.770  28.338  31.115  1.00  0.00    -0.248 NA
ATOM     16  C   UNL A   1      39.628  27.827  31.858  1.00  0.00     0.031 C 
ATOM     17  C   UNL A   1      40.039  26.442  27.277  1.00  0.00     0.029 A 
ATOM     18  N   UNL A   1      41.705  26.178  28.726  1.00  0.00    -0.354 N 
ATOM     19  C   UNL A   1      41.789  28.213  32.504  1.00  0.00     0.074 A 
ATOM     20  C   UNL A   1      40.426  27.990  32.913  1.00  0.00     0.031 C 
ATOM     21  C   UNL A   1      40.682  25.302  26.944  1.00  0.00     0.029 A 
ATOM     22  C   UNL A   1      41.756  25.069  27.897  1.00  0.00     0.049 A 
ATOM     23  H   UNL A   1      42.404  26.392  29.386  1.00  0.00     0.167 HD
ATOM     24  C   UNL A   1      42.947  28.083  33.209  1.00  0.00     0.031 A 
ATOM     25  C   UNL A   1      42.563  23.990  28.024  1.00  0.00     0.031 A 
ATOM     26  C   UNL A   1      44.093  28.579  32.494  1.00  0.00     0.049 A 
ATOM     27  C   UNL A   1      43.696  24.347  28.905  1.00  0.00     0.074 A 
ATOM     28  C   UNL A   1      44.440  29.778  31.904  1.00  0.00     0.029 A 
ATOM     29  N   UNL A   1      45.018  27.671  32.042  1.00  0.00    -0.354 N 
ATOM     30  N   UNL A   1      44.670  25.136  28.557  1.00  0.00    -0.248 NA
ATOM     31  C   UNL A   1      43.582  24.088  30.331  1.00  0.00     0.031 C 
ATOM     32  C   UNL A   1      45.229  29.421  30.770  1.00  0.00     0.029 A 
ATOM     33  C   UNL A   1      45.324  28.029  30.757  1.00  0.00     0.049 A 
ATOM     34  H   UNL A   1      45.389  26.910  32.544  1.00  0.00     0.167 HD
ATOM     35  C   UNL A   1      45.014  25.804  29.722  1.00  0.00     0.074 A 
ATOM     36  C   UNL A   1      44.414  25.022  30.796  1.00  0.00     0.031 C 
ATOM     37  C   UNL A   1      45.504  27.080  29.684  1.00  0.00     0.031 A 
BRANCH  24  38
ATOM     38  C   UNL A   1      43.087  27.125  34.374  1.00  0.00    -0.014 A 
ATOM     39  C   UNL A   1      43.080  25.739  34.120  1.00  0.00     0.009 A 
ATOM     40  C   UNL A   1      42.904  27.520  35.714  1.00  0.00     0.009 A 
ATOM     41  C   UNL A   1      42.792  24.813  35.131  1.00  0.00     0.001 A 
ATOM     42  C   UNL A   1      42.667  26.594  36.734  1.00  0.00     0.001 A 
ATOM     43  C   UNL A   1      42.573  25.243  36.436  1.00  0.00     0.000 A 
ENDBRANCH  24  38
BRANCH  25  44
ATOM     44  C   UNL A   1      42.305  22.603  27.592  1.00  0.00    -0.014 A 
ATOM     45  C   UNL A   1      41.146  21.925  28.000  1.00  0.00     0.009 A 
ATOM     46  C   UNL A   1      43.091  22.011  26.585  1.00  0.00     0.009 A 
ATOM     47  C   UNL A   1      40.782  20.708  27.409  1.00  0.00     0.001 A 
ATOM     48  C   UNL A   1      42.733  20.792  26.004  1.00  0.00     0.001 A 
ATOM     49  C   UNL A   1      41.571  20.147  26.408  1.00  0.00     0.000 A 
ENDBRANCH  25  44
BRANCH  37  50
ATOM     50  C   UNL A   1      45.946  27.637  28.356  1.00  0.00    -0.014 A 
ATOM     51  C   UNL A   1      45.055  28.239  27.453  1.00  0.00     0.009 A 
ATOM     52  C   UNL A   1      47.319  27.682  28.067  1.00  0.00     0.009 A 
ATOM     53  C   UNL A   1      45.517  28.824  26.271  1.00  0.00     0.001 A 
ATOM     54  C   UNL A   1      47.784  28.289  26.899  1.00  0.00     0.001 A 
ATOM     55  C   UNL A   1      46.882  28.850  25.995  1.00  0.00     0.000 A 
ENDBRANCH  37  50
ENDBRANCH  11  12
ENDBRANCH   4   6
ENDBRANCH   3   4
ENDBRANCH   2   3
ENDBRANCH   1   2
BRANCH   1  56
ATOM     56  O   UNL A   1      38.035  34.009  30.048  1.00  0.00    -0.462 OA
BRANCH  56  57
ATOM     57  C   UNL A   1      38.590  33.004  30.785  1.00  0.00     0.314 C 
ATOM     58  O   UNL A   1      39.325  32.142  30.310  1.00  0.00    -0.252 OA
BRANCH  57  59
ATOM     59  C   UNL A   1      38.309  33.142  32.276  1.00  0.00     0.154 C 
ATOM     60  C   UNL A   1      38.066  31.758  32.891  1.00  0.00     0.027 C 
ATOM     61  C   UNL A   1      37.153  34.085  32.644  1.00  0.00     0.278 C 
ATOM     62  C   UNL A   1      36.706  31.226  32.448  1.00  0.00     0.062 C 
ATOM     63  N   UNL A   1      35.800  33.551  32.395  1.00  0.00    -0.328 N 
ATOM     64  C   UNL A   1      35.603  32.181  32.888  1.00  0.00     0.262 C 
ATOM     65  H   UNL A   1      35.704  33.482  31.382  1.00  0.00     0.348 HD
BRANCH  63  66
ATOM     66  C   UNL A   1      34.756  34.481  32.891  1.00  0.00     0.339 C 
BRANCH  66  67
ATOM     67  C   UNL A   1      33.955  35.186  31.819  1.00  0.00     0.168 A 
ATOM     68  N   UNL A   1      33.455  34.604  30.737  1.00  0.00    -0.236 NA
ATOM     69  N   UNL A   1      33.679  36.538  31.792  1.00  0.00    -0.273 N 
ATOM     70  C   UNL A   1      32.904  35.600  29.980  1.00  0.00     0.131 A 
ATOM     71  C   UNL A   1      33.025  36.808  30.614  1.00  0.00     0.113 A 
BRANCH  69  72
ATOM     72  C   UNL A   1      34.029  37.550  32.768  1.00  0.00     0.450 C 
ATOM     73  F   UNL A   1      33.440  38.736  32.461  1.00  0.00    -0.185 F 
ATOM     74  F   UNL A   1      33.579  37.201  34.003  1.00  0.00    -0.185 F 
ENDBRANCH  69  72
ENDBRANCH  66  67
ENDBRANCH  63  66
ENDBRANCH  57  59
ENDBRANCH  56  57
ENDBRANCH   1  56
TORSDOF 14
ENDMDL
MODEL 2
REMARK VINA RESULT:     -10.2      2.523      3.905
REMARK SMILES O=C(OCCOC(=O)[C@@H]1CCC[N@@H+](Cc2nccn2C(F)F)C1)c1ccc(-c2c3nc(c(-c4ccccc4)c4ccc([nH]4)c(-c4ccccc4)c4nc(c(-c5ccccc5)c5ccc2[nH]5)C=C4)C=C3)cc1
REMARK SMILES IDX 5 1 4 2 3 3 2 4 1 5 24 6 25 7 71 8 26 9 70 10 27 11 28 12
REMARK SMILES IDX 29 13 64 14 30 15 69 16 63 17 65 18 31 19 68 20 62 21 61 22
REMARK SMILES IDX 32 24 54 25 39 26 53 27 40 28 43 29 52 30 66 31 41 32 42 33
REMARK SMILES IDX 51 35 67 36 44 37 33 38 34 39 38 40 35 41 37 42 36 43 55 44
REMARK SMILES IDX 56 45 60 46 57 47 59 48 58 49 45 50 46 51 50 52 47 53 49 54
REMARK SMILES IDX 48 55 6 56 7 57 8 58 9 59 10 60 23 61 11 62 13 63 12 64
REMARK SMILES IDX 14 66 15 67 16 68 19 69 17 70 18 71 20 72 21 73 22 74
REMARK H PARENT 65 23 43 34 13 65
REMARK Flexibility Score: inf
ROOT
ATOM      1  C   UNL A   1      33.450  35.198  28.876  1.00  0.00     0.274 C 
ENDROOT
BRANCH   1   2
ATOM      2  C   UNL A   1      33.308  33.917  28.057  1.00  0.00     0.275 C 
BRANCH   2   3
ATOM      3  O   UNL A   1      34.505  33.140  27.831  1.00  0.00    -0.458 OA
BRANCH   3   4
ATOM      4  C   UNL A   1      34.443  31.793  27.936  1.00  0.00     0.338 C 
ATOM      5  O   UNL A   1      33.462  31.123  27.646  1.00  0.00    -0.246 OA
BRANCH   4   6
ATOM      6  C   UNL A   1      35.759  31.195  28.265  1.00  0.00     0.060 A 
ATOM      7  C   UNL A   1      36.805  31.959  28.792  1.00  0.00     0.016 A 
ATOM      8  C   UNL A   1      35.936  29.821  28.059  1.00  0.00     0.016 A 
ATOM      9  C   UNL A   1      38.027  31.373  29.074  1.00  0.00     0.010 A 
ATOM     10  C   UNL A   1      37.165  29.230  28.336  1.00  0.00     0.010 A 
ATOM     11  C   UNL A   1      38.214  30.014  28.826  1.00  0.00    -0.014 A 
BRANCH  11  12
ATOM     12  C   UNL A   1      39.521  29.456  29.156  1.00  0.00     0.031 A 
ATOM     13  C   UNL A   1      39.812  29.228  30.601  1.00  0.00     0.074 A 
ATOM     14  C   UNL A   1      40.395  29.042  28.219  1.00  0.00     0.049 A 
ATOM     15  N   UNL A   1      40.827  29.644  31.291  1.00  0.00    -0.248 NA
ATOM     16  C   UNL A   1      38.834  28.451  31.375  1.00  0.00     0.031 C 
ATOM     17  C   UNL A   1      40.157  28.915  26.781  1.00  0.00     0.029 A 
ATOM     18  N   UNL A   1      41.645  28.519  28.385  1.00  0.00    -0.354 N 
ATOM     19  C   UNL A   1      40.712  29.039  32.542  1.00  0.00     0.074 A 
ATOM     20  C   UNL A   1      39.424  28.396  32.569  1.00  0.00     0.031 C 
ATOM     21  C   UNL A   1      41.123  28.137  26.247  1.00  0.00     0.029 A 
ATOM     22  C   UNL A   1      42.097  27.817  27.279  1.00  0.00     0.049 A 
ATOM     23  H   UNL A   1      42.173  28.629  29.209  1.00  0.00     0.167 HD
ATOM     24  C   UNL A   1      41.767  28.920  33.395  1.00  0.00     0.031 A 
ATOM     25  C   UNL A   1      43.147  26.966  27.225  1.00  0.00     0.031 A 
ATOM     26  C   UNL A   1      42.811  29.873  33.125  1.00  0.00     0.049 A 
ATOM     27  C   UNL A   1      44.025  27.221  28.388  1.00  0.00     0.074 A 
ATOM     28  C   UNL A   1      42.884  31.248  33.028  1.00  0.00     0.029 A 
ATOM     29  N   UNL A   1      43.997  29.409  32.613  1.00  0.00    -0.354 N 
ATOM     30  N   UNL A   1      44.779  28.273  28.516  1.00  0.00    -0.248 NA
ATOM     31  C   UNL A   1      43.815  26.452  29.605  1.00  0.00     0.031 C 
ATOM     32  C   UNL A   1      43.871  31.499  32.028  1.00  0.00     0.029 A 
ATOM     33  C   UNL A   1      44.345  30.260  31.599  1.00  0.00     0.049 A 
ATOM     34  H   UNL A   1      44.499  28.620  32.916  1.00  0.00     0.167 HD
ATOM     35  C   UNL A   1      44.784  28.540  29.876  1.00  0.00     0.074 A 
ATOM     36  C   UNL A   1      44.297  27.315  30.501  1.00  0.00     0.031 C 
ATOM     37  C   UNL A   1      44.907  29.819  30.344  1.00  0.00     0.031 A 
BRANCH  24  38
ATOM     38  C   UNL A   1      42.024  27.663  34.202  1.00  0.00    -0.014 A 
ATOM     39  C   UNL A   1      41.732  27.669  35.580  1.00  0.00     0.009 A 
ATOM     40  C   UNL A   1      42.825  26.604  33.732  1.00  0.00     0.009 A 
ATOM     41  C   UNL A   1      42.305  26.734  36.451  1.00  0.00     0.001 A 
ATOM     42  C   UNL A   1      43.358  25.640  34.593  1.00  0.00     0.001 A 
ATOM     43  C   UNL A   1      43.129  25.727  35.958  1.00  0.00     0.000 A 
ENDBRANCH  24  38
BRANCH  25  44
ATOM     44  C   UNL A   1      43.334  25.803  26.336  1.00  0.00    -0.014 A 
ATOM     45  C   UNL A   1      44.482  25.682  25.539  1.00  0.00     0.009 A 
ATOM     46  C   UNL A   1      42.484  24.684  26.436  1.00  0.00     0.009 A 
ATOM     47  C   UNL A   1      44.775  24.480  24.881  1.00  0.00     0.001 A 
ATOM     48  C   UNL A   1      42.770  23.490  25.771  1.00  0.00     0.001 A 
ATOM     49  C   UNL A   1      43.922  23.385  25.003  1.00  0.00     0.000 A 
ENDBRANCH  25  44
BRANCH  37  50
ATOM     50  C   UNL A   1      45.335  30.894  29.380  1.00  0.00    -0.014 A 
ATOM     51  C   UNL A   1      46.682  31.250  29.193  1.00  0.00     0.009 A 
ATOM     52  C   UNL A   1      44.372  31.465  28.535  1.00  0.00     0.009 A 
ATOM     53  C   UNL A   1      47.047  32.189  28.224  1.00  0.00     0.001 A 
ATOM     54  C   UNL A   1      44.740  32.384  27.550  1.00  0.00     0.001 A 
ATOM     55  C   UNL A   1      46.076  32.754  27.402  1.00  0.00     0.000 A 
ENDBRANCH  37  50
ENDBRANCH  11  12
ENDBRANCH   4   6
ENDBRANCH   3   4
ENDBRANCH   2   3
ENDBRANCH   1   2
BRANCH   1  56
ATOM     56  O   UNL A   1      33.067  34.990  30.247  1.00  0.00    -0.462 OA
BRANCH  56  57
ATOM     57  C   UNL A   1      34.070  35.245  31.136  1.00  0.00     0.314 C 
ATOM     58  O   UNL A   1      34.084  36.223  31.877  1.00  0.00    -0.252 OA
BRANCH  57  59
ATOM     59  C   UNL A   1      35.098  34.122  31.203  1.00  0.00     0.154 C 
ATOM     60  C   UNL A   1      34.444  32.850  31.756  1.00  0.00     0.027 C 
ATOM     61  C   UNL A   1      36.372  34.442  31.998  1.00  0.00     0.278 C 
ATOM     62  C   UNL A   1      34.182  33.012  33.251  1.00  0.00     0.062 C 
ATOM     63  N   UNL A   1      36.215  34.443  33.466  1.00  0.00    -0.328 N 
ATOM     64  C   UNL A   1      35.491  33.276  33.986  1.00  0.00     0.262 C 
ATOM     65  H   UNL A   1      35.620  35.241  33.687  1.00  0.00     0.348 HD
BRANCH  63  66
ATOM     66  C   UNL A   1      37.519  34.642  34.145  1.00  0.00     0.339 C 
BRANCH  66  67
ATOM     67  C   UNL A   1      37.947  33.520  35.065  1.00  0.00     0.168 A 
ATOM     68  N   UNL A   1      37.709  33.473  36.368  1.00  0.00    -0.236 NA
ATOM     69  N   UNL A   1      38.686  32.418  34.684  1.00  0.00    -0.273 N 
ATOM     70  C   UNL A   1      38.351  32.361  36.841  1.00  0.00     0.131 A 
ATOM     71  C   UNL A   1      38.960  31.687  35.816  1.00  0.00     0.113 A 
BRANCH  69  72
ATOM     72  C   UNL A   1      39.161  32.063  33.362  1.00  0.00     0.450 C 
ATOM     73  F   UNL A   1      38.122  31.722  32.555  1.00  0.00    -0.185 F 
ATOM     74  F   UNL A   1      39.780  33.121  32.774  1.00  0.00    -0.185 F 
ENDBRANCH  69  72
ENDBRANCH  66  67
ENDBRANCH  63  66
ENDBRANCH  57  59
ENDBRANCH  56  57
ENDBRANCH   1  56
TORSDOF 14
ENDMDL
MODEL 3
REMARK VINA RESULT:     -10.2      4.730      6.308
REMARK SMILES O=C(OCCOC(=O)[C@@H]1CCC[N@@H+](Cc2nccn2C(F)F)C1)c1ccc(-c2c3nc(c(-c4ccccc4)c4ccc([nH]4)c(-c4ccccc4)c4nc(c(-c5ccccc5)c5ccc2[nH]5)C=C4)C=C3)cc1
REMARK SMILES IDX 5 1 4 2 3 3 2 4 1 5 24 6 25 7 71 8 26 9 70 10 27 11 28 12
REMARK SMILES IDX 29 13 64 14 30 15 69 16 63 17 65 18 31 19 68 20 62 21 61 22
REMARK SMILES IDX 32 24 54 25 39 26 53 27 40 28 43 29 52 30 66 31 41 32 42 33
REMARK SMILES IDX 51 35 67 36 44 37 33 38 34 39 38 40 35 41 37 42 36 43 55 44
REMARK SMILES IDX 56 45 60 46 57 47 59 48 58 49 45 50 46 51 50 52 47 53 49 54
REMARK SMILES IDX 48 55 6 56 7 57 8 58 9 59 10 60 23 61 11 62 13 63 12 64
REMARK SMILES IDX 14 66 15 67 16 68 19 69 17 70 18 71 20 72 21 73 22 74
REMARK H PARENT 65 23 43 34 13 65
REMARK Flexibility Score: inf
ROOT
ATOM      1  C   UNL A   1      31.941  30.236  25.810  1.00  0.00     0.274 C 
ENDROOT
BRANCH   1   2
ATOM      2  C   UNL A   1      32.697  30.505  27.109  1.00  0.00     0.275 C 
BRANCH   2   3
ATOM      3  O   UNL A   1      34.105  30.811  27.004  1.00  0.00    -0.458 OA
BRANCH   3   4
ATOM      4  C   UNL A   1      34.724  31.417  28.043  1.00  0.00     0.338 C 
ATOM      5  O   UNL A   1      34.196  32.239  28.776  1.00  0.00    -0.246 OA
BRANCH   4   6
ATOM      6  C   UNL A   1      36.061  30.835  28.314  1.00  0.00     0.060 A 
ATOM      7  C   UNL A   1      36.341  29.486  28.074  1.00  0.00     0.016 A 
ATOM      8  C   UNL A   1      37.067  31.679  28.802  1.00  0.00     0.016 A 
ATOM      9  C   UNL A   1      37.596  28.971  28.352  1.00  0.00     0.010 A 
ATOM     10  C   UNL A   1      38.328  31.163  29.088  1.00  0.00     0.010 A 
ATOM     11  C   UNL A   1      38.582  29.804  28.879  1.00  0.00    -0.014 A 
BRANCH  11  12
ATOM     12  C   UNL A   1      39.885  29.202  29.139  1.00  0.00     0.031 A 
ATOM     13  C   UNL A   1      40.269  29.012  30.567  1.00  0.00     0.074 A 
ATOM     14  C   UNL A   1      40.671  28.717  28.159  1.00  0.00     0.049 A 
ATOM     15  N   UNL A   1      41.347  29.407  31.168  1.00  0.00    -0.248 NA
ATOM     16  C   UNL A   1      39.318  28.306  31.437  1.00  0.00     0.031 C 
ATOM     17  C   UNL A   1      40.327  28.550  26.747  1.00  0.00     0.029 A 
ATOM     18  N   UNL A   1      41.907  28.145  28.257  1.00  0.00    -0.354 N 
ATOM     19  C   UNL A   1      41.296  28.851  32.447  1.00  0.00     0.074 A 
ATOM     20  C   UNL A   1      39.988  28.267  32.587  1.00  0.00     0.031 C 
ATOM     21  C   UNL A   1      41.219  27.712  26.177  1.00  0.00     0.029 A 
ATOM     22  C   UNL A   1      42.249  27.386  27.150  1.00  0.00     0.049 A 
ATOM     23  H   UNL A   1      42.497  28.261  29.037  1.00  0.00     0.167 HD
ATOM     24  C   UNL A   1      42.405  28.717  33.227  1.00  0.00     0.031 A 
ATOM     25  C   UNL A   1      43.258  26.488  27.055  1.00  0.00     0.031 A 
ATOM     26  C   UNL A   1      43.465  29.612  32.849  1.00  0.00     0.049 A 
ATOM     27  C   UNL A   1      44.226  26.745  28.143  1.00  0.00     0.074 A 
ATOM     28  C   UNL A   1      43.588  30.979  32.694  1.00  0.00     0.029 A 
ATOM     29  N   UNL A   1      44.591  29.079  32.273  1.00  0.00    -0.354 N 
ATOM     30  N   UNL A   1      45.030  27.766  28.178  1.00  0.00    -0.248 NA
ATOM     31  C   UNL A   1      44.072  26.029  29.400  1.00  0.00     0.031 C 
ATOM     32  C   UNL A   1      44.510  31.151  31.619  1.00  0.00     0.029 A 
ATOM     33  C   UNL A   1      44.900  29.877  31.205  1.00  0.00     0.049 A 
ATOM     34  H   UNL A   1      45.081  28.279  32.570  1.00  0.00     0.167 HD
ATOM     35  C   UNL A   1      45.143  28.080  29.523  1.00  0.00     0.074 A 
ATOM     36  C   UNL A   1      44.652  26.901  30.227  1.00  0.00     0.031 C 
ATOM     37  C   UNL A   1      45.352  29.368  29.932  1.00  0.00     0.031 A 
BRANCH  24  38
ATOM     38  C   UNL A   1      42.666  27.479  34.062  1.00  0.00    -0.014 A 
ATOM     39  C   UNL A   1      43.540  26.494  33.563  1.00  0.00     0.009 A 
ATOM     40  C   UNL A   1      41.851  27.106  35.149  1.00  0.00     0.009 A 
ATOM     41  C   UNL A   1      43.515  25.181  34.051  1.00  0.00     0.001 A 
ATOM     42  C   UNL A   1      41.860  25.809  35.671  1.00  0.00     0.001 A 
ATOM     43  C   UNL A   1      42.665  24.836  35.097  1.00  0.00     0.000 A 
ENDBRANCH  24  38
BRANCH  25  44
ATOM     44  C   UNL A   1      43.331  25.287  26.200  1.00  0.00    -0.014 A 
ATOM     45  C   UNL A   1      44.360  25.136  25.258  1.00  0.00     0.009 A 
ATOM     46  C   UNL A   1      42.515  24.171  26.465  1.00  0.00     0.009 A 
ATOM     47  C   UNL A   1      44.571  23.907  24.619  1.00  0.00     0.001 A 
ATOM     48  C   UNL A   1      42.718  22.949  25.819  1.00  0.00     0.001 A 
ATOM     49  C   UNL A   1      43.755  22.814  24.905  1.00  0.00     0.000 A 
ENDBRANCH  25  44
BRANCH  37  50
ATOM     50  C   UNL A   1      45.755  30.389  28.900  1.00  0.00    -0.014 A 
ATOM     51  C   UNL A   1      44.822  31.048  28.081  1.00  0.00     0.009 A 
ATOM     52  C   UNL A   1      47.095  30.800  28.847  1.00  0.00     0.009 A 
ATOM     53  C   UNL A   1      45.226  32.053  27.199  1.00  0.00     0.001 A 
ATOM     54  C   UNL A   1      47.495  31.823  27.983  1.00  0.00     0.001 A 
ATOM     55  C   UNL A   1      46.563  32.441  27.152  1.00  0.00     0.000 A 
ENDBRANCH  37  50
ENDBRANCH  11  12
ENDBRANCH   4   6
ENDBRANCH   3   4
ENDBRANCH   2   3
ENDBRANCH   1   2
BRANCH   1  56
ATOM     56  O   UNL A   1      31.258  28.971  25.854  1.00  0.00    -0.462 OA
BRANCH  56  57
ATOM     57  C   UNL A   1      32.039  27.919  25.471  1.00  0.00     0.314 C 
ATOM     58  O   UNL A   1      33.000  27.519  26.122  1.00  0.00    -0.252 OA
BRANCH  57  59
ATOM     59  C   UNL A   1      31.514  27.216  24.226  1.00  0.00     0.154 C 
ATOM     60  C   UNL A   1      32.450  27.484  23.043  1.00  0.00     0.027 C 
ATOM     61  C   UNL A   1      30.069  27.560  23.836  1.00  0.00     0.278 C 
ATOM     62  C   UNL A   1      32.293  28.928  22.575  1.00  0.00     0.062 C 
ATOM     63  N   UNL A   1      29.881  28.887  23.217  1.00  0.00    -0.328 N 
ATOM     64  C   UNL A   1      30.851  29.188  22.155  1.00  0.00     0.262 C 
ATOM     65  H   UNL A   1      30.073  29.570  23.949  1.00  0.00     0.348 HD
BRANCH  63  66
ATOM     66  C   UNL A   1      28.480  29.077  22.767  1.00  0.00     0.339 C 
BRANCH  66  67
ATOM     67  C   UNL A   1      28.234  30.308  21.923  1.00  0.00     0.168 A 
ATOM     68  N   UNL A   1      28.167  30.321  20.599  1.00  0.00    -0.236 NA
ATOM     69  N   UNL A   1      28.096  31.592  22.411  1.00  0.00    -0.273 N 
ATOM     70  C   UNL A   1      28.044  31.632  20.229  1.00  0.00     0.131 A 
ATOM     71  C   UNL A   1      27.993  32.440  21.334  1.00  0.00     0.113 A 
BRANCH  69  72
ATOM     72  C   UNL A   1      28.101  32.039  23.789  1.00  0.00     0.450 C 
ATOM     73  F   UNL A   1      27.155  31.380  24.510  1.00  0.00    -0.185 F 
ATOM     74  F   UNL A   1      29.296  31.769  24.378  1.00  0.00    -0.185 F 
ENDBRANCH  69  72
ENDBRANCH  66  67
ENDBRANCH  63  66
ENDBRANCH  57  59
ENDBRANCH  56  57
ENDBRANCH   1  56
TORSDOF 14
ENDMDL
