MODEL 1
REMARK VINA RESULT:     -10.6      0.000      0.000
REMARK SMILES C[C@@H](C(=O)OCCOC(=O)c1ccc(-c2c3nc(c(-c4ccccc4)c4ccc([nH]4)c(-c4ccccc4)c4nc(c(-c5ccccc5)c5ccc2[nH]5)C=C4)C=C3)cc1)c1ccn(C(F)F)c(=O)c1
REMARK SMILES IDX 6 1 5 2 3 3 4 4 2 5 1 6 59 7 60 8 68 9 61 10 66 11 62 12
REMARK SMILES IDX 67 13 63 14 64 15 65 16 7 17 8 18 9 19 10 20 11 21 12 22
REMARK SMILES IDX 58 23 13 24 57 25 14 26 15 27 16 28 51 29 17 30 56 31 50 32
REMARK SMILES IDX 52 33 18 34 55 35 49 36 48 37 19 39 41 40 26 41 40 42 27 43
REMARK SMILES IDX 30 44 39 45 53 46 28 47 29 48 38 50 54 51 31 52 20 53 21 54
REMARK SMILES IDX 25 55 22 56 24 57 23 58 42 59 43 60 47 61 44 62 46 63 45 64
REMARK SMILES IDX 32 65 33 66 37 67 34 68 36 69 35 70
REMARK H PARENT 52 38 30 49
REMARK Flexibility Score: inf
ROOT
ATOM      1  C   UNL A   1      35.179  22.769  26.364  1.00  0.00     0.274 C 
ENDROOT
BRANCH   1   2
ATOM      2  O   UNL A   1      33.760  22.731  26.098  1.00  0.00    -0.462 OA
BRANCH   2   3
ATOM      3  C   UNL A   1      33.371  22.711  24.794  1.00  0.00     0.313 C 
ATOM      4  O   UNL A   1      33.963  23.281  23.884  1.00  0.00    -0.252 OA
BRANCH   3   5
ATOM      5  C   UNL A   1      32.067  21.925  24.584  1.00  0.00     0.126 C 
ATOM      6  C   UNL A   1      31.038  22.112  25.704  1.00  0.00     0.025 C 
BRANCH   5   7
ATOM      7  C   UNL A   1      32.375  20.459  24.317  1.00  0.00    -0.027 A 
ATOM      8  C   UNL A   1      32.871  19.659  25.423  1.00  0.00     0.023 A 
ATOM      9  C   UNL A   1      32.232  19.868  23.117  1.00  0.00     0.076 A 
ATOM     10  C   UNL A   1      33.158  18.362  25.253  1.00  0.00     0.095 A 
ATOM     11  C   UNL A   1      32.522  18.418  22.916  1.00  0.00     0.255 A 
ATOM     12  N   UNL A   1      33.004  17.742  24.025  1.00  0.00    -0.258 N 
ATOM     13  O   UNL A   1      32.310  17.940  21.808  1.00  0.00    -0.269 OA
BRANCH  12  14
ATOM     14  C   UNL A   1      33.185  16.309  23.942  1.00  0.00     0.451 C 
ATOM     15  F   UNL A   1      34.290  16.036  23.205  1.00  0.00    -0.185 F 
ATOM     16  F   UNL A   1      33.333  15.713  25.146  1.00  0.00    -0.185 F 
ENDBRANCH  12  14
ENDBRANCH   5   7
ENDBRANCH   3   5
ENDBRANCH   2   3
ENDBRANCH   1   2
BRANCH   1  17
ATOM     17  C   UNL A   1      35.834  21.459  25.940  1.00  0.00     0.275 C 
BRANCH  17  18
ATOM     18  O   UNL A   1      36.961  21.751  25.096  1.00  0.00    -0.458 OA
BRANCH  18  19
ATOM     19  C   UNL A   1      38.171  21.391  25.573  1.00  0.00     0.338 C 
ATOM     20  O   UNL A   1      38.708  20.294  25.482  1.00  0.00    -0.246 OA
BRANCH  19  21
ATOM     21  C   UNL A   1      38.814  22.546  26.220  1.00  0.00     0.060 A 
ATOM     22  C   UNL A   1      38.283  23.822  26.043  1.00  0.00     0.016 A 
ATOM     23  C   UNL A   1      40.030  22.380  26.883  1.00  0.00     0.016 A 
ATOM     24  C   UNL A   1      39.027  24.937  26.426  1.00  0.00     0.010 A 
ATOM     25  C   UNL A   1      40.723  23.501  27.358  1.00  0.00     0.010 A 
ATOM     26  C   UNL A   1      40.258  24.800  27.089  1.00  0.00    -0.014 A 
BRANCH  26  27
ATOM     27  C   UNL A   1      41.076  26.002  27.440  1.00  0.00     0.031 A 
ATOM     28  C   UNL A   1      40.573  27.014  28.444  1.00  0.00     0.074 A 
ATOM     29  C   UNL A   1      42.299  26.186  26.900  1.00  0.00     0.049 A 
ATOM     30  N   UNL A   1      41.045  28.206  28.726  1.00  0.00    -0.248 NA
ATOM     31  C   UNL A   1      39.371  26.656  29.212  1.00  0.00     0.031 C 
ATOM     32  C   UNL A   1      42.965  25.279  25.964  1.00  0.00     0.029 A 
ATOM     33  N   UNL A   1      43.216  27.196  27.084  1.00  0.00    -0.354 N 
ATOM     34  C   UNL A   1      40.163  28.756  29.652  1.00  0.00     0.074 A 
ATOM     35  C   UNL A   1      39.129  27.773  29.885  1.00  0.00     0.031 C 
ATOM     36  C   UNL A   1      44.205  25.726  25.723  1.00  0.00     0.029 A 
ATOM     37  C   UNL A   1      44.385  27.011  26.389  1.00  0.00     0.049 A 
ATOM     38  H   UNL A   1      43.048  27.976  27.661  1.00  0.00     0.167 HD
ATOM     39  C   UNL A   1      40.208  29.970  30.253  1.00  0.00     0.031 A 
ATOM     40  C   UNL A   1      45.469  27.798  26.255  1.00  0.00     0.031 A 
ATOM     41  C   UNL A   1      41.270  30.927  30.084  1.00  0.00     0.049 A 
ATOM     42  C   UNL A   1      45.485  29.151  26.902  1.00  0.00     0.074 A 
ATOM     43  C   UNL A   1      41.397  32.185  30.649  1.00  0.00     0.029 A 
ATOM     44  N   UNL A   1      42.403  30.718  29.316  1.00  0.00    -0.354 N 
ATOM     45  N   UNL A   1      44.591  29.701  27.686  1.00  0.00    -0.248 NA
ATOM     46  C   UNL A   1      46.646  30.005  26.617  1.00  0.00     0.031 C 
ATOM     47  C   UNL A   1      42.593  32.753  30.195  1.00  0.00     0.029 A 
ATOM     48  C   UNL A   1      43.229  31.829  29.384  1.00  0.00     0.049 A 
ATOM     49  H   UNL A   1      42.593  29.904  28.798  1.00  0.00     0.167 HD
ATOM     50  C   UNL A   1      45.074  30.968  27.979  1.00  0.00     0.074 A 
ATOM     51  C   UNL A   1      46.358  31.092  27.319  1.00  0.00     0.031 C 
ATOM     52  C   UNL A   1      44.497  31.947  28.714  1.00  0.00     0.031 A 
BRANCH  39  53
ATOM     53  C   UNL A   1      39.047  30.362  31.126  1.00  0.00    -0.014 A 
ATOM     54  C   UNL A   1      37.908  30.989  30.602  1.00  0.00     0.009 A 
ATOM     55  C   UNL A   1      39.077  30.038  32.493  1.00  0.00     0.009 A 
ATOM     56  C   UNL A   1      36.831  31.303  31.435  1.00  0.00     0.001 A 
ATOM     57  C   UNL A   1      37.990  30.332  33.317  1.00  0.00     0.001 A 
ATOM     58  C   UNL A   1      36.870  30.969  32.789  1.00  0.00     0.000 A 
ENDBRANCH  39  53
BRANCH  40  59
ATOM     59  C   UNL A   1      46.605  27.349  25.407  1.00  0.00    -0.014 A 
ATOM     60  C   UNL A   1      46.782  27.869  24.116  1.00  0.00     0.009 A 
ATOM     61  C   UNL A   1      47.527  26.409  25.895  1.00  0.00     0.009 A 
ATOM     62  C   UNL A   1      47.859  27.450  23.331  1.00  0.00     0.001 A 
ATOM     63  C   UNL A   1      48.620  26.019  25.120  1.00  0.00     0.001 A 
ATOM     64  C   UNL A   1      48.781  26.535  23.836  1.00  0.00     0.000 A 
ENDBRANCH  40  59
BRANCH  52  65
ATOM     65  C   UNL A   1      45.256  33.233  28.852  1.00  0.00    -0.014 A 
ATOM     66  C   UNL A   1      46.190  33.412  29.885  1.00  0.00     0.009 A 
ATOM     67  C   UNL A   1      45.051  34.271  27.930  1.00  0.00     0.009 A 
ATOM     68  C   UNL A   1      46.880  34.620  30.010  1.00  0.00     0.001 A 
ATOM     69  C   UNL A   1      45.758  35.468  28.045  1.00  0.00     0.001 A 
ATOM     70  C   UNL A   1      46.665  35.645  29.090  1.00  0.00     0.000 A 
ENDBRANCH  52  65
ENDBRANCH  26  27
ENDBRANCH  19  21
ENDBRANCH  18  19
ENDBRANCH  17  18
ENDBRANCH   1  17
TORSDOF 13
ENDMDL
MODEL 2
REMARK VINA RESULT:     -10.5      5.980      9.920
REMARK SMILES C[C@@H](C(=O)OCCOC(=O)c1ccc(-c2c3nc(c(-c4ccccc4)c4ccc([nH]4)c(-c4ccccc4)c4nc(c(-c5ccccc5)c5ccc2[nH]5)C=C4)C=C3)cc1)c1ccn(C(F)F)c(=O)c1
REMARK SMILES IDX 6 1 5 2 3 3 4 4 2 5 1 6 59 7 60 8 68 9 61 10 66 11 62 12
REMARK SMILES IDX 67 13 63 14 64 15 65 16 7 17 8 18 9 19 10 20 11 21 12 22
REMARK SMILES IDX 58 23 13 24 57 25 14 26 15 27 16 28 51 29 17 30 56 31 50 32
REMARK SMILES IDX 52 33 18 34 55 35 49 36 48 37 19 39 41 40 26 41 40 42 27 43
REMARK SMILES IDX 30 44 39 45 53 46 28 47 29 48 38 50 54 51 31 52 20 53 21 54
REMARK SMILES IDX 25 55 22 56 24 57 23 58 42 59 43 60 47 61 44 62 46 63 45 64
REMARK SMILES IDX 32 65 33 66 37 67 34 68 36 69 35 70
REMARK H PARENT 52 38 30 49
REMARK Flexibility Score: inf
ROOT
ATOM      1  C   UNL A   1      31.835  28.574  26.985  1.00  0.00     0.274 C 
ENDROOT
BRANCH   1   2
ATOM      2  O   UNL A   1      31.962  27.714  25.832  1.00  0.00    -0.462 OA
BRANCH   2   3
ATOM      3  C   UNL A   1      30.950  26.836  25.594  1.00  0.00     0.313 C 
ATOM      4  O   UNL A   1      30.311  26.260  26.467  1.00  0.00    -0.252 OA
BRANCH   3   5
ATOM      5  C   UNL A   1      30.719  26.604  24.093  1.00  0.00     0.126 C 
ATOM      6  C   UNL A   1      32.002  26.366  23.292  1.00  0.00     0.025 C 
BRANCH   5   7
ATOM      7  C   UNL A   1      29.872  27.727  23.512  1.00  0.00    -0.027 A 
ATOM      8  C   UNL A   1      30.558  28.802  22.817  1.00  0.00     0.023 A 
ATOM      9  C   UNL A   1      28.532  27.791  23.621  1.00  0.00     0.076 A 
ATOM     10  C   UNL A   1      29.870  29.818  22.282  1.00  0.00     0.095 A 
ATOM     11  C   UNL A   1      27.747  28.903  23.009  1.00  0.00     0.255 A 
ATOM     12  N   UNL A   1      28.490  29.888  22.378  1.00  0.00    -0.258 N 
ATOM     13  O   UNL A   1      26.526  28.859  23.099  1.00  0.00    -0.269 OA
BRANCH  12  14
ATOM     14  C   UNL A   1      27.794  30.927  21.651  1.00  0.00     0.451 C 
ATOM     15  F   UNL A   1      27.673  32.025  22.438  1.00  0.00    -0.185 F 
ATOM     16  F   UNL A   1      28.419  31.301  20.512  1.00  0.00    -0.185 F 
ENDBRANCH  12  14
ENDBRANCH   5   7
ENDBRANCH   3   5
ENDBRANCH   2   3
ENDBRANCH   1   2
BRANCH   1  17
ATOM     17  C   UNL A   1      31.779  30.036  26.553  1.00  0.00     0.275 C 
BRANCH  17  18
ATOM     18  O   UNL A   1      33.118  30.509  26.330  1.00  0.00    -0.458 OA
BRANCH  18  19
ATOM     19  C   UNL A   1      33.558  31.468  27.171  1.00  0.00     0.338 C 
ATOM     20  O   UNL A   1      32.980  32.501  27.488  1.00  0.00    -0.246 OA
BRANCH  19  21
ATOM     21  C   UNL A   1      34.870  31.085  27.718  1.00  0.00     0.060 A 
ATOM     22  C   UNL A   1      35.117  29.757  28.059  1.00  0.00     0.016 A 
ATOM     23  C   UNL A   1      35.805  32.072  28.030  1.00  0.00     0.016 A 
ATOM     24  C   UNL A   1      36.244  29.437  28.813  1.00  0.00     0.010 A 
ATOM     25  C   UNL A   1      36.986  31.726  28.698  1.00  0.00     0.010 A 
ATOM     26  C   UNL A   1      37.199  30.411  29.148  1.00  0.00    -0.014 A 
BRANCH  26  27
ATOM     27  C   UNL A   1      38.372  30.070  30.010  1.00  0.00     0.031 A 
ATOM     28  C   UNL A   1      39.514  29.239  29.469  1.00  0.00     0.074 A 
ATOM     29  C   UNL A   1      38.456  30.530  31.276  1.00  0.00     0.049 A 
ATOM     30  N   UNL A   1      40.511  28.680  30.116  1.00  0.00    -0.248 NA
ATOM     31  C   UNL A   1      39.527  28.979  28.022  1.00  0.00     0.031 C 
ATOM     32  C   UNL A   1      37.477  31.395  31.937  1.00  0.00     0.029 A 
ATOM     33  N   UNL A   1      39.432  30.353  32.230  1.00  0.00    -0.354 N 
ATOM     34  C   UNL A   1      41.225  27.958  29.164  1.00  0.00     0.074 A 
ATOM     35  C   UNL A   1      40.550  28.145  27.899  1.00  0.00     0.031 C 
ATOM     36  C   UNL A   1      37.939  31.737  33.148  1.00  0.00     0.029 A 
ATOM     37  C   UNL A   1      39.186  31.026  33.401  1.00  0.00     0.049 A 
ATOM     38  H   UNL A   1      40.232  29.798  32.084  1.00  0.00     0.167 HD
ATOM     39  C   UNL A   1      42.339  27.204  29.328  1.00  0.00     0.031 A 
ATOM     40  C   UNL A   1      39.854  31.042  34.569  1.00  0.00     0.031 A 
ATOM     41  C   UNL A   1      43.059  27.069  30.567  1.00  0.00     0.049 A 
ATOM     42  C   UNL A   1      41.066  30.176  34.740  1.00  0.00     0.074 A 
ATOM     43  C   UNL A   1      44.196  26.322  30.828  1.00  0.00     0.029 A 
ATOM     44  N   UNL A   1      42.731  27.720  31.744  1.00  0.00    -0.354 N 
ATOM     45  N   UNL A   1      41.664  29.411  33.861  1.00  0.00    -0.248 NA
ATOM     46  C   UNL A   1      41.676  30.150  36.077  1.00  0.00     0.031 C 
ATOM     47  C   UNL A   1      44.536  26.494  32.174  1.00  0.00     0.029 A 
ATOM     48  C   UNL A   1      43.637  27.383  32.737  1.00  0.00     0.049 A 
ATOM     49  H   UNL A   1      41.967  28.330  31.859  1.00  0.00     0.167 HD
ATOM     50  C   UNL A   1      42.712  28.805  34.538  1.00  0.00     0.074 A 
ATOM     51  C   UNL A   1      42.691  29.318  35.893  1.00  0.00     0.031 C 
ATOM     52  C   UNL A   1      43.600  27.890  34.083  1.00  0.00     0.031 A 
BRANCH  39  53
ATOM     53  C   UNL A   1      42.835  26.421  28.143  1.00  0.00    -0.014 A 
ATOM     54  C   UNL A   1      43.795  26.942  27.264  1.00  0.00     0.009 A 
ATOM     55  C   UNL A   1      42.371  25.110  27.944  1.00  0.00     0.009 A 
ATOM     56  C   UNL A   1      44.263  26.172  26.195  1.00  0.00     0.001 A 
ATOM     57  C   UNL A   1      42.858  24.336  26.890  1.00  0.00     0.001 A 
ATOM     58  C   UNL A   1      43.800  24.870  26.013  1.00  0.00     0.000 A 
ENDBRANCH  39  53
BRANCH  40  59
ATOM     59  C   UNL A   1      39.340  31.859  35.701  1.00  0.00    -0.014 A 
ATOM     60  C   UNL A   1      39.807  33.164  35.910  1.00  0.00     0.009 A 
ATOM     61  C   UNL A   1      38.364  31.338  36.566  1.00  0.00     0.009 A 
ATOM     62  C   UNL A   1      39.310  33.929  36.969  1.00  0.00     0.001 A 
ATOM     63  C   UNL A   1      37.845  32.117  37.602  1.00  0.00     0.001 A 
ATOM     64  C   UNL A   1      38.324  33.409  37.806  1.00  0.00     0.000 A 
ENDBRANCH  40  59
BRANCH  52  65
ATOM     65  C   UNL A   1      44.629  27.397  35.056  1.00  0.00    -0.014 A 
ATOM     66  C   UNL A   1      45.851  28.069  35.216  1.00  0.00     0.009 A 
ATOM     67  C   UNL A   1      44.369  26.259  35.835  1.00  0.00     0.009 A 
ATOM     68  C   UNL A   1      46.806  27.591  36.116  1.00  0.00     0.001 A 
ATOM     69  C   UNL A   1      45.317  25.797  36.749  1.00  0.00     0.001 A 
ATOM     70  C   UNL A   1      46.538  26.457  36.882  1.00  0.00     0.000 A 
ENDBRANCH  52  65
ENDBRANCH  26  27
ENDBRANCH  19  21
ENDBRANCH  18  19
ENDBRANCH  17  18
ENDBRANCH   1  17
TORSDOF 13
ENDMDL
MODEL 3
REMARK VINA RESULT:     -10.5      5.091      9.922
REMARK SMILES C[C@@H](C(=O)OCCOC(=O)c1ccc(-c2c3nc(c(-c4ccccc4)c4ccc([nH]4)c(-c4ccccc4)c4nc(c(-c5ccccc5)c5ccc2[nH]5)C=C4)C=C3)cc1)c1ccn(C(F)F)c(=O)c1
REMARK SMILES IDX 6 1 5 2 3 3 4 4 2 5 1 6 59 7 60 8 68 9 61 10 66 11 62 12
REMARK SMILES IDX 67 13 63 14 64 15 65 16 7 17 8 18 9 19 10 20 11 21 12 22
REMARK SMILES IDX 58 23 13 24 57 25 14 26 15 27 16 28 51 29 17 30 56 31 50 32
REMARK SMILES IDX 52 33 18 34 55 35 49 36 48 37 19 39 41 40 26 41 40 42 27 43
REMARK SMILES IDX 30 44 39 45 53 46 28 47 29 48 38 50 54 51 31 52 20 53 21 54
REMARK SMILES IDX 25 55 22 56 24 57 23 58 42 59 43 60 47 61 44 62 46 63 45 64
REMARK SMILES IDX 32 65 33 66 37 67 34 68 36 69 35 70
REMARK H PARENT 52 38 30 49
REMARK Flexibility Score: inf
ROOT
ATOM      1  C   UNL A   1      34.833  35.047  33.196  1.00  0.00     0.274 C 
ENDROOT
BRANCH   1   2
ATOM      2  O   UNL A   1      34.791  34.467  31.875  1.00  0.00    -0.462 OA
BRANCH   2   3
ATOM      3  C   UNL A   1      33.772  34.847  31.058  1.00  0.00     0.313 C 
ATOM      4  O   UNL A   1      32.603  34.960  31.413  1.00  0.00    -0.252 OA
BRANCH   3   5
ATOM      5  C   UNL A   1      34.235  35.080  29.612  1.00  0.00     0.126 C 
ATOM      6  C   UNL A   1      33.232  35.854  28.751  1.00  0.00     0.025 C 
BRANCH   5   7
ATOM      7  C   UNL A   1      34.650  33.761  28.975  1.00  0.00    -0.027 A 
ATOM      8  C   UNL A   1      36.071  33.503  28.820  1.00  0.00     0.023 A 
ATOM      9  C   UNL A   1      33.781  32.835  28.532  1.00  0.00     0.076 A 
ATOM     10  C   UNL A   1      36.501  32.361  28.268  1.00  0.00     0.095 A 
ATOM     11  C   UNL A   1      34.243  31.545  27.939  1.00  0.00     0.255 A 
ATOM     12  N   UNL A   1      35.615  31.395  27.820  1.00  0.00    -0.258 N 
ATOM     13  O   UNL A   1      33.391  30.726  27.615  1.00  0.00    -0.269 OA
BRANCH  12  14
ATOM     14  C   UNL A   1      36.141  30.123  27.375  1.00  0.00     0.451 C 
ATOM     15  F   UNL A   1      37.485  30.219  27.223  1.00  0.00    -0.185 F 
ATOM     16  F   UNL A   1      35.893  29.106  28.231  1.00  0.00    -0.185 F 
ENDBRANCH  12  14
ENDBRANCH   5   7
ENDBRANCH   3   5
ENDBRANCH   2   3
ENDBRANCH   1   2
BRANCH   1  17
ATOM     17  C   UNL A   1      35.649  34.166  34.137  1.00  0.00     0.275 C 
BRANCH  17  18
ATOM     18  O   UNL A   1      36.019  32.961  33.446  1.00  0.00    -0.458 OA
BRANCH  18  19
ATOM     19  C   UNL A   1      36.973  32.208  34.033  1.00  0.00     0.338 C 
ATOM     20  O   UNL A   1      37.149  32.035  35.233  1.00  0.00    -0.246 OA
BRANCH  19  21
ATOM     21  C   UNL A   1      37.798  31.558  33.001  1.00  0.00     0.060 A 
ATOM     22  C   UNL A   1      38.791  30.655  33.377  1.00  0.00     0.016 A 
ATOM     23  C   UNL A   1      37.682  31.957  31.670  1.00  0.00     0.016 A 
ATOM     24  C   UNL A   1      39.738  30.245  32.441  1.00  0.00     0.010 A 
ATOM     25  C   UNL A   1      38.576  31.458  30.714  1.00  0.00     0.010 A 
ATOM     26  C   UNL A   1      39.651  30.636  31.094  1.00  0.00    -0.014 A 
BRANCH  26  27
ATOM     27  C   UNL A   1      40.707  30.240  30.112  1.00  0.00     0.031 A 
ATOM     28  C   UNL A   1      40.600  28.944  29.341  1.00  0.00     0.074 A 
ATOM     29  C   UNL A   1      41.757  31.051  29.862  1.00  0.00     0.049 A 
ATOM     30  N   UNL A   1      41.504  28.343  28.602  1.00  0.00    -0.248 NA
ATOM     31  C   UNL A   1      39.326  28.215  29.430  1.00  0.00     0.031 C 
ATOM     32  C   UNL A   1      41.985  32.364  30.468  1.00  0.00     0.029 A 
ATOM     33  N   UNL A   1      42.822  30.898  29.005  1.00  0.00    -0.354 N 
ATOM     34  C   UNL A   1      40.926  27.143  28.195  1.00  0.00     0.074 A 
ATOM     35  C   UNL A   1      39.599  27.098  28.769  1.00  0.00     0.031 C 
ATOM     36  C   UNL A   1      43.065  32.927  29.908  1.00  0.00     0.029 A 
ATOM     37  C   UNL A   1      43.676  31.973  28.990  1.00  0.00     0.049 A 
ATOM     38  H   UNL A   1      42.958  30.093  28.455  1.00  0.00     0.167 HD
ATOM     39  C   UNL A   1      41.453  26.166  27.418  1.00  0.00     0.031 A 
ATOM     40  C   UNL A   1      44.846  32.165  28.352  1.00  0.00     0.031 A 
ATOM     41  C   UNL A   1      42.743  26.232  26.784  1.00  0.00     0.049 A 
ATOM     42  C   UNL A   1      45.426  31.059  27.523  1.00  0.00     0.074 A 
ATOM     43  C   UNL A   1      43.361  25.286  25.983  1.00  0.00     0.029 A 
ATOM     44  N   UNL A   1      43.600  27.318  26.854  1.00  0.00    -0.354 N 
ATOM     45  N   UNL A   1      44.917  29.886  27.240  1.00  0.00    -0.248 NA
ATOM     46  C   UNL A   1      46.761  31.292  26.953  1.00  0.00     0.031 C 
ATOM     47  C   UNL A   1      44.609  25.787  25.595  1.00  0.00     0.029 A 
ATOM     48  C   UNL A   1      44.746  27.061  26.118  1.00  0.00     0.049 A 
ATOM     49  H   UNL A   1      43.422  28.148  27.351  1.00  0.00     0.167 HD
ATOM     50  C   UNL A   1      45.871  29.236  26.470  1.00  0.00     0.074 A 
ATOM     51  C   UNL A   1      46.974  30.159  26.299  1.00  0.00     0.031 C 
ATOM     52  C   UNL A   1      45.842  27.980  25.965  1.00  0.00     0.031 A 
BRANCH  39  53
ATOM     53  C   UNL A   1      40.650  24.906  27.238  1.00  0.00    -0.014 A 
ATOM     54  C   UNL A   1      39.475  24.882  26.474  1.00  0.00     0.009 A 
ATOM     55  C   UNL A   1      41.121  23.707  27.800  1.00  0.00     0.009 A 
ATOM     56  C   UNL A   1      38.775  23.685  26.295  1.00  0.00     0.001 A 
ATOM     57  C   UNL A   1      40.433  22.510  27.598  1.00  0.00     0.001 A 
ATOM     58  C   UNL A   1      39.257  22.501  26.851  1.00  0.00     0.000 A 
ENDBRANCH  39  53
BRANCH  40  59
ATOM     59  C   UNL A   1      45.584  33.442  28.537  1.00  0.00    -0.014 A 
ATOM     60  C   UNL A   1      46.547  33.571  29.548  1.00  0.00     0.009 A 
ATOM     61  C   UNL A   1      45.337  34.534  27.689  1.00  0.00     0.009 A 
ATOM     62  C   UNL A   1      47.245  34.772  29.707  1.00  0.00     0.001 A 
ATOM     63  C   UNL A   1      46.060  35.720  27.829  1.00  0.00     0.001 A 
ATOM     64  C   UNL A   1      47.009  35.839  28.843  1.00  0.00     0.000 A 
ENDBRANCH  40  59
BRANCH  52  65
ATOM     65  C   UNL A   1      47.035  27.538  25.170  1.00  0.00    -0.014 A 
ATOM     66  C   UNL A   1      47.142  27.838  23.803  1.00  0.00     0.009 A 
ATOM     67  C   UNL A   1      48.071  26.829  25.797  1.00  0.00     0.009 A 
ATOM     68  C   UNL A   1      48.251  27.408  23.072  1.00  0.00     0.001 A 
ATOM     69  C   UNL A   1      49.188  26.420  25.068  1.00  0.00     0.001 A 
ATOM     70  C   UNL A   1      49.273  26.702  23.704  1.00  0.00     0.000 A 
ENDBRANCH  52  65
ENDBRANCH  26  27
ENDBRANCH  19  21
ENDBRANCH  18  19
ENDBRANCH  17  18
ENDBRANCH   1  17
TORSDOF 13
ENDMDL
