MODEL 1
REMARK VINA RESULT:     -11.9      0.000      0.000
REMARK SMILES C[C@H]1CC[C@H]([NH2+]Cc2c(C(=O)OCCOC(=O)c3ccc(-c4c5nc(c(-c6ccccc6)c6ccc([nH]6)c(-c6ccccc6)c6nc(c(-c7ccccc7)c7ccc4[nH]7)C=C6)C=C5)cc3)n(Cc3ccccc3F)c3ccccc23)CC1
REMARK SMILES IDX 13 1 12 2 10 3 11 4 9 5 8 6 80 7 66 8 75 9 79 10 76 11 78 12
REMARK SMILES IDX 77 13 7 14 6 15 5 18 1 19 2 20 3 21 82 22 4 23 81 24 67 25
REMARK SMILES IDX 68 26 69 27 73 28 70 29 72 30 74 31 71 32 14 33 15 34 16 35
REMARK SMILES IDX 17 36 18 37 19 38 65 39 20 40 64 41 21 42 22 43 23 44 58 45
REMARK SMILES IDX 24 46 63 47 57 48 59 49 25 50 62 51 56 52 55 53 26 55 48 56
REMARK SMILES IDX 33 57 47 58 34 59 37 60 46 61 60 62 35 63 36 64 45 66 61 67
REMARK SMILES IDX 38 68 27 69 28 70 32 71 29 72 31 73 30 74 49 75 50 76 54 77
REMARK SMILES IDX 51 78 53 79 52 80 39 81 40 82 44 83 41 84 43 85 42 86
REMARK H PARENT 6 16 6 17 59 54 37 65
REMARK Flexibility Score: inf
ROOT
ATOM      1  C   UNL A   1      33.422  30.296  27.120  1.00  0.00     0.275 C 
ENDROOT
BRANCH   1   2
ATOM      2  O   UNL A   1      33.253  29.705  25.796  1.00  0.00    -0.457 OA
BRANCH   2   3
ATOM      3  C   UNL A   1      32.342  28.699  25.691  1.00  0.00     0.355 C 
ATOM      4  O   UNL A   1      31.376  28.595  26.419  1.00  0.00    -0.244 OA
BRANCH   3   5
ATOM      5  C   UNL A   1      32.682  27.691  24.703  1.00  0.00     0.137 A 
ATOM      6  C   UNL A   1      33.130  26.374  24.896  1.00  0.00     0.047 A 
ATOM      7  C   UNL A   1      33.147  25.748  23.596  1.00  0.00     0.009 A 
ATOM      8  N   UNL A   1      32.348  27.822  23.341  1.00  0.00    -0.330 N 
ATOM      9  C   UNL A   1      32.575  26.624  22.680  1.00  0.00     0.050 A 
ATOM     10  C   UNL A   1      33.515  24.455  23.153  1.00  0.00     0.011 A 
ATOM     11  C   UNL A   1      32.271  26.209  21.370  1.00  0.00     0.027 A 
ATOM     12  C   UNL A   1      33.271  24.063  21.834  1.00  0.00     0.001 A 
ATOM     13  C   UNL A   1      32.636  24.928  20.957  1.00  0.00     0.002 A 
BRANCH   6  14
ATOM     14  C   UNL A   1      33.480  25.570  26.136  1.00  0.00     0.300 C 
BRANCH  14  15
ATOM     15  N   UNL A   1      32.446  24.707  26.682  1.00  0.00    -0.340 N 
ATOM     16  H   UNL A   1      32.237  25.049  27.620  1.00  0.00     0.346 HD
ATOM     17  H   UNL A   1      31.693  24.767  25.995  1.00  0.00     0.346 HD
BRANCH  15  18
ATOM     18  C   UNL A   1      32.704  23.265  26.795  1.00  0.00     0.182 C 
ATOM     19  C   UNL A   1      34.156  19.656  24.624  1.00  0.00     0.007 C 
ATOM     20  C   UNL A   1      33.738  21.042  25.105  1.00  0.00    -0.014 C 
ATOM     21  C   UNL A   1      34.478  21.443  26.380  1.00  0.00     0.009 C 
ATOM     22  C   UNL A   1      32.239  21.131  25.381  1.00  0.00     0.009 C 
ATOM     23  C   UNL A   1      34.189  22.906  26.700  1.00  0.00     0.065 C 
ATOM     24  C   UNL A   1      31.831  22.566  25.725  1.00  0.00     0.065 C 
ENDBRANCH  15  18
ENDBRANCH  14  15
ENDBRANCH   6  14
BRANCH   8  25
ATOM     25  C   UNL A   1      31.535  28.899  22.751  1.00  0.00     0.161 C 
BRANCH  25  26
ATOM     26  C   UNL A   1      30.032  28.750  22.724  1.00  0.00     0.008 A 
ATOM     27  C   UNL A   1      29.385  27.653  23.320  1.00  0.00     0.008 A 
ATOM     28  C   UNL A   1      29.229  29.811  22.291  1.00  0.00     0.128 A 
ATOM     29  C   UNL A   1      27.997  27.636  23.495  1.00  0.00     0.001 A 
ATOM     30  C   UNL A   1      27.845  29.808  22.477  1.00  0.00     0.039 A 
ATOM     31  F   UNL A   1      29.796  30.898  21.750  1.00  0.00    -0.207 F 
ATOM     32  C   UNL A   1      27.227  28.720  23.088  1.00  0.00     0.003 A 
ENDBRANCH  25  26
ENDBRANCH   8  25
ENDBRANCH   3   5
ENDBRANCH   2   3
ENDBRANCH   1   2
BRANCH   1  33
ATOM     33  C   UNL A   1      34.832  30.753  27.537  1.00  0.00     0.275 C 
BRANCH  33  34
ATOM     34  O   UNL A   1      35.512  29.630  28.139  1.00  0.00    -0.458 OA
BRANCH  34  35
ATOM     35  C   UNL A   1      36.564  29.955  28.934  1.00  0.00     0.338 C 
ATOM     36  O   UNL A   1      36.505  30.597  29.970  1.00  0.00    -0.246 OA
BRANCH  35  37
ATOM     37  C   UNL A   1      37.720  29.116  28.520  1.00  0.00     0.060 A 
ATOM     38  C   UNL A   1      38.354  28.237  29.404  1.00  0.00     0.016 A 
ATOM     39  C   UNL A   1      38.342  29.459  27.316  1.00  0.00     0.016 A 
ATOM     40  C   UNL A   1      39.676  27.845  29.159  1.00  0.00     0.010 A 
ATOM     41  C   UNL A   1      39.656  29.049  27.072  1.00  0.00     0.010 A 
ATOM     42  C   UNL A   1      40.370  28.319  28.034  1.00  0.00    -0.014 A 
BRANCH  42  43
ATOM     43  C   UNL A   1      41.795  27.986  27.857  1.00  0.00     0.031 A 
ATOM     44  C   UNL A   1      42.180  26.728  27.179  1.00  0.00     0.074 A 
ATOM     45  C   UNL A   1      42.877  28.758  28.096  1.00  0.00     0.049 A 
ATOM     46  N   UNL A   1      42.550  25.628  27.748  1.00  0.00    -0.248 NA
ATOM     47  C   UNL A   1      42.240  26.711  25.711  1.00  0.00     0.031 C 
ATOM     48  C   UNL A   1      42.958  30.205  28.230  1.00  0.00     0.029 A 
ATOM     49  N   UNL A   1      44.185  28.352  28.215  1.00  0.00    -0.354 N 
ATOM     50  C   UNL A   1      42.973  24.794  26.724  1.00  0.00     0.074 A 
ATOM     51  C   UNL A   1      42.688  25.475  25.482  1.00  0.00     0.031 C 
ATOM     52  C   UNL A   1      44.258  30.578  28.312  1.00  0.00     0.029 A 
ATOM     53  C   UNL A   1      45.091  29.385  28.390  1.00  0.00     0.049 A 
ATOM     54  H   UNL A   1      44.457  27.407  28.177  1.00  0.00     0.167 HD
ATOM     55  C   UNL A   1      43.668  23.651  26.951  1.00  0.00     0.031 A 
ATOM     56  C   UNL A   1      46.421  29.282  28.627  1.00  0.00     0.031 A 
ATOM     57  C   UNL A   1      43.841  23.355  28.345  1.00  0.00     0.049 A 
ATOM     58  C   UNL A   1      46.721  27.928  29.153  1.00  0.00     0.074 A 
ATOM     59  C   UNL A   1      43.040  22.926  29.379  1.00  0.00     0.029 A 
ATOM     60  N   UNL A   1      44.995  23.835  28.912  1.00  0.00    -0.354 N 
ATOM     61  N   UNL A   1      46.317  27.497  30.314  1.00  0.00    -0.248 NA
ATOM     62  C   UNL A   1      47.379  26.926  28.322  1.00  0.00     0.031 C 
ATOM     63  C   UNL A   1      43.623  23.447  30.574  1.00  0.00     0.029 A 
ATOM     64  C   UNL A   1      44.737  24.205  30.213  1.00  0.00     0.049 A 
ATOM     65  H   UNL A   1      45.868  23.903  28.461  1.00  0.00     0.167 HD
ATOM     66  C   UNL A   1      46.300  26.121  30.194  1.00  0.00     0.074 A 
ATOM     67  C   UNL A   1      47.144  25.830  29.050  1.00  0.00     0.031 C 
ATOM     68  C   UNL A   1      45.347  25.374  30.822  1.00  0.00     0.031 A 
BRANCH  55  69
ATOM     69  C   UNL A   1      44.425  22.913  25.898  1.00  0.00    -0.014 A 
ATOM     70  C   UNL A   1      45.577  23.441  25.287  1.00  0.00     0.009 A 
ATOM     71  C   UNL A   1      44.083  21.584  25.613  1.00  0.00     0.009 A 
ATOM     72  C   UNL A   1      46.323  22.689  24.376  1.00  0.00     0.001 A 
ATOM     73  C   UNL A   1      44.845  20.820  24.723  1.00  0.00     0.001 A 
ATOM     74  C   UNL A   1      45.957  21.376  24.096  1.00  0.00     0.000 A 
ENDBRANCH  55  69
BRANCH  56  75
ATOM     75  C   UNL A   1      47.490  30.293  28.498  1.00  0.00    -0.014 A 
ATOM     76  C   UNL A   1      48.278  30.364  27.338  1.00  0.00     0.009 A 
ATOM     77  C   UNL A   1      47.874  31.076  29.601  1.00  0.00     0.009 A 
ATOM     78  C   UNL A   1      49.412  31.183  27.284  1.00  0.00     0.001 A 
ATOM     79  C   UNL A   1      49.014  31.886  29.552  1.00  0.00     0.001 A 
ATOM     80  C   UNL A   1      49.785  31.936  28.394  1.00  0.00     0.000 A 
ENDBRANCH  56  75
BRANCH  68  81
ATOM     81  C   UNL A   1      44.678  25.977  32.032  1.00  0.00    -0.014 A 
ATOM     82  C   UNL A   1      45.033  25.512  33.308  1.00  0.00     0.009 A 
ATOM     83  C   UNL A   1      43.666  26.949  31.940  1.00  0.00     0.009 A 
ATOM     84  C   UNL A   1      44.410  26.016  34.454  1.00  0.00     0.001 A 
ATOM     85  C   UNL A   1      43.064  27.475  33.087  1.00  0.00     0.001 A 
ATOM     86  C   UNL A   1      43.435  27.006  34.344  1.00  0.00     0.000 A 
ENDBRANCH  68  81
ENDBRANCH  42  43
ENDBRANCH  35  37
ENDBRANCH  34  35
ENDBRANCH  33  34
ENDBRANCH   1  33
TORSDOF 16
ENDMDL
MODEL 2
REMARK VINA RESULT:     -11.6      1.703      5.773
REMARK SMILES C[C@H]1CC[C@H]([NH2+]Cc2c(C(=O)OCCOC(=O)c3ccc(-c4c5nc(c(-c6ccccc6)c6ccc([nH]6)c(-c6ccccc6)c6nc(c(-c7ccccc7)c7ccc4[nH]7)C=C6)C=C5)cc3)n(Cc3ccccc3F)c3ccccc23)CC1
REMARK SMILES IDX 13 1 12 2 10 3 11 4 9 5 8 6 80 7 66 8 75 9 79 10 76 11 78 12
REMARK SMILES IDX 77 13 7 14 6 15 5 18 1 19 2 20 3 21 82 22 4 23 81 24 67 25
REMARK SMILES IDX 68 26 69 27 73 28 70 29 72 30 74 31 71 32 14 33 15 34 16 35
REMARK SMILES IDX 17 36 18 37 19 38 65 39 20 40 64 41 21 42 22 43 23 44 58 45
REMARK SMILES IDX 24 46 63 47 57 48 59 49 25 50 62 51 56 52 55 53 26 55 48 56
REMARK SMILES IDX 33 57 47 58 34 59 37 60 46 61 60 62 35 63 36 64 45 66 61 67
REMARK SMILES IDX 38 68 27 69 28 70 32 71 29 72 31 73 30 74 49 75 50 76 54 77
REMARK SMILES IDX 51 78 53 79 52 80 39 81 40 82 44 83 41 84 43 85 42 86
REMARK H PARENT 6 16 6 17 59 54 37 65
REMARK Flexibility Score: inf
ROOT
ATOM      1  C   UNL A   1      32.811  30.618  26.654  1.00  0.00     0.275 C 
ENDROOT
BRANCH   1   2
ATOM      2  O   UNL A   1      33.202  29.277  26.231  1.00  0.00    -0.457 OA
BRANCH   2   3
ATOM      3  C   UNL A   1      32.198  28.446  25.839  1.00  0.00     0.355 C 
ATOM      4  O   UNL A   1      31.095  28.447  26.345  1.00  0.00    -0.244 OA
BRANCH   3   5
ATOM      5  C   UNL A   1      32.591  27.473  24.835  1.00  0.00     0.137 A 
ATOM      6  C   UNL A   1      33.042  26.153  25.006  1.00  0.00     0.047 A 
ATOM      7  C   UNL A   1      33.122  25.570  23.689  1.00  0.00     0.009 A 
ATOM      8  N   UNL A   1      32.316  27.645  23.465  1.00  0.00    -0.330 N 
ATOM      9  C   UNL A   1      32.583  26.471  22.777  1.00  0.00     0.050 A 
ATOM     10  C   UNL A   1      33.522  24.295  23.221  1.00  0.00     0.011 A 
ATOM     11  C   UNL A   1      32.340  26.096  21.442  1.00  0.00     0.027 A 
ATOM     12  C   UNL A   1      33.339  23.944  21.881  1.00  0.00     0.001 A 
ATOM     13  C   UNL A   1      32.736  24.832  21.005  1.00  0.00     0.002 A 
BRANCH   6  14
ATOM     14  C   UNL A   1      33.345  25.314  26.234  1.00  0.00     0.300 C 
BRANCH  14  15
ATOM     15  N   UNL A   1      32.294  24.430  26.710  1.00  0.00    -0.340 N 
ATOM     16  H   UNL A   1      32.046  24.740  27.649  1.00  0.00     0.346 HD
ATOM     17  H   UNL A   1      31.569  24.509  25.996  1.00  0.00     0.346 HD
BRANCH  15  18
ATOM     18  C   UNL A   1      32.553  22.985  26.787  1.00  0.00     0.182 C 
ATOM     19  C   UNL A   1      34.148  19.461  24.578  1.00  0.00     0.007 C 
ATOM     20  C   UNL A   1      33.696  20.827  25.082  1.00  0.00    -0.014 C 
ATOM     21  C   UNL A   1      34.359  21.186  26.411  1.00  0.00     0.009 C 
ATOM     22  C   UNL A   1      32.182  20.901  25.275  1.00  0.00     0.009 C 
ATOM     23  C   UNL A   1      34.044  22.636  26.765  1.00  0.00     0.065 C 
ATOM     24  C   UNL A   1      31.747  22.321  25.645  1.00  0.00     0.065 C 
ENDBRANCH  15  18
ENDBRANCH  14  15
ENDBRANCH   6  14
BRANCH   8  25
ATOM     25  C   UNL A   1      31.519  28.734  22.874  1.00  0.00     0.161 C 
BRANCH  25  26
ATOM     26  C   UNL A   1      30.015  28.599  22.830  1.00  0.00     0.008 A 
ATOM     27  C   UNL A   1      29.352  27.501  23.405  1.00  0.00     0.008 A 
ATOM     28  C   UNL A   1      29.226  29.673  22.403  1.00  0.00     0.128 A 
ATOM     29  C   UNL A   1      27.962  27.495  23.567  1.00  0.00     0.001 A 
ATOM     30  C   UNL A   1      27.841  29.681  22.575  1.00  0.00     0.039 A 
ATOM     31  F   UNL A   1      29.809  30.762  21.882  1.00  0.00    -0.207 F 
ATOM     32  C   UNL A   1      27.207  28.592  23.166  1.00  0.00     0.003 A 
ENDBRANCH  25  26
ENDBRANCH   8  25
ENDBRANCH   3   5
ENDBRANCH   2   3
ENDBRANCH   1   2
BRANCH   1  33
ATOM     33  C   UNL A   1      33.638  31.303  27.756  1.00  0.00     0.275 C 
BRANCH  33  34
ATOM     34  O   UNL A   1      34.929  31.646  27.207  1.00  0.00    -0.458 OA
BRANCH  34  35
ATOM     35  C   UNL A   1      35.675  32.483  27.973  1.00  0.00     0.338 C 
ATOM     36  O   UNL A   1      35.464  33.671  28.147  1.00  0.00    -0.246 OA
BRANCH  35  37
ATOM     37  C   UNL A   1      36.565  31.646  28.822  1.00  0.00     0.060 A 
ATOM     38  C   UNL A   1      37.910  31.970  29.033  1.00  0.00     0.016 A 
ATOM     39  C   UNL A   1      36.099  30.369  29.148  1.00  0.00     0.016 A 
ATOM     40  C   UNL A   1      38.812  30.966  29.404  1.00  0.00     0.010 A 
ATOM     41  C   UNL A   1      37.005  29.377  29.534  1.00  0.00     0.010 A 
ATOM     42  C   UNL A   1      38.383  29.639  29.573  1.00  0.00    -0.014 A 
BRANCH  42  43
ATOM     43  C   UNL A   1      39.368  28.579  29.851  1.00  0.00     0.031 A 
ATOM     44  C   UNL A   1      39.820  28.337  31.239  1.00  0.00     0.074 A 
ATOM     45  C   UNL A   1      39.848  27.634  29.014  1.00  0.00     0.049 A 
ATOM     46  N   UNL A   1      40.920  28.753  31.776  1.00  0.00    -0.248 NA
ATOM     47  C   UNL A   1      39.003  27.474  32.103  1.00  0.00     0.031 C 
ATOM     48  C   UNL A   1      39.290  27.154  27.758  1.00  0.00     0.029 A 
ATOM     49  N   UNL A   1      40.966  26.852  29.187  1.00  0.00    -0.354 N 
ATOM     50  C   UNL A   1      40.991  28.143  33.019  1.00  0.00     0.074 A 
ATOM     51  C   UNL A   1      39.749  27.429  33.209  1.00  0.00     0.031 C 
ATOM     52  C   UNL A   1      40.011  26.092  27.322  1.00  0.00     0.029 A 
ATOM     53  C   UNL A   1      41.169  25.915  28.188  1.00  0.00     0.049 A 
ATOM     54  H   UNL A   1      41.571  26.949  29.957  1.00  0.00     0.167 HD
ATOM     55  C   UNL A   1      42.123  28.137  33.768  1.00  0.00     0.031 A 
ATOM     56  C   UNL A   1      42.226  25.080  28.045  1.00  0.00     0.031 A 
ATOM     57  C   UNL A   1      43.197  28.889  33.184  1.00  0.00     0.049 A 
ATOM     58  C   UNL A   1      43.377  25.611  28.816  1.00  0.00     0.074 A 
ATOM     59  C   UNL A   1      43.487  30.220  32.983  1.00  0.00     0.029 A 
ATOM     60  N   UNL A   1      44.057  28.173  32.388  1.00  0.00    -0.354 N 
ATOM     61  N   UNL A   1      44.001  26.714  28.517  1.00  0.00    -0.248 NA
ATOM     62  C   UNL A   1      43.795  24.990  30.068  1.00  0.00     0.031 C 
ATOM     63  C   UNL A   1      44.323  30.273  31.826  1.00  0.00     0.029 A 
ATOM     64  C   UNL A   1      44.477  28.972  31.349  1.00  0.00     0.049 A 
ATOM     65  H   UNL A   1      44.329  27.239  32.537  1.00  0.00     0.167 HD
ATOM     66  C   UNL A   1      44.575  27.129  29.702  1.00  0.00     0.074 A 
ATOM     67  C   UNL A   1      44.592  25.950  30.548  1.00  0.00     0.031 C 
ATOM     68  C   UNL A   1      44.677  28.455  30.006  1.00  0.00     0.031 A 
BRANCH  55  69
ATOM     69  C   UNL A   1      42.349  27.227  34.928  1.00  0.00    -0.014 A 
ATOM     70  C   UNL A   1      41.903  27.535  36.227  1.00  0.00     0.009 A 
ATOM     71  C   UNL A   1      42.878  25.949  34.704  1.00  0.00     0.009 A 
ATOM     72  C   UNL A   1      42.041  26.622  37.275  1.00  0.00     0.001 A 
ATOM     73  C   UNL A   1      42.990  25.023  35.746  1.00  0.00     0.001 A 
ATOM     74  C   UNL A   1      42.583  25.365  37.033  1.00  0.00     0.000 A 
ENDBRANCH  55  69
BRANCH  56  75
ATOM     75  C   UNL A   1      42.368  23.857  27.229  1.00  0.00    -0.014 A 
ATOM     76  C   UNL A   1      42.077  22.594  27.769  1.00  0.00     0.009 A 
ATOM     77  C   UNL A   1      42.978  23.905  25.964  1.00  0.00     0.009 A 
ATOM     78  C   UNL A   1      42.391  21.421  27.073  1.00  0.00     0.001 A 
ATOM     79  C   UNL A   1      43.303  22.732  25.272  1.00  0.00     0.001 A 
ATOM     80  C   UNL A   1      43.013  21.491  25.830  1.00  0.00     0.000 A 
ENDBRANCH  56  75
BRANCH  68  81
ATOM     81  C   UNL A   1      44.665  29.433  28.857  1.00  0.00    -0.014 A 
ATOM     82  C   UNL A   1      45.888  29.905  28.354  1.00  0.00     0.009 A 
ATOM     83  C   UNL A   1      43.479  29.943  28.301  1.00  0.00     0.009 A 
ATOM     84  C   UNL A   1      45.921  30.842  27.315  1.00  0.00     0.001 A 
ATOM     85  C   UNL A   1      43.512  30.856  27.243  1.00  0.00     0.001 A 
ATOM     86  C   UNL A   1      44.734  31.307  26.753  1.00  0.00     0.000 A 
ENDBRANCH  68  81
ENDBRANCH  42  43
ENDBRANCH  35  37
ENDBRANCH  34  35
ENDBRANCH  33  34
ENDBRANCH   1  33
TORSDOF 16
ENDMDL
MODEL 3
REMARK VINA RESULT:     -11.4      2.458      7.475
REMARK SMILES C[C@H]1CC[C@H]([NH2+]Cc2c(C(=O)OCCOC(=O)c3ccc(-c4c5nc(c(-c6ccccc6)c6ccc([nH]6)c(-c6ccccc6)c6nc(c(-c7ccccc7)c7ccc4[nH]7)C=C6)C=C5)cc3)n(Cc3ccccc3F)c3ccccc23)CC1
REMARK SMILES IDX 13 1 12 2 10 3 11 4 9 5 8 6 80 7 66 8 75 9 79 10 76 11 78 12
REMARK SMILES IDX 77 13 7 14 6 15 5 18 1 19 2 20 3 21 82 22 4 23 81 24 67 25
REMARK SMILES IDX 68 26 69 27 73 28 70 29 72 30 74 31 71 32 14 33 15 34 16 35
REMARK SMILES IDX 17 36 18 37 19 38 65 39 20 40 64 41 21 42 22 43 23 44 58 45
REMARK SMILES IDX 24 46 63 47 57 48 59 49 25 50 62 51 56 52 55 53 26 55 48 56
REMARK SMILES IDX 33 57 47 58 34 59 37 60 46 61 60 62 35 63 36 64 45 66 61 67
REMARK SMILES IDX 38 68 27 69 28 70 32 71 29 72 31 73 30 74 49 75 50 76 54 77
REMARK SMILES IDX 51 78 53 79 52 80 39 81 40 82 44 83 41 84 43 85 42 86
REMARK H PARENT 6 16 6 17 59 54 37 65
REMARK Flexibility Score: inf
ROOT
ATOM      1  C   UNL A   1      33.722  29.380  26.460  1.00  0.00     0.275 C 
ENDROOT
BRANCH   1   2
ATOM      2  O   UNL A   1      33.346  29.314  25.052  1.00  0.00    -0.457 OA
BRANCH   2   3
ATOM      3  C   UNL A   1      33.429  28.092  24.457  1.00  0.00     0.355 C 
ATOM      4  O   UNL A   1      34.021  27.895  23.416  1.00  0.00    -0.244 OA
BRANCH   3   5
ATOM      5  C   UNL A   1      32.650  27.058  25.116  1.00  0.00     0.137 A 
ATOM      6  C   UNL A   1      31.275  26.785  25.020  1.00  0.00     0.047 A 
ATOM      7  C   UNL A   1      31.049  25.549  25.730  1.00  0.00     0.009 A 
ATOM      8  N   UNL A   1      33.246  25.969  25.781  1.00  0.00    -0.330 N 
ATOM      9  C   UNL A   1      32.282  25.025  26.103  1.00  0.00     0.050 A 
ATOM     10  C   UNL A   1      29.886  24.787  25.994  1.00  0.00     0.011 A 
ATOM     11  C   UNL A   1      32.389  23.726  26.633  1.00  0.00     0.027 A 
ATOM     12  C   UNL A   1      29.986  23.522  26.578  1.00  0.00     0.001 A 
ATOM     13  C   UNL A   1      31.230  22.990  26.877  1.00  0.00     0.002 A 
BRANCH   6  14
ATOM     14  C   UNL A   1      30.132  27.469  24.293  1.00  0.00     0.300 C 
BRANCH  14  15
ATOM     15  N   UNL A   1      30.263  28.895  24.043  1.00  0.00    -0.340 N 
ATOM     16  H   UNL A   1      30.508  29.332  24.932  1.00  0.00     0.346 HD
ATOM     17  H   UNL A   1      30.960  28.948  23.300  1.00  0.00     0.346 HD
BRANCH  15  18
ATOM     18  C   UNL A   1      29.114  29.635  23.501  1.00  0.00     0.182 C 
ATOM     19  C   UNL A   1      27.882  32.908  20.741  1.00  0.00     0.007 C 
ATOM     20  C   UNL A   1      28.591  31.847  21.576  1.00  0.00    -0.014 C 
ATOM     21  C   UNL A   1      28.028  30.451  21.312  1.00  0.00     0.009 C 
ATOM     22  C   UNL A   1      28.484  32.123  23.075  1.00  0.00     0.009 C 
ATOM     23  C   UNL A   1      28.901  29.408  22.002  1.00  0.00     0.065 C 
ATOM     24  C   UNL A   1      29.320  31.123  23.876  1.00  0.00     0.065 C 
ENDBRANCH  15  18
ENDBRANCH  14  15
ENDBRANCH   6  14
BRANCH   8  25
ATOM     25  C   UNL A   1      34.686  25.659  25.812  1.00  0.00     0.161 C 
BRANCH  25  26
ATOM     26  C   UNL A   1      35.196  24.475  25.026  1.00  0.00     0.008 A 
ATOM     27  C   UNL A   1      34.615  24.089  23.806  1.00  0.00     0.008 A 
ATOM     28  C   UNL A   1      36.400  23.860  25.386  1.00  0.00     0.128 A 
ATOM     29  C   UNL A   1      35.229  23.146  22.974  1.00  0.00     0.001 A 
ATOM     30  C   UNL A   1      37.028  22.931  24.554  1.00  0.00     0.039 A 
ATOM     31  F   UNL A   1      37.018  24.217  26.521  1.00  0.00    -0.207 F 
ATOM     32  C   UNL A   1      36.445  22.578  23.340  1.00  0.00     0.003 A 
ENDBRANCH  25  26
ENDBRANCH   8  25
ENDBRANCH   3   5
ENDBRANCH   2   3
ENDBRANCH   1   2
BRANCH   1  33
ATOM     33  C   UNL A   1      33.358  30.650  27.251  1.00  0.00     0.275 C 
BRANCH  33  34
ATOM     34  O   UNL A   1      34.498  31.537  27.231  1.00  0.00    -0.458 OA
BRANCH  34  35
ATOM     35  C   UNL A   1      34.948  31.919  28.454  1.00  0.00     0.338 C 
ATOM     36  O   UNL A   1      34.270  32.404  29.346  1.00  0.00    -0.246 OA
BRANCH  35  37
ATOM     37  C   UNL A   1      36.303  31.335  28.640  1.00  0.00     0.060 A 
ATOM     38  C   UNL A   1      36.948  30.617  27.626  1.00  0.00     0.016 A 
ATOM     39  C   UNL A   1      36.778  31.261  29.952  1.00  0.00     0.016 A 
ATOM     40  C   UNL A   1      37.951  29.700  27.960  1.00  0.00     0.010 A 
ATOM     41  C   UNL A   1      37.792  30.355  30.274  1.00  0.00     0.010 A 
ATOM     42  C   UNL A   1      38.322  29.496  29.300  1.00  0.00    -0.014 A 
BRANCH  42  43
ATOM     43  C   UNL A   1      39.299  28.445  29.638  1.00  0.00     0.031 A 
ATOM     44  C   UNL A   1      39.712  28.247  31.045  1.00  0.00     0.074 A 
ATOM     45  C   UNL A   1      39.802  27.475  28.844  1.00  0.00     0.049 A 
ATOM     46  N   UNL A   1      40.797  28.679  31.599  1.00  0.00    -0.248 NA
ATOM     47  C   UNL A   1      38.871  27.410  31.912  1.00  0.00     0.031 C 
ATOM     48  C   UNL A   1      39.279  26.955  27.589  1.00  0.00     0.029 A 
ATOM     49  N   UNL A   1      40.914  26.699  29.072  1.00  0.00    -0.354 N 
ATOM     50  C   UNL A   1      40.833  28.108  32.862  1.00  0.00     0.074 A 
ATOM     51  C   UNL A   1      39.586  27.400  33.039  1.00  0.00     0.031 C 
ATOM     52  C   UNL A   1      40.010  25.881  27.206  1.00  0.00     0.029 A 
ATOM     53  C   UNL A   1      41.144  25.731  28.109  1.00  0.00     0.049 A 
ATOM     54  H   UNL A   1      41.498  26.819  29.856  1.00  0.00     0.167 HD
ATOM     55  C   UNL A   1      41.944  28.125  33.642  1.00  0.00     0.031 A 
ATOM     56  C   UNL A   1      42.204  24.893  28.021  1.00  0.00     0.031 A 
ATOM     57  C   UNL A   1      43.034  28.859  33.065  1.00  0.00     0.049 A 
ATOM     58  C   UNL A   1      43.333  25.447  28.807  1.00  0.00     0.074 A 
ATOM     59  C   UNL A   1      43.330  30.184  32.831  1.00  0.00     0.029 A 
ATOM     60  N   UNL A   1      43.915  28.120  32.316  1.00  0.00    -0.354 N 
ATOM     61  N   UNL A   1      43.967  26.541  28.492  1.00  0.00    -0.248 NA
ATOM     62  C   UNL A   1      43.716  24.866  30.089  1.00  0.00     0.031 C 
ATOM     63  C   UNL A   1      44.198  30.201  31.697  1.00  0.00     0.029 A 
ATOM     64  C   UNL A   1      44.365  28.886  31.264  1.00  0.00     0.049 A 
ATOM     65  H   UNL A   1      44.183  27.190  32.501  1.00  0.00     0.167 HD
ATOM     66  C   UNL A   1      44.507  26.993  29.679  1.00  0.00     0.074 A 
ATOM     67  C   UNL A   1      44.500  25.840  30.561  1.00  0.00     0.031 C 
ATOM     68  C   UNL A   1      44.602  28.327  29.945  1.00  0.00     0.031 A 
BRANCH  55  69
ATOM     69  C   UNL A   1      42.137  27.252  34.836  1.00  0.00    -0.014 A 
ATOM     70  C   UNL A   1      41.630  27.587  36.105  1.00  0.00     0.009 A 
ATOM     71  C   UNL A   1      42.699  25.979  34.669  1.00  0.00     0.009 A 
ATOM     72  C   UNL A   1      41.740  26.705  37.184  1.00  0.00     0.001 A 
ATOM     73  C   UNL A   1      42.784  25.084  35.741  1.00  0.00     0.001 A 
ATOM     74  C   UNL A   1      42.315  25.453  37.000  1.00  0.00     0.000 A 
ENDBRANCH  55  69
BRANCH  56  75
ATOM     75  C   UNL A   1      42.368  23.645  27.248  1.00  0.00    -0.014 A 
ATOM     76  C   UNL A   1      41.381  22.646  27.275  1.00  0.00     0.009 A 
ATOM     77  C   UNL A   1      43.591  23.341  26.626  1.00  0.00     0.009 A 
ATOM     78  C   UNL A   1      41.610  21.388  26.707  1.00  0.00     0.001 A 
ATOM     79  C   UNL A   1      43.826  22.079  26.068  1.00  0.00     0.001 A 
ATOM     80  C   UNL A   1      42.836  21.102  26.113  1.00  0.00     0.000 A 
ENDBRANCH  56  75
BRANCH  68  81
ATOM     81  C   UNL A   1      44.623  29.269  28.766  1.00  0.00    -0.014 A 
ATOM     82  C   UNL A   1      43.406  29.642  28.172  1.00  0.00     0.009 A 
ATOM     83  C   UNL A   1      45.814  29.749  28.193  1.00  0.00     0.009 A 
ATOM     84  C   UNL A   1      43.383  30.482  27.054  1.00  0.00     0.001 A 
ATOM     85  C   UNL A   1      45.789  30.612  27.094  1.00  0.00     0.001 A 
ATOM     86  C   UNL A   1      44.573  30.976  26.523  1.00  0.00     0.000 A 
ENDBRANCH  68  81
ENDBRANCH  42  43
ENDBRANCH  35  37
ENDBRANCH  34  35
ENDBRANCH  33  34
ENDBRANCH   1  33
TORSDOF 16
ENDMDL
