MODEL 1
REMARK VINA RESULT:     -12.6      0.000      0.000
REMARK SMILES O=C(OCCOC(=O)c1nn(Cc2ccc(F)cc2)c2c1CN(C(=O)[C@H]1CC1(F)F)CC2)c1ccc(-c2c3nc(c(-c4ccccc4)c4ccc([nH]4)c(-c4ccccc4)c4nc(c(-c5ccccc5)c5ccc2[nH]5)C=C4)C=C3)cc1
REMARK SMILES IDX 4 1 3 2 2 3 1 4 33 5 34 6 80 7 35 8 79 9 36 10 37 11 38 12
REMARK SMILES IDX 73 13 39 14 78 15 72 16 74 17 40 18 77 19 71 20 70 21 41 23
REMARK SMILES IDX 63 24 48 25 62 26 49 27 52 28 61 29 75 30 50 31 51 32 60 34
REMARK SMILES IDX 76 35 53 36 42 37 43 38 47 39 44 40 46 41 45 42 64 43 65 44
REMARK SMILES IDX 69 45 66 46 68 47 67 48 54 49 55 50 59 51 56 52 58 53 57 54
REMARK SMILES IDX 5 55 6 56 7 57 8 58 9 59 10 60 21 61 11 62 20 63 22 64 32 65
REMARK SMILES IDX 23 66 31 67 12 68 13 69 14 70 19 71 15 72 18 73 16 74 17 75
REMARK SMILES IDX 24 76 25 77 26 78 27 79 28 80 29 81 30 82
REMARK H PARENT 74 22 52 33
REMARK Flexibility Score: inf
ROOT
ATOM      1  C   UNL A   1      33.490  31.276  27.251  1.00  0.00     0.275 C 
ENDROOT
BRANCH   1   2
ATOM      2  O   UNL A   1      34.600  30.899  28.087  1.00  0.00    -0.458 OA
BRANCH   2   3
ATOM      3  C   UNL A   1      35.740  31.606  28.001  1.00  0.00     0.338 C 
ATOM      4  O   UNL A   1      35.826  32.792  27.720  1.00  0.00    -0.246 OA
BRANCH   3   5
ATOM      5  C   UNL A   1      36.891  30.739  28.330  1.00  0.00     0.060 A 
ATOM      6  C   UNL A   1      38.100  31.277  28.791  1.00  0.00     0.016 A 
ATOM      7  C   UNL A   1      36.730  29.358  28.245  1.00  0.00     0.016 A 
ATOM      8  C   UNL A   1      39.159  30.441  29.121  1.00  0.00     0.010 A 
ATOM      9  C   UNL A   1      37.776  28.522  28.624  1.00  0.00     0.010 A 
ATOM     10  C   UNL A   1      39.011  29.056  29.025  1.00  0.00    -0.014 A 
BRANCH  10  11
ATOM     11  C   UNL A   1      40.152  28.200  29.388  1.00  0.00     0.031 A 
ATOM     12  C   UNL A   1      40.645  28.203  30.813  1.00  0.00     0.074 A 
ATOM     13  C   UNL A   1      40.662  27.288  28.530  1.00  0.00     0.049 A 
ATOM     14  N   UNL A   1      41.862  28.071  31.245  1.00  0.00    -0.248 NA
ATOM     15  C   UNL A   1      39.663  28.316  31.902  1.00  0.00     0.031 C 
ATOM     16  C   UNL A   1      40.190  26.940  27.185  1.00  0.00     0.029 A 
ATOM     17  N   UNL A   1      41.660  26.380  28.748  1.00  0.00    -0.354 N 
ATOM     18  C   UNL A   1      41.784  27.932  32.631  1.00  0.00     0.074 A 
ATOM     19  C   UNL A   1      40.392  28.039  32.984  1.00  0.00     0.031 C 
ATOM     20  C   UNL A   1      40.725  25.758  26.815  1.00  0.00     0.029 A 
ATOM     21  C   UNL A   1      41.692  25.353  27.818  1.00  0.00     0.049 A 
ATOM     22  H   UNL A   1      42.297  26.450  29.495  1.00  0.00     0.167 HD
ATOM     23  C   UNL A   1      42.862  27.689  33.424  1.00  0.00     0.031 A 
ATOM     24  C   UNL A   1      42.437  24.227  27.857  1.00  0.00     0.031 A 
ATOM     25  C   UNL A   1      44.077  28.187  32.856  1.00  0.00     0.049 A 
ATOM     26  C   UNL A   1      43.564  24.450  28.783  1.00  0.00     0.074 A 
ATOM     27  C   UNL A   1      44.508  29.438  32.460  1.00  0.00     0.029 A 
ATOM     28  N   UNL A   1      44.981  27.304  32.325  1.00  0.00    -0.354 N 
ATOM     29  N   UNL A   1      44.553  25.256  28.536  1.00  0.00    -0.248 NA
ATOM     30  C   UNL A   1      43.437  24.019  30.164  1.00  0.00     0.031 C 
ATOM     31  C   UNL A   1      45.302  29.197  31.304  1.00  0.00     0.029 A 
ATOM     32  C   UNL A   1      45.321  27.816  31.100  1.00  0.00     0.049 A 
ATOM     33  H   UNL A   1      45.316  26.475  32.738  1.00  0.00     0.167 HD
ATOM     34  C   UNL A   1      44.909  25.767  29.773  1.00  0.00     0.074 A 
ATOM     35  C   UNL A   1      44.293  24.865  30.742  1.00  0.00     0.031 C 
ATOM     36  C   UNL A   1      45.429  27.025  29.896  1.00  0.00     0.031 A 
BRANCH  23  37
ATOM     37  C   UNL A   1      42.844  26.762  34.607  1.00  0.00    -0.014 A 
ATOM     38  C   UNL A   1      42.953  25.374  34.397  1.00  0.00     0.009 A 
ATOM     39  C   UNL A   1      42.417  27.187  35.879  1.00  0.00     0.009 A 
ATOM     40  C   UNL A   1      42.589  24.455  35.387  1.00  0.00     0.001 A 
ATOM     41  C   UNL A   1      42.081  26.268  36.881  1.00  0.00     0.001 A 
ATOM     42  C   UNL A   1      42.142  24.903  36.626  1.00  0.00     0.000 A 
ENDBRANCH  23  37
BRANCH  24  43
ATOM     43  C   UNL A   1      42.161  22.917  27.242  1.00  0.00    -0.014 A 
ATOM     44  C   UNL A   1      43.014  22.384  26.265  1.00  0.00     0.009 A 
ATOM     45  C   UNL A   1      41.167  22.078  27.780  1.00  0.00     0.009 A 
ATOM     46  C   UNL A   1      42.888  21.051  25.857  1.00  0.00     0.001 A 
ATOM     47  C   UNL A   1      41.038  20.750  27.369  1.00  0.00     0.001 A 
ATOM     48  C   UNL A   1      41.908  20.233  26.415  1.00  0.00     0.000 A 
ENDBRANCH  24  43
BRANCH  36  49
ATOM     49  C   UNL A   1      45.809  27.773  28.639  1.00  0.00    -0.014 A 
ATOM     50  C   UNL A   1      47.107  27.731  28.101  1.00  0.00     0.009 A 
ATOM     51  C   UNL A   1      44.800  28.384  27.880  1.00  0.00     0.009 A 
ATOM     52  C   UNL A   1      47.397  28.312  26.863  1.00  0.00     0.001 A 
ATOM     53  C   UNL A   1      45.082  28.942  26.630  1.00  0.00     0.001 A 
ATOM     54  C   UNL A   1      46.380  28.913  26.126  1.00  0.00     0.000 A 
ENDBRANCH  36  49
ENDBRANCH  10  11
ENDBRANCH   3   5
ENDBRANCH   2   3
ENDBRANCH   1   2
BRANCH   1  55
ATOM     55  C   UNL A   1      32.446  30.209  26.897  1.00  0.00     0.275 C 
BRANCH  55  56
ATOM     56  O   UNL A   1      32.833  29.466  25.724  1.00  0.00    -0.457 OA
BRANCH  56  57
ATOM     57  C   UNL A   1      33.138  28.142  25.903  1.00  0.00     0.359 C 
ATOM     58  O   UNL A   1      34.123  27.718  26.501  1.00  0.00    -0.244 OA
BRANCH  57  59
ATOM     59  C   UNL A   1      32.160  27.249  25.270  1.00  0.00     0.175 A 
ATOM     60  N   UNL A   1      30.861  27.607  25.193  1.00  0.00    -0.165 NA
ATOM     61  C   UNL A   1      32.377  26.004  24.607  1.00  0.00     0.028 A 
ATOM     62  N   UNL A   1      30.274  26.642  24.455  1.00  0.00    -0.264 N 
ATOM     63  C   UNL A   1      31.125  25.612  24.193  1.00  0.00     0.046 A 
ATOM     64  C   UNL A   1      33.612  25.203  24.370  1.00  0.00     0.159 C 
ATOM     65  C   UNL A   1      30.830  24.341  23.509  1.00  0.00     0.078 C 
ATOM     66  N   UNL A   1      33.305  23.860  23.803  1.00  0.00    -0.337 N 
ATOM     67  C   UNL A   1      31.930  23.333  23.872  1.00  0.00     0.126 C 
BRANCH  62  68
ATOM     68  C   UNL A   1      28.974  26.882  23.837  1.00  0.00     0.180 C 
BRANCH  68  69
ATOM     69  C   UNL A   1      28.898  28.186  23.087  1.00  0.00    -0.026 A 
ATOM     70  C   UNL A   1      27.718  28.951  23.126  1.00  0.00     0.008 A 
ATOM     71  C   UNL A   1      30.006  28.675  22.378  1.00  0.00     0.008 A 
ATOM     72  C   UNL A   1      27.653  30.184  22.482  1.00  0.00     0.039 A 
ATOM     73  C   UNL A   1      29.937  29.912  21.737  1.00  0.00     0.039 A 
ATOM     74  C   UNL A   1      28.764  30.656  21.798  1.00  0.00     0.123 A 
ATOM     75  F   UNL A   1      28.708  31.850  21.192  1.00  0.00    -0.207 F 
ENDBRANCH  68  69
ENDBRANCH  62  68
BRANCH  66  76
ATOM     76  C   UNL A   1      34.402  23.035  23.544  1.00  0.00     0.232 C 
ATOM     77  O   UNL A   1      35.287  23.333  22.751  1.00  0.00    -0.274 OA
BRANCH  76  78
ATOM     78  C   UNL A   1      34.553  21.813  24.367  1.00  0.00     0.154 C 
ATOM     79  C   UNL A   1      35.900  21.369  24.917  1.00  0.00     0.097 C 
ATOM     80  C   UNL A   1      34.864  21.929  25.812  1.00  0.00     0.260 C 
ATOM     81  F   UNL A   1      35.124  23.121  26.442  1.00  0.00    -0.206 F 
ATOM     82  F   UNL A   1      34.275  21.094  26.735  1.00  0.00    -0.206 F 
ENDBRANCH  76  78
ENDBRANCH  66  76
ENDBRANCH  57  59
ENDBRANCH  56  57
ENDBRANCH  55  56
ENDBRANCH   1  55
TORSDOF 15
ENDMDL
MODEL 2
REMARK VINA RESULT:     -12.3      3.311      7.201
REMARK SMILES O=C(OCCOC(=O)c1nn(Cc2ccc(F)cc2)c2c1CN(C(=O)[C@H]1CC1(F)F)CC2)c1ccc(-c2c3nc(c(-c4ccccc4)c4ccc([nH]4)c(-c4ccccc4)c4nc(c(-c5ccccc5)c5ccc2[nH]5)C=C4)C=C3)cc1
REMARK SMILES IDX 4 1 3 2 2 3 1 4 33 5 34 6 80 7 35 8 79 9 36 10 37 11 38 12
REMARK SMILES IDX 73 13 39 14 78 15 72 16 74 17 40 18 77 19 71 20 70 21 41 23
REMARK SMILES IDX 63 24 48 25 62 26 49 27 52 28 61 29 75 30 50 31 51 32 60 34
REMARK SMILES IDX 76 35 53 36 42 37 43 38 47 39 44 40 46 41 45 42 64 43 65 44
REMARK SMILES IDX 69 45 66 46 68 47 67 48 54 49 55 50 59 51 56 52 58 53 57 54
REMARK SMILES IDX 5 55 6 56 7 57 8 58 9 59 10 60 21 61 11 62 20 63 22 64 32 65
REMARK SMILES IDX 23 66 31 67 12 68 13 69 14 70 19 71 15 72 18 73 16 74 17 75
REMARK SMILES IDX 24 76 25 77 26 78 27 79 28 80 29 81 30 82
REMARK H PARENT 74 22 52 33
REMARK Flexibility Score: inf
ROOT
ATOM      1  C   UNL A   1      39.542  19.580  25.863  1.00  0.00     0.275 C 
ENDROOT
BRANCH   1   2
ATOM      2  O   UNL A   1      40.589  18.707  25.401  1.00  0.00    -0.458 OA
BRANCH   2   3
ATOM      3  C   UNL A   1      41.835  18.892  25.869  1.00  0.00     0.338 C 
ATOM      4  O   UNL A   1      42.758  18.097  25.777  1.00  0.00    -0.246 OA
BRANCH   3   5
ATOM      5  C   UNL A   1      41.940  20.228  26.494  1.00  0.00     0.060 A 
ATOM      6  C   UNL A   1      41.331  20.505  27.726  1.00  0.00     0.016 A 
ATOM      7  C   UNL A   1      42.723  21.195  25.869  1.00  0.00     0.016 A 
ATOM      8  C   UNL A   1      41.467  21.758  28.308  1.00  0.00     0.010 A 
ATOM      9  C   UNL A   1      42.897  22.433  26.480  1.00  0.00     0.010 A 
ATOM     10  C   UNL A   1      42.239  22.740  27.682  1.00  0.00    -0.014 A 
BRANCH  10  11
ATOM     11  C   UNL A   1      42.364  24.055  28.329  1.00  0.00     0.031 A 
ATOM     12  C   UNL A   1      41.336  25.118  28.033  1.00  0.00     0.074 A 
ATOM     13  C   UNL A   1      43.268  24.287  29.307  1.00  0.00     0.049 A 
ATOM     14  N   UNL A   1      41.504  26.402  27.952  1.00  0.00    -0.248 NA
ATOM     15  C   UNL A   1      39.933  24.715  27.853  1.00  0.00     0.031 C 
ATOM     16  C   UNL A   1      44.202  23.339  29.925  1.00  0.00     0.029 A 
ATOM     17  N   UNL A   1      43.450  25.421  30.046  1.00  0.00    -0.354 N 
ATOM     18  C   UNL A   1      40.233  26.970  27.865  1.00  0.00     0.074 A 
ATOM     19  C   UNL A   1      39.289  25.883  27.860  1.00  0.00     0.031 C 
ATOM     20  C   UNL A   1      44.662  23.856  31.084  1.00  0.00     0.029 A 
ATOM     21  C   UNL A   1      44.186  25.221  31.203  1.00  0.00     0.049 A 
ATOM     22  H   UNL A   1      43.093  26.299  29.781  1.00  0.00     0.167 HD
ATOM     23  C   UNL A   1      40.009  28.311  27.849  1.00  0.00     0.031 A 
ATOM     24  C   UNL A   1      44.388  26.094  32.215  1.00  0.00     0.031 A 
ATOM     25  C   UNL A   1      41.120  29.041  27.317  1.00  0.00     0.049 A 
ATOM     26  C   UNL A   1      44.114  27.454  31.714  1.00  0.00     0.074 A 
ATOM     27  C   UNL A   1      41.787  29.023  26.108  1.00  0.00     0.029 A 
ATOM     28  N   UNL A   1      41.920  29.758  28.167  1.00  0.00    -0.354 N 
ATOM     29  N   UNL A   1      44.866  28.072  30.852  1.00  0.00    -0.248 NA
ATOM     30  C   UNL A   1      42.797  28.029  31.920  1.00  0.00     0.031 C 
ATOM     31  C   UNL A   1      43.151  29.253  26.446  1.00  0.00     0.029 A 
ATOM     32  C   UNL A   1      43.207  29.425  27.831  1.00  0.00     0.049 A 
ATOM     33  H   UNL A   1      41.632  30.382  28.872  1.00  0.00     0.167 HD
ATOM     34  C   UNL A   1      43.990  28.840  30.105  1.00  0.00     0.074 A 
ATOM     35  C   UNL A   1      42.764  28.887  30.898  1.00  0.00     0.031 C 
ATOM     36  C   UNL A   1      44.242  29.129  28.794  1.00  0.00     0.031 A 
BRANCH  23  37
ATOM     37  C   UNL A   1      38.870  28.983  28.562  1.00  0.00    -0.014 A 
ATOM     38  C   UNL A   1      38.696  28.767  29.942  1.00  0.00     0.009 A 
ATOM     39  C   UNL A   1      37.794  29.565  27.864  1.00  0.00     0.009 A 
ATOM     40  C   UNL A   1      37.485  29.056  30.580  1.00  0.00     0.001 A 
ATOM     41  C   UNL A   1      36.591  29.882  28.507  1.00  0.00     0.001 A 
ATOM     42  C   UNL A   1      36.428  29.604  29.859  1.00  0.00     0.000 A 
ENDBRANCH  23  37
BRANCH  24  43
ATOM     43  C   UNL A   1      44.677  25.812  33.632  1.00  0.00    -0.014 A 
ATOM     44  C   UNL A   1      43.643  25.679  34.568  1.00  0.00     0.009 A 
ATOM     45  C   UNL A   1      45.979  25.449  34.029  1.00  0.00     0.009 A 
ATOM     46  C   UNL A   1      43.898  25.182  35.851  1.00  0.00     0.001 A 
ATOM     47  C   UNL A   1      46.234  24.957  35.311  1.00  0.00     0.001 A 
ATOM     48  C   UNL A   1      45.190  24.812  36.218  1.00  0.00     0.000 A 
ENDBRANCH  24  43
BRANCH  36  49
ATOM     49  C   UNL A   1      45.597  28.775  28.227  1.00  0.00    -0.014 A 
ATOM     50  C   UNL A   1      45.910  27.480  27.776  1.00  0.00     0.009 A 
ATOM     51  C   UNL A   1      46.518  29.802  27.971  1.00  0.00     0.009 A 
ATOM     52  C   UNL A   1      47.118  27.212  27.126  1.00  0.00     0.001 A 
ATOM     53  C   UNL A   1      47.714  29.542  27.297  1.00  0.00     0.001 A 
ATOM     54  C   UNL A   1      48.017  28.247  26.881  1.00  0.00     0.000 A 
ENDBRANCH  36  49
ENDBRANCH  10  11
ENDBRANCH   3   5
ENDBRANCH   2   3
ENDBRANCH   1   2
BRANCH   1  55
ATOM     55  C   UNL A   1      38.427  19.969  24.883  1.00  0.00     0.275 C 
BRANCH  55  56
ATOM     56  O   UNL A   1      37.324  20.596  25.567  1.00  0.00    -0.457 OA
BRANCH  56  57
ATOM     57  C   UNL A   1      37.277  21.966  25.538  1.00  0.00     0.359 C 
ATOM     58  O   UNL A   1      38.219  22.712  25.792  1.00  0.00    -0.244 OA
BRANCH  57  59
ATOM     59  C   UNL A   1      35.945  22.476  25.191  1.00  0.00     0.175 A 
ATOM     60  N   UNL A   1      35.701  23.804  25.197  1.00  0.00    -0.165 NA
ATOM     61  C   UNL A   1      34.796  21.757  24.745  1.00  0.00     0.028 A 
ATOM     62  N   UNL A   1      34.446  23.933  24.718  1.00  0.00    -0.264 N 
ATOM     63  C   UNL A   1      33.838  22.725  24.553  1.00  0.00     0.046 A 
ATOM     64  C   UNL A   1      34.555  20.303  24.520  1.00  0.00     0.159 C 
ATOM     65  C   UNL A   1      32.447  22.457  24.148  1.00  0.00     0.078 C 
ATOM     66  N   UNL A   1      33.120  20.013  24.243  1.00  0.00    -0.337 N 
ATOM     67  C   UNL A   1      32.094  21.021  24.561  1.00  0.00     0.126 C 
BRANCH  62  68
ATOM     68  C   UNL A   1      33.983  25.222  24.217  1.00  0.00     0.180 C 
BRANCH  68  69
ATOM     69  C   UNL A   1      33.251  26.038  25.250  1.00  0.00    -0.026 A 
ATOM     70  C   UNL A   1      33.880  27.146  25.845  1.00  0.00     0.008 A 
ATOM     71  C   UNL A   1      31.927  25.733  25.603  1.00  0.00     0.008 A 
ATOM     72  C   UNL A   1      33.195  27.941  26.761  1.00  0.00     0.039 A 
ATOM     73  C   UNL A   1      31.244  26.533  26.519  1.00  0.00     0.039 A 
ATOM     74  C   UNL A   1      31.882  27.631  27.086  1.00  0.00     0.123 A 
ATOM     75  F   UNL A   1      31.217  28.404  27.955  1.00  0.00    -0.207 F 
ENDBRANCH  68  69
ENDBRANCH  62  68
BRANCH  66  76
ATOM     76  C   UNL A   1      32.796  18.673  24.016  1.00  0.00     0.232 C 
ATOM     77  O   UNL A   1      32.132  18.301  23.056  1.00  0.00    -0.274 OA
BRANCH  76  78
ATOM     78  C   UNL A   1      33.397  17.658  24.912  1.00  0.00     0.154 C 
ATOM     79  C   UNL A   1      32.889  16.226  24.969  1.00  0.00     0.097 C 
ATOM     80  C   UNL A   1      34.189  16.543  24.340  1.00  0.00     0.260 C 
ATOM     81  F   UNL A   1      34.330  16.322  22.991  1.00  0.00    -0.206 F 
ATOM     82  F   UNL A   1      35.340  16.100  24.954  1.00  0.00    -0.206 F 
ENDBRANCH  76  78
ENDBRANCH  66  76
ENDBRANCH  57  59
ENDBRANCH  56  57
ENDBRANCH  55  56
ENDBRANCH   1  55
TORSDOF 15
ENDMDL
MODEL 3
REMARK VINA RESULT:     -12.3      3.286      8.635
REMARK SMILES O=C(OCCOC(=O)c1nn(Cc2ccc(F)cc2)c2c1CN(C(=O)[C@H]1CC1(F)F)CC2)c1ccc(-c2c3nc(c(-c4ccccc4)c4ccc([nH]4)c(-c4ccccc4)c4nc(c(-c5ccccc5)c5ccc2[nH]5)C=C4)C=C3)cc1
REMARK SMILES IDX 4 1 3 2 2 3 1 4 33 5 34 6 80 7 35 8 79 9 36 10 37 11 38 12
REMARK SMILES IDX 73 13 39 14 78 15 72 16 74 17 40 18 77 19 71 20 70 21 41 23
REMARK SMILES IDX 63 24 48 25 62 26 49 27 52 28 61 29 75 30 50 31 51 32 60 34
REMARK SMILES IDX 76 35 53 36 42 37 43 38 47 39 44 40 46 41 45 42 64 43 65 44
REMARK SMILES IDX 69 45 66 46 68 47 67 48 54 49 55 50 59 51 56 52 58 53 57 54
REMARK SMILES IDX 5 55 6 56 7 57 8 58 9 59 10 60 21 61 11 62 20 63 22 64 32 65
REMARK SMILES IDX 23 66 31 67 12 68 13 69 14 70 19 71 15 72 18 73 16 74 17 75
REMARK SMILES IDX 24 76 25 77 26 78 27 79 28 80 29 81 30 82
REMARK H PARENT 74 22 52 33
REMARK Flexibility Score: inf
ROOT
ATOM      1  C   UNL A   1      38.662  21.437  25.585  1.00  0.00     0.275 C 
ENDROOT
BRANCH   1   2
ATOM      2  O   UNL A   1      39.200  22.223  26.664  1.00  0.00    -0.458 OA
BRANCH   2   3
ATOM      3  C   UNL A   1      40.464  22.670  26.567  1.00  0.00     0.338 C 
ATOM      4  O   UNL A   1      41.387  22.089  26.015  1.00  0.00    -0.246 OA
BRANCH   3   5
ATOM      5  C   UNL A   1      40.574  23.999  27.205  1.00  0.00     0.060 A 
ATOM      6  C   UNL A   1      41.671  24.331  28.012  1.00  0.00     0.016 A 
ATOM      7  C   UNL A   1      39.597  24.953  26.929  1.00  0.00     0.016 A 
ATOM      8  C   UNL A   1      41.768  25.595  28.577  1.00  0.00     0.010 A 
ATOM      9  C   UNL A   1      39.723  26.233  27.458  1.00  0.00     0.010 A 
ATOM     10  C   UNL A   1      40.785  26.554  28.318  1.00  0.00    -0.014 A 
BRANCH  10  11
ATOM     11  C   UNL A   1      40.922  27.885  28.931  1.00  0.00     0.031 A 
ATOM     12  C   UNL A   1      41.987  28.820  28.418  1.00  0.00     0.074 A 
ATOM     13  C   UNL A   1      40.019  28.359  29.819  1.00  0.00     0.049 A 
ATOM     14  N   UNL A   1      42.687  29.688  29.083  1.00  0.00    -0.248 NA
ATOM     15  C   UNL A   1      42.282  28.836  26.977  1.00  0.00     0.031 C 
ATOM     16  C   UNL A   1      38.778  27.725  30.280  1.00  0.00     0.029 A 
ATOM     17  N   UNL A   1      39.972  29.590  30.409  1.00  0.00    -0.354 N 
ATOM     18  C   UNL A   1      43.384  30.449  28.144  1.00  0.00     0.074 A 
ATOM     19  C   UNL A   1      43.058  29.913  26.848  1.00  0.00     0.031 C 
ATOM     20  C   UNL A   1      37.994  28.654  30.867  1.00  0.00     0.029 A 
ATOM     21  C   UNL A   1      38.740  29.895  30.965  1.00  0.00     0.049 A 
ATOM     22  H   UNL A   1      40.742  30.203  30.437  1.00  0.00     0.167 HD
ATOM     23  C   UNL A   1      44.162  31.516  28.469  1.00  0.00     0.031 A 
ATOM     24  C   UNL A   1      38.329  31.083  31.460  1.00  0.00     0.031 A 
ATOM     25  C   UNL A   1      44.690  31.418  29.795  1.00  0.00     0.049 A 
ATOM     26  C   UNL A   1      39.522  31.895  31.764  1.00  0.00     0.074 A 
ATOM     27  C   UNL A   1      45.488  30.495  30.443  1.00  0.00     0.029 A 
ATOM     28  N   UNL A   1      44.174  32.213  30.784  1.00  0.00    -0.354 N 
ATOM     29  N   UNL A   1      40.352  31.628  32.729  1.00  0.00    -0.248 NA
ATOM     30  C   UNL A   1      39.997  32.847  30.775  1.00  0.00     0.031 C 
ATOM     31  C   UNL A   1      44.984  30.454  31.774  1.00  0.00     0.029 A 
ATOM     32  C   UNL A   1      43.939  31.378  31.845  1.00  0.00     0.049 A 
ATOM     33  H   UNL A   1      44.007  33.182  30.741  1.00  0.00     0.167 HD
ATOM     34  C   UNL A   1      41.587  32.033  32.253  1.00  0.00     0.074 A 
ATOM     35  C   UNL A   1      41.286  32.903  31.120  1.00  0.00     0.031 C 
ATOM     36  C   UNL A   1      42.737  31.406  32.645  1.00  0.00     0.031 A 
BRANCH  23  37
ATOM     37  C   UNL A   1      44.232  32.782  27.664  1.00  0.00    -0.014 A 
ATOM     38  C   UNL A   1      43.469  33.897  28.063  1.00  0.00     0.009 A 
ATOM     39  C   UNL A   1      44.778  32.810  26.367  1.00  0.00     0.009 A 
ATOM     40  C   UNL A   1      43.209  34.955  27.186  1.00  0.00     0.001 A 
ATOM     41  C   UNL A   1      44.544  33.884  25.498  1.00  0.00     0.001 A 
ATOM     42  C   UNL A   1      43.738  34.943  25.899  1.00  0.00     0.000 A 
ENDBRANCH  23  37
BRANCH  24  43
ATOM     43  C   UNL A   1      36.958  31.614  31.565  1.00  0.00    -0.014 A 
ATOM     44  C   UNL A   1      36.368  31.848  32.815  1.00  0.00     0.009 A 
ATOM     45  C   UNL A   1      36.301  32.104  30.421  1.00  0.00     0.009 A 
ATOM     46  C   UNL A   1      35.172  32.567  32.917  1.00  0.00     0.001 A 
ATOM     47  C   UNL A   1      35.104  32.817  30.523  1.00  0.00     0.001 A 
ATOM     48  C   UNL A   1      34.546  33.059  31.773  1.00  0.00     0.000 A 
ENDBRANCH  24  43
BRANCH  36  49
ATOM     49  C   UNL A   1      42.660  30.399  33.768  1.00  0.00    -0.014 A 
ATOM     50  C   UNL A   1      42.883  30.751  35.112  1.00  0.00     0.009 A 
ATOM     51  C   UNL A   1      42.176  29.111  33.496  1.00  0.00     0.009 A 
ATOM     52  C   UNL A   1      42.665  29.834  36.145  1.00  0.00     0.001 A 
ATOM     53  C   UNL A   1      41.933  28.203  34.530  1.00  0.00     0.001 A 
ATOM     54  C   UNL A   1      42.184  28.562  35.852  1.00  0.00     0.000 A 
ENDBRANCH  36  49
ENDBRANCH  10  11
ENDBRANCH   3   5
ENDBRANCH   2   3
ENDBRANCH   1   2
BRANCH   1  55
ATOM     55  C   UNL A   1      37.162  21.541  25.281  1.00  0.00     0.275 C 
BRANCH  55  56
ATOM     56  O   UNL A   1      36.776  22.903  25.009  1.00  0.00    -0.457 OA
BRANCH  56  57
ATOM     57  C   UNL A   1      35.919  23.105  23.958  1.00  0.00     0.359 C 
ATOM     58  O   UNL A   1      36.253  23.461  22.832  1.00  0.00    -0.244 OA
BRANCH  57  59
ATOM     59  C   UNL A   1      34.516  22.877  24.324  1.00  0.00     0.175 A 
ATOM     60  N   UNL A   1      33.922  21.697  24.043  1.00  0.00    -0.165 NA
ATOM     61  C   UNL A   1      33.626  23.727  25.045  1.00  0.00     0.028 A 
ATOM     62  N   UNL A   1      32.703  21.773  24.616  1.00  0.00    -0.264 N 
ATOM     63  C   UNL A   1      32.451  23.014  25.117  1.00  0.00     0.046 A 
ATOM     64  C   UNL A   1      33.797  25.092  25.621  1.00  0.00     0.159 C 
ATOM     65  C   UNL A   1      31.205  23.514  25.723  1.00  0.00     0.078 C 
ATOM     66  N   UNL A   1      32.509  25.655  26.112  1.00  0.00    -0.337 N 
ATOM     67  C   UNL A   1      31.235  25.048  25.688  1.00  0.00     0.126 C 
BRANCH  62  68
ATOM     68  C   UNL A   1      31.932  20.558  24.858  1.00  0.00     0.180 C 
BRANCH  68  69
ATOM     69  C   UNL A   1      32.590  19.313  24.322  1.00  0.00    -0.026 A 
ATOM     70  C   UNL A   1      32.236  18.823  23.053  1.00  0.00     0.008 A 
ATOM     71  C   UNL A   1      33.587  18.652  25.057  1.00  0.00     0.008 A 
ATOM     72  C   UNL A   1      32.876  17.705  22.523  1.00  0.00     0.039 A 
ATOM     73  C   UNL A   1      34.227  17.534  24.522  1.00  0.00     0.039 A 
ATOM     74  C   UNL A   1      33.869  17.074  23.259  1.00  0.00     0.123 A 
ATOM     75  F   UNL A   1      34.496  16.008  22.744  1.00  0.00    -0.207 F 
ENDBRANCH  68  69
ENDBRANCH  62  68
BRANCH  66  76
ATOM     76  C   UNL A   1      32.569  26.934  26.671  1.00  0.00     0.232 C 
ATOM     77  O   UNL A   1      31.668  27.406  27.354  1.00  0.00    -0.274 OA
BRANCH  76  78
ATOM     78  C   UNL A   1      33.837  27.687  26.532  1.00  0.00     0.154 C 
ATOM     79  C   UNL A   1      33.972  28.878  25.595  1.00  0.00     0.097 C 
ATOM     80  C   UNL A   1      33.938  29.069  27.062  1.00  0.00     0.260 C 
ATOM     81  F   UNL A   1      32.879  29.756  27.603  1.00  0.00    -0.206 F 
ATOM     82  F   UNL A   1      35.081  29.506  27.692  1.00  0.00    -0.206 F 
ENDBRANCH  76  78
ENDBRANCH  66  76
ENDBRANCH  57  59
ENDBRANCH  56  57
ENDBRANCH  55  56
ENDBRANCH   1  55
TORSDOF 15
ENDMDL
