MODEL 1
REMARK VINA RESULT:     -11.5      0.000      0.000
REMARK SMILES CS(=O)(=O)c1ccc(/C=C(/C(=O)OCCOC(=O)c2ccc(-c3c4nc(c(-c5ccccc5)c5ccc([nH]5)c(-c5ccccc5)c5nc(c(-c6ccccc6)c6ccc3[nH]6)C=C5)C=C4)cc2)c2cccc(Br)c2)cc1
REMARK SMILES IDX 14 1 13 2 11 3 12 4 10 5 9 6 8 7 5 8 6 9 75 10 7 11 74 12
REMARK SMILES IDX 2 13 1 14 3 15 4 16 67 17 68 18 73 19 69 20 71 21 70 22
REMARK SMILES IDX 72 23 15 24 16 25 17 26 18 27 19 28 20 29 66 30 21 31 65 32
REMARK SMILES IDX 22 33 23 34 24 35 59 36 25 37 64 38 58 39 60 40 26 41 63 42
REMARK SMILES IDX 57 43 56 44 27 46 49 47 34 48 48 49 35 50 38 51 47 52 61 53
REMARK SMILES IDX 36 54 37 55 46 57 62 58 39 59 28 60 29 61 33 62 30 63 32 64
REMARK SMILES IDX 31 65 50 66 51 67 55 68 52 69 54 70 53 71 40 72 41 73 45 74
REMARK SMILES IDX 42 75 44 76 43 77
REMARK H PARENT 60 45 38 56
REMARK Flexibility Score: inf
ROOT
ATOM      1  C   UNL A   1      31.797  27.781  25.146  1.00  0.00     0.275 C 
ENDROOT
BRANCH   1   2
ATOM      2  O   UNL A   1      32.647  26.698  25.581  1.00  0.00    -0.458 OA
BRANCH   2   3
ATOM      3  C   UNL A   1      33.467  26.182  24.630  1.00  0.00     0.338 C 
ATOM      4  O   UNL A   1      34.084  26.830  23.795  1.00  0.00    -0.246 OA
BRANCH   3   5
ATOM      5  C   UNL A   1      33.590  24.697  24.742  1.00  0.00     0.067 C 
ATOM      6  C   UNL A   1      32.463  23.951  24.794  1.00  0.00     0.024 C 
BRANCH   6   7
ATOM      7  C   UNL A   1      32.354  22.480  24.645  1.00  0.00    -0.025 A 
ATOM      8  C   UNL A   1      32.463  19.715  24.179  1.00  0.00     0.067 A 
ATOM      9  C   UNL A   1      32.571  20.199  25.479  1.00  0.00     0.021 A 
ATOM     10  C   UNL A   1      32.199  20.583  23.119  1.00  0.00     0.021 A 
ATOM     11  C   UNL A   1      32.482  21.572  25.705  1.00  0.00     0.009 A 
ATOM     12  C   UNL A   1      32.152  21.962  23.356  1.00  0.00     0.009 A 
BRANCH   8  13
ATOM     13  S   UNL A   1      32.667  17.975  23.895  1.00  0.00     0.175 S 
ATOM     14  C   UNL A   1      34.386  17.704  24.250  1.00  0.00     0.163 C 
ATOM     15  O   UNL A   1      32.460  17.730  22.481  1.00  0.00    -0.224 OA
ATOM     16  O   UNL A   1      31.878  17.284  24.898  1.00  0.00    -0.224 OA
ENDBRANCH   8  13
ENDBRANCH   6   7
BRANCH   5  17
ATOM     17  C   UNL A   1      34.937  24.104  24.630  1.00  0.00    -0.010 A 
ATOM     18  C   UNL A   1      35.288  23.416  23.456  1.00  0.00     0.009 A 
ATOM     19  C   UNL A   1      35.897  24.288  25.632  1.00  0.00     0.024 A 
ATOM     20  C   UNL A   1      36.591  22.952  23.269  1.00  0.00     0.002 A 
ATOM     21  C   UNL A   1      37.195  23.815  25.438  1.00  0.00     0.018 A 
ATOM     22  C   UNL A   1      37.548  23.153  24.262  1.00  0.00     0.016 A 
ATOM     23  Br  UNL A   1      38.503  24.106  26.771  1.00  0.00    -0.051 Br
ENDBRANCH   5  17
ENDBRANCH   3   5
ENDBRANCH   2   3
ENDBRANCH   1   2
BRANCH   1  24
ATOM     24  C   UNL A   1      31.782  28.910  26.175  1.00  0.00     0.275 C 
BRANCH  24  25
ATOM     25  O   UNL A   1      32.740  29.923  25.813  1.00  0.00    -0.458 OA
BRANCH  25  26
ATOM     26  C   UNL A   1      33.023  30.827  26.776  1.00  0.00     0.338 C 
ATOM     27  O   UNL A   1      32.279  31.669  27.251  1.00  0.00    -0.246 OA
BRANCH  26  28
ATOM     28  C   UNL A   1      34.410  30.658  27.240  1.00  0.00     0.060 A 
ATOM     29  C   UNL A   1      34.950  29.381  27.356  1.00  0.00     0.016 A 
ATOM     30  C   UNL A   1      35.106  31.758  27.741  1.00  0.00     0.016 A 
ATOM     31  C   UNL A   1      36.120  29.189  28.088  1.00  0.00     0.010 A 
ATOM     32  C   UNL A   1      36.342  31.569  28.369  1.00  0.00     0.010 A 
ATOM     33  C   UNL A   1      36.843  30.275  28.600  1.00  0.00    -0.014 A 
BRANCH  33  34
ATOM     34  C   UNL A   1      38.087  30.073  29.402  1.00  0.00     0.031 A 
ATOM     35  C   UNL A   1      39.233  29.264  28.843  1.00  0.00     0.074 A 
ATOM     36  C   UNL A   1      38.211  30.599  30.638  1.00  0.00     0.049 A 
ATOM     37  N   UNL A   1      40.257  28.734  29.467  1.00  0.00    -0.248 NA
ATOM     38  C   UNL A   1      39.221  29.004  27.394  1.00  0.00     0.031 C 
ATOM     39  C   UNL A   1      37.240  31.471  31.301  1.00  0.00     0.029 A 
ATOM     40  N   UNL A   1      39.220  30.471  31.565  1.00  0.00    -0.354 N 
ATOM     41  C   UNL A   1      40.958  28.013  28.507  1.00  0.00     0.074 A 
ATOM     42  C   UNL A   1      40.258  28.188  27.253  1.00  0.00     0.031 C 
ATOM     43  C   UNL A   1      37.715  31.833  32.500  1.00  0.00     0.029 A 
ATOM     44  C   UNL A   1      38.959  31.118  32.749  1.00  0.00     0.049 A 
ATOM     45  H   UNL A   1      40.047  29.962  31.397  1.00  0.00     0.167 HD
ATOM     46  C   UNL A   1      42.076  27.262  28.661  1.00  0.00     0.031 A 
ATOM     47  C   UNL A   1      39.598  31.091  33.934  1.00  0.00     0.031 A 
ATOM     48  C   UNL A   1      42.805  27.138  29.896  1.00  0.00     0.049 A 
ATOM     49  C   UNL A   1      40.797  30.208  34.103  1.00  0.00     0.074 A 
ATOM     50  C   UNL A   1      43.954  26.407  30.150  1.00  0.00     0.029 A 
ATOM     51  N   UNL A   1      42.471  27.777  31.079  1.00  0.00    -0.354 N 
ATOM     52  N   UNL A   1      41.392  29.448  33.217  1.00  0.00    -0.248 NA
ATOM     53  C   UNL A   1      41.395  30.154  35.445  1.00  0.00     0.031 C 
ATOM     54  C   UNL A   1      44.293  26.574  31.497  1.00  0.00     0.029 A 
ATOM     55  C   UNL A   1      43.382  27.449  32.067  1.00  0.00     0.049 A 
ATOM     56  H   UNL A   1      41.698  28.375  31.198  1.00  0.00     0.167 HD
ATOM     57  C   UNL A   1      42.439  28.835  33.890  1.00  0.00     0.074 A 
ATOM     58  C   UNL A   1      42.409  29.321  35.254  1.00  0.00     0.031 C 
ATOM     59  C   UNL A   1      43.343  27.943  33.418  1.00  0.00     0.031 A 
BRANCH  46  60
ATOM     60  C   UNL A   1      42.558  26.466  27.481  1.00  0.00    -0.014 A 
ATOM     61  C   UNL A   1      42.178  25.131  27.280  1.00  0.00     0.009 A 
ATOM     62  C   UNL A   1      43.361  27.095  26.513  1.00  0.00     0.009 A 
ATOM     63  C   UNL A   1      42.616  24.434  26.149  1.00  0.00     0.001 A 
ATOM     64  C   UNL A   1      43.774  26.406  25.372  1.00  0.00     0.001 A 
ATOM     65  C   UNL A   1      43.408  25.073  25.195  1.00  0.00     0.000 A 
ENDBRANCH  46  60
BRANCH  47  66
ATOM     66  C   UNL A   1      39.051  31.866  35.078  1.00  0.00    -0.014 A 
ATOM     67  C   UNL A   1      39.349  33.229  35.225  1.00  0.00     0.009 A 
ATOM     68  C   UNL A   1      38.200  31.251  36.011  1.00  0.00     0.009 A 
ATOM     69  C   UNL A   1      38.805  33.958  36.286  1.00  0.00     0.001 A 
ATOM     70  C   UNL A   1      37.633  31.989  37.050  1.00  0.00     0.001 A 
ATOM     71  C   UNL A   1      37.941  33.341  37.190  1.00  0.00     0.000 A 
ENDBRANCH  47  66
BRANCH  59  72
ATOM     72  C   UNL A   1      44.401  27.469  34.370  1.00  0.00    -0.014 A 
ATOM     73  C   UNL A   1      45.601  28.176  34.533  1.00  0.00     0.009 A 
ATOM     74  C   UNL A   1      44.170  26.322  35.145  1.00  0.00     0.009 A 
ATOM     75  C   UNL A   1      46.561  27.729  35.444  1.00  0.00     0.001 A 
ATOM     76  C   UNL A   1      45.121  25.891  36.069  1.00  0.00     0.001 A 
ATOM     77  C   UNL A   1      46.318  26.591  36.214  1.00  0.00     0.000 A 
ENDBRANCH  59  72
ENDBRANCH  33  34
ENDBRANCH  26  28
ENDBRANCH  25  26
ENDBRANCH  24  25
ENDBRANCH   1  24
TORSDOF 14
ENDMDL
MODEL 2
REMARK VINA RESULT:     -11.5      4.022      8.918
REMARK SMILES CS(=O)(=O)c1ccc(/C=C(/C(=O)OCCOC(=O)c2ccc(-c3c4nc(c(-c5ccccc5)c5ccc([nH]5)c(-c5ccccc5)c5nc(c(-c6ccccc6)c6ccc3[nH]6)C=C5)C=C4)cc2)c2cccc(Br)c2)cc1
REMARK SMILES IDX 14 1 13 2 11 3 12 4 10 5 9 6 8 7 5 8 6 9 75 10 7 11 74 12
REMARK SMILES IDX 2 13 1 14 3 15 4 16 67 17 68 18 73 19 69 20 71 21 70 22
REMARK SMILES IDX 72 23 15 24 16 25 17 26 18 27 19 28 20 29 66 30 21 31 65 32
REMARK SMILES IDX 22 33 23 34 24 35 59 36 25 37 64 38 58 39 60 40 26 41 63 42
REMARK SMILES IDX 57 43 56 44 27 46 49 47 34 48 48 49 35 50 38 51 47 52 61 53
REMARK SMILES IDX 36 54 37 55 46 57 62 58 39 59 28 60 29 61 33 62 30 63 32 64
REMARK SMILES IDX 31 65 50 66 51 67 55 68 52 69 54 70 53 71 40 72 41 73 45 74
REMARK SMILES IDX 42 75 44 76 43 77
REMARK H PARENT 60 45 38 56
REMARK Flexibility Score: inf
ROOT
ATOM      1  C   UNL A   1      34.577  22.763  24.034  1.00  0.00     0.275 C 
ENDROOT
BRANCH   1   2
ATOM      2  O   UNL A   1      34.501  24.176  24.323  1.00  0.00    -0.458 OA
BRANCH   2   3
ATOM      3  C   UNL A   1      33.573  24.533  25.247  1.00  0.00     0.338 C 
ATOM      4  O   UNL A   1      33.344  23.940  26.292  1.00  0.00    -0.246 OA
BRANCH   3   5
ATOM      5  C   UNL A   1      32.871  25.798  24.874  1.00  0.00     0.067 C 
ATOM      6  C   UNL A   1      32.147  25.832  23.732  1.00  0.00     0.024 C 
BRANCH   6   7
ATOM      7  C   UNL A   1      31.179  26.874  23.314  1.00  0.00    -0.025 A 
ATOM      8  C   UNL A   1      29.321  28.931  22.876  1.00  0.00     0.067 A 
ATOM      9  C   UNL A   1      30.619  29.061  22.391  1.00  0.00     0.021 A 
ATOM     10  C   UNL A   1      28.908  27.746  23.486  1.00  0.00     0.021 A 
ATOM     11  C   UNL A   1      31.526  28.019  22.584  1.00  0.00     0.009 A 
ATOM     12  C   UNL A   1      29.840  26.726  23.708  1.00  0.00     0.009 A 
BRANCH   8  13
ATOM     13  S   UNL A   1      28.204  30.298  22.702  1.00  0.00     0.175 S 
ATOM     14  C   UNL A   1      28.123  30.536  20.944  1.00  0.00     0.163 C 
ATOM     15  O   UNL A   1      28.840  31.466  23.280  1.00  0.00    -0.224 OA
ATOM     16  O   UNL A   1      26.903  29.850  23.163  1.00  0.00    -0.224 OA
ENDBRANCH   8  13
ENDBRANCH   6   7
BRANCH   5  17
ATOM     17  C   UNL A   1      32.870  26.903  25.853  1.00  0.00    -0.010 A 
ATOM     18  C   UNL A   1      31.709  27.155  26.604  1.00  0.00     0.009 A 
ATOM     19  C   UNL A   1      34.028  27.648  26.108  1.00  0.00     0.024 A 
ATOM     20  C   UNL A   1      31.716  28.110  27.622  1.00  0.00     0.002 A 
ATOM     21  C   UNL A   1      34.023  28.605  27.123  1.00  0.00     0.018 A 
ATOM     22  C   UNL A   1      32.877  28.836  27.884  1.00  0.00     0.016 A 
ATOM     23  Br  UNL A   1      35.602  29.574  27.499  1.00  0.00    -0.051 Br
ENDBRANCH   5  17
ENDBRANCH   3   5
ENDBRANCH   2   3
ENDBRANCH   1   2
BRANCH   1  24
ATOM     24  C   UNL A   1      36.029  22.291  23.997  1.00  0.00     0.275 C 
BRANCH  24  25
ATOM     25  O   UNL A   1      36.462  21.914  25.318  1.00  0.00    -0.458 OA
BRANCH  25  26
ATOM     26  C   UNL A   1      37.777  21.633  25.442  1.00  0.00     0.338 C 
ATOM     27  O   UNL A   1      38.377  20.665  25.003  1.00  0.00    -0.246 OA
BRANCH  26  28
ATOM     28  C   UNL A   1      38.458  22.702  26.189  1.00  0.00     0.060 A 
ATOM     29  C   UNL A   1      37.979  24.007  26.121  1.00  0.00     0.016 A 
ATOM     30  C   UNL A   1      39.683  22.440  26.802  1.00  0.00     0.016 A 
ATOM     31  C   UNL A   1      38.783  25.062  26.546  1.00  0.00     0.010 A 
ATOM     32  C   UNL A   1      40.431  23.495  27.337  1.00  0.00     0.010 A 
ATOM     33  C   UNL A   1      40.018  24.830  27.169  1.00  0.00    -0.014 A 
BRANCH  33  34
ATOM     34  C   UNL A   1      40.893  25.957  27.609  1.00  0.00     0.031 A 
ATOM     35  C   UNL A   1      40.385  26.975  28.602  1.00  0.00     0.074 A 
ATOM     36  C   UNL A   1      42.145  26.096  27.126  1.00  0.00     0.049 A 
ATOM     37  N   UNL A   1      40.859  28.163  28.889  1.00  0.00    -0.248 NA
ATOM     38  C   UNL A   1      39.177  26.617  29.365  1.00  0.00     0.031 C 
ATOM     39  C   UNL A   1      42.825  25.165  26.224  1.00  0.00     0.029 A 
ATOM     40  N   UNL A   1      43.075  27.088  27.331  1.00  0.00    -0.354 N 
ATOM     41  C   UNL A   1      39.966  28.723  29.796  1.00  0.00     0.074 A 
ATOM     42  C   UNL A   1      38.931  27.739  30.030  1.00  0.00     0.031 C 
ATOM     43  C   UNL A   1      44.069  25.602  25.989  1.00  0.00     0.029 A 
ATOM     44  C   UNL A   1      44.234  26.907  26.614  1.00  0.00     0.049 A 
ATOM     45  H   UNL A   1      42.925  27.855  27.931  1.00  0.00     0.167 HD
ATOM     46  C   UNL A   1      39.998  29.951  30.368  1.00  0.00     0.031 A 
ATOM     47  C   UNL A   1      45.287  27.721  26.412  1.00  0.00     0.031 A 
ATOM     48  C   UNL A   1      41.060  30.905  30.181  1.00  0.00     0.049 A 
ATOM     49  C   UNL A   1      45.279  29.098  27.004  1.00  0.00     0.074 A 
ATOM     50  C   UNL A   1      41.187  32.172  30.726  1.00  0.00     0.029 A 
ATOM     51  N   UNL A   1      42.188  30.689  29.406  1.00  0.00    -0.354 N 
ATOM     52  N   UNL A   1      44.380  29.657  27.776  1.00  0.00    -0.248 NA
ATOM     53  C   UNL A   1      46.416  29.968  26.672  1.00  0.00     0.031 C 
ATOM     54  C   UNL A   1      42.374  32.738  30.249  1.00  0.00     0.029 A 
ATOM     55  C   UNL A   1      43.009  31.803  29.448  1.00  0.00     0.049 A 
ATOM     56  H   UNL A   1      42.376  29.866  28.900  1.00  0.00     0.167 HD
ATOM     57  C   UNL A   1      44.846  30.939  28.030  1.00  0.00     0.074 A 
ATOM     58  C   UNL A   1      46.114  31.071  27.344  1.00  0.00     0.031 C 
ATOM     59  C   UNL A   1      44.270  31.919  28.765  1.00  0.00     0.031 A 
BRANCH  46  60
ATOM     60  C   UNL A   1      38.827  30.365  31.215  1.00  0.00    -0.014 A 
ATOM     61  C   UNL A   1      38.829  30.215  32.610  1.00  0.00     0.009 A 
ATOM     62  C   UNL A   1      37.722  30.979  30.601  1.00  0.00     0.009 A 
ATOM     63  C   UNL A   1      37.737  30.648  33.368  1.00  0.00     0.001 A 
ATOM     64  C   UNL A   1      36.644  31.434  31.363  1.00  0.00     0.001 A 
ATOM     65  C   UNL A   1      36.649  31.261  32.746  1.00  0.00     0.000 A 
ENDBRANCH  46  60
BRANCH  47  66
ATOM     66  C   UNL A   1      46.399  27.274  25.532  1.00  0.00    -0.014 A 
ATOM     67  C   UNL A   1      46.553  27.812  24.246  1.00  0.00     0.009 A 
ATOM     68  C   UNL A   1      47.331  26.329  25.990  1.00  0.00     0.009 A 
ATOM     69  C   UNL A   1      47.619  27.409  23.438  1.00  0.00     0.001 A 
ATOM     70  C   UNL A   1      48.413  25.954  25.193  1.00  0.00     0.001 A 
ATOM     71  C   UNL A   1      48.553  26.490  23.915  1.00  0.00     0.000 A 
ENDBRANCH  47  66
BRANCH  59  72
ATOM     72  C   UNL A   1      45.026  33.208  28.902  1.00  0.00    -0.014 A 
ATOM     73  C   UNL A   1      44.804  34.278  28.022  1.00  0.00     0.009 A 
ATOM     74  C   UNL A   1      45.938  33.366  29.957  1.00  0.00     0.009 A 
ATOM     75  C   UNL A   1      45.501  35.476  28.184  1.00  0.00     0.001 A 
ATOM     76  C   UNL A   1      46.616  34.573  30.129  1.00  0.00     0.001 A 
ATOM     77  C   UNL A   1      46.402  35.625  29.239  1.00  0.00     0.000 A 
ENDBRANCH  59  72
ENDBRANCH  33  34
ENDBRANCH  26  28
ENDBRANCH  25  26
ENDBRANCH  24  25
ENDBRANCH   1  24
TORSDOF 14
ENDMDL
MODEL 3
REMARK VINA RESULT:     -11.1      5.001      9.498
REMARK SMILES CS(=O)(=O)c1ccc(/C=C(/C(=O)OCCOC(=O)c2ccc(-c3c4nc(c(-c5ccccc5)c5ccc([nH]5)c(-c5ccccc5)c5nc(c(-c6ccccc6)c6ccc3[nH]6)C=C5)C=C4)cc2)c2cccc(Br)c2)cc1
REMARK SMILES IDX 14 1 13 2 11 3 12 4 10 5 9 6 8 7 5 8 6 9 75 10 7 11 74 12
REMARK SMILES IDX 2 13 1 14 3 15 4 16 67 17 68 18 73 19 69 20 71 21 70 22
REMARK SMILES IDX 72 23 15 24 16 25 17 26 18 27 19 28 20 29 66 30 21 31 65 32
REMARK SMILES IDX 22 33 23 34 24 35 59 36 25 37 64 38 58 39 60 40 26 41 63 42
REMARK SMILES IDX 57 43 56 44 27 46 49 47 34 48 48 49 35 50 38 51 47 52 61 53
REMARK SMILES IDX 36 54 37 55 46 57 62 58 39 59 28 60 29 61 33 62 30 63 32 64
REMARK SMILES IDX 31 65 50 66 51 67 55 68 52 69 54 70 53 71 40 72 41 73 45 74
REMARK SMILES IDX 42 75 44 76 43 77
REMARK H PARENT 60 45 38 56
REMARK Flexibility Score: inf
ROOT
ATOM      1  C   UNL A   1      35.281  23.093  25.532  1.00  0.00     0.275 C 
ENDROOT
BRANCH   1   2
ATOM      2  O   UNL A   1      34.517  24.197  25.000  1.00  0.00    -0.458 OA
BRANCH   2   3
ATOM      3  C   UNL A   1      33.322  24.424  25.603  1.00  0.00     0.338 C 
ATOM      4  O   UNL A   1      32.832  23.741  26.492  1.00  0.00    -0.246 OA
BRANCH   3   5
ATOM      5  C   UNL A   1      32.665  25.666  25.095  1.00  0.00     0.067 C 
ATOM      6  C   UNL A   1      31.954  25.606  23.946  1.00  0.00     0.024 C 
BRANCH   6   7
ATOM      7  C   UNL A   1      31.026  26.631  23.412  1.00  0.00    -0.025 A 
ATOM      8  C   UNL A   1      29.200  28.655  22.748  1.00  0.00     0.067 A 
ATOM      9  C   UNL A   1      30.543  28.804  22.416  1.00  0.00     0.021 A 
ATOM     10  C   UNL A   1      28.737  27.468  23.314  1.00  0.00     0.021 A 
ATOM     11  C   UNL A   1      31.438  27.778  22.719  1.00  0.00     0.009 A 
ATOM     12  C   UNL A   1      29.653  26.463  23.649  1.00  0.00     0.009 A 
BRANCH   8  13
ATOM     13  S   UNL A   1      28.089  30.004  22.437  1.00  0.00     0.175 S 
ATOM     14  C   UNL A   1      29.002  31.420  22.999  1.00  0.00     0.163 C 
ATOM     15  O   UNL A   1      26.940  29.841  23.307  1.00  0.00    -0.224 OA
ATOM     16  O   UNL A   1      27.930  30.104  20.998  1.00  0.00    -0.224 OA
ENDBRANCH   8  13
ENDBRANCH   6   7
BRANCH   5  17
ATOM     17  C   UNL A   1      32.692  26.864  25.956  1.00  0.00    -0.010 A 
ATOM     18  C   UNL A   1      31.534  27.223  26.669  1.00  0.00     0.009 A 
ATOM     19  C   UNL A   1      33.869  27.598  26.144  1.00  0.00     0.024 A 
ATOM     20  C   UNL A   1      31.564  28.276  27.585  1.00  0.00     0.002 A 
ATOM     21  C   UNL A   1      33.887  28.653  27.057  1.00  0.00     0.018 A 
ATOM     22  C   UNL A   1      32.743  28.992  27.781  1.00  0.00     0.016 A 
ATOM     23  Br  UNL A   1      35.490  29.612  27.345  1.00  0.00    -0.051 Br
ENDBRANCH   5  17
ENDBRANCH   3   5
ENDBRANCH   2   3
ENDBRANCH   1   2
BRANCH   1  24
ATOM     24  C   UNL A   1      36.689  23.070  24.941  1.00  0.00     0.275 C 
BRANCH  24  25
ATOM     25  O   UNL A   1      37.669  23.032  25.996  1.00  0.00    -0.458 OA
BRANCH  25  26
ATOM     26  C   UNL A   1      38.654  22.120  25.843  1.00  0.00     0.338 C 
ATOM     27  O   UNL A   1      38.621  21.089  25.192  1.00  0.00    -0.246 OA
BRANCH  26  28
ATOM     28  C   UNL A   1      39.858  22.545  26.575  1.00  0.00     0.060 A 
ATOM     29  C   UNL A   1      39.914  23.817  27.135  1.00  0.00     0.016 A 
ATOM     30  C   UNL A   1      41.002  21.748  26.539  1.00  0.00     0.016 A 
ATOM     31  C   UNL A   1      41.140  24.342  27.538  1.00  0.00     0.010 A 
ATOM     32  C   UNL A   1      42.206  22.238  27.057  1.00  0.00     0.010 A 
ATOM     33  C   UNL A   1      42.307  23.564  27.516  1.00  0.00    -0.014 A 
BRANCH  33  34
ATOM     34  C   UNL A   1      43.627  24.128  27.927  1.00  0.00     0.031 A 
ATOM     35  C   UNL A   1      44.047  24.109  29.377  1.00  0.00     0.074 A 
ATOM     36  C   UNL A   1      44.465  24.671  27.019  1.00  0.00     0.049 A 
ATOM     37  N   UNL A   1      44.995  24.788  29.976  1.00  0.00    -0.248 NA
ATOM     38  C   UNL A   1      43.295  23.219  30.277  1.00  0.00     0.031 C 
ATOM     39  C   UNL A   1      44.257  24.702  25.570  1.00  0.00     0.029 A 
ATOM     40  N   UNL A   1      45.672  25.308  27.189  1.00  0.00    -0.354 N 
ATOM     41  C   UNL A   1      44.897  24.473  31.326  1.00  0.00     0.074 A 
ATOM     42  C   UNL A   1      43.812  23.525  31.460  1.00  0.00     0.031 C 
ATOM     43  C   UNL A   1      45.313  25.281  24.983  1.00  0.00     0.029 A 
ATOM     44  C   UNL A   1      46.210  25.781  26.016  1.00  0.00     0.049 A 
ATOM     45  H   UNL A   1      46.108  25.417  28.066  1.00  0.00     0.167 HD
ATOM     46  C   UNL A   1      45.635  24.944  32.361  1.00  0.00     0.031 A 
ATOM     47  C   UNL A   1      47.263  26.588  25.785  1.00  0.00     0.031 A 
ATOM     48  C   UNL A   1      46.752  25.840  32.219  1.00  0.00     0.049 A 
ATOM     49  C   UNL A   1      48.031  27.146  26.945  1.00  0.00     0.074 A 
ATOM     50  C   UNL A   1      47.568  26.365  33.208  1.00  0.00     0.029 A 
ATOM     51  N   UNL A   1      47.225  26.326  31.012  1.00  0.00    -0.354 N 
ATOM     52  N   UNL A   1      47.865  26.925  28.226  1.00  0.00    -0.248 NA
ATOM     53  C   UNL A   1      49.112  28.091  26.629  1.00  0.00     0.031 C 
ATOM     54  C   UNL A   1      48.511  27.201  32.600  1.00  0.00     0.029 A 
ATOM     55  C   UNL A   1      48.313  27.155  31.230  1.00  0.00     0.049 A 
ATOM     56  H   UNL A   1      46.844  26.115  30.129  1.00  0.00     0.167 HD
ATOM     57  C   UNL A   1      48.826  27.693  28.868  1.00  0.00     0.074 A 
ATOM     58  C   UNL A   1      49.580  28.375  27.837  1.00  0.00     0.031 C 
ATOM     59  C   UNL A   1      49.057  27.823  30.196  1.00  0.00     0.031 A 
BRANCH  46  60
ATOM     60  C   UNL A   1      45.231  24.544  33.753  1.00  0.00    -0.014 A 
ATOM     61  C   UNL A   1      45.801  23.438  34.402  1.00  0.00     0.009 A 
ATOM     62  C   UNL A   1      44.305  25.337  34.452  1.00  0.00     0.009 A 
ATOM     63  C   UNL A   1      45.429  23.120  35.712  1.00  0.00     0.001 A 
ATOM     64  C   UNL A   1      43.956  25.032  35.769  1.00  0.00     0.001 A 
ATOM     65  C   UNL A   1      44.512  23.919  36.395  1.00  0.00     0.000 A 
ENDBRANCH  46  60
BRANCH  47  66
ATOM     66  C   UNL A   1      47.590  26.983  24.390  1.00  0.00    -0.014 A 
ATOM     67  C   UNL A   1      46.891  28.020  23.758  1.00  0.00     0.009 A 
ATOM     68  C   UNL A   1      48.630  26.342  23.696  1.00  0.00     0.009 A 
ATOM     69  C   UNL A   1      47.226  28.406  22.458  1.00  0.00     0.001 A 
ATOM     70  C   UNL A   1      48.984  26.751  22.410  1.00  0.00     0.001 A 
ATOM     71  C   UNL A   1      48.278  27.780  21.790  1.00  0.00     0.000 A 
ENDBRANCH  47  66
BRANCH  59  72
ATOM     72  C   UNL A   1      50.199  28.703  30.610  1.00  0.00    -0.014 A 
ATOM     73  C   UNL A   1      51.475  28.172  30.850  1.00  0.00     0.009 A 
ATOM     74  C   UNL A   1      50.002  30.088  30.717  1.00  0.00     0.009 A 
ATOM     75  C   UNL A   1      52.529  29.014  31.210  1.00  0.00     0.001 A 
ATOM     76  C   UNL A   1      51.062  30.928  31.056  1.00  0.00     0.001 A 
ATOM     77  C   UNL A   1      52.324  30.390  31.308  1.00  0.00     0.000 A 
ENDBRANCH  59  72
ENDBRANCH  33  34
ENDBRANCH  26  28
ENDBRANCH  25  26
ENDBRANCH  24  25
ENDBRANCH   1  24
TORSDOF 14
ENDMDL
