MODEL 1
REMARK VINA RESULT:     -10.8      0.000      0.000
REMARK SMILES C[C@H](C(=O)NC1CCCC1)[N@H+]1CCn2nc(CCC(=O)OCCOC(=O)c3ccc(-c4c5nc(c(-c6ccccc6)c6ccc([nH]6)c(-c6ccccc6)c6nc(c(-c7ccccc7)c7ccc4[nH]7)C=C6)C=C5)cc3)cc2C1
REMARK SMILES IDX 21 1 19 2 20 3 18 4 17 5 16 6 11 7 12 8 77 9 13 11 76 12
REMARK SMILES IDX 14 13 75 14 15 15 2 16 1 17 3 18 4 19 5 20 6 22 7 23 10 24
REMARK SMILES IDX 8 25 9 26 22 27 23 28 24 29 25 30 26 31 27 32 28 33 74 34
REMARK SMILES IDX 29 35 73 36 30 37 31 38 32 39 67 40 33 41 72 42 66 43 68 44
REMARK SMILES IDX 34 45 71 46 65 47 64 48 35 50 57 51 42 52 56 53 43 54 46 55
REMARK SMILES IDX 55 56 69 57 44 58 45 59 54 61 70 62 47 63 36 64 37 65 41 66
REMARK SMILES IDX 38 67 40 68 39 69 58 70 59 71 63 72 60 73 62 74 61 75 48 76
REMARK SMILES IDX 49 77 53 78 50 79 52 80 51 81
REMARK H PARENT 11 10 5 21 68 49 46 60
REMARK Flexibility Score: inf
ROOT
ATOM      1  O   UNL A   1      42.260  19.436  27.484  1.00  0.00    -0.462 OA
ENDROOT
BRANCH   1   2
ATOM      2  C   UNL A   1      41.906  20.747  27.484  1.00  0.00     0.306 C 
ATOM      3  O   UNL A   1      42.565  21.638  28.012  1.00  0.00    -0.252 OA
BRANCH   2   4
ATOM      4  C   UNL A   1      40.529  20.980  26.872  1.00  0.00     0.129 C 
BRANCH   4   5
ATOM      5  C   UNL A   1      39.840  22.326  27.164  1.00  0.00     0.070 C 
BRANCH   5   6
ATOM      6  C   UNL A   1      38.807  22.643  26.140  1.00  0.00     0.064 A 
ATOM      7  N   UNL A   1      34.531  22.797  24.894  1.00  0.00    -0.318 N 
ATOM      8  C   UNL A   1      34.901  21.404  24.749  1.00  0.00     0.287 C 
ATOM      9  C   UNL A   1      35.620  23.762  24.609  1.00  0.00     0.319 C 
ATOM     10  H   UNL A   1      34.335  22.932  25.885  1.00  0.00     0.349 HD
ATOM     11  C   UNL A   1      36.219  20.959  25.289  1.00  0.00     0.206 C 
ATOM     12  C   UNL A   1      36.927  23.288  25.143  1.00  0.00     0.093 A 
ATOM     13  N   UNL A   1      37.216  21.962  25.017  1.00  0.00    -0.258 N 
ATOM     14  C   UNL A   1      37.947  23.767  25.953  1.00  0.00     0.055 A 
ATOM     15  N   UNL A   1      38.474  21.672  25.292  1.00  0.00    -0.177 NA
BRANCH   7  16
ATOM     16  C   UNL A   1      33.294  23.093  24.108  1.00  0.00     0.271 C 
ATOM     17  C   UNL A   1      32.827  21.665  23.744  1.00  0.00     0.086 C 
BRANCH  16  18
ATOM     18  C   UNL A   1      33.485  23.898  22.761  1.00  0.00     0.278 C 
ATOM     19  O   UNL A   1      33.715  23.272  21.711  1.00  0.00    -0.268 OA
ATOM     20  N   UNL A   1      33.433  25.242  22.540  1.00  0.00    -0.348 N 
ATOM     21  H   UNL A   1      33.769  25.409  21.630  1.00  0.00     0.163 HD
BRANCH  20  22
ATOM     22  C   UNL A   1      33.063  26.561  23.139  1.00  0.00     0.082 C 
ATOM     23  C   UNL A   1      33.703  26.992  24.473  1.00  0.00     0.025 C 
ATOM     24  C   UNL A   1      33.642  27.663  22.219  1.00  0.00     0.025 C 
ATOM     25  C   UNL A   1      33.703  28.510  24.497  1.00  0.00     0.002 C 
ATOM     26  C   UNL A   1      33.809  28.933  23.048  1.00  0.00     0.002 C 
ENDBRANCH  20  22
ENDBRANCH  16  18
ENDBRANCH   7  16
ENDBRANCH   5   6
ENDBRANCH   4   5
ENDBRANCH   2   4
ENDBRANCH   1   2
BRANCH   1  27
ATOM     27  C   UNL A   1      42.393  18.735  26.228  1.00  0.00     0.274 C 
BRANCH  27  28
ATOM     28  C   UNL A   1      43.648  19.112  25.445  1.00  0.00     0.275 C 
BRANCH  28  29
ATOM     29  O   UNL A   1      43.527  20.421  24.886  1.00  0.00    -0.458 OA
BRANCH  29  30
ATOM     30  C   UNL A   1      44.715  20.990  24.603  1.00  0.00     0.338 C 
ATOM     31  O   UNL A   1      45.684  20.482  24.083  1.00  0.00    -0.246 OA
BRANCH  30  32
ATOM     32  C   UNL A   1      44.794  22.336  25.138  1.00  0.00     0.060 A 
ATOM     33  C   UNL A   1      45.657  22.534  26.223  1.00  0.00     0.016 A 
ATOM     34  C   UNL A   1      43.843  23.281  24.749  1.00  0.00     0.016 A 
ATOM     35  C   UNL A   1      45.485  23.647  27.010  1.00  0.00     0.010 A 
ATOM     36  C   UNL A   1      43.665  24.389  25.539  1.00  0.00     0.010 A 
ATOM     37  C   UNL A   1      44.450  24.526  26.687  1.00  0.00    -0.014 A 
BRANCH  37  38
ATOM     38  C   UNL A   1      44.232  25.661  27.561  1.00  0.00     0.031 A 
ATOM     39  C   UNL A   1      45.278  26.704  27.506  1.00  0.00     0.074 A 
ATOM     40  C   UNL A   1      43.069  25.819  28.216  1.00  0.00     0.049 A 
ATOM     41  N   UNL A   1      45.934  27.227  28.487  1.00  0.00    -0.248 NA
ATOM     42  C   UNL A   1      45.700  27.175  26.174  1.00  0.00     0.031 C 
ATOM     43  C   UNL A   1      41.854  25.011  28.087  1.00  0.00     0.029 A 
ATOM     44  N   UNL A   1      42.684  26.849  29.013  1.00  0.00    -0.354 N 
ATOM     45  C   UNL A   1      46.745  28.203  27.921  1.00  0.00     0.074 A 
ATOM     46  C   UNL A   1      46.652  28.049  26.492  1.00  0.00     0.031 C 
ATOM     47  C   UNL A   1      40.810  25.718  28.573  1.00  0.00     0.029 A 
ATOM     48  C   UNL A   1      41.308  26.962  29.136  1.00  0.00     0.049 A 
ATOM     49  H   UNL A   1      43.319  27.455  29.459  1.00  0.00     0.167 HD
ATOM     50  C   UNL A   1      47.279  29.214  28.657  1.00  0.00     0.031 A 
ATOM     51  C   UNL A   1      40.628  28.045  29.579  1.00  0.00     0.031 A 
ATOM     52  C   UNL A   1      47.277  28.929  30.064  1.00  0.00     0.049 A 
ATOM     53  C   UNL A   1      41.576  28.926  30.299  1.00  0.00     0.074 A 
ATOM     54  C   UNL A   1      47.832  27.942  30.855  1.00  0.00     0.029 A 
ATOM     55  N   UNL A   1      46.323  29.541  30.840  1.00  0.00    -0.354 N 
ATOM     56  N   UNL A   1      42.101  28.635  31.452  1.00  0.00    -0.248 NA
ATOM     57  C   UNL A   1      42.264  29.969  29.552  1.00  0.00     0.031 C 
ATOM     58  C   UNL A   1      46.875  27.706  31.882  1.00  0.00     0.029 A 
ATOM     59  C   UNL A   1      45.808  28.583  31.675  1.00  0.00     0.049 A 
ATOM     60  H   UNL A   1      46.059  30.489  30.803  1.00  0.00     0.167 HD
ATOM     61  C   UNL A   1      43.400  29.121  31.385  1.00  0.00     0.074 A 
ATOM     62  C   UNL A   1      43.397  30.044  30.254  1.00  0.00     0.031 C 
ATOM     63  C   UNL A   1      44.417  28.510  32.064  1.00  0.00     0.031 A 
BRANCH  50  64
ATOM     64  C   UNL A   1      47.459  30.604  28.113  1.00  0.00    -0.014 A 
ATOM     65  C   UNL A   1      46.333  31.308  27.658  1.00  0.00     0.009 A 
ATOM     66  C   UNL A   1      48.721  31.134  27.781  1.00  0.00     0.009 A 
ATOM     67  C   UNL A   1      46.467  32.454  26.865  1.00  0.00     0.001 A 
ATOM     68  C   UNL A   1      48.859  32.303  27.029  1.00  0.00     0.001 A 
ATOM     69  C   UNL A   1      47.730  32.948  26.549  1.00  0.00     0.000 A 
ENDBRANCH  50  64
BRANCH  51  70
ATOM     70  C   UNL A   1      39.265  28.478  29.212  1.00  0.00    -0.014 A 
ATOM     71  C   UNL A   1      38.261  28.575  30.184  1.00  0.00     0.009 A 
ATOM     72  C   UNL A   1      39.002  29.020  27.939  1.00  0.00     0.009 A 
ATOM     73  C   UNL A   1      37.048  29.215  29.901  1.00  0.00     0.001 A 
ATOM     74  C   UNL A   1      37.788  29.649  27.652  1.00  0.00     0.001 A 
ATOM     75  C   UNL A   1      36.816  29.760  28.639  1.00  0.00     0.000 A 
ENDBRANCH  51  70
BRANCH  63  76
ATOM     76  C   UNL A   1      44.051  27.455  33.080  1.00  0.00    -0.014 A 
ATOM     77  C   UNL A   1      44.091  26.078  32.793  1.00  0.00     0.009 A 
ATOM     78  C   UNL A   1      43.795  27.848  34.401  1.00  0.00     0.009 A 
ATOM     79  C   UNL A   1      43.831  25.128  33.784  1.00  0.00     0.001 A 
ATOM     80  C   UNL A   1      43.561  26.898  35.398  1.00  0.00     0.001 A 
ATOM     81  C   UNL A   1      43.569  25.539  35.088  1.00  0.00     0.000 A 
ENDBRANCH  63  76
ENDBRANCH  37  38
ENDBRANCH  30  32
ENDBRANCH  29  30
ENDBRANCH  28  29
ENDBRANCH  27  28
ENDBRANCH   1  27
TORSDOF 16
ENDMDL
MODEL 2
REMARK VINA RESULT:     -10.8      3.086      8.455
REMARK SMILES C[C@H](C(=O)NC1CCCC1)[N@H+]1CCn2nc(CCC(=O)OCCOC(=O)c3ccc(-c4c5nc(c(-c6ccccc6)c6ccc([nH]6)c(-c6ccccc6)c6nc(c(-c7ccccc7)c7ccc4[nH]7)C=C6)C=C5)cc3)cc2C1
REMARK SMILES IDX 21 1 19 2 20 3 18 4 17 5 16 6 11 7 12 8 77 9 13 11 76 12
REMARK SMILES IDX 14 13 75 14 15 15 2 16 1 17 3 18 4 19 5 20 6 22 7 23 10 24
REMARK SMILES IDX 8 25 9 26 22 27 23 28 24 29 25 30 26 31 27 32 28 33 74 34
REMARK SMILES IDX 29 35 73 36 30 37 31 38 32 39 67 40 33 41 72 42 66 43 68 44
REMARK SMILES IDX 34 45 71 46 65 47 64 48 35 50 57 51 42 52 56 53 43 54 46 55
REMARK SMILES IDX 55 56 69 57 44 58 45 59 54 61 70 62 47 63 36 64 37 65 41 66
REMARK SMILES IDX 38 67 40 68 39 69 58 70 59 71 63 72 60 73 62 74 61 75 48 76
REMARK SMILES IDX 49 77 53 78 50 79 52 80 51 81
REMARK H PARENT 11 10 5 21 68 49 46 60
REMARK Flexibility Score: inf
ROOT
ATOM      1  O   UNL A   1      32.548  30.396  27.203  1.00  0.00    -0.462 OA
ENDROOT
BRANCH   1   2
ATOM      2  C   UNL A   1      31.909  30.554  26.015  1.00  0.00     0.306 C 
ATOM      3  O   UNL A   1      31.081  31.431  25.791  1.00  0.00    -0.252 OA
BRANCH   2   4
ATOM      4  C   UNL A   1      32.231  29.440  25.026  1.00  0.00     0.129 C 
BRANCH   4   5
ATOM      5  C   UNL A   1      31.067  28.550  24.553  1.00  0.00     0.070 C 
BRANCH   5   6
ATOM      6  C   UNL A   1      31.074  27.230  25.242  1.00  0.00     0.064 A 
ATOM      7  N   UNL A   1      32.606  23.059  25.572  1.00  0.00    -0.318 N 
ATOM      8  C   UNL A   1      31.637  23.004  24.498  1.00  0.00     0.287 C 
ATOM      9  C   UNL A   1      32.284  24.022  26.653  1.00  0.00     0.319 C 
ATOM     10  H   UNL A   1      33.461  23.430  25.159  1.00  0.00     0.349 HD
ATOM     11  C   UNL A   1      31.080  24.288  23.978  1.00  0.00     0.206 C 
ATOM     12  C   UNL A   1      31.716  25.286  26.110  1.00  0.00     0.093 A 
ATOM     13  N   UNL A   1      30.835  25.188  25.074  1.00  0.00    -0.258 N 
ATOM     14  C   UNL A   1      31.951  26.651  26.207  1.00  0.00     0.055 A 
ATOM     15  N   UNL A   1      30.203  26.318  24.816  1.00  0.00    -0.177 NA
BRANCH   7  16
ATOM     16  C   UNL A   1      32.878  21.686  26.101  1.00  0.00     0.271 C 
ATOM     17  C   UNL A   1      33.434  22.017  27.505  1.00  0.00     0.086 C 
BRANCH  16  18
ATOM     18  C   UNL A   1      33.968  20.835  25.336  1.00  0.00     0.278 C 
ATOM     19  O   UNL A   1      33.669  19.699  24.927  1.00  0.00    -0.268 OA
ATOM     20  N   UNL A   1      35.256  21.155  25.024  1.00  0.00    -0.348 N 
ATOM     21  H   UNL A   1      35.699  20.335  24.706  1.00  0.00     0.163 HD
BRANCH  20  22
ATOM     22  C   UNL A   1      36.258  22.263  24.975  1.00  0.00     0.082 C 
ATOM     23  C   UNL A   1      36.177  23.401  26.012  1.00  0.00     0.025 C 
ATOM     24  C   UNL A   1      37.628  21.664  25.370  1.00  0.00     0.025 C 
ATOM     25  C   UNL A   1      37.581  23.959  26.169  1.00  0.00     0.002 C 
ATOM     26  C   UNL A   1      38.508  22.794  25.894  1.00  0.00     0.002 C 
ENDBRANCH  20  22
ENDBRANCH  16  18
ENDBRANCH   7  16
ENDBRANCH   5   6
ENDBRANCH   4   5
ENDBRANCH   2   4
ENDBRANCH   1   2
BRANCH   1  27
ATOM     27  C   UNL A   1      33.992  30.374  27.237  1.00  0.00     0.274 C 
BRANCH  27  28
ATOM     28  C   UNL A   1      34.614  31.695  27.682  1.00  0.00     0.275 C 
BRANCH  28  29
ATOM     29  O   UNL A   1      35.904  31.484  28.259  1.00  0.00    -0.458 OA
BRANCH  29  30
ATOM     30  C   UNL A   1      35.880  31.425  29.605  1.00  0.00     0.338 C 
ATOM     31  O   UNL A   1      35.114  31.973  30.366  1.00  0.00    -0.246 OA
BRANCH  30  32
ATOM     32  C   UNL A   1      37.026  30.699  30.120  1.00  0.00     0.060 A 
ATOM     33  C   UNL A   1      38.267  31.344  30.045  1.00  0.00     0.016 A 
ATOM     34  C   UNL A   1      36.900  29.337  30.401  1.00  0.00     0.016 A 
ATOM     35  C   UNL A   1      39.411  30.589  30.134  1.00  0.00     0.010 A 
ATOM     36  C   UNL A   1      38.042  28.581  30.483  1.00  0.00     0.010 A 
ATOM     37  C   UNL A   1      39.277  29.209  30.293  1.00  0.00    -0.014 A 
BRANCH  37  38
ATOM     38  C   UNL A   1      40.486  28.412  30.318  1.00  0.00     0.031 A 
ATOM     39  C   UNL A   1      41.154  28.330  31.634  1.00  0.00     0.074 A 
ATOM     40  C   UNL A   1      40.845  27.661  29.263  1.00  0.00     0.049 A 
ATOM     41  N   UNL A   1      42.390  28.573  31.917  1.00  0.00    -0.248 NA
ATOM     42  C   UNL A   1      40.317  28.002  32.803  1.00  0.00     0.031 C 
ATOM     43  C   UNL A   1      40.084  27.426  28.033  1.00  0.00     0.029 A 
ATOM     44  N   UNL A   1      41.902  26.816  29.150  1.00  0.00    -0.354 N 
ATOM     45  C   UNL A   1      42.532  28.284  33.269  1.00  0.00     0.074 A 
ATOM     46  C   UNL A   1      41.209  28.054  33.790  1.00  0.00     0.031 C 
ATOM     47  C   UNL A   1      40.571  26.321  27.427  1.00  0.00     0.029 A 
ATOM     48  C   UNL A   1      41.732  25.854  28.166  1.00  0.00     0.049 A 
ATOM     49  H   UNL A   1      42.709  26.880  29.711  1.00  0.00     0.167 HD
ATOM     50  C   UNL A   1      43.746  28.044  33.833  1.00  0.00     0.031 A 
ATOM     51  C   UNL A   1      42.437  24.706  28.035  1.00  0.00     0.031 A 
ATOM     52  C   UNL A   1      44.830  28.527  33.026  1.00  0.00     0.049 A 
ATOM     53  C   UNL A   1      43.677  24.830  28.836  1.00  0.00     0.074 A 
ATOM     54  C   UNL A   1      45.202  29.766  32.541  1.00  0.00     0.029 A 
ATOM     55  N   UNL A   1      45.547  27.608  32.299  1.00  0.00    -0.354 N 
ATOM     56  N   UNL A   1      44.666  25.614  28.521  1.00  0.00    -0.248 NA
ATOM     57  C   UNL A   1      43.664  24.376  30.219  1.00  0.00     0.031 C 
ATOM     58  C   UNL A   1      45.754  29.511  31.253  1.00  0.00     0.029 A 
ATOM     59  C   UNL A   1      45.715  28.130  31.042  1.00  0.00     0.049 A 
ATOM     60  H   UNL A   1      45.877  26.737  32.620  1.00  0.00     0.167 HD
ATOM     61  C   UNL A   1      45.134  26.100  29.735  1.00  0.00     0.074 A 
ATOM     62  C   UNL A   1      44.572  25.204  30.740  1.00  0.00     0.031 C 
ATOM     63  C   UNL A   1      45.687  27.346  29.828  1.00  0.00     0.031 A 
BRANCH  50  64
ATOM     64  C   UNL A   1      43.942  27.043  34.937  1.00  0.00    -0.014 A 
ATOM     65  C   UNL A   1      43.766  25.679  34.659  1.00  0.00     0.009 A 
ATOM     66  C   UNL A   1      44.023  27.414  36.295  1.00  0.00     0.009 A 
ATOM     67  C   UNL A   1      43.624  24.742  35.691  1.00  0.00     0.001 A 
ATOM     68  C   UNL A   1      43.928  26.476  37.325  1.00  0.00     0.001 A 
ATOM     69  C   UNL A   1      43.702  25.142  37.022  1.00  0.00     0.000 A 
ENDBRANCH  50  64
BRANCH  51  70
ATOM     70  C   UNL A   1      41.991  23.424  27.457  1.00  0.00    -0.014 A 
ATOM     71  C   UNL A   1      42.439  23.016  26.194  1.00  0.00     0.009 A 
ATOM     72  C   UNL A   1      41.299  22.483  28.244  1.00  0.00     0.009 A 
ATOM     73  C   UNL A   1      42.227  21.706  25.746  1.00  0.00     0.001 A 
ATOM     74  C   UNL A   1      41.077  21.179  27.794  1.00  0.00     0.001 A 
ATOM     75  C   UNL A   1      41.554  20.786  26.549  1.00  0.00     0.000 A 
ENDBRANCH  51  70
BRANCH  63  76
ATOM     76  C   UNL A   1      46.004  28.074  28.543  1.00  0.00    -0.014 A 
ATOM     77  C   UNL A   1      45.056  28.860  27.862  1.00  0.00     0.009 A 
ATOM     78  C   UNL A   1      47.327  28.084  28.080  1.00  0.00     0.009 A 
ATOM     79  C   UNL A   1      45.410  29.590  26.725  1.00  0.00     0.001 A 
ATOM     80  C   UNL A   1      47.687  28.835  26.958  1.00  0.00     0.001 A 
ATOM     81  C   UNL A   1      46.727  29.579  26.275  1.00  0.00     0.000 A 
ENDBRANCH  63  76
ENDBRANCH  37  38
ENDBRANCH  30  32
ENDBRANCH  29  30
ENDBRANCH  28  29
ENDBRANCH  27  28
ENDBRANCH   1  27
TORSDOF 16
ENDMDL
MODEL 3
REMARK VINA RESULT:     -10.7      3.134      8.485
REMARK SMILES C[C@H](C(=O)NC1CCCC1)[N@H+]1CCn2nc(CCC(=O)OCCOC(=O)c3ccc(-c4c5nc(c(-c6ccccc6)c6ccc([nH]6)c(-c6ccccc6)c6nc(c(-c7ccccc7)c7ccc4[nH]7)C=C6)C=C5)cc3)cc2C1
REMARK SMILES IDX 21 1 19 2 20 3 18 4 17 5 16 6 11 7 12 8 77 9 13 11 76 12
REMARK SMILES IDX 14 13 75 14 15 15 2 16 1 17 3 18 4 19 5 20 6 22 7 23 10 24
REMARK SMILES IDX 8 25 9 26 22 27 23 28 24 29 25 30 26 31 27 32 28 33 74 34
REMARK SMILES IDX 29 35 73 36 30 37 31 38 32 39 67 40 33 41 72 42 66 43 68 44
REMARK SMILES IDX 34 45 71 46 65 47 64 48 35 50 57 51 42 52 56 53 43 54 46 55
REMARK SMILES IDX 55 56 69 57 44 58 45 59 54 61 70 62 47 63 36 64 37 65 41 66
REMARK SMILES IDX 38 67 40 68 39 69 58 70 59 71 63 72 60 73 62 74 61 75 48 76
REMARK SMILES IDX 49 77 53 78 50 79 52 80 51 81
REMARK H PARENT 11 10 5 21 68 49 46 60
REMARK Flexibility Score: inf
ROOT
ATOM      1  O   UNL A   1      33.358  29.291  27.186  1.00  0.00    -0.462 OA
ENDROOT
BRANCH   1   2
ATOM      2  C   UNL A   1      32.518  29.922  26.326  1.00  0.00     0.306 C 
ATOM      3  O   UNL A   1      31.768  30.839  26.646  1.00  0.00    -0.252 OA
BRANCH   2   4
ATOM      4  C   UNL A   1      32.508  29.281  24.943  1.00  0.00     0.129 C 
BRANCH   4   5
ATOM      5  C   UNL A   1      31.179  28.681  24.447  1.00  0.00     0.070 C 
BRANCH   5   6
ATOM      6  C   UNL A   1      31.050  27.249  24.830  1.00  0.00     0.064 A 
ATOM      7  N   UNL A   1      32.934  23.384  26.002  1.00  0.00    -0.318 N 
ATOM      8  C   UNL A   1      33.115  23.455  24.567  1.00  0.00     0.287 C 
ATOM      9  C   UNL A   1      31.680  23.999  26.502  1.00  0.00     0.319 C 
ATOM     10  H   UNL A   1      33.670  23.962  26.406  1.00  0.00     0.349 HD
ATOM     11  C   UNL A   1      32.785  24.733  23.871  1.00  0.00     0.206 C 
ATOM     12  C   UNL A   1      31.365  25.264  25.782  1.00  0.00     0.093 A 
ATOM     13  N   UNL A   1      31.586  25.295  24.437  1.00  0.00    -0.258 N 
ATOM     14  C   UNL A   1      31.065  26.583  26.092  1.00  0.00     0.055 A 
ATOM     15  N   UNL A   1      31.062  26.352  23.846  1.00  0.00    -0.177 NA
BRANCH   7  16
ATOM     16  C   UNL A   1      33.103  21.977  26.481  1.00  0.00     0.271 C 
ATOM     17  C   UNL A   1      33.267  22.202  28.001  1.00  0.00     0.086 C 
BRANCH  16  18
ATOM     18  C   UNL A   1      34.379  21.201  25.965  1.00  0.00     0.278 C 
ATOM     19  O   UNL A   1      35.508  21.654  26.228  1.00  0.00    -0.268 OA
ATOM     20  N   UNL A   1      34.460  20.048  25.243  1.00  0.00    -0.348 N 
ATOM     21  H   UNL A   1      35.393  19.945  24.946  1.00  0.00     0.163 HD
BRANCH  20  22
ATOM     22  C   UNL A   1      33.685  18.879  24.725  1.00  0.00     0.082 C 
ATOM     23  C   UNL A   1      32.850  19.035  23.439  1.00  0.00     0.025 C 
ATOM     24  C   UNL A   1      34.710  17.830  24.231  1.00  0.00     0.025 C 
ATOM     25  C   UNL A   1      32.747  17.658  22.806  1.00  0.00     0.002 C 
ATOM     26  C   UNL A   1      34.018  16.939  23.203  1.00  0.00     0.002 C 
ENDBRANCH  20  22
ENDBRANCH  16  18
ENDBRANCH   7  16
ENDBRANCH   5   6
ENDBRANCH   4   5
ENDBRANCH   2   4
ENDBRANCH   1   2
BRANCH   1  27
ATOM     27  C   UNL A   1      34.757  29.649  27.207  1.00  0.00     0.274 C 
BRANCH  27  28
ATOM     28  C   UNL A   1      35.014  31.091  27.636  1.00  0.00     0.275 C 
BRANCH  28  29
ATOM     29  O   UNL A   1      35.388  31.155  29.013  1.00  0.00    -0.458 OA
BRANCH  29  30
ATOM     30  C   UNL A   1      36.550  31.806  29.218  1.00  0.00     0.338 C 
ATOM     31  O   UNL A   1      36.821  32.957  28.957  1.00  0.00    -0.246 OA
BRANCH  30  32
ATOM     32  C   UNL A   1      37.582  30.903  29.694  1.00  0.00     0.060 A 
ATOM     33  C   UNL A   1      38.909  31.325  29.542  1.00  0.00     0.016 A 
ATOM     34  C   UNL A   1      37.240  29.588  30.017  1.00  0.00     0.016 A 
ATOM     35  C   UNL A   1      39.911  30.387  29.595  1.00  0.00     0.010 A 
ATOM     36  C   UNL A   1      38.240  28.649  30.061  1.00  0.00     0.010 A 
ATOM     37  C   UNL A   1      39.552  29.052  29.795  1.00  0.00    -0.014 A 
BRANCH  37  38
ATOM     38  C   UNL A   1      40.607  28.061  29.781  1.00  0.00     0.031 A 
ATOM     39  C   UNL A   1      41.390  27.962  31.031  1.00  0.00     0.074 A 
ATOM     40  C   UNL A   1      40.720  27.181  28.771  1.00  0.00     0.049 A 
ATOM     41  N   UNL A   1      42.673  28.006  31.173  1.00  0.00    -0.248 NA
ATOM     42  C   UNL A   1      40.641  27.875  32.298  1.00  0.00     0.031 C 
ATOM     43  C   UNL A   1      39.803  26.991  27.645  1.00  0.00     0.029 A 
ATOM     44  N   UNL A   1      41.604  26.158  28.639  1.00  0.00    -0.354 N 
ATOM     45  C   UNL A   1      42.910  27.800  32.527  1.00  0.00     0.074 A 
ATOM     46  C   UNL A   1      41.631  27.845  33.188  1.00  0.00     0.031 C 
ATOM     47  C   UNL A   1      40.031  25.775  27.101  1.00  0.00     0.029 A 
ATOM     48  C   UNL A   1      41.171  25.170  27.769  1.00  0.00     0.049 A 
ATOM     49  H   UNL A   1      42.466  26.122  29.114  1.00  0.00     0.167 HD
ATOM     50  C   UNL A   1      44.120  27.395  32.995  1.00  0.00     0.031 A 
ATOM     51  C   UNL A   1      41.657  23.909  27.680  1.00  0.00     0.031 A 
ATOM     52  C   UNL A   1      45.177  27.619  32.049  1.00  0.00     0.049 A 
ATOM     53  C   UNL A   1      42.979  23.874  28.346  1.00  0.00     0.074 A 
ATOM     54  C   UNL A   1      45.694  28.733  31.418  1.00  0.00     0.029 A 
ATOM     55  N   UNL A   1      45.647  26.536  31.347  1.00  0.00    -0.354 N 
ATOM     56  N   UNL A   1      44.045  24.448  27.870  1.00  0.00    -0.248 NA
ATOM     57  C   UNL A   1      43.040  23.535  29.761  1.00  0.00     0.031 C 
ATOM     58  C   UNL A   1      46.054  28.289  30.114  1.00  0.00     0.029 A 
ATOM     59  C   UNL A   1      45.764  26.925  30.037  1.00  0.00     0.049 A 
ATOM     60  H   UNL A   1      45.861  25.648  31.715  1.00  0.00     0.167 HD
ATOM     61  C   UNL A   1      44.716  24.934  28.983  1.00  0.00     0.074 A 
ATOM     62  C   UNL A   1      44.124  24.229  30.116  1.00  0.00     0.031 C 
ATOM     63  C   UNL A   1      45.475  26.068  28.909  1.00  0.00     0.031 A 
BRANCH  50  64
ATOM     64  C   UNL A   1      44.266  26.462  34.164  1.00  0.00    -0.014 A 
ATOM     65  C   UNL A   1      43.787  25.147  34.050  1.00  0.00     0.009 A 
ATOM     66  C   UNL A   1      44.604  26.909  35.457  1.00  0.00     0.009 A 
ATOM     67  C   UNL A   1      43.607  24.341  35.181  1.00  0.00     0.001 A 
ATOM     68  C   UNL A   1      44.468  26.092  36.582  1.00  0.00     0.001 A 
ATOM     69  C   UNL A   1      43.945  24.816  36.446  1.00  0.00     0.000 A 
ENDBRANCH  50  64
BRANCH  51  70
ATOM     70  C   UNL A   1      40.944  22.685  27.268  1.00  0.00    -0.014 A 
ATOM     71  C   UNL A   1      39.646  22.756  26.745  1.00  0.00     0.009 A 
ATOM     72  C   UNL A   1      41.625  21.455  27.172  1.00  0.00     0.009 A 
ATOM     73  C   UNL A   1      39.060  21.645  26.125  1.00  0.00     0.001 A 
ATOM     74  C   UNL A   1      41.038  20.343  26.563  1.00  0.00     0.001 A 
ATOM     75  C   UNL A   1      39.759  20.443  26.026  1.00  0.00     0.000 A 
ENDBRANCH  51  70
BRANCH  63  76
ATOM     76  C   UNL A   1      45.768  26.631  27.538  1.00  0.00    -0.014 A 
ATOM     77  C   UNL A   1      47.060  26.648  26.984  1.00  0.00     0.009 A 
ATOM     78  C   UNL A   1      44.695  27.026  26.726  1.00  0.00     0.009 A 
ATOM     79  C   UNL A   1      47.279  27.095  25.678  1.00  0.00     0.001 A 
ATOM     80  C   UNL A   1      44.909  27.449  25.412  1.00  0.00     0.001 A 
ATOM     81  C   UNL A   1      46.201  27.494  24.892  1.00  0.00     0.000 A 
ENDBRANCH  63  76
ENDBRANCH  37  38
ENDBRANCH  30  32
ENDBRANCH  29  30
ENDBRANCH  28  29
ENDBRANCH  27  28
ENDBRANCH   1  27
TORSDOF 16
ENDMDL
