MODEL 1
REMARK VINA RESULT:     -11.3      0.000      0.000
REMARK SMILES Cc1ccc(S(=O)(=O)N2CCN(C(=O)[C@H]3CCCC[C@@H]3C(=O)OCCOC(=O)c3ccc(-c4c5nc(c(-c6ccccc6)c6ccc([nH]6)c(-c6ccccc6)c6nc(c(-c7ccccc7)c7ccc4[nH]7)C=C6)C=C5)cc3)CC2)cc1C
REMARK SMILES IDX 24 1 23 2 21 3 22 4 20 5 15 6 16 7 17 8 19 9 18 10 13 11
REMARK SMILES IDX 9 12 10 13 78 14 11 15 77 16 12 17 14 18 6 19 7 20 8 21 5 22
REMARK SMILES IDX 1 23 2 24 3 25 80 26 4 27 79 28 81 29 25 30 26 31 27 32
REMARK SMILES IDX 28 33 29 34 30 35 76 36 31 37 75 38 32 39 33 40 34 41 69 42
REMARK SMILES IDX 35 43 74 44 68 45 70 46 36 47 73 48 67 49 66 50 37 52 59 53
REMARK SMILES IDX 44 54 58 55 45 56 48 57 57 58 71 59 46 60 47 61 56 63 72 64
REMARK SMILES IDX 49 65 38 66 39 67 43 68 40 69 42 70 41 71 60 72 61 73 65 74
REMARK SMILES IDX 62 75 64 76 63 77 50 78 51 79 55 80 52 81 54 82 53 83
REMARK H PARENT 70 51 48 62
REMARK Flexibility Score: inf
ROOT
ATOM      1  C   UNL A   1      32.165  29.350  27.142  1.00  0.00     0.274 C 
ENDROOT
BRANCH   1   2
ATOM      2  O   UNL A   1      32.157  28.361  26.094  1.00  0.00    -0.462 OA
BRANCH   2   3
ATOM      3  C   UNL A   1      31.352  27.281  26.303  1.00  0.00     0.309 C 
ATOM      4  O   UNL A   1      30.628  27.132  27.279  1.00  0.00    -0.252 OA
BRANCH   3   5
ATOM      5  C   UNL A   1      31.470  26.274  25.163  1.00  0.00     0.111 C 
ATOM      6  C   UNL A   1      32.424  26.779  24.042  1.00  0.00     0.093 C 
ATOM      7  C   UNL A   1      31.788  27.898  23.200  1.00  0.00     0.014 C 
ATOM      8  C   UNL A   1      30.390  27.559  22.710  1.00  0.00     0.001 C 
ATOM      9  C   UNL A   1      30.068  25.953  24.631  1.00  0.00     0.016 C 
ATOM     10  C   UNL A   1      29.474  27.115  23.840  1.00  0.00     0.001 C 
BRANCH   6  11
ATOM     11  C   UNL A   1      32.916  25.621  23.162  1.00  0.00     0.226 C 
ATOM     12  N   UNL A   1      35.934  22.991  24.583  1.00  0.00    -0.194 NA
ATOM     13  C   UNL A   1      35.772  23.307  23.152  1.00  0.00     0.124 C 
ATOM     14  C   UNL A   1      35.397  23.991  25.526  1.00  0.00     0.124 C 
ATOM     15  C   UNL A   1      34.310  23.631  22.837  1.00  0.00     0.136 C 
ATOM     16  C   UNL A   1      33.973  24.446  25.156  1.00  0.00     0.136 C 
ATOM     17  N   UNL A   1      33.774  24.680  23.718  1.00  0.00    -0.340 N 
ATOM     18  O   UNL A   1      32.561  25.532  21.985  1.00  0.00    -0.275 OA
BRANCH  12  19
ATOM     19  S   UNL A   1      36.566  21.525  25.094  1.00  0.00     0.243 S 
ATOM     20  O   UNL A   1      36.835  21.605  26.506  1.00  0.00    -0.207 OA
ATOM     21  O   UNL A   1      37.604  21.161  24.143  1.00  0.00    -0.207 OA
BRANCH  19  22
ATOM     22  C   UNL A   1      35.248  20.347  24.881  1.00  0.00     0.082 A 
ATOM     23  C   UNL A   1      32.054  17.527  24.230  1.00  0.00     0.044 C 
ATOM     24  C   UNL A   1      33.192  18.478  24.467  1.00  0.00    -0.048 A 
ATOM     25  C   UNL A   1      32.901  19.836  24.647  1.00  0.00     0.005 A 
ATOM     26  C   UNL A   1      34.532  18.045  24.538  1.00  0.00    -0.047 A 
ATOM     27  C   UNL A   1      33.921  20.756  24.879  1.00  0.00     0.022 A 
ATOM     28  C   UNL A   1      35.556  18.995  24.716  1.00  0.00     0.025 A 
ATOM     29  C   UNL A   1      34.925  16.595  24.476  1.00  0.00     0.044 C 
ENDBRANCH  19  22
ENDBRANCH  12  19
ENDBRANCH   6  11
ENDBRANCH   3   5
ENDBRANCH   2   3
ENDBRANCH   1   2
BRANCH   1  30
ATOM     30  C   UNL A   1      33.237  30.413  26.904  1.00  0.00     0.275 C 
BRANCH  30  31
ATOM     31  O   UNL A   1      34.512  29.942  27.375  1.00  0.00    -0.458 OA
BRANCH  31  32
ATOM     32  C   UNL A   1      35.054  30.629  28.408  1.00  0.00     0.338 C 
ATOM     33  O   UNL A   1      34.513  31.443  29.134  1.00  0.00    -0.246 OA
BRANCH  32  34
ATOM     34  C   UNL A   1      36.447  30.193  28.593  1.00  0.00     0.060 A 
ATOM     35  C   UNL A   1      37.297  30.219  27.494  1.00  0.00     0.016 A 
ATOM     36  C   UNL A   1      36.887  29.657  29.799  1.00  0.00     0.016 A 
ATOM     37  C   UNL A   1      38.574  29.677  27.570  1.00  0.00     0.010 A 
ATOM     38  C   UNL A   1      38.204  29.189  29.902  1.00  0.00     0.010 A 
ATOM     39  C   UNL A   1      39.061  29.182  28.784  1.00  0.00    -0.014 A 
BRANCH  39  40
ATOM     40  C   UNL A   1      40.452  28.659  28.872  1.00  0.00     0.031 A 
ATOM     41  C   UNL A   1      41.589  29.577  29.226  1.00  0.00     0.074 A 
ATOM     42  C   UNL A   1      40.708  27.355  28.636  1.00  0.00     0.049 A 
ATOM     43  N   UNL A   1      42.879  29.365  29.143  1.00  0.00    -0.248 NA
ATOM     44  C   UNL A   1      41.229  30.909  29.732  1.00  0.00     0.031 C 
ATOM     45  C   UNL A   1      39.704  26.330  28.343  1.00  0.00     0.029 A 
ATOM     46  N   UNL A   1      41.898  26.670  28.598  1.00  0.00    -0.354 N 
ATOM     47  C   UNL A   1      43.483  30.559  29.518  1.00  0.00     0.074 A 
ATOM     48  C   UNL A   1      42.419  31.484  29.843  1.00  0.00     0.031 C 
ATOM     49  C   UNL A   1      40.315  25.148  28.177  1.00  0.00     0.029 A 
ATOM     50  C   UNL A   1      41.757  25.351  28.239  1.00  0.00     0.049 A 
ATOM     51  H   UNL A   1      42.767  27.082  28.808  1.00  0.00     0.167 HD
ATOM     52  C   UNL A   1      44.804  30.859  29.566  1.00  0.00     0.031 A 
ATOM     53  C   UNL A   1      42.674  24.420  27.915  1.00  0.00     0.031 A 
ATOM     54  C   UNL A   1      45.860  29.926  29.272  1.00  0.00     0.049 A 
ATOM     55  C   UNL A   1      44.127  24.790  27.904  1.00  0.00     0.074 A 
ATOM     56  C   UNL A   1      47.229  30.124  29.332  1.00  0.00     0.029 A 
ATOM     57  N   UNL A   1      45.665  28.614  28.865  1.00  0.00    -0.354 N 
ATOM     58  N   UNL A   1      44.686  25.935  28.212  1.00  0.00    -0.248 NA
ATOM     59  C   UNL A   1      45.072  23.753  27.469  1.00  0.00     0.031 C 
ATOM     60  C   UNL A   1      47.861  28.953  28.899  1.00  0.00     0.029 A 
ATOM     61  C   UNL A   1      46.886  28.006  28.624  1.00  0.00     0.049 A 
ATOM     62  H   UNL A   1      44.787  28.179  28.761  1.00  0.00     0.167 HD
ATOM     63  C   UNL A   1      46.047  25.757  28.010  1.00  0.00     0.074 A 
ATOM     64  C   UNL A   1      46.233  24.388  27.574  1.00  0.00     0.031 C 
ATOM     65  C   UNL A   1      47.053  26.652  28.164  1.00  0.00     0.031 A 
BRANCH  52  66
ATOM     66  C   UNL A   1      45.178  32.280  29.886  1.00  0.00    -0.014 A 
ATOM     67  C   UNL A   1      45.299  33.256  28.888  1.00  0.00     0.009 A 
ATOM     68  C   UNL A   1      45.396  32.650  31.223  1.00  0.00     0.009 A 
ATOM     69  C   UNL A   1      45.678  34.562  29.213  1.00  0.00     0.001 A 
ATOM     70  C   UNL A   1      45.746  33.962  31.551  1.00  0.00     0.001 A 
ATOM     71  C   UNL A   1      45.899  34.914  30.544  1.00  0.00     0.000 A 
ENDBRANCH  52  66
BRANCH  53  72
ATOM     72  C   UNL A   1      42.221  23.076  27.468  1.00  0.00    -0.014 A 
ATOM     73  C   UNL A   1      41.648  22.171  28.372  1.00  0.00     0.009 A 
ATOM     74  C   UNL A   1      42.326  22.710  26.115  1.00  0.00     0.009 A 
ATOM     75  C   UNL A   1      41.188  20.928  27.928  1.00  0.00     0.001 A 
ATOM     76  C   UNL A   1      41.836  21.482  25.668  1.00  0.00     0.001 A 
ATOM     77  C   UNL A   1      41.272  20.590  26.577  1.00  0.00     0.000 A 
ENDBRANCH  53  72
BRANCH  65  78
ATOM     78  C   UNL A   1      48.444  26.177  27.854  1.00  0.00    -0.014 A 
ATOM     79  C   UNL A   1      49.050  26.475  26.624  1.00  0.00     0.009 A 
ATOM     80  C   UNL A   1      49.168  25.456  28.816  1.00  0.00     0.009 A 
ATOM     81  C   UNL A   1      50.349  26.038  26.355  1.00  0.00     0.001 A 
ATOM     82  C   UNL A   1      50.475  25.043  28.553  1.00  0.00     0.001 A 
ATOM     83  C   UNL A   1      51.061  25.327  27.320  1.00  0.00     0.000 A 
ENDBRANCH  65  78
ENDBRANCH  39  40
ENDBRANCH  32  34
ENDBRANCH  31  32
ENDBRANCH  30  31
ENDBRANCH   1  30
TORSDOF 14
ENDMDL
MODEL 2
REMARK VINA RESULT:     -11.3      4.215      7.932
REMARK SMILES Cc1ccc(S(=O)(=O)N2CCN(C(=O)[C@H]3CCCC[C@@H]3C(=O)OCCOC(=O)c3ccc(-c4c5nc(c(-c6ccccc6)c6ccc([nH]6)c(-c6ccccc6)c6nc(c(-c7ccccc7)c7ccc4[nH]7)C=C6)C=C5)cc3)CC2)cc1C
REMARK SMILES IDX 24 1 23 2 21 3 22 4 20 5 15 6 16 7 17 8 19 9 18 10 13 11
REMARK SMILES IDX 9 12 10 13 78 14 11 15 77 16 12 17 14 18 6 19 7 20 8 21 5 22
REMARK SMILES IDX 1 23 2 24 3 25 80 26 4 27 79 28 81 29 25 30 26 31 27 32
REMARK SMILES IDX 28 33 29 34 30 35 76 36 31 37 75 38 32 39 33 40 34 41 69 42
REMARK SMILES IDX 35 43 74 44 68 45 70 46 36 47 73 48 67 49 66 50 37 52 59 53
REMARK SMILES IDX 44 54 58 55 45 56 48 57 57 58 71 59 46 60 47 61 56 63 72 64
REMARK SMILES IDX 49 65 38 66 39 67 43 68 40 69 42 70 41 71 60 72 61 73 65 74
REMARK SMILES IDX 62 75 64 76 63 77 50 78 51 79 55 80 52 81 54 82 53 83
REMARK H PARENT 70 51 48 62
REMARK Flexibility Score: inf
ROOT
ATOM      1  C   UNL A   1      33.302  27.325  26.432  1.00  0.00     0.274 C 
ENDROOT
BRANCH   1   2
ATOM      2  O   UNL A   1      33.599  26.090  25.748  1.00  0.00    -0.462 OA
BRANCH   2   3
ATOM      3  C   UNL A   1      32.567  25.205  25.646  1.00  0.00     0.309 C 
ATOM      4  O   UNL A   1      31.383  25.517  25.637  1.00  0.00    -0.252 OA
BRANCH   3   5
ATOM      5  C   UNL A   1      33.076  23.771  25.548  1.00  0.00     0.111 C 
ATOM      6  C   UNL A   1      34.330  23.664  24.633  1.00  0.00     0.093 C 
ATOM      7  C   UNL A   1      33.975  23.808  23.143  1.00  0.00     0.014 C 
ATOM      8  C   UNL A   1      32.822  22.916  22.712  1.00  0.00     0.001 C 
ATOM      9  C   UNL A   1      31.932  22.865  25.075  1.00  0.00     0.016 C 
ATOM     10  C   UNL A   1      31.600  23.084  23.602  1.00  0.00     0.001 C 
BRANCH   6  11
ATOM     11  C   UNL A   1      35.111  22.369  24.904  1.00  0.00     0.226 C 
ATOM     12  N   UNL A   1      39.157  22.545  26.185  1.00  0.00    -0.194 NA
ATOM     13  C   UNL A   1      38.634  21.430  25.375  1.00  0.00     0.124 C 
ATOM     14  C   UNL A   1      38.414  23.816  26.085  1.00  0.00     0.124 C 
ATOM     15  C   UNL A   1      37.143  21.220  25.651  1.00  0.00     0.136 C 
ATOM     16  C   UNL A   1      36.892  23.622  26.219  1.00  0.00     0.136 C 
ATOM     17  N   UNL A   1      36.370  22.461  25.485  1.00  0.00    -0.340 N 
ATOM     18  O   UNL A   1      34.632  21.273  24.606  1.00  0.00    -0.275 OA
BRANCH  12  19
ATOM     19  S   UNL A   1      40.432  22.333  27.253  1.00  0.00     0.243 S 
ATOM     20  O   UNL A   1      40.404  20.980  27.745  1.00  0.00    -0.207 OA
ATOM     21  O   UNL A   1      40.413  23.471  28.160  1.00  0.00    -0.207 OA
BRANCH  19  22
ATOM     22  C   UNL A   1      41.903  22.498  26.264  1.00  0.00     0.082 A 
ATOM     23  C   UNL A   1      45.531  22.943  23.979  1.00  0.00     0.044 C 
ATOM     24  C   UNL A   1      44.269  22.747  24.769  1.00  0.00    -0.048 A 
ATOM     25  C   UNL A   1      43.432  23.851  24.978  1.00  0.00     0.005 A 
ATOM     26  C   UNL A   1      43.890  21.489  25.283  1.00  0.00    -0.047 A 
ATOM     27  C   UNL A   1      42.246  23.718  25.697  1.00  0.00     0.022 A 
ATOM     28  C   UNL A   1      42.718  21.383  26.056  1.00  0.00     0.025 A 
ATOM     29  C   UNL A   1      44.664  20.230  25.007  1.00  0.00     0.044 C 
ENDBRANCH  19  22
ENDBRANCH  12  19
ENDBRANCH   6  11
ENDBRANCH   3   5
ENDBRANCH   2   3
ENDBRANCH   1   2
BRANCH   1  30
ATOM     30  C   UNL A   1      33.726  28.540  25.607  1.00  0.00     0.275 C 
BRANCH  30  31
ATOM     31  O   UNL A   1      34.941  29.097  26.138  1.00  0.00    -0.458 OA
BRANCH  31  32
ATOM     32  C   UNL A   1      34.809  29.863  27.246  1.00  0.00     0.338 C 
ATOM     33  O   UNL A   1      33.844  30.519  27.593  1.00  0.00    -0.246 OA
BRANCH  32  34
ATOM     34  C   UNL A   1      36.030  29.744  28.057  1.00  0.00     0.060 A 
ATOM     35  C   UNL A   1      35.906  29.329  29.378  1.00  0.00     0.016 A 
ATOM     36  C   UNL A   1      37.270  30.142  27.568  1.00  0.00     0.016 A 
ATOM     37  C   UNL A   1      37.000  29.345  30.234  1.00  0.00     0.010 A 
ATOM     38  C   UNL A   1      38.392  30.077  28.407  1.00  0.00     0.010 A 
ATOM     39  C   UNL A   1      38.268  29.689  29.755  1.00  0.00    -0.014 A 
BRANCH  39  40
ATOM     40  C   UNL A   1      39.446  29.645  30.664  1.00  0.00     0.031 A 
ATOM     41  C   UNL A   1      40.585  28.702  30.390  1.00  0.00     0.074 A 
ATOM     42  C   UNL A   1      39.505  30.451  31.745  1.00  0.00     0.049 A 
ATOM     43  N   UNL A   1      41.583  28.363  31.166  1.00  0.00    -0.248 NA
ATOM     44  C   UNL A   1      40.598  28.049  29.073  1.00  0.00     0.031 C 
ATOM     45  C   UNL A   1      38.510  31.462  32.109  1.00  0.00     0.029 A 
ATOM     46  N   UNL A   1      40.445  30.542  32.743  1.00  0.00    -0.354 N 
ATOM     47  C   UNL A   1      42.303  27.407  30.462  1.00  0.00     0.074 A 
ATOM     48  C   UNL A   1      41.635  27.231  29.189  1.00  0.00     0.031 C 
ATOM     49  C   UNL A   1      38.900  32.082  33.232  1.00  0.00     0.029 A 
ATOM     50  C   UNL A   1      40.110  31.439  33.728  1.00  0.00     0.049 A 
ATOM     51  H   UNL A   1      41.278  30.016  32.751  1.00  0.00     0.167 HD
ATOM     52  C   UNL A   1      43.408  26.725  30.849  1.00  0.00     0.031 A 
ATOM     53  C   UNL A   1      40.660  31.673  34.935  1.00  0.00     0.031 A 
ATOM     54  C   UNL A   1      44.088  26.926  32.103  1.00  0.00     0.049 A 
ATOM     55  C   UNL A   1      41.838  30.858  35.378  1.00  0.00     0.074 A 
ATOM     56  C   UNL A   1      45.238  26.312  32.569  1.00  0.00     0.029 A 
ATOM     57  N   UNL A   1      43.681  27.811  33.089  1.00  0.00    -0.354 N 
ATOM     58  N   UNL A   1      42.482  29.921  34.724  1.00  0.00    -0.248 NA
ATOM     59  C   UNL A   1      42.345  31.108  36.734  1.00  0.00     0.031 C 
ATOM     60  C   UNL A   1      45.490  26.779  33.864  1.00  0.00     0.029 A 
ATOM     61  C   UNL A   1      44.529  27.726  34.182  1.00  0.00     0.049 A 
ATOM     62  H   UNL A   1      42.903  28.412  33.023  1.00  0.00     0.167 HD
ATOM     63  C   UNL A   1      43.470  29.470  35.589  1.00  0.00     0.074 A 
ATOM     64  C   UNL A   1      43.355  30.250  36.804  1.00  0.00     0.031 C 
ATOM     65  C   UNL A   1      44.385  28.489  35.394  1.00  0.00     0.031 A 
BRANCH  52  66
ATOM     66  C   UNL A   1      43.910  25.644  29.932  1.00  0.00    -0.014 A 
ATOM     67  C   UNL A   1      43.474  24.317  30.043  1.00  0.00     0.009 A 
ATOM     68  C   UNL A   1      44.830  25.971  28.922  1.00  0.00     0.009 A 
ATOM     69  C   UNL A   1      43.982  23.328  29.194  1.00  0.00     0.001 A 
ATOM     70  C   UNL A   1      45.315  24.989  28.056  1.00  0.00     0.001 A 
ATOM     71  C   UNL A   1      44.901  23.666  28.201  1.00  0.00     0.000 A 
ENDBRANCH  52  66
BRANCH  53  72
ATOM     72  C   UNL A   1      40.020  32.656  35.848  1.00  0.00    -0.014 A 
ATOM     73  C   UNL A   1      38.923  32.296  36.642  1.00  0.00     0.009 A 
ATOM     74  C   UNL A   1      40.538  33.959  35.956  1.00  0.00     0.009 A 
ATOM     75  C   UNL A   1      38.360  33.220  37.526  1.00  0.00     0.001 A 
ATOM     76  C   UNL A   1      39.995  34.869  36.864  1.00  0.00     0.001 A 
ATOM     77  C   UNL A   1      38.903  34.500  37.645  1.00  0.00     0.000 A 
ENDBRANCH  53  72
BRANCH  65  78
ATOM     78  C   UNL A   1      45.332  28.205  36.525  1.00  0.00    -0.014 A 
ATOM     79  C   UNL A   1      46.548  28.897  36.639  1.00  0.00     0.009 A 
ATOM     80  C   UNL A   1      44.988  27.262  37.506  1.00  0.00     0.009 A 
ATOM     81  C   UNL A   1      47.412  28.633  37.703  1.00  0.00     0.001 A 
ATOM     82  C   UNL A   1      45.843  27.018  38.582  1.00  0.00     0.001 A 
ATOM     83  C   UNL A   1      47.057  27.698  38.675  1.00  0.00     0.000 A 
ENDBRANCH  65  78
ENDBRANCH  39  40
ENDBRANCH  32  34
ENDBRANCH  31  32
ENDBRANCH  30  31
ENDBRANCH   1  30
TORSDOF 14
ENDMDL
MODEL 3
REMARK VINA RESULT:     -11.2      3.922      7.323
REMARK SMILES Cc1ccc(S(=O)(=O)N2CCN(C(=O)[C@H]3CCCC[C@@H]3C(=O)OCCOC(=O)c3ccc(-c4c5nc(c(-c6ccccc6)c6ccc([nH]6)c(-c6ccccc6)c6nc(c(-c7ccccc7)c7ccc4[nH]7)C=C6)C=C5)cc3)CC2)cc1C
REMARK SMILES IDX 24 1 23 2 21 3 22 4 20 5 15 6 16 7 17 8 19 9 18 10 13 11
REMARK SMILES IDX 9 12 10 13 78 14 11 15 77 16 12 17 14 18 6 19 7 20 8 21 5 22
REMARK SMILES IDX 1 23 2 24 3 25 80 26 4 27 79 28 81 29 25 30 26 31 27 32
REMARK SMILES IDX 28 33 29 34 30 35 76 36 31 37 75 38 32 39 33 40 34 41 69 42
REMARK SMILES IDX 35 43 74 44 68 45 70 46 36 47 73 48 67 49 66 50 37 52 59 53
REMARK SMILES IDX 44 54 58 55 45 56 48 57 57 58 71 59 46 60 47 61 56 63 72 64
REMARK SMILES IDX 49 65 38 66 39 67 43 68 40 69 42 70 41 71 60 72 61 73 65 74
REMARK SMILES IDX 62 75 64 76 63 77 50 78 51 79 55 80 52 81 54 82 53 83
REMARK H PARENT 70 51 48 62
REMARK Flexibility Score: inf
ROOT
ATOM      1  C   UNL A   1      32.003  30.859  27.139  1.00  0.00     0.274 C 
ENDROOT
BRANCH   1   2
ATOM      2  O   UNL A   1      31.987  30.092  25.917  1.00  0.00    -0.462 OA
BRANCH   2   3
ATOM      3  C   UNL A   1      32.981  29.169  25.783  1.00  0.00     0.309 C 
ATOM      4  O   UNL A   1      34.104  29.285  26.255  1.00  0.00    -0.252 OA
BRANCH   3   5
ATOM      5  C   UNL A   1      32.516  27.972  24.960  1.00  0.00     0.111 C 
ATOM      6  C   UNL A   1      33.373  27.787  23.674  1.00  0.00     0.093 C 
ATOM      7  C   UNL A   1      33.053  28.847  22.606  1.00  0.00     0.014 C 
ATOM      8  C   UNL A   1      31.564  28.996  22.337  1.00  0.00     0.001 C 
ATOM      9  C   UNL A   1      31.024  28.130  24.646  1.00  0.00     0.016 C 
ATOM     10  C   UNL A   1      30.767  29.222  23.612  1.00  0.00     0.001 C 
BRANCH   6  11
ATOM     11  C   UNL A   1      33.240  26.363  23.113  1.00  0.00     0.226 C 
ATOM     12  N   UNL A   1      35.199  23.120  25.032  1.00  0.00    -0.194 NA
ATOM     13  C   UNL A   1      34.952  23.144  23.580  1.00  0.00     0.124 C 
ATOM     14  C   UNL A   1      35.240  24.437  25.699  1.00  0.00     0.124 C 
ATOM     15  C   UNL A   1      33.695  23.960  23.264  1.00  0.00     0.136 C 
ATOM     16  C   UNL A   1      34.061  25.340  25.293  1.00  0.00     0.136 C 
ATOM     17  N   UNL A   1      33.747  25.305  23.857  1.00  0.00    -0.340 N 
ATOM     18  O   UNL A   1      32.700  26.166  22.023  1.00  0.00    -0.275 OA
BRANCH  12  19
ATOM     19  S   UNL A   1      35.292  21.680  25.886  1.00  0.00     0.243 S 
ATOM     20  O   UNL A   1      34.641  21.854  27.158  1.00  0.00    -0.207 OA
ATOM     21  O   UNL A   1      36.671  21.226  25.795  1.00  0.00    -0.207 OA
BRANCH  19  22
ATOM     22  C   UNL A   1      34.315  20.520  24.954  1.00  0.00     0.082 A 
ATOM     23  C   UNL A   1      32.000  17.763  22.582  1.00  0.00     0.044 C 
ATOM     24  C   UNL A   1      32.828  18.692  23.425  1.00  0.00    -0.048 A 
ATOM     25  C   UNL A   1      32.363  19.997  23.634  1.00  0.00     0.005 A 
ATOM     26  C   UNL A   1      34.036  18.286  24.029  1.00  0.00    -0.047 A 
ATOM     27  C   UNL A   1      33.090  20.892  24.415  1.00  0.00     0.022 A 
ATOM     28  C   UNL A   1      34.787  19.220  24.767  1.00  0.00     0.025 A 
ATOM     29  C   UNL A   1      34.548  16.873  23.956  1.00  0.00     0.044 C 
ENDBRANCH  19  22
ENDBRANCH  12  19
ENDBRANCH   6  11
ENDBRANCH   3   5
ENDBRANCH   2   3
ENDBRANCH   1   2
BRANCH   1  30
ATOM     30  C   UNL A   1      31.687  32.332  26.882  1.00  0.00     0.275 C 
BRANCH  30  31
ATOM     31  O   UNL A   1      32.902  33.101  26.867  1.00  0.00    -0.458 OA
BRANCH  31  32
ATOM     32  C   UNL A   1      33.172  33.806  27.991  1.00  0.00     0.338 C 
ATOM     33  O   UNL A   1      32.488  34.660  28.524  1.00  0.00    -0.246 OA
BRANCH  32  34
ATOM     34  C   UNL A   1      34.446  33.334  28.556  1.00  0.00     0.060 A 
ATOM     35  C   UNL A   1      34.408  32.349  29.536  1.00  0.00     0.016 A 
ATOM     36  C   UNL A   1      35.657  33.928  28.214  1.00  0.00     0.016 A 
ATOM     37  C   UNL A   1      35.562  31.975  30.213  1.00  0.00     0.010 A 
ATOM     38  C   UNL A   1      36.835  33.490  28.836  1.00  0.00     0.010 A 
ATOM     39  C   UNL A   1      36.800  32.516  29.853  1.00  0.00    -0.014 A 
BRANCH  39  40
ATOM     40  C   UNL A   1      38.041  32.065  30.542  1.00  0.00     0.031 A 
ATOM     41  C   UNL A   1      38.865  30.945  29.970  1.00  0.00     0.074 A 
ATOM     42  C   UNL A   1      38.439  32.657  31.687  1.00  0.00     0.049 A 
ATOM     43  N   UNL A   1      39.842  30.272  30.523  1.00  0.00    -0.248 NA
ATOM     44  C   UNL A   1      38.543  30.522  28.599  1.00  0.00     0.031 C 
ATOM     45  C   UNL A   1      37.781  33.795  32.332  1.00  0.00     0.029 A 
ATOM     46  N   UNL A   1      39.496  32.374  32.519  1.00  0.00    -0.354 N 
ATOM     47  C   UNL A   1      40.204  29.301  29.598  1.00  0.00     0.074 A 
ATOM     48  C   UNL A   1      39.351  29.483  28.442  1.00  0.00     0.031 C 
ATOM     49  C   UNL A   1      38.456  34.127  33.441  1.00  0.00     0.029 A 
ATOM     50  C   UNL A   1      39.525  33.157  33.648  1.00  0.00     0.049 A 
ATOM     51  H   UNL A   1      40.166  31.680  32.325  1.00  0.00     0.167 HD
ATOM     52  C   UNL A   1      41.148  28.335  29.711  1.00  0.00     0.031 A 
ATOM     53  C   UNL A   1      40.270  33.068  34.766  1.00  0.00     0.031 A 
ATOM     54  C   UNL A   1      42.016  28.178  30.849  1.00  0.00     0.049 A 
ATOM     55  C   UNL A   1      41.259  31.950  34.905  1.00  0.00     0.074 A 
ATOM     56  C   UNL A   1      43.030  27.254  31.041  1.00  0.00     0.029 A 
ATOM     57  N   UNL A   1      41.973  28.965  31.990  1.00  0.00    -0.354 N 
ATOM     58  N   UNL A   1      41.559  31.007  34.045  1.00  0.00    -0.248 NA
ATOM     59  C   UNL A   1      41.986  31.862  36.179  1.00  0.00     0.031 C 
ATOM     60  C   UNL A   1      43.558  27.443  32.323  1.00  0.00     0.029 A 
ATOM     61  C   UNL A   1      42.911  28.520  32.908  1.00  0.00     0.049 A 
ATOM     62  H   UNL A   1      41.367  29.729  32.128  1.00  0.00     0.167 HD
ATOM     63  C   UNL A   1      42.511  30.214  34.673  1.00  0.00     0.074 A 
ATOM     64  C   UNL A   1      42.753  30.798  35.976  1.00  0.00     0.031 C 
ATOM     65  C   UNL A   1      43.122  29.095  34.211  1.00  0.00     0.031 A 
BRANCH  52  66
ATOM     66  C   UNL A   1      41.243  27.327  28.599  1.00  0.00    -0.014 A 
ATOM     67  C   UNL A   1      42.122  27.495  27.521  1.00  0.00     0.009 A 
ATOM     68  C   UNL A   1      40.442  26.175  28.644  1.00  0.00     0.009 A 
ATOM     69  C   UNL A   1      42.166  26.556  26.486  1.00  0.00     0.001 A 
ATOM     70  C   UNL A   1      40.507  25.222  27.626  1.00  0.00     0.001 A 
ATOM     71  C   UNL A   1      41.359  25.419  26.541  1.00  0.00     0.000 A 
ENDBRANCH  52  66
BRANCH  53  72
ATOM     72  C   UNL A   1      40.019  34.014  35.886  1.00  0.00    -0.014 A 
ATOM     73  C   UNL A   1      40.661  35.258  35.935  1.00  0.00     0.009 A 
ATOM     74  C   UNL A   1      39.095  33.685  36.894  1.00  0.00     0.009 A 
ATOM     75  C   UNL A   1      40.381  36.154  36.972  1.00  0.00     0.001 A 
ATOM     76  C   UNL A   1      38.794  34.594  37.908  1.00  0.00     0.001 A 
ATOM     77  C   UNL A   1      39.442  35.826  37.949  1.00  0.00     0.000 A 
ENDBRANCH  53  72
BRANCH  65  78
ATOM     78  C   UNL A   1      44.109  28.430  35.127  1.00  0.00    -0.014 A 
ATOM     79  C   UNL A   1      43.708  27.408  36.001  1.00  0.00     0.009 A 
ATOM     80  C   UNL A   1      45.461  28.804  35.088  1.00  0.00     0.009 A 
ATOM     81  C   UNL A   1      44.639  26.789  36.836  1.00  0.00     0.001 A 
ATOM     82  C   UNL A   1      46.395  28.166  35.907  1.00  0.00     0.001 A 
ATOM     83  C   UNL A   1      45.982  27.164  36.785  1.00  0.00     0.000 A 
ENDBRANCH  65  78
ENDBRANCH  39  40
ENDBRANCH  32  34
ENDBRANCH  31  32
ENDBRANCH  30  31
ENDBRANCH   1  30
TORSDOF 14
ENDMDL
