MODEL 1
REMARK VINA RESULT:     -11.2      0.000      0.000
REMARK SMILES Cc1cc(S(=O)(=O)Nc2ccc(Cl)cc2F)ccc1OCC(=O)OCCOC(=O)c1ccc(-c2c3nc(c(-c4ccccc4)c4ccc([nH]4)c(-c4ccccc4)c4nc(c(-c5ccccc5)c5ccc2[nH]5)C=C4)C=C3)cc1
REMARK SMILES IDX 24 1 22 2 23 3 21 4 20 5 19 6 1 7 2 8 3 9 4 10 18 11 17 12
REMARK SMILES IDX 5 13 6 14 7 15 8 16 9 18 10 19 15 20 11 21 14 22 16 23 12 24
REMARK SMILES IDX 13 25 25 26 26 27 27 28 28 29 29 30 30 31 31 32 77 33 32 34
REMARK SMILES IDX 76 35 33 36 34 37 35 38 70 39 36 40 75 41 69 42 71 43 37 44
REMARK SMILES IDX 74 45 68 46 67 47 38 49 60 50 45 51 59 52 46 53 49 54 58 55
REMARK SMILES IDX 72 56 47 57 48 58 57 60 73 61 50 62 39 63 40 64 44 65 41 66
REMARK SMILES IDX 43 67 42 68 61 69 62 70 66 71 63 72 65 73 64 74 51 75 52 76
REMARK SMILES IDX 56 77 53 78 55 79 54 80
REMARK H PARENT 8 17 71 48 49 59
REMARK Flexibility Score: inf
ROOT
ATOM      1  O   UNL A   1      32.606  34.842  28.825  1.00  0.00    -0.460 OA
ENDROOT
BRANCH   1   2
ATOM      2  C   UNL A   1      33.523  34.083  28.174  1.00  0.00     0.344 C 
ATOM      3  O   UNL A   1      34.674  34.439  27.944  1.00  0.00    -0.248 OA
BRANCH   2   4
ATOM      4  C   UNL A   1      32.944  32.738  27.704  1.00  0.00     0.351 C 
BRANCH   4   5
ATOM      5  O   UNL A   1      33.766  31.584  27.581  1.00  0.00    -0.482 OA
BRANCH   5   6
ATOM      6  C   UNL A   1      33.289  30.506  26.882  1.00  0.00     0.123 A 
ATOM      7  C   UNL A   1      35.420  29.259  27.574  1.00  0.00     0.048 C 
ATOM      8  C   UNL A   1      34.086  29.344  26.880  1.00  0.00    -0.008 A 
ATOM      9  C   UNL A   1      33.594  28.175  26.272  1.00  0.00     0.029 A 
ATOM     10  C   UNL A   1      32.332  28.165  25.678  1.00  0.00     0.088 A 
ATOM     11  C   UNL A   1      32.044  30.489  26.244  1.00  0.00     0.048 A 
ATOM     12  C   UNL A   1      31.536  29.308  25.715  1.00  0.00     0.026 A 
BRANCH  10  13
ATOM     13  S   UNL A   1      31.689  26.680  24.958  1.00  0.00     0.262 S 
ATOM     14  O   UNL A   1      30.251  26.645  25.173  1.00  0.00    -0.201 OA
ATOM     15  O   UNL A   1      32.232  26.583  23.624  1.00  0.00    -0.201 OA
BRANCH  13  16
ATOM     16  N   UNL A   1      32.312  25.334  25.806  1.00  0.00    -0.277 N 
ATOM     17  H   UNL A   1      31.917  25.059  26.666  1.00  0.00     0.180 HD
BRANCH  16  18
ATOM     18  C   UNL A   1      33.421  24.609  25.252  1.00  0.00     0.085 A 
ATOM     19  C   UNL A   1      34.736  24.983  25.545  1.00  0.00     0.031 A 
ATOM     20  C   UNL A   1      33.191  23.475  24.460  1.00  0.00     0.148 A 
ATOM     21  C   UNL A   1      35.800  24.223  25.047  1.00  0.00     0.023 A 
ATOM     22  C   UNL A   1      34.244  22.705  23.979  1.00  0.00     0.062 A 
ATOM     23  F   UNL A   1      31.936  23.090  24.189  1.00  0.00    -0.205 F 
ATOM     24  C   UNL A   1      35.549  23.084  24.276  1.00  0.00     0.044 A 
ATOM     25  Cl  UNL A   1      36.863  22.132  23.705  1.00  0.00    -0.084 Cl
ENDBRANCH  16  18
ENDBRANCH  13  16
ENDBRANCH  10  13
ENDBRANCH   5   6
ENDBRANCH   4   5
ENDBRANCH   2   4
ENDBRANCH   1   2
BRANCH   1  26
ATOM     26  C   UNL A   1      33.017  36.158  29.181  1.00  0.00     0.274 C 
BRANCH  26  27
ATOM     27  C   UNL A   1      32.951  36.360  30.704  1.00  0.00     0.275 C 
BRANCH  27  28
ATOM     28  O   UNL A   1      33.916  35.737  31.614  1.00  0.00    -0.458 OA
BRANCH  28  29
ATOM     29  C   UNL A   1      33.909  34.555  32.269  1.00  0.00     0.338 C 
ATOM     30  O   UNL A   1      32.980  34.189  32.980  1.00  0.00    -0.246 OA
BRANCH  29  31
ATOM     31  C   UNL A   1      35.109  33.733  32.152  1.00  0.00     0.060 A 
ATOM     32  C   UNL A   1      36.067  33.989  31.155  1.00  0.00     0.016 A 
ATOM     33  C   UNL A   1      35.302  32.760  33.118  1.00  0.00     0.016 A 
ATOM     34  C   UNL A   1      37.290  33.335  31.176  1.00  0.00     0.010 A 
ATOM     35  C   UNL A   1      36.548  32.218  33.224  1.00  0.00     0.010 A 
ATOM     36  C   UNL A   1      37.514  32.459  32.226  1.00  0.00    -0.014 A 
BRANCH  36  37
ATOM     37  C   UNL A   1      38.603  31.511  32.290  1.00  0.00     0.031 A 
ATOM     38  C   UNL A   1      38.556  30.224  31.576  1.00  0.00     0.074 A 
ATOM     39  C   UNL A   1      39.723  32.138  32.719  1.00  0.00     0.049 A 
ATOM     40  N   UNL A   1      39.523  29.379  31.573  1.00  0.00    -0.248 NA
ATOM     41  C   UNL A   1      37.410  29.755  30.798  1.00  0.00     0.031 C 
ATOM     42  C   UNL A   1      41.117  31.882  32.416  1.00  0.00     0.029 A 
ATOM     43  N   UNL A   1      39.813  33.261  33.547  1.00  0.00    -0.354 N 
ATOM     44  C   UNL A   1      39.305  28.511  30.522  1.00  0.00     0.074 A 
ATOM     45  C   UNL A   1      37.921  28.689  30.167  1.00  0.00     0.031 C 
ATOM     46  C   UNL A   1      41.875  32.560  33.305  1.00  0.00     0.029 A 
ATOM     47  C   UNL A   1      40.961  33.099  34.307  1.00  0.00     0.049 A 
ATOM     48  H   UNL A   1      39.185  34.019  33.583  1.00  0.00     0.167 HD
ATOM     49  C   UNL A   1      40.388  27.892  29.971  1.00  0.00     0.031 A 
ATOM     50  C   UNL A   1      40.880  32.656  35.604  1.00  0.00     0.031 A 
ATOM     51  C   UNL A   1      41.589  28.210  30.744  1.00  0.00     0.049 A 
ATOM     52  C   UNL A   1      41.538  31.291  35.712  1.00  0.00     0.074 A 
ATOM     53  C   UNL A   1      42.605  29.132  30.550  1.00  0.00     0.029 A 
ATOM     54  N   UNL A   1      41.642  27.835  32.082  1.00  0.00    -0.354 N 
ATOM     55  N   UNL A   1      41.474  30.366  34.788  1.00  0.00    -0.248 NA
ATOM     56  C   UNL A   1      42.431  30.933  36.810  1.00  0.00     0.031 C 
ATOM     57  C   UNL A   1      43.196  29.390  31.820  1.00  0.00     0.029 A 
ATOM     58  C   UNL A   1      42.545  28.621  32.772  1.00  0.00     0.049 A 
ATOM     59  H   UNL A   1      41.109  27.110  32.483  1.00  0.00     0.167 HD
ATOM     60  C   UNL A   1      42.409  29.401  35.061  1.00  0.00     0.074 A 
ATOM     61  C   UNL A   1      42.936  29.768  36.367  1.00  0.00     0.031 C 
ATOM     62  C   UNL A   1      42.765  28.406  34.195  1.00  0.00     0.031 A 
BRANCH  49  63
ATOM     63  C   UNL A   1      40.437  27.256  28.600  1.00  0.00    -0.014 A 
ATOM     64  C   UNL A   1      39.954  25.940  28.443  1.00  0.00     0.009 A 
ATOM     65  C   UNL A   1      40.972  27.851  27.445  1.00  0.00     0.009 A 
ATOM     66  C   UNL A   1      40.045  25.244  27.230  1.00  0.00     0.001 A 
ATOM     67  C   UNL A   1      41.074  27.156  26.228  1.00  0.00     0.001 A 
ATOM     68  C   UNL A   1      40.617  25.849  26.122  1.00  0.00     0.000 A 
ENDBRANCH  49  63
BRANCH  50  69
ATOM     69  C   UNL A   1      39.621  33.078  36.306  1.00  0.00    -0.014 A 
ATOM     70  C   UNL A   1      38.659  32.081  36.591  1.00  0.00     0.009 A 
ATOM     71  C   UNL A   1      39.544  34.284  37.019  1.00  0.00     0.009 A 
ATOM     72  C   UNL A   1      37.759  32.222  37.654  1.00  0.00     0.001 A 
ATOM     73  C   UNL A   1      38.620  34.431  38.070  1.00  0.00     0.001 A 
ATOM     74  C   UNL A   1      37.761  33.387  38.413  1.00  0.00     0.000 A 
ENDBRANCH  50  69
BRANCH  62  75
ATOM     75  C   UNL A   1      43.443  27.122  34.602  1.00  0.00    -0.014 A 
ATOM     76  C   UNL A   1      42.982  26.303  35.639  1.00  0.00     0.009 A 
ATOM     77  C   UNL A   1      44.477  26.600  33.792  1.00  0.00     0.009 A 
ATOM     78  C   UNL A   1      43.556  25.051  35.886  1.00  0.00     0.001 A 
ATOM     79  C   UNL A   1      45.007  25.327  33.992  1.00  0.00     0.001 A 
ATOM     80  C   UNL A   1      44.555  24.557  35.053  1.00  0.00     0.000 A 
ENDBRANCH  62  75
ENDBRANCH  36  37
ENDBRANCH  29  31
ENDBRANCH  28  29
ENDBRANCH  27  28
ENDBRANCH  26  27
ENDBRANCH   1  26
TORSDOF 16
ENDMDL
MODEL 2
REMARK VINA RESULT:     -11.2      6.272     11.366
REMARK SMILES Cc1cc(S(=O)(=O)Nc2ccc(Cl)cc2F)ccc1OCC(=O)OCCOC(=O)c1ccc(-c2c3nc(c(-c4ccccc4)c4ccc([nH]4)c(-c4ccccc4)c4nc(c(-c5ccccc5)c5ccc2[nH]5)C=C4)C=C3)cc1
REMARK SMILES IDX 24 1 22 2 23 3 21 4 20 5 19 6 1 7 2 8 3 9 4 10 18 11 17 12
REMARK SMILES IDX 5 13 6 14 7 15 8 16 9 18 10 19 15 20 11 21 14 22 16 23 12 24
REMARK SMILES IDX 13 25 25 26 26 27 27 28 28 29 29 30 30 31 31 32 77 33 32 34
REMARK SMILES IDX 76 35 33 36 34 37 35 38 70 39 36 40 75 41 69 42 71 43 37 44
REMARK SMILES IDX 74 45 68 46 67 47 38 49 60 50 45 51 59 52 46 53 49 54 58 55
REMARK SMILES IDX 72 56 47 57 48 58 57 60 73 61 50 62 39 63 40 64 44 65 41 66
REMARK SMILES IDX 43 67 42 68 61 69 62 70 66 71 63 72 65 73 64 74 51 75 52 76
REMARK SMILES IDX 56 77 53 78 55 79 54 80
REMARK H PARENT 8 17 71 48 49 59
REMARK Flexibility Score: inf
ROOT
ATOM      1  O   UNL A   1      43.091  20.182  26.369  1.00  0.00    -0.460 OA
ENDROOT
BRANCH   1   2
ATOM      2  C   UNL A   1      42.194  21.160  26.087  1.00  0.00     0.344 C 
ATOM      3  O   UNL A   1      42.296  21.937  25.143  1.00  0.00    -0.248 OA
BRANCH   2   4
ATOM      4  C   UNL A   1      41.055  21.226  27.118  1.00  0.00     0.351 C 
BRANCH   4   5
ATOM      5  O   UNL A   1      40.223  22.374  27.224  1.00  0.00    -0.482 OA
BRANCH   5   6
ATOM      6  C   UNL A   1      39.049  22.407  26.517  1.00  0.00     0.123 A 
ATOM      7  C   UNL A   1      38.831  24.866  27.208  1.00  0.00     0.048 C 
ATOM      8  C   UNL A   1      38.356  23.633  26.486  1.00  0.00    -0.008 A 
ATOM      9  C   UNL A   1      37.205  23.751  25.685  1.00  0.00     0.029 A 
ATOM     10  C   UNL A   1      36.755  22.669  24.931  1.00  0.00     0.088 A 
ATOM     11  C   UNL A   1      38.558  21.319  25.786  1.00  0.00     0.048 A 
ATOM     12  C   UNL A   1      37.466  21.470  24.939  1.00  0.00     0.026 A 
BRANCH  10  13
ATOM     13  S   UNL A   1      35.338  22.831  23.881  1.00  0.00     0.262 S 
ATOM     14  O   UNL A   1      35.775  23.318  22.582  1.00  0.00    -0.201 OA
ATOM     15  O   UNL A   1      34.586  21.604  23.988  1.00  0.00    -0.201 OA
BRANCH  13  16
ATOM     16  N   UNL A   1      34.317  24.050  24.507  1.00  0.00    -0.277 N 
ATOM     17  H   UNL A   1      34.543  25.001  24.386  1.00  0.00     0.180 HD
BRANCH  16  18
ATOM     18  C   UNL A   1      33.126  23.672  25.214  1.00  0.00     0.085 A 
ATOM     19  C   UNL A   1      33.161  23.427  26.590  1.00  0.00     0.031 A 
ATOM     20  C   UNL A   1      31.900  23.608  24.537  1.00  0.00     0.148 A 
ATOM     21  C   UNL A   1      31.975  23.123  27.270  1.00  0.00     0.023 A 
ATOM     22  C   UNL A   1      30.717  23.326  25.211  1.00  0.00     0.062 A 
ATOM     23  F   UNL A   1      31.846  23.862  23.222  1.00  0.00    -0.205 F 
ATOM     24  C   UNL A   1      30.760  23.084  26.580  1.00  0.00     0.044 A 
ATOM     25  Cl  UNL A   1      29.304  22.753  27.432  1.00  0.00    -0.084 Cl
ENDBRANCH  16  18
ENDBRANCH  13  16
ENDBRANCH  10  13
ENDBRANCH   5   6
ENDBRANCH   4   5
ENDBRANCH   2   4
ENDBRANCH   1   2
BRANCH   1  26
ATOM     26  C   UNL A   1      43.076  19.047  25.509  1.00  0.00     0.274 C 
BRANCH  26  27
ATOM     27  C   UNL A   1      44.291  19.056  24.567  1.00  0.00     0.275 C 
BRANCH  27  28
ATOM     28  O   UNL A   1      44.931  20.302  24.134  1.00  0.00    -0.458 OA
BRANCH  28  29
ATOM     29  C   UNL A   1      45.976  21.002  24.628  1.00  0.00     0.338 C 
ATOM     30  O   UNL A   1      47.126  20.578  24.627  1.00  0.00    -0.246 OA
BRANCH  29  31
ATOM     31  C   UNL A   1      45.671  22.288  25.245  1.00  0.00     0.060 A 
ATOM     32  C   UNL A   1      45.487  22.399  26.636  1.00  0.00     0.016 A 
ATOM     33  C   UNL A   1      45.662  23.398  24.417  1.00  0.00     0.016 A 
ATOM     34  C   UNL A   1      45.397  23.649  27.231  1.00  0.00     0.010 A 
ATOM     35  C   UNL A   1      45.712  24.624  25.008  1.00  0.00     0.010 A 
ATOM     36  C   UNL A   1      45.521  24.749  26.399  1.00  0.00    -0.014 A 
BRANCH  36  37
ATOM     37  C   UNL A   1      45.211  26.109  26.780  1.00  0.00     0.031 A 
ATOM     38  C   UNL A   1      43.876  26.691  26.562  1.00  0.00     0.074 A 
ATOM     39  C   UNL A   1      46.133  26.551  27.666  1.00  0.00     0.049 A 
ATOM     40  N   UNL A   1      43.552  27.878  26.930  1.00  0.00    -0.248 NA
ATOM     41  C   UNL A   1      42.771  25.997  25.901  1.00  0.00     0.031 C 
ATOM     42  C   UNL A   1      46.009  27.499  28.756  1.00  0.00     0.029 A 
ATOM     43  N   UNL A   1      47.466  26.149  27.788  1.00  0.00    -0.354 N 
ATOM     44  C   UNL A   1      42.173  27.944  26.933  1.00  0.00     0.074 A 
ATOM     45  C   UNL A   1      41.740  26.814  26.153  1.00  0.00     0.031 C 
ATOM     46  C   UNL A   1      47.251  27.846  29.158  1.00  0.00     0.029 A 
ATOM     47  C   UNL A   1      48.179  27.268  28.192  1.00  0.00     0.049 A 
ATOM     48  H   UNL A   1      47.828  25.249  27.621  1.00  0.00     0.167 HD
ATOM     49  C   UNL A   1      41.580  28.850  27.762  1.00  0.00     0.031 A 
ATOM     50  C   UNL A   1      48.909  27.994  27.284  1.00  0.00     0.031 A 
ATOM     51  C   UNL A   1      42.601  29.680  28.403  1.00  0.00     0.049 A 
ATOM     52  C   UNL A   1      48.301  29.379  27.142  1.00  0.00     0.074 A 
ATOM     53  C   UNL A   1      43.194  29.628  29.654  1.00  0.00     0.029 A 
ATOM     54  N   UNL A   1      43.427  30.461  27.602  1.00  0.00    -0.354 N 
ATOM     55  N   UNL A   1      47.016  29.628  27.172  1.00  0.00    -0.248 NA
ATOM     56  C   UNL A   1      49.111  30.592  27.100  1.00  0.00     0.031 C 
ATOM     57  C   UNL A   1      44.450  30.293  29.560  1.00  0.00     0.029 A 
ATOM     58  C   UNL A   1      44.606  30.753  28.261  1.00  0.00     0.049 A 
ATOM     59  H   UNL A   1      43.204  30.762  26.692  1.00  0.00     0.167 HD
ATOM     60  C   UNL A   1      46.829  30.977  27.324  1.00  0.00     0.074 A 
ATOM     61  C   UNL A   1      48.165  31.542  27.210  1.00  0.00     0.031 C 
ATOM     62  C   UNL A   1      45.627  31.562  27.609  1.00  0.00     0.031 A 
BRANCH  49  63
ATOM     63  C   UNL A   1      40.141  28.809  28.228  1.00  0.00    -0.014 A 
ATOM     64  C   UNL A   1      39.156  29.449  27.446  1.00  0.00     0.009 A 
ATOM     65  C   UNL A   1      39.688  28.218  29.418  1.00  0.00     0.009 A 
ATOM     66  C   UNL A   1      37.816  29.537  27.849  1.00  0.00     0.001 A 
ATOM     67  C   UNL A   1      38.347  28.310  29.832  1.00  0.00     0.001 A 
ATOM     68  C   UNL A   1      37.413  28.977  29.051  1.00  0.00     0.000 A 
ENDBRANCH  49  63
BRANCH  50  69
ATOM     69  C   UNL A   1      49.468  27.165  26.162  1.00  0.00    -0.014 A 
ATOM     70  C   UNL A   1      48.936  27.365  24.867  1.00  0.00     0.009 A 
ATOM     71  C   UNL A   1      50.714  26.528  26.267  1.00  0.00     0.009 A 
ATOM     72  C   UNL A   1      49.690  27.084  23.720  1.00  0.00     0.001 A 
ATOM     73  C   UNL A   1      51.456  26.224  25.112  1.00  0.00     0.001 A 
ATOM     74  C   UNL A   1      50.964  26.541  23.845  1.00  0.00     0.000 A 
ENDBRANCH  50  69
BRANCH  62  75
ATOM     75  C   UNL A   1      45.305  33.014  27.365  1.00  0.00    -0.014 A 
ATOM     76  C   UNL A   1      45.171  33.570  26.088  1.00  0.00     0.009 A 
ATOM     77  C   UNL A   1      44.924  33.830  28.455  1.00  0.00     0.009 A 
ATOM     78  C   UNL A   1      44.730  34.885  25.910  1.00  0.00     0.001 A 
ATOM     79  C   UNL A   1      44.420  35.117  28.280  1.00  0.00     0.001 A 
ATOM     80  C   UNL A   1      44.338  35.651  27.003  1.00  0.00     0.000 A 
ENDBRANCH  62  75
ENDBRANCH  36  37
ENDBRANCH  29  31
ENDBRANCH  28  29
ENDBRANCH  27  28
ENDBRANCH  26  27
ENDBRANCH   1  26
TORSDOF 16
ENDMDL
MODEL 3
REMARK VINA RESULT:     -11.0      5.355     10.786
REMARK SMILES Cc1cc(S(=O)(=O)Nc2ccc(Cl)cc2F)ccc1OCC(=O)OCCOC(=O)c1ccc(-c2c3nc(c(-c4ccccc4)c4ccc([nH]4)c(-c4ccccc4)c4nc(c(-c5ccccc5)c5ccc2[nH]5)C=C4)C=C3)cc1
REMARK SMILES IDX 24 1 22 2 23 3 21 4 20 5 19 6 1 7 2 8 3 9 4 10 18 11 17 12
REMARK SMILES IDX 5 13 6 14 7 15 8 16 9 18 10 19 15 20 11 21 14 22 16 23 12 24
REMARK SMILES IDX 13 25 25 26 26 27 27 28 28 29 29 30 30 31 31 32 77 33 32 34
REMARK SMILES IDX 76 35 33 36 34 37 35 38 70 39 36 40 75 41 69 42 71 43 37 44
REMARK SMILES IDX 74 45 68 46 67 47 38 49 60 50 45 51 59 52 46 53 49 54 58 55
REMARK SMILES IDX 72 56 47 57 48 58 57 60 73 61 50 62 39 63 40 64 44 65 41 66
REMARK SMILES IDX 43 67 42 68 61 69 62 70 66 71 63 72 65 73 64 74 51 75 52 76
REMARK SMILES IDX 56 77 53 78 55 79 54 80
REMARK H PARENT 8 17 71 48 49 59
REMARK Flexibility Score: inf
ROOT
ATOM      1  O   UNL A   1      41.658  19.841  27.184  1.00  0.00    -0.460 OA
ENDROOT
BRANCH   1   2
ATOM      2  C   UNL A   1      40.777  20.872  27.189  1.00  0.00     0.344 C 
ATOM      3  O   UNL A   1      40.896  21.878  27.881  1.00  0.00    -0.248 OA
BRANCH   2   4
ATOM      4  C   UNL A   1      39.573  20.618  26.266  1.00  0.00     0.351 C 
BRANCH   4   5
ATOM      5  O   UNL A   1      39.046  21.651  25.442  1.00  0.00    -0.482 OA
BRANCH   5   6
ATOM      6  C   UNL A   1      37.698  21.896  25.473  1.00  0.00     0.123 A 
ATOM      7  C   UNL A   1      38.251  24.175  26.510  1.00  0.00     0.048 C 
ATOM      8  C   UNL A   1      37.288  23.144  25.984  1.00  0.00    -0.008 A 
ATOM      9  C   UNL A   1      35.925  23.491  25.936  1.00  0.00     0.029 A 
ATOM     10  C   UNL A   1      34.991  22.612  25.390  1.00  0.00     0.088 A 
ATOM     11  C   UNL A   1      36.740  21.010  24.968  1.00  0.00     0.048 A 
ATOM     12  C   UNL A   1      35.409  21.395  24.855  1.00  0.00     0.026 A 
BRANCH  10  13
ATOM     13  S   UNL A   1      33.283  23.069  25.280  1.00  0.00     0.262 S 
ATOM     14  O   UNL A   1      32.587  22.077  24.475  1.00  0.00    -0.201 OA
ATOM     15  O   UNL A   1      32.836  23.369  26.620  1.00  0.00    -0.201 OA
BRANCH  13  16
ATOM     16  N   UNL A   1      33.153  24.536  24.414  1.00  0.00    -0.277 N 
ATOM     17  H   UNL A   1      33.283  24.553  23.438  1.00  0.00     0.180 HD
BRANCH  16  18
ATOM     18  C   UNL A   1      32.852  25.746  25.127  1.00  0.00     0.085 A 
ATOM     19  C   UNL A   1      33.877  26.527  25.669  1.00  0.00     0.031 A 
ATOM     20  C   UNL A   1      31.526  26.188  25.227  1.00  0.00     0.148 A 
ATOM     21  C   UNL A   1      33.566  27.736  26.303  1.00  0.00     0.023 A 
ATOM     22  C   UNL A   1      31.213  27.398  25.839  1.00  0.00     0.062 A 
ATOM     23  F   UNL A   1      30.534  25.462  24.693  1.00  0.00    -0.205 F 
ATOM     24  C   UNL A   1      32.238  28.169  26.376  1.00  0.00     0.044 A 
ATOM     25  Cl  UNL A   1      31.871  29.676  27.118  1.00  0.00    -0.084 Cl
ENDBRANCH  16  18
ENDBRANCH  13  16
ENDBRANCH  10  13
ENDBRANCH   5   6
ENDBRANCH   4   5
ENDBRANCH   2   4
ENDBRANCH   1   2
BRANCH   1  26
ATOM     26  C   UNL A   1      41.813  19.151  25.948  1.00  0.00     0.274 C 
BRANCH  26  27
ATOM     27  C   UNL A   1      43.294  19.071  25.546  1.00  0.00     0.275 C 
BRANCH  27  28
ATOM     28  O   UNL A   1      44.190  20.228  25.640  1.00  0.00    -0.458 OA
BRANCH  28  29
ATOM     29  C   UNL A   1      44.317  21.338  24.879  1.00  0.00     0.338 C 
ATOM     30  O   UNL A   1      44.646  21.305  23.699  1.00  0.00    -0.246 OA
BRANCH  29  31
ATOM     31  C   UNL A   1      44.111  22.618  25.547  1.00  0.00     0.060 A 
ATOM     32  C   UNL A   1      44.031  22.699  26.949  1.00  0.00     0.016 A 
ATOM     33  C   UNL A   1      44.090  23.749  24.748  1.00  0.00     0.016 A 
ATOM     34  C   UNL A   1      44.035  23.934  27.579  1.00  0.00     0.010 A 
ATOM     35  C   UNL A   1      44.232  24.956  25.364  1.00  0.00     0.010 A 
ATOM     36  C   UNL A   1      44.145  25.051  26.768  1.00  0.00    -0.014 A 
BRANCH  36  37
ATOM     37  C   UNL A   1      43.920  26.412  27.202  1.00  0.00     0.031 A 
ATOM     38  C   UNL A   1      42.585  27.030  27.157  1.00  0.00     0.074 A 
ATOM     39  C   UNL A   1      44.954  26.815  27.977  1.00  0.00     0.049 A 
ATOM     40  N   UNL A   1      42.339  28.218  27.578  1.00  0.00    -0.248 NA
ATOM     41  C   UNL A   1      41.390  26.374  26.625  1.00  0.00     0.031 C 
ATOM     42  C   UNL A   1      44.988  27.746  29.086  1.00  0.00     0.029 A 
ATOM     43  N   UNL A   1      46.281  26.378  27.930  1.00  0.00    -0.354 N 
ATOM     44  C   UNL A   1      40.973  28.318  27.750  1.00  0.00     0.074 A 
ATOM     45  C   UNL A   1      40.419  27.212  27.012  1.00  0.00     0.031 C 
ATOM     46  C   UNL A   1      46.279  28.056  29.339  1.00  0.00     0.029 A 
ATOM     47  C   UNL A   1      47.067  27.472  28.260  1.00  0.00     0.049 A 
ATOM     48  H   UNL A   1      46.596  25.472  27.707  1.00  0.00     0.167 HD
ATOM     49  C   UNL A   1      40.509  29.223  28.657  1.00  0.00     0.031 A 
ATOM     50  C   UNL A   1      47.700  28.195  27.280  1.00  0.00     0.031 A 
ATOM     51  C   UNL A   1      41.621  30.017  29.181  1.00  0.00     0.049 A 
ATOM     52  C   UNL A   1      47.117  29.597  27.233  1.00  0.00     0.074 A 
ATOM     53  C   UNL A   1      42.360  29.928  30.349  1.00  0.00     0.029 A 
ATOM     54  N   UNL A   1      42.365  30.791  28.296  1.00  0.00    -0.354 N 
ATOM     55  N   UNL A   1      45.852  29.877  27.422  1.00  0.00    -0.248 NA
ATOM     56  C   UNL A   1      47.947  30.791  27.109  1.00  0.00     0.031 C 
ATOM     57  C   UNL A   1      43.612  30.565  30.113  1.00  0.00     0.029 A 
ATOM     58  C   UNL A   1      43.623  31.043  28.812  1.00  0.00     0.049 A 
ATOM     59  H   UNL A   1      42.042  31.113  27.425  1.00  0.00     0.167 HD
ATOM     60  C   UNL A   1      45.720  31.228  27.614  1.00  0.00     0.074 A 
ATOM     61  C   UNL A   1      47.048  31.762  27.347  1.00  0.00     0.031 C 
ATOM     62  C   UNL A   1      44.578  31.837  28.052  1.00  0.00     0.031 A 
BRANCH  49  63
ATOM     63  C   UNL A   1      39.137  29.210  29.294  1.00  0.00    -0.014 A 
ATOM     64  C   UNL A   1      38.045  29.726  28.565  1.00  0.00     0.009 A 
ATOM     65  C   UNL A   1      38.846  28.761  30.592  1.00  0.00     0.009 A 
ATOM     66  C   UNL A   1      36.759  29.836  29.112  1.00  0.00     0.001 A 
ATOM     67  C   UNL A   1      37.561  28.876  31.150  1.00  0.00     0.001 A 
ATOM     68  C   UNL A   1      36.518  29.420  30.412  1.00  0.00     0.000 A 
ENDBRANCH  49  63
BRANCH  50  69
ATOM     69  C   UNL A   1      48.097  27.373  26.087  1.00  0.00    -0.014 A 
ATOM     70  C   UNL A   1      47.404  27.594  24.874  1.00  0.00     0.009 A 
ATOM     71  C   UNL A   1      49.337  26.719  26.022  1.00  0.00     0.009 A 
ATOM     72  C   UNL A   1      47.999  27.316  23.637  1.00  0.00     0.001 A 
ATOM     73  C   UNL A   1      49.919  26.419  24.778  1.00  0.00     0.001 A 
ATOM     74  C   UNL A   1      49.271  26.756  23.589  1.00  0.00     0.000 A 
ENDBRANCH  50  69
BRANCH  62  75
ATOM     75  C   UNL A   1      44.267  33.301  27.870  1.00  0.00    -0.014 A 
ATOM     76  C   UNL A   1      44.045  33.891  26.621  1.00  0.00     0.009 A 
ATOM     77  C   UNL A   1      43.991  34.095  29.006  1.00  0.00     0.009 A 
ATOM     78  C   UNL A   1      43.617  35.218  26.510  1.00  0.00     0.001 A 
ATOM     79  C   UNL A   1      43.501  35.395  28.902  1.00  0.00     0.001 A 
ATOM     80  C   UNL A   1      43.329  35.963  27.649  1.00  0.00     0.000 A 
ENDBRANCH  62  75
ENDBRANCH  36  37
ENDBRANCH  29  31
ENDBRANCH  28  29
ENDBRANCH  27  28
ENDBRANCH  26  27
ENDBRANCH   1  26
TORSDOF 16
ENDMDL
