MODEL 1
REMARK VINA RESULT:     -12.0      0.000      0.000
REMARK SMILES Cc1ccc(Nc2c(Cl)cc(Cl)cc2Cl)c(CC(=O)OCCOC(=O)c2ccc(-c3c4nc(c(-c5ccccc5)c5ccc([nH]5)c(-c5ccccc5)c5nc(c(-c6ccccc6)c6ccc3[nH]6)C=C5)C=C4)cc2)c1
REMARK SMILES IDX 21 1 20 2 18 3 19 4 17 5 16 6 1 7 2 8 3 9 74 10 4 11 5 12
REMARK SMILES IDX 6 13 7 15 8 16 14 17 9 18 10 19 13 20 15 21 11 22 12 23
REMARK SMILES IDX 22 24 23 25 24 26 25 27 26 28 27 29 73 30 28 31 72 32 29 33
REMARK SMILES IDX 30 34 31 35 66 36 32 37 71 38 65 39 67 40 33 41 70 42 64 43
REMARK SMILES IDX 63 44 34 46 56 47 41 48 55 49 42 50 45 51 54 52 68 53 43 54
REMARK SMILES IDX 44 55 53 57 69 58 46 59 35 60 36 61 40 62 37 63 39 64 38 65
REMARK SMILES IDX 57 66 58 67 62 68 59 69 61 70 60 71 47 72 48 73 52 74 49 75
REMARK SMILES IDX 51 76 50 77
REMARK H PARENT 6 14 67 45 45 56
REMARK Flexibility Score: inf
ROOT
ATOM      1  C   UNL A   1      33.448  30.102  26.562  1.00  0.00     0.274 C 
ENDROOT
BRANCH   1   2
ATOM      2  O   UNL A   1      32.228  29.749  27.196  1.00  0.00    -0.462 OA
BRANCH   2   3
ATOM      3  C   UNL A   1      31.895  28.428  27.252  1.00  0.00     0.310 C 
ATOM      4  O   UNL A   1      31.090  27.928  28.001  1.00  0.00    -0.252 OA
BRANCH   3   5
ATOM      5  C   UNL A   1      32.715  27.685  26.213  1.00  0.00     0.160 C 
BRANCH   5   6
ATOM      6  C   UNL A   1      31.776  27.074  25.211  1.00  0.00    -0.013 A 
ATOM      7  C   UNL A   1      29.132  28.599  22.950  1.00  0.00     0.044 C 
ATOM      8  C   UNL A   1      29.967  27.586  23.669  1.00  0.00    -0.051 A 
ATOM      9  C   UNL A   1      29.638  26.231  23.645  1.00  0.00     0.005 A 
ATOM     10  C   UNL A   1      31.051  27.995  24.434  1.00  0.00     0.009 A 
ATOM     11  C   UNL A   1      30.383  25.301  24.378  1.00  0.00     0.026 A 
ATOM     12  C   UNL A   1      31.457  25.696  25.182  1.00  0.00     0.042 A 
BRANCH  12  13
ATOM     13  N   UNL A   1      32.122  24.748  25.987  1.00  0.00    -0.353 N 
ATOM     14  H   UNL A   1      32.360  25.059  26.890  1.00  0.00     0.167 HD
BRANCH  13  15
ATOM     15  C   UNL A   1      32.497  23.412  25.688  1.00  0.00     0.076 A 
ATOM     16  C   UNL A   1      31.593  22.346  25.849  1.00  0.00     0.067 A 
ATOM     17  C   UNL A   1      33.709  23.128  25.024  1.00  0.00     0.067 A 
ATOM     18  Cl  UNL A   1      30.064  22.563  26.631  1.00  0.00    -0.082 Cl
ATOM     19  C   UNL A   1      31.896  21.061  25.384  1.00  0.00     0.043 A 
ATOM     20  C   UNL A   1      33.979  21.867  24.484  1.00  0.00     0.043 A 
ATOM     21  Cl  UNL A   1      35.008  24.258  24.988  1.00  0.00    -0.082 Cl
ATOM     22  C   UNL A   1      33.074  20.837  24.681  1.00  0.00     0.044 A 
ATOM     23  Cl  UNL A   1      33.433  19.265  24.082  1.00  0.00    -0.084 Cl
ENDBRANCH  13  15
ENDBRANCH  12  13
ENDBRANCH   5   6
ENDBRANCH   3   5
ENDBRANCH   2   3
ENDBRANCH   1   2
BRANCH   1  24
ATOM     24  C   UNL A   1      34.410  30.686  27.609  1.00  0.00     0.275 C 
BRANCH  24  25
ATOM     25  O   UNL A   1      35.818  30.223  27.603  1.00  0.00    -0.458 OA
BRANCH  25  26
ATOM     26  C   UNL A   1      36.930  30.740  28.202  1.00  0.00     0.338 C 
ATOM     27  O   UNL A   1      37.024  31.917  28.525  1.00  0.00    -0.246 OA
BRANCH  26  28
ATOM     28  C   UNL A   1      38.003  29.796  28.534  1.00  0.00     0.060 A 
ATOM     29  C   UNL A   1      37.893  28.849  29.569  1.00  0.00     0.016 A 
ATOM     30  C   UNL A   1      39.065  29.764  27.660  1.00  0.00     0.016 A 
ATOM     31  C   UNL A   1      38.804  27.795  29.615  1.00  0.00     0.010 A 
ATOM     32  C   UNL A   1      39.716  28.585  27.497  1.00  0.00     0.010 A 
ATOM     33  C   UNL A   1      39.693  27.669  28.546  1.00  0.00    -0.014 A 
BRANCH  33  34
ATOM     34  C   UNL A   1      40.898  26.862  28.540  1.00  0.00     0.031 A 
ATOM     35  C   UNL A   1      40.831  25.414  28.330  1.00  0.00     0.074 A 
ATOM     36  C   UNL A   1      42.031  27.608  28.630  1.00  0.00     0.049 A 
ATOM     37  N   UNL A   1      41.509  24.553  29.004  1.00  0.00    -0.248 NA
ATOM     38  C   UNL A   1      39.952  24.802  27.331  1.00  0.00     0.031 C 
ATOM     39  C   UNL A   1      43.425  27.247  28.500  1.00  0.00     0.029 A 
ATOM     40  N   UNL A   1      42.101  28.972  28.979  1.00  0.00    -0.354 N 
ATOM     41  C   UNL A   1      41.472  23.392  28.259  1.00  0.00     0.074 A 
ATOM     42  C   UNL A   1      40.342  23.521  27.373  1.00  0.00     0.031 C 
ATOM     43  C   UNL A   1      44.161  28.198  29.121  1.00  0.00     0.029 A 
ATOM     44  C   UNL A   1      43.239  29.146  29.745  1.00  0.00     0.049 A 
ATOM     45  H   UNL A   1      41.458  29.672  28.723  1.00  0.00     0.167 HD
ATOM     46  C   UNL A   1      42.567  22.581  28.221  1.00  0.00     0.031 A 
ATOM     47  C   UNL A   1      43.096  29.428  31.076  1.00  0.00     0.031 A 
ATOM     48  C   UNL A   1      43.677  23.200  28.941  1.00  0.00     0.049 A 
ATOM     49  C   UNL A   1      43.563  28.240  31.888  1.00  0.00     0.074 A 
ATOM     50  C   UNL A   1      44.761  23.937  28.491  1.00  0.00     0.029 A 
ATOM     51  N   UNL A   1      43.551  23.474  30.297  1.00  0.00    -0.354 N 
ATOM     52  N   UNL A   1      43.567  27.015  31.435  1.00  0.00    -0.248 NA
ATOM     53  C   UNL A   1      44.100  28.341  33.240  1.00  0.00     0.031 C 
ATOM     54  C   UNL A   1      45.235  24.724  29.574  1.00  0.00     0.029 A 
ATOM     55  C   UNL A   1      44.443  24.461  30.678  1.00  0.00     0.049 A 
ATOM     56  H   UNL A   1      42.915  23.029  30.903  1.00  0.00     0.167 HD
ATOM     57  C   UNL A   1      44.204  26.203  32.330  1.00  0.00     0.074 A 
ATOM     58  C   UNL A   1      44.482  27.071  33.464  1.00  0.00     0.031 C 
ATOM     59  C   UNL A   1      44.496  24.897  32.065  1.00  0.00     0.031 A 
BRANCH  46  60
ATOM     60  C   UNL A   1      42.737  21.463  27.223  1.00  0.00    -0.014 A 
ATOM     61  C   UNL A   1      42.039  20.253  27.399  1.00  0.00     0.009 A 
ATOM     62  C   UNL A   1      43.554  21.550  26.082  1.00  0.00     0.009 A 
ATOM     63  C   UNL A   1      42.190  19.169  26.526  1.00  0.00     0.001 A 
ATOM     64  C   UNL A   1      43.727  20.459  25.214  1.00  0.00     0.001 A 
ATOM     65  C   UNL A   1      43.047  19.267  25.438  1.00  0.00     0.000 A 
ENDBRANCH  46  60
BRANCH  47  66
ATOM     66  C   UNL A   1      41.927  30.315  31.418  1.00  0.00    -0.014 A 
ATOM     67  C   UNL A   1      41.745  31.497  30.661  1.00  0.00     0.009 A 
ATOM     68  C   UNL A   1      40.850  29.889  32.212  1.00  0.00     0.009 A 
ATOM     69  C   UNL A   1      40.512  32.163  30.615  1.00  0.00     0.001 A 
ATOM     70  C   UNL A   1      39.621  30.576  32.184  1.00  0.00     0.001 A 
ATOM     71  C   UNL A   1      39.441  31.688  31.360  1.00  0.00     0.000 A 
ENDBRANCH  47  66
BRANCH  59  72
ATOM     72  C   UNL A   1      44.952  23.886  33.079  1.00  0.00    -0.014 A 
ATOM     73  C   UNL A   1      46.239  23.862  33.623  1.00  0.00     0.009 A 
ATOM     74  C   UNL A   1      43.996  23.014  33.650  1.00  0.00     0.009 A 
ATOM     75  C   UNL A   1      46.568  22.975  34.654  1.00  0.00     0.001 A 
ATOM     76  C   UNL A   1      44.302  22.177  34.719  1.00  0.00     0.001 A 
ATOM     77  C   UNL A   1      45.598  22.146  35.209  1.00  0.00     0.000 A 
ENDBRANCH  59  72
ENDBRANCH  33  34
ENDBRANCH  26  28
ENDBRANCH  25  26
ENDBRANCH  24  25
ENDBRANCH   1  24
TORSDOF 14
ENDMDL
MODEL 2
REMARK VINA RESULT:     -11.6      2.644      4.454
REMARK SMILES Cc1ccc(Nc2c(Cl)cc(Cl)cc2Cl)c(CC(=O)OCCOC(=O)c2ccc(-c3c4nc(c(-c5ccccc5)c5ccc([nH]5)c(-c5ccccc5)c5nc(c(-c6ccccc6)c6ccc3[nH]6)C=C5)C=C4)cc2)c1
REMARK SMILES IDX 21 1 20 2 18 3 19 4 17 5 16 6 1 7 2 8 3 9 74 10 4 11 5 12
REMARK SMILES IDX 6 13 7 15 8 16 14 17 9 18 10 19 13 20 15 21 11 22 12 23
REMARK SMILES IDX 22 24 23 25 24 26 25 27 26 28 27 29 73 30 28 31 72 32 29 33
REMARK SMILES IDX 30 34 31 35 66 36 32 37 71 38 65 39 67 40 33 41 70 42 64 43
REMARK SMILES IDX 63 44 34 46 56 47 41 48 55 49 42 50 45 51 54 52 68 53 43 54
REMARK SMILES IDX 44 55 53 57 69 58 46 59 35 60 36 61 40 62 37 63 39 64 38 65
REMARK SMILES IDX 57 66 58 67 62 68 59 69 61 70 60 71 47 72 48 73 52 74 49 75
REMARK SMILES IDX 51 76 50 77
REMARK H PARENT 6 14 67 45 45 56
REMARK Flexibility Score: inf
ROOT
ATOM      1  C   UNL A   1      32.894  30.831  27.262  1.00  0.00     0.274 C 
ENDROOT
BRANCH   1   2
ATOM      2  O   UNL A   1      31.735  30.011  27.249  1.00  0.00    -0.462 OA
BRANCH   2   3
ATOM      3  C   UNL A   1      31.906  28.662  27.153  1.00  0.00     0.310 C 
ATOM      4  O   UNL A   1      31.609  27.846  27.991  1.00  0.00    -0.252 OA
BRANCH   3   5
ATOM      5  C   UNL A   1      32.543  28.357  25.809  1.00  0.00     0.160 C 
BRANCH   5   6
ATOM      6  C   UNL A   1      31.480  27.828  24.886  1.00  0.00    -0.013 A 
ATOM      7  C   UNL A   1      28.858  29.578  22.767  1.00  0.00     0.044 C 
ATOM      8  C   UNL A   1      29.632  28.497  23.455  1.00  0.00    -0.051 A 
ATOM      9  C   UNL A   1      29.166  27.183  23.486  1.00  0.00     0.005 A 
ATOM     10  C   UNL A   1      30.801  28.806  24.136  1.00  0.00     0.009 A 
ATOM     11  C   UNL A   1      29.860  26.194  24.191  1.00  0.00     0.026 A 
ATOM     12  C   UNL A   1      31.021  26.490  24.912  1.00  0.00     0.042 A 
BRANCH  12  13
ATOM     13  N   UNL A   1      31.639  25.493  25.695  1.00  0.00    -0.353 N 
ATOM     14  H   UNL A   1      31.784  25.732  26.639  1.00  0.00     0.167 HD
BRANCH  13  15
ATOM     15  C   UNL A   1      32.082  24.197  25.323  1.00  0.00     0.076 A 
ATOM     16  C   UNL A   1      33.196  24.019  24.481  1.00  0.00     0.067 A 
ATOM     17  C   UNL A   1      31.561  23.043  25.945  1.00  0.00     0.067 A 
ATOM     18  Cl  UNL A   1      33.942  25.354  23.671  1.00  0.00    -0.082 Cl
ATOM     19  C   UNL A   1      33.745  22.750  24.262  1.00  0.00     0.043 A 
ATOM     20  C   UNL A   1      32.157  21.788  25.795  1.00  0.00     0.043 A 
ATOM     21  Cl  UNL A   1      30.057  23.068  26.783  1.00  0.00    -0.082 Cl
ATOM     22  C   UNL A   1      33.239  21.648  24.941  1.00  0.00     0.044 A 
ATOM     23  Cl  UNL A   1      33.933  20.094  24.697  1.00  0.00    -0.084 Cl
ENDBRANCH  13  15
ENDBRANCH  12  13
ENDBRANCH   5   6
ENDBRANCH   3   5
ENDBRANCH   2   3
ENDBRANCH   1   2
BRANCH   1  24
ATOM     24  C   UNL A   1      32.467  32.306  27.311  1.00  0.00     0.275 C 
BRANCH  24  25
ATOM     25  O   UNL A   1      33.474  33.315  27.720  1.00  0.00    -0.458 OA
BRANCH  25  26
ATOM     26  C   UNL A   1      33.971  33.634  28.950  1.00  0.00     0.338 C 
ATOM     27  O   UNL A   1      33.406  34.404  29.715  1.00  0.00    -0.246 OA
BRANCH  26  28
ATOM     28  C   UNL A   1      35.191  32.938  29.372  1.00  0.00     0.060 A 
ATOM     29  C   UNL A   1      35.172  31.696  30.032  1.00  0.00     0.016 A 
ATOM     30  C   UNL A   1      36.375  33.482  28.929  1.00  0.00     0.016 A 
ATOM     31  C   UNL A   1      36.352  30.958  30.113  1.00  0.00     0.010 A 
ATOM     32  C   UNL A   1      37.413  32.639  28.701  1.00  0.00     0.010 A 
ATOM     33  C   UNL A   1      37.458  31.441  29.412  1.00  0.00    -0.014 A 
BRANCH  33  34
ATOM     34  C   UNL A   1      38.832  31.019  29.606  1.00  0.00     0.031 A 
ATOM     35  C   UNL A   1      39.336  29.793  28.986  1.00  0.00     0.074 A 
ATOM     36  C   UNL A   1      39.567  31.928  30.301  1.00  0.00     0.049 A 
ATOM     37  N   UNL A   1      40.085  28.934  29.583  1.00  0.00    -0.248 NA
ATOM     38  C   UNL A   1      39.008  29.413  27.609  1.00  0.00     0.031 C 
ATOM     39  C   UNL A   1      40.984  31.997  30.581  1.00  0.00     0.029 A 
ATOM     40  N   UNL A   1      39.061  33.027  31.023  1.00  0.00    -0.354 N 
ATOM     41  C   UNL A   1      40.648  28.174  28.577  1.00  0.00     0.074 A 
ATOM     42  C   UNL A   1      39.803  28.351  27.422  1.00  0.00     0.031 C 
ATOM     43  C   UNL A   1      41.157  32.787  31.665  1.00  0.00     0.029 A 
ATOM     44  C   UNL A   1      39.835  33.168  32.160  1.00  0.00     0.049 A 
ATOM     45  H   UNL A   1      38.296  33.591  30.765  1.00  0.00     0.167 HD
ATOM     46  C   UNL A   1      41.932  27.735  28.704  1.00  0.00     0.031 A 
ATOM     47  C   UNL A   1      39.276  32.877  33.375  1.00  0.00     0.031 A 
ATOM     48  C   UNL A   1      42.535  28.283  29.916  1.00  0.00     0.049 A 
ATOM     49  C   UNL A   1      39.916  31.623  33.927  1.00  0.00     0.074 A 
ATOM     50  C   UNL A   1      43.364  29.378  30.110  1.00  0.00     0.029 A 
ATOM     51  N   UNL A   1      41.988  27.980  31.156  1.00  0.00    -0.354 N 
ATOM     52  N   UNL A   1      40.466  30.705  33.179  1.00  0.00    -0.248 NA
ATOM     53  C   UNL A   1      40.029  31.328  35.351  1.00  0.00     0.031 C 
ATOM     54  C   UNL A   1      43.244  29.782  31.466  1.00  0.00     0.029 A 
ATOM     55  C   UNL A   1      42.348  28.932  32.093  1.00  0.00     0.049 A 
ATOM     56  H   UNL A   1      41.422  27.196  31.343  1.00  0.00     0.167 HD
ATOM     57  C   UNL A   1      41.106  29.796  33.972  1.00  0.00     0.074 A 
ATOM     58  C   UNL A   1      40.768  30.204  35.327  1.00  0.00     0.031 C 
ATOM     59  C   UNL A   1      41.897  28.805  33.470  1.00  0.00     0.031 A 
BRANCH  46  60
ATOM     60  C   UNL A   1      42.729  27.161  27.559  1.00  0.00    -0.014 A 
ATOM     61  C   UNL A   1      43.415  25.942  27.723  1.00  0.00     0.009 A 
ATOM     62  C   UNL A   1      42.825  27.764  26.293  1.00  0.00     0.009 A 
ATOM     63  C   UNL A   1      44.202  25.385  26.708  1.00  0.00     0.001 A 
ATOM     64  C   UNL A   1      43.630  27.221  25.276  1.00  0.00     0.001 A 
ATOM     65  C   UNL A   1      44.321  26.033  25.486  1.00  0.00     0.000 A 
ENDBRANCH  46  60
BRANCH  47  66
ATOM     66  C   UNL A   1      37.823  33.250  33.514  1.00  0.00    -0.014 A 
ATOM     67  C   UNL A   1      37.448  34.583  33.224  1.00  0.00     0.009 A 
ATOM     68  C   UNL A   1      36.793  32.299  33.604  1.00  0.00     0.009 A 
ATOM     69  C   UNL A   1      36.122  34.932  32.930  1.00  0.00     0.001 A 
ATOM     70  C   UNL A   1      35.458  32.658  33.335  1.00  0.00     0.001 A 
ATOM     71  C   UNL A   1      35.128  33.962  32.964  1.00  0.00     0.000 A 
ENDBRANCH  47  66
BRANCH  59  72
ATOM     72  C   UNL A   1      42.416  27.628  34.248  1.00  0.00    -0.014 A 
ATOM     73  C   UNL A   1      43.744  27.499  34.664  1.00  0.00     0.009 A 
ATOM     74  C   UNL A   1      41.492  26.678  34.743  1.00  0.00     0.009 A 
ATOM     75  C   UNL A   1      44.139  26.443  35.492  1.00  0.00     0.001 A 
ATOM     76  C   UNL A   1      41.869  25.664  35.619  1.00  0.00     0.001 A 
ATOM     77  C   UNL A   1      43.202  25.537  35.979  1.00  0.00     0.000 A 
ENDBRANCH  59  72
ENDBRANCH  33  34
ENDBRANCH  26  28
ENDBRANCH  25  26
ENDBRANCH  24  25
ENDBRANCH   1  24
TORSDOF 14
ENDMDL
MODEL 3
REMARK VINA RESULT:     -11.5      1.554      2.138
REMARK SMILES Cc1ccc(Nc2c(Cl)cc(Cl)cc2Cl)c(CC(=O)OCCOC(=O)c2ccc(-c3c4nc(c(-c5ccccc5)c5ccc([nH]5)c(-c5ccccc5)c5nc(c(-c6ccccc6)c6ccc3[nH]6)C=C5)C=C4)cc2)c1
REMARK SMILES IDX 21 1 20 2 18 3 19 4 17 5 16 6 1 7 2 8 3 9 74 10 4 11 5 12
REMARK SMILES IDX 6 13 7 15 8 16 14 17 9 18 10 19 13 20 15 21 11 22 12 23
REMARK SMILES IDX 22 24 23 25 24 26 25 27 26 28 27 29 73 30 28 31 72 32 29 33
REMARK SMILES IDX 30 34 31 35 66 36 32 37 71 38 65 39 67 40 33 41 70 42 64 43
REMARK SMILES IDX 63 44 34 46 56 47 41 48 55 49 42 50 45 51 54 52 68 53 43 54
REMARK SMILES IDX 44 55 53 57 69 58 46 59 35 60 36 61 40 62 37 63 39 64 38 65
REMARK SMILES IDX 57 66 58 67 62 68 59 69 61 70 60 71 47 72 48 73 52 74 49 75
REMARK SMILES IDX 51 76 50 77
REMARK H PARENT 6 14 67 45 45 56
REMARK Flexibility Score: inf
ROOT
ATOM      1  C   UNL A   1      34.032  28.659  25.853  1.00  0.00     0.274 C 
ENDROOT
BRANCH   1   2
ATOM      2  O   UNL A   1      32.615  28.662  25.942  1.00  0.00    -0.462 OA
BRANCH   2   3
ATOM      3  C   UNL A   1      31.923  29.496  25.116  1.00  0.00     0.310 C 
ATOM      4  O   UNL A   1      31.397  30.536  25.432  1.00  0.00    -0.252 OA
BRANCH   3   5
ATOM      5  C   UNL A   1      31.920  28.893  23.723  1.00  0.00     0.160 C 
BRANCH   5   6
ATOM      6  C   UNL A   1      30.707  28.014  23.586  1.00  0.00    -0.013 A 
ATOM      7  C   UNL A   1      27.024  28.825  23.130  1.00  0.00     0.044 C 
ATOM      8  C   UNL A   1      28.287  28.054  23.362  1.00  0.00    -0.051 A 
ATOM      9  C   UNL A   1      28.255  26.715  23.752  1.00  0.00     0.005 A 
ATOM     10  C   UNL A   1      29.517  28.689  23.257  1.00  0.00     0.009 A 
ATOM     11  C   UNL A   1      29.437  26.024  24.034  1.00  0.00     0.026 A 
ATOM     12  C   UNL A   1      30.685  26.653  23.969  1.00  0.00     0.042 A 
BRANCH  12  13
ATOM     13  N   UNL A   1      31.847  25.957  24.359  1.00  0.00    -0.353 N 
ATOM     14  H   UNL A   1      32.539  26.507  24.793  1.00  0.00     0.167 HD
BRANCH  13  15
ATOM     15  C   UNL A   1      32.167  24.581  24.220  1.00  0.00     0.076 A 
ATOM     16  C   UNL A   1      32.019  23.684  25.294  1.00  0.00     0.067 A 
ATOM     17  C   UNL A   1      32.440  24.023  22.953  1.00  0.00     0.067 A 
ATOM     18  Cl  UNL A   1      31.666  24.237  26.896  1.00  0.00    -0.082 Cl
ATOM     19  C   UNL A   1      32.156  22.303  25.111  1.00  0.00     0.043 A 
ATOM     20  C   UNL A   1      32.494  22.640  22.750  1.00  0.00     0.043 A 
ATOM     21  Cl  UNL A   1      32.901  25.000  21.613  1.00  0.00    -0.082 Cl
ATOM     22  C   UNL A   1      32.365  21.789  23.836  1.00  0.00     0.044 A 
ATOM     23  Cl  UNL A   1      32.502  20.091  23.605  1.00  0.00    -0.084 Cl
ENDBRANCH  13  15
ENDBRANCH  12  13
ENDBRANCH   5   6
ENDBRANCH   3   5
ENDBRANCH   2   3
ENDBRANCH   1   2
BRANCH   1  24
ATOM     24  C   UNL A   1      34.625  28.908  27.249  1.00  0.00     0.275 C 
BRANCH  24  25
ATOM     25  O   UNL A   1      34.846  30.310  27.678  1.00  0.00    -0.458 OA
BRANCH  25  26
ATOM     26  C   UNL A   1      35.564  30.822  28.719  1.00  0.00     0.338 C 
ATOM     27  O   UNL A   1      35.153  31.734  29.424  1.00  0.00    -0.246 OA
BRANCH  26  28
ATOM     28  C   UNL A   1      36.841  30.169  29.027  1.00  0.00     0.060 A 
ATOM     29  C   UNL A   1      36.985  29.222  30.058  1.00  0.00     0.016 A 
ATOM     30  C   UNL A   1      37.864  30.401  28.136  1.00  0.00     0.016 A 
ATOM     31  C   UNL A   1      38.127  28.424  30.083  1.00  0.00     0.010 A 
ATOM     32  C   UNL A   1      38.781  29.418  27.955  1.00  0.00     0.010 A 
ATOM     33  C   UNL A   1      39.002  28.522  28.999  1.00  0.00    -0.014 A 
BRANCH  33  34
ATOM     34  C   UNL A   1      40.367  28.035  28.969  1.00  0.00     0.031 A 
ATOM     35  C   UNL A   1      40.681  26.712  28.426  1.00  0.00     0.074 A 
ATOM     36  C   UNL A   1      41.267  28.969  29.377  1.00  0.00     0.049 A 
ATOM     37  N   UNL A   1      41.501  25.882  28.968  1.00  0.00    -0.248 NA
ATOM     38  C   UNL A   1      40.059  26.193  27.205  1.00  0.00     0.031 C 
ATOM     39  C   UNL A   1      42.713  28.975  29.355  1.00  0.00     0.029 A 
ATOM     40  N   UNL A   1      40.968  30.178  30.035  1.00  0.00    -0.354 N 
ATOM     41  C   UNL A   1      41.811  24.971  27.979  1.00  0.00     0.074 A 
ATOM     42  C   UNL A   1      40.753  25.065  27.003  1.00  0.00     0.031 C 
ATOM     43  C   UNL A   1      43.139  29.876  30.270  1.00  0.00     0.029 A 
ATOM     44  C   UNL A   1      41.966  30.402  30.966  1.00  0.00     0.049 A 
ATOM     45  H   UNL A   1      40.191  30.757  29.864  1.00  0.00     0.167 HD
ATOM     46  C   UNL A   1      43.074  24.465  27.902  1.00  0.00     0.031 A 
ATOM     47  C   UNL A   1      41.659  30.297  32.295  1.00  0.00     0.031 A 
ATOM     48  C   UNL A   1      43.938  25.112  28.886  1.00  0.00     0.049 A 
ATOM     49  C   UNL A   1      42.347  29.078  32.868  1.00  0.00     0.074 A 
ATOM     50  C   UNL A   1      44.833  26.164  28.765  1.00  0.00     0.029 A 
ATOM     51  N   UNL A   1      43.648  24.997  30.239  1.00  0.00    -0.354 N 
ATOM     52  N   UNL A   1      42.692  28.042  32.151  1.00  0.00    -0.248 NA
ATOM     53  C   UNL A   1      42.741  28.948  34.266  1.00  0.00     0.031 C 
ATOM     54  C   UNL A   1      45.014  26.735  30.053  1.00  0.00     0.029 A 
ATOM     55  C   UNL A   1      44.233  26.029  30.952  1.00  0.00     0.049 A 
ATOM     56  H   UNL A   1      43.100  24.281  30.637  1.00  0.00     0.167 HD
ATOM     57  C   UNL A   1      43.444  27.193  32.913  1.00  0.00     0.074 A 
ATOM     58  C   UNL A   1      43.411  27.783  34.242  1.00  0.00     0.031 C 
ATOM     59  C   UNL A   1      44.072  26.098  32.396  1.00  0.00     0.031 A 
BRANCH  46  60
ATOM     60  C   UNL A   1      43.592  23.705  26.706  1.00  0.00    -0.014 A 
ATOM     61  C   UNL A   1      44.290  24.387  25.690  1.00  0.00     0.009 A 
ATOM     62  C   UNL A   1      43.442  22.318  26.534  1.00  0.00     0.009 A 
ATOM     63  C   UNL A   1      44.757  23.741  24.540  1.00  0.00     0.001 A 
ATOM     64  C   UNL A   1      43.890  21.666  25.373  1.00  0.00     0.001 A 
ATOM     65  C   UNL A   1      44.545  22.379  24.374  1.00  0.00     0.000 A 
ENDBRANCH  46  60
BRANCH  47  66
ATOM     66  C   UNL A   1      40.283  30.781  32.672  1.00  0.00    -0.014 A 
ATOM     67  C   UNL A   1      39.807  31.967  32.066  1.00  0.00     0.009 A 
ATOM     68  C   UNL A   1      39.342  29.975  33.332  1.00  0.00     0.009 A 
ATOM     69  C   UNL A   1      38.440  32.280  32.025  1.00  0.00     0.001 A 
ATOM     70  C   UNL A   1      37.973  30.305  33.313  1.00  0.00     0.001 A 
ATOM     71  C   UNL A   1      37.519  31.435  32.631  1.00  0.00     0.000 A 
ENDBRANCH  47  66
BRANCH  59  72
ATOM     72  C   UNL A   1      44.691  24.990  33.202  1.00  0.00    -0.014 A 
ATOM     73  C   UNL A   1      44.032  23.799  33.515  1.00  0.00     0.009 A 
ATOM     74  C   UNL A   1      46.067  25.067  33.522  1.00  0.00     0.009 A 
ATOM     75  C   UNL A   1      44.701  22.754  34.161  1.00  0.00     0.001 A 
ATOM     76  C   UNL A   1      46.752  24.006  34.105  1.00  0.00     0.001 A 
ATOM     77  C   UNL A   1      46.061  22.852  34.442  1.00  0.00     0.000 A 
ENDBRANCH  59  72
ENDBRANCH  33  34
ENDBRANCH  26  28
ENDBRANCH  25  26
ENDBRANCH  24  25
ENDBRANCH   1  24
TORSDOF 14
ENDMDL
