MODEL 1
REMARK VINA RESULT:     -12.1      0.000      0.000
REMARK SMILES COc1ccc(N2C(=O)/C(=C/c3c(C(=O)OCCOC(=O)c4ccc(-c5c6nc(c(-c7ccccc7)c7ccc([nH]7)c(-c7ccccc7)c7nc(c(-c8ccccc8)c8ccc5[nH]8)C=C7)C=C6)cc4)[nH]c4cc(OC)ccc34)SC2=S)cc1
REMARK SMILES IDX 17 1 16 2 14 3 15 4 13 5 12 6 78 7 70 8 71 9 77 10 72 12
REMARK SMILES IDX 76 13 73 14 11 15 7 16 8 17 80 18 9 19 10 20 79 21 81 22
REMARK SMILES IDX 6 23 3 24 4 25 83 26 5 27 82 28 2 29 1 30 74 31 75 32 18 33
REMARK SMILES IDX 19 34 20 35 21 36 22 37 23 38 69 39 24 40 68 41 25 42 26 43
REMARK SMILES IDX 27 44 62 45 28 46 67 47 61 48 63 49 29 50 66 51 60 52 59 53
REMARK SMILES IDX 30 55 52 56 37 57 51 58 38 59 41 60 50 61 64 62 39 63 40 64
REMARK SMILES IDX 49 66 65 67 42 68 31 69 32 70 36 71 33 72 35 73 34 74 53 75
REMARK SMILES IDX 54 76 58 77 55 78 57 79 56 80 43 81 44 82 48 83 45 84 47 85
REMARK SMILES IDX 46 86
REMARK H PARENT 70 11 63 54 41 65
REMARK Flexibility Score: inf
ROOT
ATOM      1  C   UNL A   1      35.083  23.374  26.118  1.00  0.00     0.275 C 
ENDROOT
BRANCH   1   2
ATOM      2  O   UNL A   1      34.822  22.667  27.349  1.00  0.00    -0.457 OA
BRANCH   2   3
ATOM      3  C   UNL A   1      33.526  22.288  27.515  1.00  0.00     0.355 C 
ATOM      4  O   UNL A   1      32.803  22.674  28.425  1.00  0.00    -0.244 OA
BRANCH   3   5
ATOM      5  C   UNL A   1      33.074  21.428  26.452  1.00  0.00     0.133 A 
ATOM      6  C   UNL A   1      32.229  21.619  25.363  1.00  0.00     0.016 A 
ATOM      7  C   UNL A   1      32.405  20.495  24.478  1.00  0.00     0.008 A 
ATOM      8  N   UNL A   1      33.492  20.127  26.373  1.00  0.00    -0.348 N 
ATOM      9  C   UNL A   1      33.221  19.589  25.151  1.00  0.00     0.050 A 
ATOM     10  C   UNL A   1      31.974  20.116  23.186  1.00  0.00     0.015 A 
ATOM     11  H   UNL A   1      33.934  19.641  27.106  1.00  0.00     0.167 HD
ATOM     12  C   UNL A   1      33.621  18.354  24.640  1.00  0.00     0.073 A 
ATOM     13  C   UNL A   1      32.400  18.882  22.633  1.00  0.00     0.047 A 
ATOM     14  C   UNL A   1      33.210  18.008  23.356  1.00  0.00     0.120 A 
BRANCH   6  15
ATOM     15  C   UNL A   1      31.301  22.711  25.287  1.00  0.00     0.032 C 
ATOM     16  N   UNL A   1      31.557  26.086  24.183  1.00  0.00    -0.261 N 
ATOM     17  C   UNL A   1      30.841  25.084  24.854  1.00  0.00     0.270 C 
ATOM     18  C   UNL A   1      32.411  25.628  23.179  1.00  0.00     0.152 C 
ATOM     19  O   UNL A   1      29.964  25.211  25.701  1.00  0.00    -0.268 OA
ATOM     20  C   UNL A   1      31.335  23.743  24.427  1.00  0.00     0.081 C 
ATOM     21  S   UNL A   1      32.200  23.890  22.960  1.00  0.00    -0.054 SA
ATOM     22  S   UNL A   1      33.620  26.405  22.317  1.00  0.00    -0.051 S 
BRANCH  16  23
ATOM     23  C   UNL A   1      31.419  27.467  24.578  1.00  0.00     0.051 A 
ATOM     24  C   UNL A   1      31.139  30.195  25.347  1.00  0.00     0.119 A 
ATOM     25  C   UNL A   1      30.544  29.720  24.181  1.00  0.00     0.048 A 
ATOM     26  C   UNL A   1      31.854  29.306  26.142  1.00  0.00     0.048 A 
ATOM     27  C   UNL A   1      30.687  28.378  23.797  1.00  0.00     0.030 A 
ATOM     28  C   UNL A   1      32.004  27.967  25.751  1.00  0.00     0.030 A 
BRANCH  24  29
ATOM     29  O   UNL A   1      30.952  31.522  25.610  1.00  0.00    -0.497 OA
ATOM     30  C   UNL A   1      31.601  32.023  26.775  1.00  0.00     0.278 C 
ENDBRANCH  24  29
ENDBRANCH  16  23
ENDBRANCH   6  15
BRANCH  14  31
ATOM     31  O   UNL A   1      33.671  16.782  22.962  1.00  0.00    -0.497 OA
ATOM     32  C   UNL A   1      34.308  15.968  23.932  1.00  0.00     0.278 C 
ENDBRANCH  14  31
ENDBRANCH   3   5
ENDBRANCH   2   3
ENDBRANCH   1   2
BRANCH   1  33
ATOM     33  C   UNL A   1      36.369  22.893  25.437  1.00  0.00     0.275 C 
BRANCH  33  34
ATOM     34  O   UNL A   1      37.449  23.838  25.590  1.00  0.00    -0.458 OA
BRANCH  34  35
ATOM     35  C   UNL A   1      38.562  23.337  26.162  1.00  0.00     0.338 C 
ATOM     36  O   UNL A   1      38.994  22.198  26.074  1.00  0.00    -0.246 OA
BRANCH  35  37
ATOM     37  C   UNL A   1      39.340  24.384  26.834  1.00  0.00     0.060 A 
ATOM     38  C   UNL A   1      39.121  24.566  28.196  1.00  0.00     0.016 A 
ATOM     39  C   UNL A   1      40.042  25.338  26.103  1.00  0.00     0.016 A 
ATOM     40  C   UNL A   1      39.444  25.765  28.803  1.00  0.00     0.010 A 
ATOM     41  C   UNL A   1      40.495  26.491  26.753  1.00  0.00     0.010 A 
ATOM     42  C   UNL A   1      40.156  26.736  28.096  1.00  0.00    -0.014 A 
BRANCH  42  43
ATOM     43  C   UNL A   1      40.496  28.012  28.769  1.00  0.00     0.031 A 
ATOM     44  C   UNL A   1      41.885  28.232  29.298  1.00  0.00     0.074 A 
ATOM     45  C   UNL A   1      39.575  28.991  28.859  1.00  0.00     0.049 A 
ATOM     46  N   UNL A   1      42.325  29.174  30.091  1.00  0.00    -0.248 NA
ATOM     47  C   UNL A   1      42.910  27.252  28.900  1.00  0.00     0.031 C 
ATOM     48  C   UNL A   1      38.215  28.935  28.313  1.00  0.00     0.029 A 
ATOM     49  N   UNL A   1      39.648  30.236  29.429  1.00  0.00    -0.354 N 
ATOM     50  C   UNL A   1      43.651  28.855  30.354  1.00  0.00     0.074 A 
ATOM     51  C   UNL A   1      43.951  27.645  29.620  1.00  0.00     0.031 C 
ATOM     52  C   UNL A   1      37.606  30.109  28.524  1.00  0.00     0.029 A 
ATOM     53  C   UNL A   1      38.484  30.956  29.317  1.00  0.00     0.049 A 
ATOM     54  H   UNL A   1      40.456  30.579  29.874  1.00  0.00     0.167 HD
ATOM     55  C   UNL A   1      44.527  29.507  31.154  1.00  0.00     0.031 A 
ATOM     56  C   UNL A   1      38.138  32.144  29.843  1.00  0.00     0.031 A 
ATOM     57  C   UNL A   1      44.225  30.740  31.831  1.00  0.00     0.049 A 
ATOM     58  C   UNL A   1      39.120  32.846  30.731  1.00  0.00     0.074 A 
ATOM     59  C   UNL A   1      45.028  31.486  32.675  1.00  0.00     0.029 A 
ATOM     60  N   UNL A   1      43.021  31.422  31.716  1.00  0.00    -0.354 N 
ATOM     61  N   UNL A   1      40.336  32.482  31.062  1.00  0.00    -0.248 NA
ATOM     62  C   UNL A   1      38.674  34.104  31.340  1.00  0.00     0.031 C 
ATOM     63  C   UNL A   1      44.299  32.606  33.092  1.00  0.00     0.029 A 
ATOM     64  C   UNL A   1      43.057  32.577  32.475  1.00  0.00     0.049 A 
ATOM     65  H   UNL A   1      42.255  31.127  31.172  1.00  0.00     0.167 HD
ATOM     66  C   UNL A   1      40.800  33.462  31.925  1.00  0.00     0.074 A 
ATOM     67  C   UNL A   1      39.745  34.452  32.040  1.00  0.00     0.031 C 
ATOM     68  C   UNL A   1      41.987  33.534  32.574  1.00  0.00     0.031 A 
BRANCH  55  69
ATOM     69  C   UNL A   1      45.862  28.858  31.389  1.00  0.00    -0.014 A 
ATOM     70  C   UNL A   1      46.940  29.037  30.510  1.00  0.00     0.009 A 
ATOM     71  C   UNL A   1      46.037  28.047  32.523  1.00  0.00     0.009 A 
ATOM     72  C   UNL A   1      48.156  28.386  30.743  1.00  0.00     0.001 A 
ATOM     73  C   UNL A   1      47.260  27.420  32.767  1.00  0.00     0.001 A 
ATOM     74  C   UNL A   1      48.315  27.581  31.871  1.00  0.00     0.000 A 
ENDBRANCH  55  69
BRANCH  56  75
ATOM     75  C   UNL A   1      36.780  32.690  29.596  1.00  0.00    -0.014 A 
ATOM     76  C   UNL A   1      35.772  32.566  30.562  1.00  0.00     0.009 A 
ATOM     77  C   UNL A   1      36.499  33.383  28.406  1.00  0.00     0.009 A 
ATOM     78  C   UNL A   1      34.510  33.123  30.341  1.00  0.00     0.001 A 
ATOM     79  C   UNL A   1      35.246  33.963  28.200  1.00  0.00     0.001 A 
ATOM     80  C   UNL A   1      34.251  33.828  29.166  1.00  0.00     0.000 A 
ENDBRANCH  56  75
BRANCH  68  81
ATOM     81  C   UNL A   1      42.198  34.731  33.449  1.00  0.00    -0.014 A 
ATOM     82  C   UNL A   1      42.787  35.900  32.942  1.00  0.00     0.009 A 
ATOM     83  C   UNL A   1      41.785  34.696  34.790  1.00  0.00     0.009 A 
ATOM     84  C   UNL A   1      42.984  37.003  33.772  1.00  0.00     0.001 A 
ATOM     85  C   UNL A   1      41.965  35.809  35.610  1.00  0.00     0.001 A 
ATOM     86  C   UNL A   1      42.571  36.958  35.104  1.00  0.00     0.000 A 
ENDBRANCH  68  81
ENDBRANCH  42  43
ENDBRANCH  35  37
ENDBRANCH  34  35
ENDBRANCH  33  34
ENDBRANCH   1  33
TORSDOF 15
ENDMDL
MODEL 2
REMARK VINA RESULT:     -12.0      2.831      8.841
REMARK SMILES COc1ccc(N2C(=O)/C(=C/c3c(C(=O)OCCOC(=O)c4ccc(-c5c6nc(c(-c7ccccc7)c7ccc([nH]7)c(-c7ccccc7)c7nc(c(-c8ccccc8)c8ccc5[nH]8)C=C7)C=C6)cc4)[nH]c4cc(OC)ccc34)SC2=S)cc1
REMARK SMILES IDX 17 1 16 2 14 3 15 4 13 5 12 6 78 7 70 8 71 9 77 10 72 12
REMARK SMILES IDX 76 13 73 14 11 15 7 16 8 17 80 18 9 19 10 20 79 21 81 22
REMARK SMILES IDX 6 23 3 24 4 25 83 26 5 27 82 28 2 29 1 30 74 31 75 32 18 33
REMARK SMILES IDX 19 34 20 35 21 36 22 37 23 38 69 39 24 40 68 41 25 42 26 43
REMARK SMILES IDX 27 44 62 45 28 46 67 47 61 48 63 49 29 50 66 51 60 52 59 53
REMARK SMILES IDX 30 55 52 56 37 57 51 58 38 59 41 60 50 61 64 62 39 63 40 64
REMARK SMILES IDX 49 66 65 67 42 68 31 69 32 70 36 71 33 72 35 73 34 74 53 75
REMARK SMILES IDX 54 76 58 77 55 78 57 79 56 80 43 81 44 82 48 83 45 84 47 85
REMARK SMILES IDX 46 86
REMARK H PARENT 70 11 63 54 41 65
REMARK Flexibility Score: inf
ROOT
ATOM      1  C   UNL A   1      33.861  28.509  24.898  1.00  0.00     0.275 C 
ENDROOT
BRANCH   1   2
ATOM      2  O   UNL A   1      33.408  27.282  24.288  1.00  0.00    -0.457 OA
BRANCH   2   3
ATOM      3  C   UNL A   1      33.082  27.396  22.972  1.00  0.00     0.355 C 
ATOM      4  O   UNL A   1      33.825  27.097  22.046  1.00  0.00    -0.244 OA
BRANCH   3   5
ATOM      5  C   UNL A   1      31.726  27.848  22.788  1.00  0.00     0.133 A 
ATOM      6  C   UNL A   1      30.487  27.232  22.929  1.00  0.00     0.016 A 
ATOM      7  C   UNL A   1      29.486  28.268  22.915  1.00  0.00     0.008 A 
ATOM      8  N   UNL A   1      31.460  29.134  22.402  1.00  0.00    -0.348 N 
ATOM      9  C   UNL A   1      30.149  29.451  22.594  1.00  0.00     0.050 A 
ATOM     10  C   UNL A   1      28.092  28.365  23.126  1.00  0.00     0.015 A 
ATOM     11  H   UNL A   1      32.131  29.752  22.033  1.00  0.00     0.167 HD
ATOM     12  C   UNL A   1      29.530  30.694  22.465  1.00  0.00     0.073 A 
ATOM     13  C   UNL A   1      27.449  29.626  23.036  1.00  0.00     0.047 A 
ATOM     14  C   UNL A   1      28.161  30.777  22.702  1.00  0.00     0.120 A 
BRANCH   6  15
ATOM     15  C   UNL A   1      30.331  25.805  22.955  1.00  0.00     0.032 C 
ATOM     16  N   UNL A   1      31.809  23.203  24.883  1.00  0.00    -0.261 N 
ATOM     17  C   UNL A   1      31.038  23.604  23.782  1.00  0.00     0.270 C 
ATOM     18  C   UNL A   1      31.784  24.079  25.970  1.00  0.00     0.152 C 
ATOM     19  O   UNL A   1      30.809  22.988  22.748  1.00  0.00    -0.268 OA
ATOM     20  C   UNL A   1      30.531  24.989  24.003  1.00  0.00     0.081 C 
ATOM     21  S   UNL A   1      30.632  25.380  25.664  1.00  0.00    -0.054 SA
ATOM     22  S   UNL A   1      32.724  24.147  27.356  1.00  0.00    -0.051 S 
BRANCH  16  23
ATOM     23  C   UNL A   1      32.589  21.991  24.823  1.00  0.00     0.051 A 
ATOM     24  C   UNL A   1      34.138  19.604  24.701  1.00  0.00     0.119 A 
ATOM     25  C   UNL A   1      34.741  20.851  24.561  1.00  0.00     0.048 A 
ATOM     26  C   UNL A   1      32.767  19.546  24.925  1.00  0.00     0.048 A 
ATOM     27  C   UNL A   1      33.978  22.029  24.613  1.00  0.00     0.030 A 
ATOM     28  C   UNL A   1      32.005  20.723  24.968  1.00  0.00     0.030 A 
BRANCH  24  29
ATOM     29  O   UNL A   1      34.974  18.528  24.612  1.00  0.00    -0.497 OA
ATOM     30  C   UNL A   1      34.390  17.324  24.124  1.00  0.00     0.278 C 
ENDBRANCH  24  29
ENDBRANCH  16  23
ENDBRANCH   6  15
BRANCH  14  31
ATOM     31  O   UNL A   1      27.671  32.045  22.554  1.00  0.00    -0.497 OA
ATOM     32  C   UNL A   1      28.564  33.130  22.744  1.00  0.00     0.278 C 
ENDBRANCH  14  31
ENDBRANCH   3   5
ENDBRANCH   2   3
ENDBRANCH   1   2
BRANCH   1  33
ATOM     33  C   UNL A   1      33.160  28.783  26.233  1.00  0.00     0.275 C 
BRANCH  33  34
ATOM     34  O   UNL A   1      34.077  28.733  27.346  1.00  0.00    -0.458 OA
BRANCH  34  35
ATOM     35  C   UNL A   1      34.511  29.935  27.775  1.00  0.00     0.338 C 
ATOM     36  O   UNL A   1      33.851  30.950  27.935  1.00  0.00    -0.246 OA
BRANCH  35  37
ATOM     37  C   UNL A   1      35.916  29.881  28.195  1.00  0.00     0.060 A 
ATOM     38  C   UNL A   1      36.882  30.123  27.223  1.00  0.00     0.016 A 
ATOM     39  C   UNL A   1      36.278  29.333  29.422  1.00  0.00     0.016 A 
ATOM     40  C   UNL A   1      38.176  29.669  27.393  1.00  0.00     0.010 A 
ATOM     41  C   UNL A   1      37.619  29.005  29.648  1.00  0.00     0.010 A 
ATOM     42  C   UNL A   1      38.569  29.124  28.617  1.00  0.00    -0.014 A 
BRANCH  42  43
ATOM     43  C   UNL A   1      39.964  28.649  28.779  1.00  0.00     0.031 A 
ATOM     44  C   UNL A   1      41.014  29.579  29.318  1.00  0.00     0.074 A 
ATOM     45  C   UNL A   1      40.276  27.370  28.492  1.00  0.00     0.049 A 
ATOM     46  N   UNL A   1      42.312  29.431  29.339  1.00  0.00    -0.248 NA
ATOM     47  C   UNL A   1      40.543  30.852  29.888  1.00  0.00     0.031 C 
ATOM     48  C   UNL A   1      39.332  26.343  28.041  1.00  0.00     0.029 A 
ATOM     49  N   UNL A   1      41.475  26.708  28.556  1.00  0.00    -0.354 N 
ATOM     50  C   UNL A   1      42.818  30.622  29.845  1.00  0.00     0.074 A 
ATOM     51  C   UNL A   1      41.687  31.474  30.138  1.00  0.00     0.031 C 
ATOM     52  C   UNL A   1      39.974  25.173  27.922  1.00  0.00     0.029 A 
ATOM     53  C   UNL A   1      41.390  25.390  28.177  1.00  0.00     0.049 A 
ATOM     54  H   UNL A   1      42.313  27.135  28.844  1.00  0.00     0.167 HD
ATOM     55  C   UNL A   1      44.113  30.972  30.026  1.00  0.00     0.031 A 
ATOM     56  C   UNL A   1      42.354  24.470  27.998  1.00  0.00     0.031 A 
ATOM     57  C   UNL A   1      45.221  30.088  29.781  1.00  0.00     0.049 A 
ATOM     58  C   UNL A   1      43.781  24.880  28.198  1.00  0.00     0.074 A 
ATOM     59  C   UNL A   1      46.576  30.336  29.918  1.00  0.00     0.029 A 
ATOM     60  N   UNL A   1      45.095  28.769  29.368  1.00  0.00    -0.354 N 
ATOM     61  N   UNL A   1      44.257  26.044  28.572  1.00  0.00    -0.248 NA
ATOM     62  C   UNL A   1      44.803  23.864  27.923  1.00  0.00     0.031 C 
ATOM     63  C   UNL A   1      47.269  29.173  29.562  1.00  0.00     0.029 A 
ATOM     64  C   UNL A   1      46.344  28.190  29.241  1.00  0.00     0.049 A 
ATOM     65  H   UNL A   1      44.240  28.312  29.192  1.00  0.00     0.167 HD
ATOM     66  C   UNL A   1      45.636  25.903  28.572  1.00  0.00     0.074 A 
ATOM     67  C   UNL A   1      45.917  24.532  28.189  1.00  0.00     0.031 C 
ATOM     68  C   UNL A   1      46.587  26.827  28.850  1.00  0.00     0.031 A 
BRANCH  55  69
ATOM     69  C   UNL A   1      44.392  32.388  30.444  1.00  0.00    -0.014 A 
ATOM     70  C   UNL A   1      44.590  33.414  29.508  1.00  0.00     0.009 A 
ATOM     71  C   UNL A   1      44.457  32.697  31.813  1.00  0.00     0.009 A 
ATOM     72  C   UNL A   1      44.885  34.712  29.934  1.00  0.00     0.001 A 
ATOM     73  C   UNL A   1      44.726  33.999  32.237  1.00  0.00     0.001 A 
ATOM     74  C   UNL A   1      44.951  35.004  31.297  1.00  0.00     0.000 A 
ENDBRANCH  55  69
BRANCH  56  75
ATOM     75  C   UNL A   1      41.991  23.105  27.540  1.00  0.00    -0.014 A 
ATOM     76  C   UNL A   1      41.532  22.143  28.450  1.00  0.00     0.009 A 
ATOM     77  C   UNL A   1      42.057  22.773  26.176  1.00  0.00     0.009 A 
ATOM     78  C   UNL A   1      41.149  20.875  28.004  1.00  0.00     0.001 A 
ATOM     79  C   UNL A   1      41.646  21.516  25.730  1.00  0.00     0.001 A 
ATOM     80  C   UNL A   1      41.197  20.566  26.645  1.00  0.00     0.000 A 
ENDBRANCH  56  75
BRANCH  68  81
ATOM     81  C   UNL A   1      48.011  26.368  28.762  1.00  0.00    -0.014 A 
ATOM     82  C   UNL A   1      48.670  25.847  29.885  1.00  0.00     0.009 A 
ATOM     83  C   UNL A   1      48.691  26.439  27.537  1.00  0.00     0.009 A 
ATOM     84  C   UNL A   1      49.999  25.431  29.789  1.00  0.00     0.001 A 
ATOM     85  C   UNL A   1      50.011  26.004  27.440  1.00  0.00     0.001 A 
ATOM     86  C   UNL A   1      50.667  25.507  28.566  1.00  0.00     0.000 A 
ENDBRANCH  68  81
ENDBRANCH  42  43
ENDBRANCH  35  37
ENDBRANCH  34  35
ENDBRANCH  33  34
ENDBRANCH   1  33
TORSDOF 15
ENDMDL
MODEL 3
REMARK VINA RESULT:     -12.0      2.098      8.477
REMARK SMILES COc1ccc(N2C(=O)/C(=C/c3c(C(=O)OCCOC(=O)c4ccc(-c5c6nc(c(-c7ccccc7)c7ccc([nH]7)c(-c7ccccc7)c7nc(c(-c8ccccc8)c8ccc5[nH]8)C=C7)C=C6)cc4)[nH]c4cc(OC)ccc34)SC2=S)cc1
REMARK SMILES IDX 17 1 16 2 14 3 15 4 13 5 12 6 78 7 70 8 71 9 77 10 72 12
REMARK SMILES IDX 76 13 73 14 11 15 7 16 8 17 80 18 9 19 10 20 79 21 81 22
REMARK SMILES IDX 6 23 3 24 4 25 83 26 5 27 82 28 2 29 1 30 74 31 75 32 18 33
REMARK SMILES IDX 19 34 20 35 21 36 22 37 23 38 69 39 24 40 68 41 25 42 26 43
REMARK SMILES IDX 27 44 62 45 28 46 67 47 61 48 63 49 29 50 66 51 60 52 59 53
REMARK SMILES IDX 30 55 52 56 37 57 51 58 38 59 41 60 50 61 64 62 39 63 40 64
REMARK SMILES IDX 49 66 65 67 42 68 31 69 32 70 36 71 33 72 35 73 34 74 53 75
REMARK SMILES IDX 54 76 58 77 55 78 57 79 56 80 43 81 44 82 48 83 45 84 47 85
REMARK SMILES IDX 46 86
REMARK H PARENT 70 11 63 54 41 65
REMARK Flexibility Score: inf
ROOT
ATOM      1  C   UNL A   1      33.859  31.673  27.630  1.00  0.00     0.275 C 
ENDROOT
BRANCH   1   2
ATOM      2  O   UNL A   1      33.145  30.420  27.566  1.00  0.00    -0.457 OA
BRANCH   2   3
ATOM      3  C   UNL A   1      33.721  29.487  26.761  1.00  0.00     0.355 C 
ATOM      4  O   UNL A   1      34.882  29.111  26.856  1.00  0.00    -0.244 OA
BRANCH   3   5
ATOM      5  C   UNL A   1      32.783  28.933  25.818  1.00  0.00     0.133 A 
ATOM      6  C   UNL A   1      32.382  27.635  25.520  1.00  0.00     0.016 A 
ATOM      7  C   UNL A   1      31.192  27.725  24.712  1.00  0.00     0.008 A 
ATOM      8  N   UNL A   1      32.061  29.744  24.984  1.00  0.00    -0.348 N 
ATOM      9  C   UNL A   1      31.022  29.075  24.413  1.00  0.00     0.050 A 
ATOM     10  C   UNL A   1      30.229  26.836  24.183  1.00  0.00     0.015 A 
ATOM     11  H   UNL A   1      32.267  30.693  24.819  1.00  0.00     0.167 HD
ATOM     12  C   UNL A   1      29.985  29.587  23.633  1.00  0.00     0.073 A 
ATOM     13  C   UNL A   1      29.146  27.340  23.418  1.00  0.00     0.047 A 
ATOM     14  C   UNL A   1      29.030  28.701  23.142  1.00  0.00     0.120 A 
BRANCH   6  15
ATOM     15  C   UNL A   1      33.151  26.483  25.895  1.00  0.00     0.032 C 
ATOM     16  N   UNL A   1      33.675  23.285  24.420  1.00  0.00    -0.261 N 
ATOM     17  C   UNL A   1      33.794  24.142  25.524  1.00  0.00     0.270 C 
ATOM     18  C   UNL A   1      33.656  23.924  23.179  1.00  0.00     0.152 C 
ATOM     19  O   UNL A   1      33.929  23.847  26.706  1.00  0.00    -0.268 OA
ATOM     20  C   UNL A   1      33.678  25.559  25.074  1.00  0.00     0.081 C 
ATOM     21  S   UNL A   1      33.949  25.651  23.389  1.00  0.00    -0.054 SA
ATOM     22  S   UNL A   1      33.278  23.353  21.649  1.00  0.00    -0.051 S 
BRANCH  16  23
ATOM     23  C   UNL A   1      33.537  21.862  24.614  1.00  0.00     0.051 A 
ATOM     24  C   UNL A   1      33.277  19.053  24.998  1.00  0.00     0.119 A 
ATOM     25  C   UNL A   1      34.530  19.633  24.820  1.00  0.00     0.048 A 
ATOM     26  C   UNL A   1      32.155  19.874  25.007  1.00  0.00     0.048 A 
ATOM     27  C   UNL A   1      34.659  21.017  24.624  1.00  0.00     0.030 A 
ATOM     28  C   UNL A   1      32.286  21.255  24.801  1.00  0.00     0.030 A 
BRANCH  24  29
ATOM     29  O   UNL A   1      33.269  17.696  25.158  1.00  0.00    -0.497 OA
ATOM     30  C   UNL A   1      34.380  16.997  24.605  1.00  0.00     0.278 C 
ENDBRANCH  24  29
ENDBRANCH  16  23
ENDBRANCH   6  15
BRANCH  14  31
ATOM     31  O   UNL A   1      28.061  29.321  22.401  1.00  0.00    -0.497 OA
ATOM     32  C   UNL A   1      28.227  30.698  22.106  1.00  0.00     0.278 C 
ENDBRANCH  14  31
ENDBRANCH   3   5
ENDBRANCH   2   3
ENDBRANCH   1   2
BRANCH   1  33
ATOM     33  C   UNL A   1      32.912  32.878  27.625  1.00  0.00     0.275 C 
BRANCH  33  34
ATOM     34  O   UNL A   1      33.588  34.100  27.988  1.00  0.00    -0.458 OA
BRANCH  34  35
ATOM     35  C   UNL A   1      33.478  34.442  29.288  1.00  0.00     0.338 C 
ATOM     36  O   UNL A   1      32.528  34.978  29.838  1.00  0.00    -0.246 OA
BRANCH  35  37
ATOM     37  C   UNL A   1      34.620  33.956  30.070  1.00  0.00     0.060 A 
ATOM     38  C   UNL A   1      35.893  34.255  29.593  1.00  0.00     0.016 A 
ATOM     39  C   UNL A   1      34.453  33.003  31.070  1.00  0.00     0.016 A 
ATOM     40  C   UNL A   1      36.982  33.496  29.979  1.00  0.00     0.010 A 
ATOM     41  C   UNL A   1      35.578  32.334  31.564  1.00  0.00     0.010 A 
ATOM     42  C   UNL A   1      36.844  32.540  30.986  1.00  0.00    -0.014 A 
BRANCH  42  43
ATOM     43  C   UNL A   1      38.027  31.742  31.388  1.00  0.00     0.031 A 
ATOM     44  C   UNL A   1      38.765  32.081  32.652  1.00  0.00     0.074 A 
ATOM     45  C   UNL A   1      38.406  30.683  30.646  1.00  0.00     0.049 A 
ATOM     46  N   UNL A   1      39.927  31.651  33.067  1.00  0.00    -0.248 NA
ATOM     47  C   UNL A   1      38.121  33.048  33.557  1.00  0.00     0.031 C 
ATOM     48  C   UNL A   1      37.725  30.197  29.442  1.00  0.00     0.029 A 
ATOM     49  N   UNL A   1      39.451  29.809  30.807  1.00  0.00    -0.354 N 
ATOM     50  C   UNL A   1      40.192  32.354  34.236  1.00  0.00     0.074 A 
ATOM     51  C   UNL A   1      39.061  33.224  34.475  1.00  0.00     0.031 C 
ATOM     52  C   UNL A   1      38.333  29.086  29.008  1.00  0.00     0.029 A 
ATOM     53  C   UNL A   1      39.510  28.845  29.831  1.00  0.00     0.049 A 
ATOM     54  H   UNL A   1      40.094  29.867  31.549  1.00  0.00     0.167 HD
ATOM     55  C   UNL A   1      41.293  32.289  35.021  1.00  0.00     0.031 A 
ATOM     56  C   UNL A   1      40.439  27.905  29.587  1.00  0.00     0.031 A 
ATOM     57  C   UNL A   1      42.383  31.378  34.796  1.00  0.00     0.049 A 
ATOM     58  C   UNL A   1      41.653  27.854  30.465  1.00  0.00     0.074 A 
ATOM     59  C   UNL A   1      43.554  31.229  35.518  1.00  0.00     0.029 A 
ATOM     60  N   UNL A   1      42.418  30.437  33.776  1.00  0.00    -0.354 N 
ATOM     61  N   UNL A   1      41.947  28.598  31.505  1.00  0.00    -0.248 NA
ATOM     62  C   UNL A   1      42.674  26.859  30.119  1.00  0.00     0.031 C 
ATOM     63  C   UNL A   1      44.309  30.215  34.917  1.00  0.00     0.029 A 
ATOM     64  C   UNL A   1      43.591  29.707  33.845  1.00  0.00     0.049 A 
ATOM     65  H   UNL A   1      41.711  30.308  33.102  1.00  0.00     0.167 HD
ATOM     66  C   UNL A   1      43.191  28.165  31.936  1.00  0.00     0.074 A 
ATOM     67  C   UNL A   1      43.581  27.075  31.063  1.00  0.00     0.031 C 
ATOM     68  C   UNL A   1      43.951  28.635  32.955  1.00  0.00     0.031 A 
BRANCH  55  69
ATOM     69  C   UNL A   1      41.395  33.279  36.148  1.00  0.00    -0.014 A 
ATOM     70  C   UNL A   1      40.835  33.028  37.410  1.00  0.00     0.009 A 
ATOM     71  C   UNL A   1      42.073  34.490  35.934  1.00  0.00     0.009 A 
ATOM     72  C   UNL A   1      40.918  33.989  38.422  1.00  0.00     0.001 A 
ATOM     73  C   UNL A   1      42.178  35.437  36.955  1.00  0.00     0.001 A 
ATOM     74  C   UNL A   1      41.591  35.190  38.194  1.00  0.00     0.000 A 
ENDBRANCH  55  69
BRANCH  56  75
ATOM     75  C   UNL A   1      40.280  26.997  28.423  1.00  0.00    -0.014 A 
ATOM     76  C   UNL A   1      40.894  27.291  27.198  1.00  0.00     0.009 A 
ATOM     77  C   UNL A   1      39.549  25.803  28.547  1.00  0.00     0.009 A 
ATOM     78  C   UNL A   1      40.777  26.409  26.120  1.00  0.00     0.001 A 
ATOM     79  C   UNL A   1      39.459  24.910  27.479  1.00  0.00     0.001 A 
ATOM     80  C   UNL A   1      40.069  25.217  26.264  1.00  0.00     0.000 A 
ENDBRANCH  56  75
BRANCH  68  81
ATOM     81  C   UNL A   1      45.266  27.954  33.177  1.00  0.00    -0.014 A 
ATOM     82  C   UNL A   1      45.363  26.826  34.006  1.00  0.00     0.009 A 
ATOM     83  C   UNL A   1      46.416  28.434  32.532  1.00  0.00     0.009 A 
ATOM     84  C   UNL A   1      46.597  26.208  34.209  1.00  0.00     0.001 A 
ATOM     85  C   UNL A   1      47.644  27.801  32.721  1.00  0.00     0.001 A 
ATOM     86  C   UNL A   1      47.735  26.694  33.565  1.00  0.00     0.000 A 
ENDBRANCH  68  81
ENDBRANCH  42  43
ENDBRANCH  35  37
ENDBRANCH  34  35
ENDBRANCH  33  34
ENDBRANCH   1  33
TORSDOF 15
ENDMDL
