MODEL 1
REMARK VINA RESULT:     -11.3      0.000      0.000
REMARK SMILES Cc1ccc(NC(=O)c2ccc(SCC(=O)OCCOC(=O)c3ccc(-c4c5nc(c(-c6ccccc6)c6ccc([nH]6)c(-c6ccccc6)c6nc(c(-c7ccccc7)c7ccc4[nH]7)C=C6)C=C5)cc3)c([N+](=O)[O-])c2)cc1
REMARK SMILES IDX 18 1 17 2 15 3 16 4 14 5 13 6 12 7 9 8 10 9 75 10 11 11
REMARK SMILES IDX 71 12 7 13 6 14 8 16 5 17 1 18 2 19 3 20 77 21 4 22 76 23
REMARK SMILES IDX 72 24 73 25 74 26 19 27 20 28 21 29 22 30 23 31 24 32 70 33
REMARK SMILES IDX 25 34 69 35 26 36 27 37 28 38 63 39 29 40 68 41 62 42 64 43
REMARK SMILES IDX 30 44 67 45 61 46 60 47 31 49 53 50 38 51 52 52 39 53 42 54
REMARK SMILES IDX 51 55 65 56 40 57 41 58 50 60 66 61 43 62 32 63 33 64 37 65
REMARK SMILES IDX 34 66 36 67 35 68 54 69 55 70 59 71 56 72 58 73 57 74 44 75
REMARK SMILES IDX 45 76 49 77 46 78 48 79 47 80
REMARK H PARENT 6 15 64 48 42 59
REMARK Flexibility Score: inf
ROOT
ATOM      1  C   UNL A   1      32.866  29.827  25.570  1.00  0.00     0.274 C 
ENDROOT
BRANCH   1   2
ATOM      2  O   UNL A   1      31.991  28.752  25.192  1.00  0.00    -0.461 OA
BRANCH   2   3
ATOM      3  C   UNL A   1      31.885  28.604  23.842  1.00  0.00     0.316 C 
ATOM      4  O   UNL A   1      32.728  29.029  23.054  1.00  0.00    -0.251 OA
BRANCH   3   5
ATOM      5  C   UNL A   1      30.758  27.712  23.387  1.00  0.00     0.197 C 
BRANCH   5   6
ATOM      6  S   UNL A   1      30.760  25.944  23.796  1.00  0.00    -0.107 SA
BRANCH   6   7
ATOM      7  C   UNL A   1      32.436  25.444  24.205  1.00  0.00     0.086 A 
ATOM      8  C   UNL A   1      34.777  24.246  25.310  1.00  0.00     0.047 A 
ATOM      9  C   UNL A   1      33.725  24.628  26.137  1.00  0.00     0.015 A 
ATOM     10  C   UNL A   1      34.658  24.411  23.928  1.00  0.00     0.100 A 
ATOM     11  C   UNL A   1      32.587  25.232  25.592  1.00  0.00     0.023 A 
ATOM     12  C   UNL A   1      33.489  24.995  23.372  1.00  0.00     0.283 A 
BRANCH   8  13
ATOM     13  C   UNL A   1      35.917  23.487  25.886  1.00  0.00     0.255 C 
ATOM     14  N   UNL A   1      35.750  22.191  26.315  1.00  0.00    -0.322 N 
ATOM     15  H   UNL A   1      36.262  21.945  27.119  1.00  0.00     0.170 HD
ATOM     16  O   UNL A   1      36.964  24.094  26.103  1.00  0.00    -0.269 OA
BRANCH  14  17
ATOM     17  C   UNL A   1      34.957  21.164  25.774  1.00  0.00     0.041 A 
ATOM     18  C   UNL A   1      32.407  18.096  24.127  1.00  0.00     0.044 C 
ATOM     19  C   UNL A   1      33.284  19.115  24.790  1.00  0.00    -0.051 A 
ATOM     20  C   UNL A   1      34.654  19.113  24.532  1.00  0.00     0.005 A 
ATOM     21  C   UNL A   1      32.767  20.115  25.613  1.00  0.00     0.005 A 
ATOM     22  C   UNL A   1      35.482  20.147  24.986  1.00  0.00     0.026 A 
ATOM     23  C   UNL A   1      33.606  21.111  26.133  1.00  0.00     0.026 A 
ENDBRANCH  14  17
ENDBRANCH   8  13
BRANCH  12  24
ATOM     24  N   UNL A   1      33.449  25.077  21.904  1.00  0.00     0.063 N 
ATOM     25  O   UNL A   1      33.325  24.035  21.250  1.00  0.00    -0.258 OA
ATOM     26  O   UNL A   1      33.529  26.201  21.383  1.00  0.00    -0.258 OA
ENDBRANCH  12  24
ENDBRANCH   6   7
ENDBRANCH   5   6
ENDBRANCH   3   5
ENDBRANCH   2   3
ENDBRANCH   1   2
BRANCH   1  27
ATOM     27  C   UNL A   1      33.866  29.409  26.649  1.00  0.00     0.275 C 
BRANCH  27  28
ATOM     28  O   UNL A   1      34.210  30.308  27.739  1.00  0.00    -0.458 OA
BRANCH  28  29
ATOM     29  C   UNL A   1      35.311  31.069  27.860  1.00  0.00     0.338 C 
ATOM     30  O   UNL A   1      35.358  32.263  27.583  1.00  0.00    -0.246 OA
BRANCH  29  31
ATOM     31  C   UNL A   1      36.514  30.358  28.243  1.00  0.00     0.060 A 
ATOM     32  C   UNL A   1      36.571  29.670  29.468  1.00  0.00     0.016 A 
ATOM     33  C   UNL A   1      37.538  30.310  27.313  1.00  0.00     0.016 A 
ATOM     34  C   UNL A   1      37.659  28.871  29.747  1.00  0.00     0.010 A 
ATOM     35  C   UNL A   1      38.497  29.371  27.488  1.00  0.00     0.010 A 
ATOM     36  C   UNL A   1      38.607  28.754  28.742  1.00  0.00    -0.014 A 
BRANCH  36  37
ATOM     37  C   UNL A   1      39.950  28.283  28.966  1.00  0.00     0.031 A 
ATOM     38  C   UNL A   1      40.293  26.907  28.606  1.00  0.00     0.074 A 
ATOM     39  C   UNL A   1      40.769  29.328  29.238  1.00  0.00     0.049 A 
ATOM     40  N   UNL A   1      41.299  26.265  29.078  1.00  0.00    -0.248 NA
ATOM     41  C   UNL A   1      39.482  26.099  27.688  1.00  0.00     0.031 C 
ATOM     42  C   UNL A   1      42.200  29.481  29.107  1.00  0.00     0.029 A 
ATOM     43  N   UNL A   1      40.375  30.576  29.764  1.00  0.00    -0.354 N 
ATOM     44  C   UNL A   1      41.517  25.222  28.202  1.00  0.00     0.074 A 
ATOM     45  C   UNL A   1      40.267  25.028  27.511  1.00  0.00     0.031 C 
ATOM     46  C   UNL A   1      42.582  30.542  29.851  1.00  0.00     0.029 A 
ATOM     47  C   UNL A   1      41.407  31.002  30.589  1.00  0.00     0.049 A 
ATOM     48  H   UNL A   1      39.532  31.051  29.582  1.00  0.00     0.167 HD
ATOM     49  C   UNL A   1      42.804  24.844  27.953  1.00  0.00     0.031 A 
ATOM     50  C   UNL A   1      41.236  30.963  31.948  1.00  0.00     0.031 A 
ATOM     51  C   UNL A   1      43.725  25.682  28.727  1.00  0.00     0.049 A 
ATOM     52  C   UNL A   1      42.146  29.897  32.516  1.00  0.00     0.074 A 
ATOM     53  C   UNL A   1      44.470  26.795  28.369  1.00  0.00     0.029 A 
ATOM     54  N   UNL A   1      43.647  25.689  30.116  1.00  0.00    -0.354 N 
ATOM     55  N   UNL A   1      42.452  28.791  31.886  1.00  0.00    -0.248 NA
ATOM     56  C   UNL A   1      42.853  30.043  33.783  1.00  0.00     0.031 C 
ATOM     57  C   UNL A   1      44.749  27.528  29.555  1.00  0.00     0.029 A 
ATOM     58  C   UNL A   1      44.165  26.868  30.624  1.00  0.00     0.049 A 
ATOM     59  H   UNL A   1      43.276  24.959  30.661  1.00  0.00     0.167 HD
ATOM     60  C   UNL A   1      43.476  28.175  32.548  1.00  0.00     0.074 A 
ATOM     61  C   UNL A   1      43.650  28.959  33.761  1.00  0.00     0.031 C 
ATOM     62  C   UNL A   1      44.168  27.106  32.059  1.00  0.00     0.031 A 
BRANCH  49  63
ATOM     63  C   UNL A   1      43.250  24.008  26.774  1.00  0.00    -0.014 A 
ATOM     64  C   UNL A   1      43.124  22.606  26.844  1.00  0.00     0.009 A 
ATOM     65  C   UNL A   1      43.804  24.513  25.586  1.00  0.00     0.009 A 
ATOM     66  C   UNL A   1      43.573  21.757  25.824  1.00  0.00     0.001 A 
ATOM     67  C   UNL A   1      44.273  23.669  24.565  1.00  0.00     0.001 A 
ATOM     68  C   UNL A   1      44.161  22.289  24.685  1.00  0.00     0.000 A 
ENDBRANCH  49  63
BRANCH  50  69
ATOM     69  C   UNL A   1      39.823  31.224  32.399  1.00  0.00    -0.014 A 
ATOM     70  C   UNL A   1      39.063  30.128  32.870  1.00  0.00     0.009 A 
ATOM     71  C   UNL A   1      39.369  32.514  32.714  1.00  0.00     0.009 A 
ATOM     72  C   UNL A   1      37.977  30.310  33.736  1.00  0.00     0.001 A 
ATOM     73  C   UNL A   1      38.262  32.693  33.562  1.00  0.00     0.001 A 
ATOM     74  C   UNL A   1      37.593  31.595  34.105  1.00  0.00     0.000 A 
ENDBRANCH  50  69
BRANCH  62  75
ATOM     75  C   UNL A   1      45.009  26.202  32.909  1.00  0.00    -0.014 A 
ATOM     76  C   UNL A   1      44.457  25.258  33.783  1.00  0.00     0.009 A 
ATOM     77  C   UNL A   1      46.402  26.151  32.694  1.00  0.00     0.009 A 
ATOM     78  C   UNL A   1      45.268  24.345  34.460  1.00  0.00     0.001 A 
ATOM     79  C   UNL A   1      47.206  25.201  33.319  1.00  0.00     0.001 A 
ATOM     80  C   UNL A   1      46.638  24.309  34.219  1.00  0.00     0.000 A 
ENDBRANCH  62  75
ENDBRANCH  36  37
ENDBRANCH  29  31
ENDBRANCH  28  29
ENDBRANCH  27  28
ENDBRANCH   1  27
TORSDOF 16
ENDMDL
MODEL 2
REMARK VINA RESULT:     -11.1      2.717      8.263
REMARK SMILES Cc1ccc(NC(=O)c2ccc(SCC(=O)OCCOC(=O)c3ccc(-c4c5nc(c(-c6ccccc6)c6ccc([nH]6)c(-c6ccccc6)c6nc(c(-c7ccccc7)c7ccc4[nH]7)C=C6)C=C5)cc3)c([N+](=O)[O-])c2)cc1
REMARK SMILES IDX 18 1 17 2 15 3 16 4 14 5 13 6 12 7 9 8 10 9 75 10 11 11
REMARK SMILES IDX 71 12 7 13 6 14 8 16 5 17 1 18 2 19 3 20 77 21 4 22 76 23
REMARK SMILES IDX 72 24 73 25 74 26 19 27 20 28 21 29 22 30 23 31 24 32 70 33
REMARK SMILES IDX 25 34 69 35 26 36 27 37 28 38 63 39 29 40 68 41 62 42 64 43
REMARK SMILES IDX 30 44 67 45 61 46 60 47 31 49 53 50 38 51 52 52 39 53 42 54
REMARK SMILES IDX 51 55 65 56 40 57 41 58 50 60 66 61 43 62 32 63 33 64 37 65
REMARK SMILES IDX 34 66 36 67 35 68 54 69 55 70 59 71 56 72 58 73 57 74 44 75
REMARK SMILES IDX 45 76 49 77 46 78 48 79 47 80
REMARK H PARENT 6 15 64 48 42 59
REMARK Flexibility Score: inf
ROOT
ATOM      1  C   UNL A   1      36.334  22.732  24.209  1.00  0.00     0.274 C 
ENDROOT
BRANCH   1   2
ATOM      2  O   UNL A   1      34.941  22.475  24.449  1.00  0.00    -0.461 OA
BRANCH   2   3
ATOM      3  C   UNL A   1      34.310  23.511  25.068  1.00  0.00     0.316 C 
ATOM      4  O   UNL A   1      34.863  24.583  25.310  1.00  0.00    -0.251 OA
BRANCH   3   5
ATOM      5  C   UNL A   1      32.827  23.326  25.265  1.00  0.00     0.197 C 
BRANCH   5   6
ATOM      6  S   UNL A   1      31.712  23.248  23.835  1.00  0.00    -0.107 SA
BRANCH   6   7
ATOM      7  C   UNL A   1      31.300  24.921  23.326  1.00  0.00     0.086 A 
ATOM      8  C   UNL A   1      30.586  27.680  23.197  1.00  0.00     0.047 A 
ATOM      9  C   UNL A   1      29.949  26.830  24.096  1.00  0.00     0.015 A 
ATOM     10  C   UNL A   1      31.612  27.180  22.391  1.00  0.00     0.100 A 
ATOM     11  C   UNL A   1      30.289  25.473  24.142  1.00  0.00     0.023 A 
ATOM     12  C   UNL A   1      31.980  25.811  22.462  1.00  0.00     0.283 A 
BRANCH   8  13
ATOM     13  C   UNL A   1      30.309  29.138  23.253  1.00  0.00     0.255 C 
ATOM     14  N   UNL A   1      30.666  29.878  24.356  1.00  0.00    -0.322 N 
ATOM     15  H   UNL A   1      30.038  30.594  24.603  1.00  0.00     0.170 HD
ATOM     16  O   UNL A   1      29.625  29.630  22.357  1.00  0.00    -0.269 OA
BRANCH  14  17
ATOM     17  C   UNL A   1      31.795  29.762  25.185  1.00  0.00     0.041 A 
ATOM     18  C   UNL A   1      35.180  29.432  27.843  1.00  0.00     0.044 C 
ATOM     19  C   UNL A   1      34.033  29.643  26.901  1.00  0.00    -0.051 A 
ATOM     20  C   UNL A   1      34.052  29.030  25.649  1.00  0.00     0.005 A 
ATOM     21  C   UNL A   1      32.907  30.384  27.258  1.00  0.00     0.005 A 
ATOM     22  C   UNL A   1      32.931  29.054  24.810  1.00  0.00     0.026 A 
ATOM     23  C   UNL A   1      31.811  30.474  26.389  1.00  0.00     0.026 A 
ENDBRANCH  14  17
ENDBRANCH   8  13
BRANCH  12  24
ATOM     24  N   UNL A   1      33.104  25.403  21.605  1.00  0.00     0.063 N 
ATOM     25  O   UNL A   1      34.162  25.045  22.136  1.00  0.00    -0.258 OA
ATOM     26  O   UNL A   1      32.935  25.427  20.374  1.00  0.00    -0.258 OA
ENDBRANCH  12  24
ENDBRANCH   6   7
ENDBRANCH   5   6
ENDBRANCH   3   5
ENDBRANCH   2   3
ENDBRANCH   1   2
BRANCH   1  27
ATOM     27  C   UNL A   1      37.228  21.596  24.708  1.00  0.00     0.275 C 
BRANCH  27  28
ATOM     28  O   UNL A   1      37.939  21.704  25.972  1.00  0.00    -0.458 OA
BRANCH  28  29
ATOM     29  C   UNL A   1      39.248  21.497  26.198  1.00  0.00     0.338 C 
ATOM     30  O   UNL A   1      39.819  20.428  26.011  1.00  0.00    -0.246 OA
BRANCH  29  31
ATOM     31  C   UNL A   1      39.954  22.609  26.800  1.00  0.00     0.060 A 
ATOM     32  C   UNL A   1      40.770  22.405  27.926  1.00  0.00     0.016 A 
ATOM     33  C   UNL A   1      39.863  23.833  26.157  1.00  0.00     0.016 A 
ATOM     34  C   UNL A   1      41.556  23.437  28.390  1.00  0.00     0.010 A 
ATOM     35  C   UNL A   1      40.782  24.774  26.475  1.00  0.00     0.010 A 
ATOM     36  C   UNL A   1      41.529  24.609  27.650  1.00  0.00    -0.014 A 
BRANCH  36  37
ATOM     37  C   UNL A   1      41.975  25.881  28.158  1.00  0.00     0.031 A 
ATOM     38  C   UNL A   1      40.981  26.883  28.547  1.00  0.00     0.074 A 
ATOM     39  C   UNL A   1      43.297  25.827  28.452  1.00  0.00     0.049 A 
ATOM     40  N   UNL A   1      41.222  28.138  28.651  1.00  0.00    -0.248 NA
ATOM     41  C   UNL A   1      39.577  26.548  28.814  1.00  0.00     0.031 C 
ATOM     42  C   UNL A   1      44.110  26.614  29.351  1.00  0.00     0.029 A 
ATOM     43  N   UNL A   1      44.236  24.939  27.889  1.00  0.00    -0.354 N 
ATOM     44  C   UNL A   1      40.200  28.648  29.426  1.00  0.00     0.074 A 
ATOM     45  C   UNL A   1      39.118  27.703  29.310  1.00  0.00     0.031 C 
ATOM     46  C   UNL A   1      45.406  26.437  29.015  1.00  0.00     0.029 A 
ATOM     47  C   UNL A   1      45.432  25.636  27.792  1.00  0.00     0.049 A 
ATOM     48  H   UNL A   1      44.074  24.006  27.618  1.00  0.00     0.167 HD
ATOM     49  C   UNL A   1      40.493  29.648  30.307  1.00  0.00     0.031 A 
ATOM     50  C   UNL A   1      45.867  26.050  26.560  1.00  0.00     0.031 A 
ATOM     51  C   UNL A   1      41.918  29.982  30.222  1.00  0.00     0.049 A 
ATOM     52  C   UNL A   1      45.779  27.559  26.502  1.00  0.00     0.074 A 
ATOM     53  C   UNL A   1      42.996  29.602  31.008  1.00  0.00     0.029 A 
ATOM     54  N   UNL A   1      42.448  30.437  29.019  1.00  0.00    -0.354 N 
ATOM     55  N   UNL A   1      44.858  28.257  27.115  1.00  0.00    -0.248 NA
ATOM     56  C   UNL A   1      46.776  28.391  25.838  1.00  0.00     0.031 C 
ATOM     57  C   UNL A   1      44.173  29.737  30.221  1.00  0.00     0.029 A 
ATOM     58  C   UNL A   1      43.807  30.184  28.961  1.00  0.00     0.049 A 
ATOM     59  H   UNL A   1      41.929  30.878  28.308  1.00  0.00     0.167 HD
ATOM     60  C   UNL A   1      45.205  29.578  27.073  1.00  0.00     0.074 A 
ATOM     61  C   UNL A   1      46.376  29.620  26.210  1.00  0.00     0.031 C 
ATOM     62  C   UNL A   1      44.571  30.557  27.781  1.00  0.00     0.031 A 
BRANCH  49  63
ATOM     63  C   UNL A   1      39.623  30.058  31.475  1.00  0.00    -0.014 A 
ATOM     64  C   UNL A   1      38.525  30.910  31.242  1.00  0.00     0.009 A 
ATOM     65  C   UNL A   1      39.820  29.666  32.809  1.00  0.00     0.009 A 
ATOM     66  C   UNL A   1      37.710  31.388  32.276  1.00  0.00     0.001 A 
ATOM     67  C   UNL A   1      39.019  30.155  33.856  1.00  0.00     0.001 A 
ATOM     68  C   UNL A   1      37.965  31.020  33.589  1.00  0.00     0.000 A 
ENDBRANCH  49  63
BRANCH  50  69
ATOM     69  C   UNL A   1      45.503  25.119  25.434  1.00  0.00    -0.014 A 
ATOM     70  C   UNL A   1      46.496  24.229  24.961  1.00  0.00     0.009 A 
ATOM     71  C   UNL A   1      44.169  24.842  25.098  1.00  0.00     0.009 A 
ATOM     72  C   UNL A   1      46.158  23.040  24.302  1.00  0.00     0.001 A 
ATOM     73  C   UNL A   1      43.836  23.660  24.412  1.00  0.00     0.001 A 
ATOM     74  C   UNL A   1      44.823  22.742  24.052  1.00  0.00     0.000 A 
ENDBRANCH  50  69
BRANCH  62  75
ATOM     75  C   UNL A   1      44.683  32.017  27.461  1.00  0.00    -0.014 A 
ATOM     76  C   UNL A   1      45.466  32.899  28.215  1.00  0.00     0.009 A 
ATOM     77  C   UNL A   1      44.146  32.501  26.249  1.00  0.00     0.009 A 
ATOM     78  C   UNL A   1      45.652  34.222  27.810  1.00  0.00     0.001 A 
ATOM     79  C   UNL A   1      44.381  33.802  25.810  1.00  0.00     0.001 A 
ATOM     80  C   UNL A   1      45.120  34.668  26.604  1.00  0.00     0.000 A 
ENDBRANCH  62  75
ENDBRANCH  36  37
ENDBRANCH  29  31
ENDBRANCH  28  29
ENDBRANCH  27  28
ENDBRANCH   1  27
TORSDOF 16
ENDMDL
MODEL 3
REMARK VINA RESULT:     -11.0      2.755      8.255
REMARK SMILES Cc1ccc(NC(=O)c2ccc(SCC(=O)OCCOC(=O)c3ccc(-c4c5nc(c(-c6ccccc6)c6ccc([nH]6)c(-c6ccccc6)c6nc(c(-c7ccccc7)c7ccc4[nH]7)C=C6)C=C5)cc3)c([N+](=O)[O-])c2)cc1
REMARK SMILES IDX 18 1 17 2 15 3 16 4 14 5 13 6 12 7 9 8 10 9 75 10 11 11
REMARK SMILES IDX 71 12 7 13 6 14 8 16 5 17 1 18 2 19 3 20 77 21 4 22 76 23
REMARK SMILES IDX 72 24 73 25 74 26 19 27 20 28 21 29 22 30 23 31 24 32 70 33
REMARK SMILES IDX 25 34 69 35 26 36 27 37 28 38 63 39 29 40 68 41 62 42 64 43
REMARK SMILES IDX 30 44 67 45 61 46 60 47 31 49 53 50 38 51 52 52 39 53 42 54
REMARK SMILES IDX 51 55 65 56 40 57 41 58 50 60 66 61 43 62 32 63 33 64 37 65
REMARK SMILES IDX 34 66 36 67 35 68 54 69 55 70 59 71 56 72 58 73 57 74 44 75
REMARK SMILES IDX 45 76 49 77 46 78 48 79 47 80
REMARK H PARENT 6 15 64 48 42 59
REMARK Flexibility Score: inf
ROOT
ATOM      1  C   UNL A   1      36.571  21.763  24.392  1.00  0.00     0.274 C 
ENDROOT
BRANCH   1   2
ATOM      2  O   UNL A   1      35.265  22.055  24.915  1.00  0.00    -0.461 OA
BRANCH   2   3
ATOM      3  C   UNL A   1      34.426  20.983  24.875  1.00  0.00     0.316 C 
ATOM      4  O   UNL A   1      34.826  19.822  24.801  1.00  0.00    -0.251 OA
BRANCH   3   5
ATOM      5  C   UNL A   1      32.974  21.303  25.123  1.00  0.00     0.197 C 
BRANCH   5   6
ATOM      6  S   UNL A   1      32.165  22.661  24.231  1.00  0.00    -0.107 SA
BRANCH   6   7
ATOM      7  C   UNL A   1      32.568  24.212  25.042  1.00  0.00     0.086 A 
ATOM      8  C   UNL A   1      33.350  26.879  25.688  1.00  0.00     0.047 A 
ATOM      9  C   UNL A   1      34.059  26.147  24.740  1.00  0.00     0.015 A 
ATOM     10  C   UNL A   1      32.222  26.312  26.286  1.00  0.00     0.100 A 
ATOM     11  C   UNL A   1      33.683  24.833  24.440  1.00  0.00     0.023 A 
ATOM     12  C   UNL A   1      31.821  24.990  25.958  1.00  0.00     0.283 A 
BRANCH   8  13
ATOM     13  C   UNL A   1      33.678  28.312  25.896  1.00  0.00     0.255 C 
ATOM     14  N   UNL A   1      33.280  29.262  24.984  1.00  0.00    -0.322 N 
ATOM     15  H   UNL A   1      33.917  29.997  24.838  1.00  0.00     0.170 HD
ATOM     16  O   UNL A   1      34.435  28.602  26.820  1.00  0.00    -0.269 OA
BRANCH  14  17
ATOM     17  C   UNL A   1      32.096  29.338  24.230  1.00  0.00     0.041 A 
ATOM     18  C   UNL A   1      28.435  29.701  21.973  1.00  0.00     0.044 C 
ATOM     19  C   UNL A   1      29.656  29.517  22.823  1.00  0.00    -0.051 A 
ATOM     20  C   UNL A   1      30.686  28.692  22.376  1.00  0.00     0.005 A 
ATOM     21  C   UNL A   1      29.828  30.199  24.029  1.00  0.00     0.005 A 
ATOM     22  C   UNL A   1      31.912  28.628  23.049  1.00  0.00     0.026 A 
ATOM     23  C   UNL A   1      31.027  30.079  24.745  1.00  0.00     0.026 A 
ENDBRANCH  14  17
ENDBRANCH   8  13
BRANCH  12  24
ATOM     24  N   UNL A   1      30.593  24.511  26.611  1.00  0.00     0.063 N 
ATOM     25  O   UNL A   1      30.629  23.454  27.251  1.00  0.00    -0.258 OA
ATOM     26  O   UNL A   1      29.567  25.203  26.498  1.00  0.00    -0.258 OA
ENDBRANCH  12  24
ENDBRANCH   6   7
ENDBRANCH   5   6
ENDBRANCH   3   5
ENDBRANCH   2   3
ENDBRANCH   1   2
BRANCH   1  27
ATOM     27  C   UNL A   1      37.650  21.790  25.475  1.00  0.00     0.275 C 
BRANCH  27  28
ATOM     28  O   UNL A   1      38.327  23.028  25.827  1.00  0.00    -0.458 OA
BRANCH  28  29
ATOM     29  C   UNL A   1      39.433  23.175  26.575  1.00  0.00     0.338 C 
ATOM     30  O   UNL A   1      40.161  22.249  26.918  1.00  0.00    -0.246 OA
BRANCH  29  31
ATOM     31  C   UNL A   1      39.672  24.516  27.068  1.00  0.00     0.060 A 
ATOM     32  C   UNL A   1      40.354  25.453  26.271  1.00  0.00     0.016 A 
ATOM     33  C   UNL A   1      39.115  24.844  28.292  1.00  0.00     0.016 A 
ATOM     34  C   UNL A   1      40.435  26.764  26.686  1.00  0.00     0.010 A 
ATOM     35  C   UNL A   1      39.008  26.158  28.597  1.00  0.00     0.010 A 
ATOM     36  C   UNL A   1      39.763  27.080  27.857  1.00  0.00    -0.014 A 
BRANCH  36  37
ATOM     37  C   UNL A   1      40.024  28.267  28.629  1.00  0.00     0.031 A 
ATOM     38  C   UNL A   1      39.059  29.367  28.597  1.00  0.00     0.074 A 
ATOM     39  C   UNL A   1      41.035  28.040  29.502  1.00  0.00     0.049 A 
ATOM     40  N   UNL A   1      39.333  30.579  28.917  1.00  0.00    -0.248 NA
ATOM     41  C   UNL A   1      37.674  29.196  28.143  1.00  0.00     0.031 C 
ATOM     42  C   UNL A   1      41.389  28.686  30.746  1.00  0.00     0.029 A 
ATOM     43  N   UNL A   1      42.046  27.066  29.367  1.00  0.00    -0.354 N 
ATOM     44  C   UNL A   1      38.116  31.179  29.166  1.00  0.00     0.074 A 
ATOM     45  C   UNL A   1      37.139  30.380  28.470  1.00  0.00     0.031 C 
ATOM     46  C   UNL A   1      42.667  28.365  31.041  1.00  0.00     0.029 A 
ATOM     47  C   UNL A   1      43.201  27.614  29.906  1.00  0.00     0.049 A 
ATOM     48  H   UNL A   1      41.950  26.171  28.966  1.00  0.00     0.167 HD
ATOM     49  C   UNL A   1      38.042  32.102  30.169  1.00  0.00     0.031 A 
ATOM     50  C   UNL A   1      44.204  28.019  29.065  1.00  0.00     0.031 A 
ATOM     51  C   UNL A   1      39.359  32.261  30.794  1.00  0.00     0.049 A 
ATOM     52  C   UNL A   1      44.291  29.529  29.113  1.00  0.00     0.074 A 
ATOM     53  C   UNL A   1      39.893  31.722  31.953  1.00  0.00     0.029 A 
ATOM     54  N   UNL A   1      40.436  32.694  30.027  1.00  0.00    -0.354 N 
ATOM     55  N   UNL A   1      43.255  30.310  29.284  1.00  0.00    -0.248 NA
ATOM     56  C   UNL A   1      45.553  30.258  29.073  1.00  0.00     0.031 C 
ATOM     57  C   UNL A   1      41.310  31.742  31.827  1.00  0.00     0.029 A 
ATOM     58  C   UNL A   1      41.629  32.279  30.590  1.00  0.00     0.049 A 
ATOM     59  H   UNL A   1      40.360  33.222  29.199  1.00  0.00     0.167 HD
ATOM     60  C   UNL A   1      43.697  31.580  29.531  1.00  0.00     0.074 A 
ATOM     61  C   UNL A   1      45.136  31.511  29.326  1.00  0.00     0.031 C 
ATOM     62  C   UNL A   1      42.893  32.601  29.946  1.00  0.00     0.031 A 
BRANCH  49  63
ATOM     63  C   UNL A   1      36.762  32.570  30.825  1.00  0.00    -0.014 A 
ATOM     64  C   UNL A   1      36.065  33.659  30.263  1.00  0.00     0.009 A 
ATOM     65  C   UNL A   1      36.191  32.010  31.981  1.00  0.00     0.009 A 
ATOM     66  C   UNL A   1      34.909  34.195  30.845  1.00  0.00     0.001 A 
ATOM     67  C   UNL A   1      35.042  32.553  32.582  1.00  0.00     0.001 A 
ATOM     68  C   UNL A   1      34.403  33.648  32.015  1.00  0.00     0.000 A 
ENDBRANCH  49  63
BRANCH  50  69
ATOM     69  C   UNL A   1      44.339  27.184  27.820  1.00  0.00    -0.014 A 
ATOM     70  C   UNL A   1      44.016  27.784  26.580  1.00  0.00     0.009 A 
ATOM     71  C   UNL A   1      45.099  26.004  27.793  1.00  0.00     0.009 A 
ATOM     72  C   UNL A   1      44.547  27.304  25.376  1.00  0.00     0.001 A 
ATOM     73  C   UNL A   1      45.608  25.511  26.579  1.00  0.00     0.001 A 
ATOM     74  C   UNL A   1      45.367  26.181  25.379  1.00  0.00     0.000 A 
ENDBRANCH  50  69
BRANCH  62  75
ATOM     75  C   UNL A   1      43.275  34.047  29.851  1.00  0.00    -0.014 A 
ATOM     76  C   UNL A   1      42.930  34.851  28.758  1.00  0.00     0.009 A 
ATOM     77  C   UNL A   1      43.830  34.689  30.979  1.00  0.00     0.009 A 
ATOM     78  C   UNL A   1      43.188  36.223  28.765  1.00  0.00     0.001 A 
ATOM     79  C   UNL A   1      44.030  36.067  31.013  1.00  0.00     0.001 A 
ATOM     80  C   UNL A   1      43.725  36.831  29.895  1.00  0.00     0.000 A 
ENDBRANCH  62  75
ENDBRANCH  36  37
ENDBRANCH  29  31
ENDBRANCH  28  29
ENDBRANCH  27  28
ENDBRANCH   1  27
TORSDOF 16
ENDMDL
