MODEL 1
REMARK VINA RESULT:     -12.2      0.000      0.000
REMARK SMILES C[NH+]1CCC([NH+]2CCC(Oc3ccc4ccccc4c3)(C(=O)OCCOC(=O)c3ccc(-c4c5nc(c(-c6ccccc6)c6ccc([nH]6)c(-c6ccccc6)c6nc(c(-c7ccccc7)c7ccc4[nH]7)C=C6)C=C5)cc3)CC2)CC1
REMARK SMILES IDX 24 1 23 2 21 3 22 4 9 5 6 6 7 7 78 8 8 10 77 11 5 12 1 13
REMARK SMILES IDX 2 14 3 15 80 16 4 18 79 19 10 20 11 21 12 22 20 23 13 24
REMARK SMILES IDX 19 25 14 26 18 27 15 28 17 29 16 30 25 31 26 32 27 33 28 34
REMARK SMILES IDX 29 35 30 36 76 37 31 38 75 39 32 40 33 41 34 42 69 43 35 44
REMARK SMILES IDX 74 45 68 46 70 47 36 48 73 49 67 50 66 51 37 53 59 54 44 55
REMARK SMILES IDX 58 56 45 57 48 58 57 59 71 60 46 61 47 62 56 64 72 65 49 66
REMARK SMILES IDX 38 67 39 68 43 69 40 70 42 71 41 72 60 73 61 74 65 75 62 76
REMARK SMILES IDX 64 77 63 78 50 79 51 80 55 81 52 82 54 83 53 84
REMARK H PARENT 6 9 2 17 70 52 48 63
REMARK Flexibility Score: inf
ROOT
ATOM      1  C   UNL A   1      36.331  23.047  23.466  1.00  0.00     0.274 C 
ENDROOT
BRANCH   1   2
ATOM      2  O   UNL A   1      35.371  23.839  24.198  1.00  0.00    -0.459 OA
BRANCH   2   3
ATOM      3  C   UNL A   1      34.297  24.299  23.492  1.00  0.00     0.351 C 
ATOM      4  O   UNL A   1      34.377  24.764  22.357  1.00  0.00    -0.247 OA
BRANCH   3   5
ATOM      5  C   UNL A   1      32.986  24.268  24.301  1.00  0.00     0.216 C 
ATOM      6  N   UNL A   1      32.117  21.475  24.694  1.00  0.00    -0.332 N 
ATOM      7  C   UNL A   1      33.237  22.022  25.474  1.00  0.00     0.267 C 
ATOM      8  C   UNL A   1      32.060  22.095  23.366  1.00  0.00     0.267 C 
ATOM      9  H   UNL A   1      31.270  21.714  25.210  1.00  0.00     0.348 HD
ATOM     10  C   UNL A   1      33.098  23.535  25.644  1.00  0.00     0.122 C 
ATOM     11  C   UNL A   1      31.883  23.612  23.446  1.00  0.00     0.122 C 
BRANCH   6  12
ATOM     12  C   UNL A   1      32.112  19.987  24.603  1.00  0.00     0.195 C 
ATOM     13  C   UNL A   1      33.456  15.896  24.353  1.00  0.00     0.332 C 
ATOM     14  N   UNL A   1      33.388  17.356  24.402  1.00  0.00    -0.337 N 
ATOM     15  C   UNL A   1      32.843  17.816  25.685  1.00  0.00     0.268 C 
ATOM     16  C   UNL A   1      32.597  17.873  23.283  1.00  0.00     0.268 C 
ATOM     17  H   UNL A   1      34.337  17.720  24.318  1.00  0.00     0.347 HD
ATOM     18  C   UNL A   1      32.876  19.346  25.774  1.00  0.00     0.126 C 
ATOM     19  C   UNL A   1      32.608  19.401  23.271  1.00  0.00     0.126 C 
ENDBRANCH   6  12
BRANCH   5  20
ATOM     20  O   UNL A   1      32.861  25.702  24.526  1.00  0.00    -0.475 OA
BRANCH  20  21
ATOM     21  C   UNL A   1      31.693  26.290  24.150  1.00  0.00     0.121 A 
ATOM     22  C   UNL A   1      30.484  25.820  24.643  1.00  0.00     0.047 A 
ATOM     23  C   UNL A   1      31.741  27.443  23.366  1.00  0.00     0.055 A 
ATOM     24  C   UNL A   1      29.299  26.467  24.297  1.00  0.00     0.012 A 
ATOM     25  C   UNL A   1      30.556  28.113  23.018  1.00  0.00    -0.015 A 
ATOM     26  C   UNL A   1      29.318  27.611  23.485  1.00  0.00    -0.018 A 
ATOM     27  C   UNL A   1      30.568  29.273  22.226  1.00  0.00     0.009 A 
ATOM     28  C   UNL A   1      28.131  28.274  23.140  1.00  0.00     0.009 A 
ATOM     29  C   UNL A   1      29.378  29.924  21.896  1.00  0.00     0.001 A 
ATOM     30  C   UNL A   1      28.161  29.424  22.351  1.00  0.00     0.001 A 
ENDBRANCH  20  21
ENDBRANCH   5  20
ENDBRANCH   3   5
ENDBRANCH   2   3
ENDBRANCH   1   2
BRANCH   1  31
ATOM     31  C   UNL A   1      36.575  21.707  24.156  1.00  0.00     0.275 C 
BRANCH  31  32
ATOM     32  O   UNL A   1      36.973  21.947  25.514  1.00  0.00    -0.458 OA
BRANCH  32  33
ATOM     33  C   UNL A   1      38.247  21.628  25.827  1.00  0.00     0.338 C 
ATOM     34  O   UNL A   1      38.795  20.549  25.632  1.00  0.00    -0.246 OA
BRANCH  33  35
ATOM     35  C   UNL A   1      38.948  22.804  26.398  1.00  0.00     0.060 A 
ATOM     36  C   UNL A   1      38.495  24.106  26.172  1.00  0.00     0.016 A 
ATOM     37  C   UNL A   1      40.158  22.610  27.071  1.00  0.00     0.016 A 
ATOM     38  C   UNL A   1      39.289  25.200  26.515  1.00  0.00     0.010 A 
ATOM     39  C   UNL A   1      40.905  23.710  27.506  1.00  0.00     0.010 A 
ATOM     40  C   UNL A   1      40.491  25.020  27.212  1.00  0.00    -0.014 A 
BRANCH  40  41
ATOM     41  C   UNL A   1      41.301  26.185  27.661  1.00  0.00     0.031 A 
ATOM     42  C   UNL A   1      40.735  27.194  28.626  1.00  0.00     0.074 A 
ATOM     43  C   UNL A   1      42.547  26.367  27.180  1.00  0.00     0.049 A 
ATOM     44  N   UNL A   1      41.173  28.392  28.922  1.00  0.00    -0.248 NA
ATOM     45  C   UNL A   1      39.507  26.811  29.339  1.00  0.00     0.031 C 
ATOM     46  C   UNL A   1      43.255  25.454  26.280  1.00  0.00     0.029 A 
ATOM     47  N   UNL A   1      43.438  27.393  27.380  1.00  0.00    -0.354 N 
ATOM     48  C   UNL A   1      40.244  28.928  29.806  1.00  0.00     0.074 A 
ATOM     49  C   UNL A   1      39.224  27.921  30.009  1.00  0.00     0.031 C 
ATOM     50  C   UNL A   1      44.480  25.941  26.033  1.00  0.00     0.029 A 
ATOM     51  C   UNL A   1      44.605  27.246  26.671  1.00  0.00     0.049 A 
ATOM     52  H   UNL A   1      43.258  28.157  27.973  1.00  0.00     0.167 HD
ATOM     53  C   UNL A   1      40.240  30.154  30.382  1.00  0.00     0.031 A 
ATOM     54  C   UNL A   1      45.640  28.086  26.493  1.00  0.00     0.031 A 
ATOM     55  C   UNL A   1      41.279  31.137  30.217  1.00  0.00     0.049 A 
ATOM     56  C   UNL A   1      45.596  29.451  27.107  1.00  0.00     0.074 A 
ATOM     57  C   UNL A   1      41.364  32.405  30.769  1.00  0.00     0.029 A 
ATOM     58  N   UNL A   1      42.423  30.955  29.458  1.00  0.00    -0.354 N 
ATOM     59  N   UNL A   1      44.668  29.983  27.861  1.00  0.00    -0.248 NA
ATOM     60  C   UNL A   1      46.729  30.340  26.818  1.00  0.00     0.031 C 
ATOM     61  C   UNL A   1      42.548  33.002  30.320  1.00  0.00     0.029 A 
ATOM     62  C   UNL A   1      43.216  32.090  29.519  1.00  0.00     0.049 A 
ATOM     63  H   UNL A   1      42.641  30.141  28.950  1.00  0.00     0.167 HD
ATOM     64  C   UNL A   1      45.099  31.272  28.135  1.00  0.00     0.074 A 
ATOM     65  C   UNL A   1      46.384  31.433  27.485  1.00  0.00     0.031 C 
ATOM     66  C   UNL A   1      44.481  32.240  28.853  1.00  0.00     0.031 A 
BRANCH  53  67
ATOM     67  C   UNL A   1      39.050  30.528  31.221  1.00  0.00    -0.014 A 
ATOM     68  C   UNL A   1      37.909  31.114  30.656  1.00  0.00     0.009 A 
ATOM     69  C   UNL A   1      39.052  30.221  32.592  1.00  0.00     0.009 A 
ATOM     70  C   UNL A   1      36.798  31.401  31.454  1.00  0.00     0.001 A 
ATOM     71  C   UNL A   1      37.934  30.491  33.381  1.00  0.00     0.001 A 
ATOM     72  C   UNL A   1      36.808  31.086  32.813  1.00  0.00     0.000 A 
ENDBRANCH  53  67
BRANCH  54  73
ATOM     73  C   UNL A   1      46.772  27.670  25.629  1.00  0.00    -0.014 A 
ATOM     74  C   UNL A   1      47.838  26.932  26.160  1.00  0.00     0.009 A 
ATOM     75  C   UNL A   1      46.762  27.967  24.256  1.00  0.00     0.009 A 
ATOM     76  C   UNL A   1      48.874  26.498  25.330  1.00  0.00     0.001 A 
ATOM     77  C   UNL A   1      47.784  27.509  23.426  1.00  0.00     0.001 A 
ATOM     78  C   UNL A   1      48.842  26.778  23.964  1.00  0.00     0.000 A 
ENDBRANCH  54  73
BRANCH  66  79
ATOM     79  C   UNL A   1      45.199  33.550  28.977  1.00  0.00    -0.014 A 
ATOM     80  C   UNL A   1      44.968  34.586  28.059  1.00  0.00     0.009 A 
ATOM     81  C   UNL A   1      46.106  33.753  30.026  1.00  0.00     0.009 A 
ATOM     82  C   UNL A   1      45.658  35.793  28.173  1.00  0.00     0.001 A 
ATOM     83  C   UNL A   1      46.781  34.969  30.148  1.00  0.00     0.001 A 
ATOM     84  C   UNL A   1      46.563  35.984  29.218  1.00  0.00     0.000 A 
ENDBRANCH  66  79
ENDBRANCH  40  41
ENDBRANCH  33  35
ENDBRANCH  32  33
ENDBRANCH  31  32
ENDBRANCH   1  31
TORSDOF 14
ENDMDL
MODEL 2
REMARK VINA RESULT:     -12.1      3.835      8.011
REMARK SMILES C[NH+]1CCC([NH+]2CCC(Oc3ccc4ccccc4c3)(C(=O)OCCOC(=O)c3ccc(-c4c5nc(c(-c6ccccc6)c6ccc([nH]6)c(-c6ccccc6)c6nc(c(-c7ccccc7)c7ccc4[nH]7)C=C6)C=C5)cc3)CC2)CC1
REMARK SMILES IDX 24 1 23 2 21 3 22 4 9 5 6 6 7 7 78 8 8 10 77 11 5 12 1 13
REMARK SMILES IDX 2 14 3 15 80 16 4 18 79 19 10 20 11 21 12 22 20 23 13 24
REMARK SMILES IDX 19 25 14 26 18 27 15 28 17 29 16 30 25 31 26 32 27 33 28 34
REMARK SMILES IDX 29 35 30 36 76 37 31 38 75 39 32 40 33 41 34 42 69 43 35 44
REMARK SMILES IDX 74 45 68 46 70 47 36 48 73 49 67 50 66 51 37 53 59 54 44 55
REMARK SMILES IDX 58 56 45 57 48 58 57 59 71 60 46 61 47 62 56 64 72 65 49 66
REMARK SMILES IDX 38 67 39 68 43 69 40 70 42 71 41 72 60 73 61 74 65 75 62 76
REMARK SMILES IDX 64 77 63 78 50 79 51 80 55 81 52 82 54 83 53 84
REMARK H PARENT 6 9 2 17 70 52 48 63
REMARK Flexibility Score: inf
ROOT
ATOM      1  C   UNL A   1      31.662  27.843  26.694  1.00  0.00     0.274 C 
ENDROOT
BRANCH   1   2
ATOM      2  O   UNL A   1      32.444  26.837  26.016  1.00  0.00    -0.459 OA
BRANCH   2   3
ATOM      3  C   UNL A   1      31.888  25.594  25.925  1.00  0.00     0.351 C 
ATOM      4  O   UNL A   1      31.396  24.996  26.879  1.00  0.00    -0.247 OA
BRANCH   3   5
ATOM      5  C   UNL A   1      32.030  24.972  24.521  1.00  0.00     0.216 C 
ATOM      6  N   UNL A   1      34.730  23.825  24.203  1.00  0.00    -0.332 N 
ATOM      7  C   UNL A   1      33.720  23.133  25.017  1.00  0.00     0.267 C 
ATOM      8  C   UNL A   1      34.539  25.278  24.266  1.00  0.00     0.267 C 
ATOM      9  H   UNL A   1      34.584  23.511  23.243  1.00  0.00     0.348 HD
ATOM     10  C   UNL A   1      32.307  23.463  24.533  1.00  0.00     0.122 C 
ATOM     11  C   UNL A   1      33.158  25.699  23.761  1.00  0.00     0.122 C 
BRANCH   6  12
ATOM     12  C   UNL A   1      36.134  23.445  24.529  1.00  0.00     0.195 C 
ATOM     13  C   UNL A   1      39.552  21.701  26.501  1.00  0.00     0.332 C 
ATOM     14  N   UNL A   1      38.204  22.144  26.147  1.00  0.00    -0.337 N 
ATOM     15  C   UNL A   1      37.763  21.537  24.885  1.00  0.00     0.268 C 
ATOM     16  C   UNL A   1      38.144  23.606  26.072  1.00  0.00     0.268 C 
ATOM     17  H   UNL A   1      37.566  21.835  26.881  1.00  0.00     0.347 HD
ATOM     18  C   UNL A   1      36.311  21.918  24.575  1.00  0.00     0.126 C 
ATOM     19  C   UNL A   1      36.716  24.078  25.804  1.00  0.00     0.126 C 
ENDBRANCH   6  12
BRANCH   5  20
ATOM     20  O   UNL A   1      30.672  25.224  24.057  1.00  0.00    -0.475 OA
BRANCH  20  21
ATOM     21  C   UNL A   1      30.414  26.451  23.530  1.00  0.00     0.121 A 
ATOM     22  C   UNL A   1      31.341  27.064  22.700  1.00  0.00     0.047 A 
ATOM     23  C   UNL A   1      29.157  27.022  23.736  1.00  0.00     0.055 A 
ATOM     24  C   UNL A   1      31.042  28.295  22.119  1.00  0.00     0.012 A 
ATOM     25  C   UNL A   1      28.836  28.257  23.149  1.00  0.00    -0.015 A 
ATOM     26  C   UNL A   1      29.796  28.904  22.336  1.00  0.00    -0.018 A 
ATOM     27  C   UNL A   1      27.582  28.862  23.339  1.00  0.00     0.009 A 
ATOM     28  C   UNL A   1      29.482  30.139  21.747  1.00  0.00     0.009 A 
ATOM     29  C   UNL A   1      27.284  30.088  22.742  1.00  0.00     0.001 A 
ATOM     30  C   UNL A   1      28.233  30.726  21.948  1.00  0.00     0.001 A 
ENDBRANCH  20  21
ENDBRANCH   5  20
ENDBRANCH   3   5
ENDBRANCH   2   3
ENDBRANCH   1   2
BRANCH   1  31
ATOM     31  C   UNL A   1      31.504  29.090  25.827  1.00  0.00     0.275 C 
BRANCH  31  32
ATOM     32  O   UNL A   1      32.777  29.745  25.714  1.00  0.00    -0.458 OA
BRANCH  32  33
ATOM     33  C   UNL A   1      33.031  30.715  26.617  1.00  0.00     0.338 C 
ATOM     34  O   UNL A   1      32.278  31.630  26.931  1.00  0.00    -0.246 OA
BRANCH  33  35
ATOM     35  C   UNL A   1      34.353  30.496  27.253  1.00  0.00     0.060 A 
ATOM     36  C   UNL A   1      34.796  29.216  27.594  1.00  0.00     0.016 A 
ATOM     37  C   UNL A   1      35.115  31.605  27.631  1.00  0.00     0.016 A 
ATOM     38  C   UNL A   1      35.926  29.050  28.395  1.00  0.00     0.010 A 
ATOM     39  C   UNL A   1      36.303  31.430  28.349  1.00  0.00     0.010 A 
ATOM     40  C   UNL A   1      36.711  30.151  28.760  1.00  0.00    -0.014 A 
BRANCH  40  41
ATOM     41  C   UNL A   1      37.967  29.974  29.540  1.00  0.00     0.031 A 
ATOM     42  C   UNL A   1      39.114  29.170  28.985  1.00  0.00     0.074 A 
ATOM     43  C   UNL A   1      38.078  30.509  30.772  1.00  0.00     0.049 A 
ATOM     44  N   UNL A   1      40.162  28.688  29.605  1.00  0.00    -0.248 NA
ATOM     45  C   UNL A   1      39.069  28.856  27.549  1.00  0.00     0.031 C 
ATOM     46  C   UNL A   1      37.078  31.355  31.427  1.00  0.00     0.029 A 
ATOM     47  N   UNL A   1      39.088  30.413  31.697  1.00  0.00    -0.354 N 
ATOM     48  C   UNL A   1      40.867  27.963  28.651  1.00  0.00     0.074 A 
ATOM     49  C   UNL A   1      40.135  28.079  27.407  1.00  0.00     0.031 C 
ATOM     50  C   UNL A   1      37.536  31.727  32.631  1.00  0.00     0.029 A 
ATOM     51  C   UNL A   1      38.812  31.065  32.874  1.00  0.00     0.049 A 
ATOM     52  H   UNL A   1      39.927  29.925  31.533  1.00  0.00     0.167 HD
ATOM     53  C   UNL A   1      42.011  27.255  28.807  1.00  0.00     0.031 A 
ATOM     54  C   UNL A   1      39.471  31.084  34.046  1.00  0.00     0.031 A 
ATOM     55  C   UNL A   1      42.764  27.180  30.033  1.00  0.00     0.049 A 
ATOM     56  C   UNL A   1      40.712  30.263  34.208  1.00  0.00     0.074 A 
ATOM     57  C   UNL A   1      43.941  26.493  30.282  1.00  0.00     0.029 A 
ATOM     58  N   UNL A   1      42.423  27.828  31.208  1.00  0.00    -0.354 N 
ATOM     59  N   UNL A   1      41.317  29.504  33.329  1.00  0.00    -0.248 NA
ATOM     60  C   UNL A   1      41.344  30.280  35.534  1.00  0.00     0.031 C 
ATOM     61  C   UNL A   1      44.297  26.704  31.620  1.00  0.00     0.029 A 
ATOM     62  C   UNL A   1      43.360  27.551  32.189  1.00  0.00     0.049 A 
ATOM     63  H   UNL A   1      41.631  28.400  31.329  1.00  0.00     0.167 HD
ATOM     64  C   UNL A   1      42.397  28.946  33.994  1.00  0.00     0.074 A 
ATOM     65  C   UNL A   1      42.380  29.473  35.344  1.00  0.00     0.031 C 
ATOM     66  C   UNL A   1      43.318  28.068  33.530  1.00  0.00     0.031 A 
BRANCH  53  67
ATOM     67  C   UNL A   1      42.510  26.465  27.631  1.00  0.00    -0.014 A 
ATOM     68  C   UNL A   1      42.069  25.158  27.384  1.00  0.00     0.009 A 
ATOM     69  C   UNL A   1      43.387  27.072  26.716  1.00  0.00     0.009 A 
ATOM     70  C   UNL A   1      42.510  24.467  26.252  1.00  0.00     0.001 A 
ATOM     71  C   UNL A   1      43.810  26.387  25.576  1.00  0.00     0.001 A 
ATOM     72  C   UNL A   1      43.375  25.083  25.347  1.00  0.00     0.000 A 
ENDBRANCH  53  67
BRANCH  54  73
ATOM     73  C   UNL A   1      38.911  31.860  35.180  1.00  0.00    -0.014 A 
ATOM     74  C   UNL A   1      38.156  31.224  36.174  1.00  0.00     0.009 A 
ATOM     75  C   UNL A   1      39.175  33.235  35.296  1.00  0.00     0.009 A 
ATOM     76  C   UNL A   1      37.676  31.951  37.266  1.00  0.00     0.001 A 
ATOM     77  C   UNL A   1      38.717  33.953  36.401  1.00  0.00     0.001 A 
ATOM     78  C   UNL A   1      37.965  33.310  37.383  1.00  0.00     0.000 A 
ENDBRANCH  54  73
BRANCH  66  79
ATOM     79  C   UNL A   1      44.383  27.636  34.493  1.00  0.00    -0.014 A 
ATOM     80  C   UNL A   1      45.524  28.426  34.705  1.00  0.00     0.009 A 
ATOM     81  C   UNL A   1      44.238  26.437  35.203  1.00  0.00     0.009 A 
ATOM     82  C   UNL A   1      46.517  28.004  35.590  1.00  0.00     0.001 A 
ATOM     83  C   UNL A   1      45.225  26.026  36.101  1.00  0.00     0.001 A 
ATOM     84  C   UNL A   1      46.366  26.805  36.287  1.00  0.00     0.000 A 
ENDBRANCH  66  79
ENDBRANCH  40  41
ENDBRANCH  33  35
ENDBRANCH  32  33
ENDBRANCH  31  32
ENDBRANCH   1  31
TORSDOF 14
ENDMDL
MODEL 3
REMARK VINA RESULT:     -12.1      2.673      6.051
REMARK SMILES C[NH+]1CCC([NH+]2CCC(Oc3ccc4ccccc4c3)(C(=O)OCCOC(=O)c3ccc(-c4c5nc(c(-c6ccccc6)c6ccc([nH]6)c(-c6ccccc6)c6nc(c(-c7ccccc7)c7ccc4[nH]7)C=C6)C=C5)cc3)CC2)CC1
REMARK SMILES IDX 24 1 23 2 21 3 22 4 9 5 6 6 7 7 78 8 8 10 77 11 5 12 1 13
REMARK SMILES IDX 2 14 3 15 80 16 4 18 79 19 10 20 11 21 12 22 20 23 13 24
REMARK SMILES IDX 19 25 14 26 18 27 15 28 17 29 16 30 25 31 26 32 27 33 28 34
REMARK SMILES IDX 29 35 30 36 76 37 31 38 75 39 32 40 33 41 34 42 69 43 35 44
REMARK SMILES IDX 74 45 68 46 70 47 36 48 73 49 67 50 66 51 37 53 59 54 44 55
REMARK SMILES IDX 58 56 45 57 48 58 57 59 71 60 46 61 47 62 56 64 72 65 49 66
REMARK SMILES IDX 38 67 39 68 43 69 40 70 42 71 41 72 60 73 61 74 65 75 62 76
REMARK SMILES IDX 64 77 63 78 50 79 51 80 55 81 52 82 54 83 53 84
REMARK H PARENT 6 9 2 17 70 52 48 63
REMARK Flexibility Score: inf
ROOT
ATOM      1  C   UNL A   1      36.966  23.332  23.955  1.00  0.00     0.274 C 
ENDROOT
BRANCH   1   2
ATOM      2  O   UNL A   1      35.924  24.066  24.633  1.00  0.00    -0.459 OA
BRANCH   2   3
ATOM      3  C   UNL A   1      34.713  24.120  24.007  1.00  0.00     0.351 C 
ATOM      4  O   UNL A   1      34.566  24.453  22.833  1.00  0.00    -0.247 OA
BRANCH   3   5
ATOM      5  C   UNL A   1      33.532  23.818  24.952  1.00  0.00     0.216 C 
ATOM      6  N   UNL A   1      33.061  20.907  25.065  1.00  0.00    -0.332 N 
ATOM      7  C   UNL A   1      34.202  21.503  25.776  1.00  0.00     0.267 C 
ATOM      8  C   UNL A   1      32.756  21.666  23.848  1.00  0.00     0.267 C 
ATOM      9  H   UNL A   1      32.267  20.967  25.704  1.00  0.00     0.348 HD
ATOM     10  C   UNL A   1      33.908  22.954  26.162  1.00  0.00     0.122 C 
ATOM     11  C   UNL A   1      32.412  23.125  24.150  1.00  0.00     0.122 C 
BRANCH   6  12
ATOM     12  C   UNL A   1      33.221  19.453  24.777  1.00  0.00     0.195 C 
ATOM     13  C   UNL A   1      34.231  15.281  25.203  1.00  0.00     0.332 C 
ATOM     14  N   UNL A   1      34.080  16.722  25.405  1.00  0.00    -0.337 N 
ATOM     15  C   UNL A   1      32.664  17.094  25.514  1.00  0.00     0.268 C 
ATOM     16  C   UNL A   1      34.733  17.464  24.323  1.00  0.00     0.268 C 
ATOM     17  H   UNL A   1      34.536  16.968  26.283  1.00  0.00     0.347 HD
ATOM     18  C   UNL A   1      32.516  18.586  25.834  1.00  0.00     0.126 C 
ATOM     19  C   UNL A   1      34.667  18.968  24.582  1.00  0.00     0.126 C 
ENDBRANCH   6  12
BRANCH   5  20
ATOM     20  O   UNL A   1      33.269  25.185  25.380  1.00  0.00    -0.475 OA
BRANCH  20  21
ATOM     21  C   UNL A   1      32.168  25.796  24.865  1.00  0.00     0.121 A 
ATOM     22  C   UNL A   1      30.899  25.402  25.265  1.00  0.00     0.047 A 
ATOM     23  C   UNL A   1      32.339  26.900  24.029  1.00  0.00     0.055 A 
ATOM     24  C   UNL A   1      29.780  26.073  24.775  1.00  0.00     0.012 A 
ATOM     25  C   UNL A   1      31.222  27.595  23.536  1.00  0.00    -0.015 A 
ATOM     26  C   UNL A   1      29.925  27.168  23.909  1.00  0.00    -0.018 A 
ATOM     27  C   UNL A   1      31.358  28.707  22.689  1.00  0.00     0.009 A 
ATOM     28  C   UNL A   1      28.805  27.856  23.419  1.00  0.00     0.009 A 
ATOM     29  C   UNL A   1      30.233  29.384  22.214  1.00  0.00     0.001 A 
ATOM     30  C   UNL A   1      28.958  28.958  22.577  1.00  0.00     0.001 A 
ENDBRANCH  20  21
ENDBRANCH   5  20
ENDBRANCH   3   5
ENDBRANCH   2   3
ENDBRANCH   1   2
BRANCH   1  31
ATOM     31  C   UNL A   1      37.457  22.165  24.808  1.00  0.00     0.275 C 
BRANCH  31  32
ATOM     32  O   UNL A   1      37.838  22.659  26.101  1.00  0.00    -0.458 OA
BRANCH  32  33
ATOM     33  C   UNL A   1      39.158  22.852  26.301  1.00  0.00     0.338 C 
ATOM     34  O   UNL A   1      40.056  22.055  26.049  1.00  0.00    -0.246 OA
BRANCH  33  35
ATOM     35  C   UNL A   1      39.409  24.219  26.820  1.00  0.00     0.060 A 
ATOM     36  C   UNL A   1      40.073  25.180  26.054  1.00  0.00     0.016 A 
ATOM     37  C   UNL A   1      39.084  24.509  28.148  1.00  0.00     0.016 A 
ATOM     38  C   UNL A   1      40.504  26.372  26.636  1.00  0.00     0.010 A 
ATOM     39  C   UNL A   1      39.428  25.748  28.701  1.00  0.00     0.010 A 
ATOM     40  C   UNL A   1      40.164  26.686  27.959  1.00  0.00    -0.014 A 
BRANCH  40  41
ATOM     41  C   UNL A   1      40.543  27.994  28.560  1.00  0.00     0.031 A 
ATOM     42  C   UNL A   1      41.934  28.227  29.089  1.00  0.00     0.074 A 
ATOM     43  C   UNL A   1      39.628  28.978  28.667  1.00  0.00     0.049 A 
ATOM     44  N   UNL A   1      42.372  29.181  29.872  1.00  0.00    -0.248 NA
ATOM     45  C   UNL A   1      42.963  27.252  28.697  1.00  0.00     0.031 C 
ATOM     46  C   UNL A   1      38.256  28.926  28.158  1.00  0.00     0.029 A 
ATOM     47  N   UNL A   1      39.719  30.219  29.249  1.00  0.00    -0.354 N 
ATOM     48  C   UNL A   1      43.708  28.887  30.116  1.00  0.00     0.074 A 
ATOM     49  C   UNL A   1      44.014  27.673  29.388  1.00  0.00     0.031 C 
ATOM     50  C   UNL A   1      37.645  30.090  28.418  1.00  0.00     0.029 A 
ATOM     51  C   UNL A   1      38.544  30.929  29.201  1.00  0.00     0.049 A 
ATOM     52  H   UNL A   1      40.544  30.564  29.659  1.00  0.00     0.167 HD
ATOM     53  C   UNL A   1      44.592  29.563  30.890  1.00  0.00     0.031 A 
ATOM     54  C   UNL A   1      38.197  32.096  29.772  1.00  0.00     0.031 A 
ATOM     55  C   UNL A   1      44.300  30.795  31.576  1.00  0.00     0.049 A 
ATOM     56  C   UNL A   1      39.176  32.806  30.655  1.00  0.00     0.074 A 
ATOM     57  C   UNL A   1      45.136  31.556  32.376  1.00  0.00     0.029 A 
ATOM     58  N   UNL A   1      43.084  31.456  31.526  1.00  0.00    -0.354 N 
ATOM     59  N   UNL A   1      40.404  32.470  30.957  1.00  0.00    -0.248 NA
ATOM     60  C   UNL A   1      38.708  34.041  31.298  1.00  0.00     0.031 C 
ATOM     61  C   UNL A   1      44.414  32.665  32.835  1.00  0.00     0.029 A 
ATOM     62  C   UNL A   1      43.143  32.611  32.289  1.00  0.00     0.049 A 
ATOM     63  H   UNL A   1      42.294  31.150  31.024  1.00  0.00     0.167 HD
ATOM     64  C   UNL A   1      40.857  33.446  31.831  1.00  0.00     0.074 A 
ATOM     65  C   UNL A   1      39.779  34.402  31.991  1.00  0.00     0.031 C 
ATOM     66  C   UNL A   1      42.058  33.539  32.452  1.00  0.00     0.031 A 
BRANCH  53  67
ATOM     67  C   UNL A   1      45.958  28.966  31.075  1.00  0.00    -0.014 A 
ATOM     68  C   UNL A   1      46.221  28.033  32.087  1.00  0.00     0.009 A 
ATOM     69  C   UNL A   1      46.981  29.298  30.171  1.00  0.00     0.009 A 
ATOM     70  C   UNL A   1      47.489  27.455  32.200  1.00  0.00     0.001 A 
ATOM     71  C   UNL A   1      48.240  28.705  30.275  1.00  0.00     0.001 A 
ATOM     72  C   UNL A   1      48.495  27.787  31.292  1.00  0.00     0.000 A 
ENDBRANCH  53  67
BRANCH  54  73
ATOM     73  C   UNL A   1      36.822  32.618  29.576  1.00  0.00    -0.014 A 
ATOM     74  C   UNL A   1      35.828  32.384  30.535  1.00  0.00     0.009 A 
ATOM     75  C   UNL A   1      36.514  33.398  28.448  1.00  0.00     0.009 A 
ATOM     76  C   UNL A   1      34.550  32.922  30.369  1.00  0.00     0.001 A 
ATOM     77  C   UNL A   1      35.245  33.956  28.299  1.00  0.00     0.001 A 
ATOM     78  C   UNL A   1      34.263  33.715  29.258  1.00  0.00     0.000 A 
ENDBRANCH  54  73
BRANCH  66  79
ATOM     79  C   UNL A   1      42.261  34.722  33.351  1.00  0.00    -0.014 A 
ATOM     80  C   UNL A   1      42.898  35.880  32.881  1.00  0.00     0.009 A 
ATOM     81  C   UNL A   1      41.801  34.680  34.674  1.00  0.00     0.009 A 
ATOM     82  C   UNL A   1      43.099  36.967  33.734  1.00  0.00     0.001 A 
ATOM     83  C   UNL A   1      41.987  35.775  35.519  1.00  0.00     0.001 A 
ATOM     84  C   UNL A   1      42.642  36.913  35.052  1.00  0.00     0.000 A 
ENDBRANCH  66  79
ENDBRANCH  40  41
ENDBRANCH  33  35
ENDBRANCH  32  33
ENDBRANCH  31  32
ENDBRANCH   1  31
TORSDOF 14
ENDMDL
