MODEL 1
REMARK VINA RESULT:     -12.0      0.000      0.000
REMARK SMILES Cc1ccc(-c2c(C(=O)OCCOC(=O)c3ccc(-c4c5nc(c(-c6ccccc6)c6ccc([nH]6)c(-c6ccccc6)c6nc(c(-c7ccccc7)c7ccc4[nH]7)C=C6)C=C5)cc3)nnn2Cc2c(F)cccc2Cl)cc1
REMARK SMILES IDX 11 1 10 2 8 3 9 4 7 5 6 6 66 7 64 8 65 9 5 10 1 11 2 12 3 13
REMARK SMILES IDX 77 14 4 15 76 16 67 17 68 18 69 19 74 20 70 21 71 22 73 23
REMARK SMILES IDX 75 24 72 25 12 26 13 27 14 28 15 29 16 30 17 31 63 32 18 33
REMARK SMILES IDX 62 34 19 35 20 36 21 37 56 38 22 39 61 40 55 41 57 42 23 43
REMARK SMILES IDX 60 44 54 45 53 46 24 48 46 49 31 50 45 51 32 52 35 53 44 54
REMARK SMILES IDX 58 55 33 56 34 57 43 59 59 60 36 61 25 62 26 63 30 64 27 65
REMARK SMILES IDX 29 66 28 67 47 68 48 69 52 70 49 71 51 72 50 73 37 74 38 75
REMARK SMILES IDX 42 76 39 77 41 78 40 79
REMARK H PARENT 57 47 35 58
REMARK Flexibility Score: inf
ROOT
ATOM      1  C   UNL A   1      37.243  22.516  25.352  1.00  0.00     0.275 C 
ENDROOT
BRANCH   1   2
ATOM      2  O   UNL A   1      36.256  23.267  26.056  1.00  0.00    -0.457 OA
BRANCH   2   3
ATOM      3  C   UNL A   1      34.974  22.891  25.790  1.00  0.00     0.361 C 
ATOM      4  O   UNL A   1      34.306  22.171  26.530  1.00  0.00    -0.244 OA
BRANCH   3   5
ATOM      5  C   UNL A   1      34.479  23.435  24.541  1.00  0.00     0.198 A 
ATOM      6  C   UNL A   1      33.920  24.692  24.358  1.00  0.00     0.104 A 
ATOM      7  N   UNL A   1      33.763  24.774  22.998  1.00  0.00    -0.239 N 
ATOM      8  N   UNL A   1      34.504  22.769  23.345  1.00  0.00    -0.122 NA
ATOM      9  N   UNL A   1      34.062  23.594  22.408  1.00  0.00    -0.066 NA
BRANCH   6  10
ATOM     10  C   UNL A   1      33.589  25.661  25.388  1.00  0.00     0.002 A 
ATOM     11  C   UNL A   1      31.981  29.118  27.378  1.00  0.00     0.044 C 
ATOM     12  C   UNL A   1      32.596  27.888  26.781  1.00  0.00    -0.051 A 
ATOM     13  C   UNL A   1      31.843  26.714  26.696  1.00  0.00     0.004 A 
ATOM     14  C   UNL A   1      33.877  27.918  26.219  1.00  0.00     0.004 A 
ATOM     15  C   UNL A   1      32.338  25.607  26.009  1.00  0.00     0.011 A 
ATOM     16  C   UNL A   1      34.374  26.809  25.528  1.00  0.00     0.011 A 
ENDBRANCH   6  10
BRANCH   7  17
ATOM     17  C   UNL A   1      33.307  25.863  22.147  1.00  0.00     0.187 C 
BRANCH  17  18
ATOM     18  C   UNL A   1      32.151  26.663  22.687  1.00  0.00     0.028 A 
ATOM     19  C   UNL A   1      30.934  25.999  22.884  1.00  0.00     0.129 A 
ATOM     20  C   UNL A   1      32.188  28.038  22.963  1.00  0.00     0.049 A 
ATOM     21  F   UNL A   1      30.825  24.701  22.564  1.00  0.00    -0.207 F 
ATOM     22  C   UNL A   1      29.811  26.646  23.394  1.00  0.00     0.040 A 
ATOM     23  C   UNL A   1      31.072  28.689  23.505  1.00  0.00     0.021 A 
ATOM     24  Cl  UNL A   1      33.583  29.009  22.652  1.00  0.00    -0.084 Cl
ATOM     25  C   UNL A   1      29.885  27.992  23.727  1.00  0.00     0.005 A 
ENDBRANCH  17  18
ENDBRANCH   7  17
ENDBRANCH   3   5
ENDBRANCH   2   3
ENDBRANCH   1   2
BRANCH   1  26
ATOM     26  C   UNL A   1      38.541  22.439  26.156  1.00  0.00     0.275 C 
BRANCH  26  27
ATOM     27  O   UNL A   1      39.296  23.672  26.379  1.00  0.00    -0.458 OA
BRANCH  27  28
ATOM     28  C   UNL A   1      39.995  24.123  27.454  1.00  0.00     0.338 C 
ATOM     29  O   UNL A   1      40.711  23.382  28.115  1.00  0.00    -0.246 OA
BRANCH  28  30
ATOM     30  C   UNL A   1      39.868  25.542  27.827  1.00  0.00     0.060 A 
ATOM     31  C   UNL A   1      40.249  26.563  26.937  1.00  0.00     0.016 A 
ATOM     32  C   UNL A   1      39.338  25.855  29.067  1.00  0.00     0.016 A 
ATOM     33  C   UNL A   1      40.029  27.901  27.279  1.00  0.00     0.010 A 
ATOM     34  C   UNL A   1      38.942  27.145  29.315  1.00  0.00     0.010 A 
ATOM     35  C   UNL A   1      39.361  28.182  28.472  1.00  0.00    -0.014 A 
BRANCH  35  36
ATOM     36  C   UNL A   1      39.267  29.502  29.092  1.00  0.00     0.031 A 
ATOM     37  C   UNL A   1      38.285  30.523  28.717  1.00  0.00     0.074 A 
ATOM     38  C   UNL A   1      40.134  29.706  30.107  1.00  0.00     0.049 A 
ATOM     39  N   UNL A   1      38.499  31.795  28.778  1.00  0.00    -0.248 NA
ATOM     40  C   UNL A   1      36.952  30.179  28.246  1.00  0.00     0.031 C 
ATOM     41  C   UNL A   1      40.223  30.774  31.084  1.00  0.00     0.029 A 
ATOM     42  N   UNL A   1      41.282  28.952  30.329  1.00  0.00    -0.354 N 
ATOM     43  C   UNL A   1      37.268  32.409  28.687  1.00  0.00     0.074 A 
ATOM     44  C   UNL A   1      36.368  31.383  28.212  1.00  0.00     0.031 C 
ATOM     45  C   UNL A   1      41.467  30.762  31.608  1.00  0.00     0.029 A 
ATOM     46  C   UNL A   1      42.253  29.787  30.855  1.00  0.00     0.049 A 
ATOM     47  H   UNL A   1      41.386  27.992  30.144  1.00  0.00     0.167 HD
ATOM     48  C   UNL A   1      37.087  33.649  29.229  1.00  0.00     0.031 A 
ATOM     49  C   UNL A   1      43.339  30.055  30.071  1.00  0.00     0.031 A 
ATOM     50  C   UNL A   1      38.314  34.132  29.867  1.00  0.00     0.049 A 
ATOM     51  C   UNL A   1      43.400  31.519  29.710  1.00  0.00     0.074 A 
ATOM     52  C   UNL A   1      38.712  34.151  31.194  1.00  0.00     0.029 A 
ATOM     53  N   UNL A   1      39.458  34.354  29.108  1.00  0.00    -0.354 N 
ATOM     54  N   UNL A   1      42.358  32.300  29.639  1.00  0.00    -0.248 NA
ATOM     55  C   UNL A   1      44.648  32.212  29.426  1.00  0.00     0.031 C 
ATOM     56  C   UNL A   1      40.123  34.294  31.226  1.00  0.00     0.029 A 
ATOM     57  C   UNL A   1      40.575  34.400  29.922  1.00  0.00     0.049 A 
ATOM     58  H   UNL A   1      39.471  34.463  28.130  1.00  0.00     0.167 HD
ATOM     59  C   UNL A   1      42.769  33.581  29.394  1.00  0.00     0.074 A 
ATOM     60  C   UNL A   1      44.212  33.471  29.248  1.00  0.00     0.031 C 
ATOM     61  C   UNL A   1      41.898  34.631  29.356  1.00  0.00     0.031 A 
BRANCH  48  62
ATOM     62  C   UNL A   1      35.722  34.248  29.510  1.00  0.00    -0.014 A 
ATOM     63  C   UNL A   1      35.213  34.242  30.825  1.00  0.00     0.009 A 
ATOM     64  C   UNL A   1      34.875  34.794  28.532  1.00  0.00     0.009 A 
ATOM     65  C   UNL A   1      33.903  34.642  31.125  1.00  0.00     0.001 A 
ATOM     66  C   UNL A   1      33.550  35.166  28.817  1.00  0.00     0.001 A 
ATOM     67  C   UNL A   1      33.059  35.075  30.112  1.00  0.00     0.000 A 
ENDBRANCH  48  62
BRANCH  49  68
ATOM     68  C   UNL A   1      43.739  28.936  29.146  1.00  0.00    -0.014 A 
ATOM     69  C   UNL A   1      43.914  27.637  29.680  1.00  0.00     0.009 A 
ATOM     70  C   UNL A   1      43.665  29.060  27.751  1.00  0.00     0.009 A 
ATOM     71  C   UNL A   1      43.918  26.502  28.858  1.00  0.00     0.001 A 
ATOM     72  C   UNL A   1      43.694  27.921  26.928  1.00  0.00     0.001 A 
ATOM     73  C   UNL A   1      43.792  26.644  27.481  1.00  0.00     0.000 A 
ENDBRANCH  49  68
BRANCH  61  74
ATOM     74  C   UNL A   1      42.222  36.019  28.875  1.00  0.00    -0.014 A 
ATOM     75  C   UNL A   1      42.963  36.953  29.608  1.00  0.00     0.009 A 
ATOM     76  C   UNL A   1      41.888  36.376  27.548  1.00  0.00     0.009 A 
ATOM     77  C   UNL A   1      43.308  38.196  29.065  1.00  0.00     0.001 A 
ATOM     78  C   UNL A   1      42.276  37.592  26.984  1.00  0.00     0.001 A 
ATOM     79  C   UNL A   1      42.976  38.510  27.751  1.00  0.00     0.000 A 
ENDBRANCH  61  74
ENDBRANCH  35  36
ENDBRANCH  28  30
ENDBRANCH  27  28
ENDBRANCH  26  27
ENDBRANCH   1  26
TORSDOF 14
ENDMDL
MODEL 2
REMARK VINA RESULT:     -12.0      3.576      8.801
REMARK SMILES Cc1ccc(-c2c(C(=O)OCCOC(=O)c3ccc(-c4c5nc(c(-c6ccccc6)c6ccc([nH]6)c(-c6ccccc6)c6nc(c(-c7ccccc7)c7ccc4[nH]7)C=C6)C=C5)cc3)nnn2Cc2c(F)cccc2Cl)cc1
REMARK SMILES IDX 11 1 10 2 8 3 9 4 7 5 6 6 66 7 64 8 65 9 5 10 1 11 2 12 3 13
REMARK SMILES IDX 77 14 4 15 76 16 67 17 68 18 69 19 74 20 70 21 71 22 73 23
REMARK SMILES IDX 75 24 72 25 12 26 13 27 14 28 15 29 16 30 17 31 63 32 18 33
REMARK SMILES IDX 62 34 19 35 20 36 21 37 56 38 22 39 61 40 55 41 57 42 23 43
REMARK SMILES IDX 60 44 54 45 53 46 24 48 46 49 31 50 45 51 32 52 35 53 44 54
REMARK SMILES IDX 58 55 33 56 34 57 43 59 59 60 36 61 25 62 26 63 30 64 27 65
REMARK SMILES IDX 29 66 28 67 47 68 48 69 52 70 49 71 51 72 50 73 37 74 38 75
REMARK SMILES IDX 42 76 39 77 41 78 40 79
REMARK H PARENT 57 47 35 58
REMARK Flexibility Score: inf
ROOT
ATOM      1  C   UNL A   1      34.003  28.755  25.861  1.00  0.00     0.275 C 
ENDROOT
BRANCH   1   2
ATOM      2  O   UNL A   1      33.236  29.103  24.711  1.00  0.00    -0.457 OA
BRANCH   2   3
ATOM      3  C   UNL A   1      33.047  28.077  23.834  1.00  0.00     0.361 C 
ATOM      4  O   UNL A   1      33.558  28.033  22.716  1.00  0.00    -0.244 OA
BRANCH   3   5
ATOM      5  C   UNL A   1      32.183  27.042  24.362  1.00  0.00     0.198 A 
ATOM      6  C   UNL A   1      32.572  25.767  24.752  1.00  0.00     0.104 A 
ATOM      7  N   UNL A   1      31.433  25.246  25.311  1.00  0.00    -0.239 N 
ATOM      8  N   UNL A   1      30.836  27.187  24.562  1.00  0.00    -0.122 NA
ATOM      9  N   UNL A   1      30.386  26.083  25.138  1.00  0.00    -0.066 NA
BRANCH   6  10
ATOM     10  C   UNL A   1      33.882  25.163  24.582  1.00  0.00     0.002 A 
ATOM     11  C   UNL A   1      37.058  22.265  24.461  1.00  0.00     0.044 C 
ATOM     12  C   UNL A   1      36.028  23.355  24.483  1.00  0.00    -0.051 A 
ATOM     13  C   UNL A   1      35.242  23.583  23.349  1.00  0.00     0.004 A 
ATOM     14  C   UNL A   1      35.773  24.087  25.647  1.00  0.00     0.004 A 
ATOM     15  C   UNL A   1      34.180  24.483  23.398  1.00  0.00     0.011 A 
ATOM     16  C   UNL A   1      34.706  24.990  25.697  1.00  0.00     0.011 A 
ENDBRANCH   6  10
BRANCH   7  17
ATOM     17  C   UNL A   1      31.187  23.979  25.985  1.00  0.00     0.187 C 
BRANCH  17  18
ATOM     18  C   UNL A   1      31.884  22.785  25.388  1.00  0.00     0.028 A 
ATOM     19  C   UNL A   1      31.561  22.432  24.071  1.00  0.00     0.129 A 
ATOM     20  C   UNL A   1      32.799  21.967  26.068  1.00  0.00     0.049 A 
ATOM     21  F   UNL A   1      30.636  23.136  23.402  1.00  0.00    -0.207 F 
ATOM     22  C   UNL A   1      32.161  21.355  23.424  1.00  0.00     0.040 A 
ATOM     23  C   UNL A   1      33.430  20.900  25.414  1.00  0.00     0.021 A 
ATOM     24  Cl  UNL A   1      33.198  22.209  27.732  1.00  0.00    -0.084 Cl
ATOM     25  C   UNL A   1      33.116  20.598  24.090  1.00  0.00     0.005 A 
ENDBRANCH  17  18
ENDBRANCH   7  17
ENDBRANCH   3   5
ENDBRANCH   2   3
ENDBRANCH   1   2
BRANCH   1  26
ATOM     26  C   UNL A   1      34.095  29.935  26.830  1.00  0.00     0.275 C 
BRANCH  26  27
ATOM     27  O   UNL A   1      34.956  29.805  28.005  1.00  0.00    -0.458 OA
BRANCH  27  28
ATOM     28  C   UNL A   1      36.116  30.423  28.349  1.00  0.00     0.338 C 
ATOM     29  O   UNL A   1      36.141  31.595  28.706  1.00  0.00    -0.246 OA
BRANCH  28  30
ATOM     30  C   UNL A   1      37.370  29.655  28.277  1.00  0.00     0.060 A 
ATOM     31  C   UNL A   1      38.182  29.698  27.129  1.00  0.00     0.016 A 
ATOM     32  C   UNL A   1      37.752  28.905  29.377  1.00  0.00     0.016 A 
ATOM     33  C   UNL A   1      39.413  29.035  27.122  1.00  0.00     0.010 A 
ATOM     34  C   UNL A   1      39.036  28.428  29.443  1.00  0.00     0.010 A 
ATOM     35  C   UNL A   1      39.838  28.409  28.295  1.00  0.00    -0.014 A 
BRANCH  35  36
ATOM     36  C   UNL A   1      40.962  27.481  28.393  1.00  0.00     0.031 A 
ATOM     37  C   UNL A   1      40.850  26.028  28.237  1.00  0.00     0.074 A 
ATOM     38  C   UNL A   1      42.161  28.073  28.586  1.00  0.00     0.049 A 
ATOM     39  N   UNL A   1      41.598  25.171  28.849  1.00  0.00    -0.248 NA
ATOM     40  C   UNL A   1      39.872  25.418  27.349  1.00  0.00     0.031 C 
ATOM     41  C   UNL A   1      43.507  27.536  28.537  1.00  0.00     0.029 A 
ATOM     42  N   UNL A   1      42.335  29.372  29.051  1.00  0.00    -0.354 N 
ATOM     43  C   UNL A   1      41.435  23.967  28.199  1.00  0.00     0.074 A 
ATOM     44  C   UNL A   1      40.254  24.135  27.381  1.00  0.00     0.031 C 
ATOM     45  C   UNL A   1      44.322  28.387  29.195  1.00  0.00     0.029 A 
ATOM     46  C   UNL A   1      43.484  29.407  29.821  1.00  0.00     0.049 A 
ATOM     47  H   UNL A   1      41.743  30.135  28.864  1.00  0.00     0.167 HD
ATOM     48  C   UNL A   1      42.429  23.031  28.242  1.00  0.00     0.031 A 
ATOM     49  C   UNL A   1      43.332  29.617  31.162  1.00  0.00     0.031 A 
ATOM     50  C   UNL A   1      43.576  23.515  29.014  1.00  0.00     0.049 A 
ATOM     51  C   UNL A   1      43.785  28.417  31.955  1.00  0.00     0.074 A 
ATOM     52  C   UNL A   1      44.784  24.064  28.615  1.00  0.00     0.029 A 
ATOM     53  N   UNL A   1      43.440  23.802  30.368  1.00  0.00    -0.354 N 
ATOM     54  N   UNL A   1      43.780  27.194  31.501  1.00  0.00    -0.248 NA
ATOM     55  C   UNL A   1      44.299  28.514  33.314  1.00  0.00     0.031 C 
ATOM     56  C   UNL A   1      45.333  24.764  29.719  1.00  0.00     0.029 A 
ATOM     57  C   UNL A   1      44.478  24.608  30.797  1.00  0.00     0.049 A 
ATOM     58  H   UNL A   1      42.709  23.476  30.941  1.00  0.00     0.167 HD
ATOM     59  C   UNL A   1      44.349  26.365  32.428  1.00  0.00     0.074 A 
ATOM     60  C   UNL A   1      44.639  27.236  33.555  1.00  0.00     0.031 C 
ATOM     61  C   UNL A   1      44.559  25.038  32.186  1.00  0.00     0.031 A 
BRANCH  48  62
ATOM     62  C   UNL A   1      42.515  21.856  27.287  1.00  0.00    -0.014 A 
ATOM     63  C   UNL A   1      41.705  20.722  27.498  1.00  0.00     0.009 A 
ATOM     64  C   UNL A   1      43.391  21.784  26.191  1.00  0.00     0.009 A 
ATOM     65  C   UNL A   1      41.843  19.549  26.742  1.00  0.00     0.001 A 
ATOM     66  C   UNL A   1      43.561  20.602  25.450  1.00  0.00     0.001 A 
ATOM     67  C   UNL A   1      42.797  19.478  25.736  1.00  0.00     0.000 A 
ENDBRANCH  48  62
BRANCH  49  68
ATOM     68  C   UNL A   1      42.159  30.486  31.534  1.00  0.00    -0.014 A 
ATOM     69  C   UNL A   1      42.052  31.774  30.958  1.00  0.00     0.009 A 
ATOM     70  C   UNL A   1      41.030  29.973  32.191  1.00  0.00     0.009 A 
ATOM     71  C   UNL A   1      40.840  32.477  30.956  1.00  0.00     0.001 A 
ATOM     72  C   UNL A   1      39.823  30.692  32.208  1.00  0.00     0.001 A 
ATOM     73  C   UNL A   1      39.720  31.928  31.569  1.00  0.00     0.000 A 
ENDBRANCH  49  68
BRANCH  61  74
ATOM     74  C   UNL A   1      44.962  24.015  33.215  1.00  0.00    -0.014 A 
ATOM     75  C   UNL A   1      46.237  23.936  33.787  1.00  0.00     0.009 A 
ATOM     76  C   UNL A   1      43.971  23.163  33.752  1.00  0.00     0.009 A 
ATOM     77  C   UNL A   1      46.521  23.019  34.806  1.00  0.00     0.001 A 
ATOM     78  C   UNL A   1      44.236  22.284  34.804  1.00  0.00     0.001 A 
ATOM     79  C   UNL A   1      45.520  22.203  35.322  1.00  0.00     0.000 A 
ENDBRANCH  61  74
ENDBRANCH  35  36
ENDBRANCH  28  30
ENDBRANCH  27  28
ENDBRANCH  26  27
ENDBRANCH   1  26
TORSDOF 14
ENDMDL
MODEL 3
REMARK VINA RESULT:     -11.7      3.950      8.880
REMARK SMILES Cc1ccc(-c2c(C(=O)OCCOC(=O)c3ccc(-c4c5nc(c(-c6ccccc6)c6ccc([nH]6)c(-c6ccccc6)c6nc(c(-c7ccccc7)c7ccc4[nH]7)C=C6)C=C5)cc3)nnn2Cc2c(F)cccc2Cl)cc1
REMARK SMILES IDX 11 1 10 2 8 3 9 4 7 5 6 6 66 7 64 8 65 9 5 10 1 11 2 12 3 13
REMARK SMILES IDX 77 14 4 15 76 16 67 17 68 18 69 19 74 20 70 21 71 22 73 23
REMARK SMILES IDX 75 24 72 25 12 26 13 27 14 28 15 29 16 30 17 31 63 32 18 33
REMARK SMILES IDX 62 34 19 35 20 36 21 37 56 38 22 39 61 40 55 41 57 42 23 43
REMARK SMILES IDX 60 44 54 45 53 46 24 48 46 49 31 50 45 51 32 52 35 53 44 54
REMARK SMILES IDX 58 55 33 56 34 57 43 59 59 60 36 61 25 62 26 63 30 64 27 65
REMARK SMILES IDX 29 66 28 67 47 68 48 69 52 70 49 71 51 72 50 73 37 74 38 75
REMARK SMILES IDX 42 76 39 77 41 78 40 79
REMARK H PARENT 57 47 35 58
REMARK Flexibility Score: inf
ROOT
ATOM      1  C   UNL A   1      34.113  28.837  25.914  1.00  0.00     0.275 C 
ENDROOT
BRANCH   1   2
ATOM      2  O   UNL A   1      32.937  28.718  25.115  1.00  0.00    -0.457 OA
BRANCH   2   3
ATOM      3  C   UNL A   1      33.062  27.861  24.063  1.00  0.00     0.361 C 
ATOM      4  O   UNL A   1      33.855  28.027  23.138  1.00  0.00    -0.244 OA
BRANCH   3   5
ATOM      5  C   UNL A   1      32.161  26.730  24.154  1.00  0.00     0.198 A 
ATOM      6  C   UNL A   1      32.528  25.396  24.272  1.00  0.00     0.104 A 
ATOM      7  N   UNL A   1      31.332  24.755  24.474  1.00  0.00    -0.239 N 
ATOM      8  N   UNL A   1      30.796  26.827  24.144  1.00  0.00    -0.122 NA
ATOM      9  N   UNL A   1      30.298  25.615  24.336  1.00  0.00    -0.066 NA
BRANCH   6  10
ATOM     10  C   UNL A   1      33.871  24.848  24.189  1.00  0.00     0.002 A 
ATOM     11  C   UNL A   1      37.196  22.131  24.440  1.00  0.00     0.044 C 
ATOM     12  C   UNL A   1      36.110  23.159  24.325  1.00  0.00    -0.051 A 
ATOM     13  C   UNL A   1      35.334  23.213  23.163  1.00  0.00     0.004 A 
ATOM     14  C   UNL A   1      35.796  24.005  25.394  1.00  0.00     0.004 A 
ATOM     15  C   UNL A   1      34.226  24.054  23.095  1.00  0.00     0.011 A 
ATOM     16  C   UNL A   1      34.683  24.848  25.326  1.00  0.00     0.011 A 
ENDBRANCH   6  10
BRANCH   7  17
ATOM     17  C   UNL A   1      31.025  23.360  24.754  1.00  0.00     0.187 C 
BRANCH  17  18
ATOM     18  C   UNL A   1      32.010  22.648  25.643  1.00  0.00     0.028 A 
ATOM     19  C   UNL A   1      32.221  23.166  26.927  1.00  0.00     0.129 A 
ATOM     20  C   UNL A   1      32.770  21.532  25.265  1.00  0.00     0.049 A 
ATOM     21  F   UNL A   1      31.575  24.278  27.310  1.00  0.00    -0.207 F 
ATOM     22  C   UNL A   1      33.098  22.573  27.831  1.00  0.00     0.040 A 
ATOM     23  C   UNL A   1      33.632  20.910  26.179  1.00  0.00     0.021 A 
ATOM     24  Cl  UNL A   1      32.704  20.861  23.674  1.00  0.00    -0.084 Cl
ATOM     25  C   UNL A   1      33.792  21.426  27.464  1.00  0.00     0.005 A 
ENDBRANCH  17  18
ENDBRANCH   7  17
ENDBRANCH   3   5
ENDBRANCH   2   3
ENDBRANCH   1   2
BRANCH   1  26
ATOM     26  C   UNL A   1      33.804  29.552  27.230  1.00  0.00     0.275 C 
BRANCH  26  27
ATOM     27  O   UNL A   1      34.901  29.784  28.169  1.00  0.00    -0.458 OA
BRANCH  27  28
ATOM     28  C   UNL A   1      36.075  30.457  28.041  1.00  0.00     0.338 C 
ATOM     29  O   UNL A   1      36.109  31.642  27.734  1.00  0.00    -0.246 OA
BRANCH  28  30
ATOM     30  C   UNL A   1      37.332  29.725  28.269  1.00  0.00     0.060 A 
ATOM     31  C   UNL A   1      37.399  28.669  29.196  1.00  0.00     0.016 A 
ATOM     32  C   UNL A   1      38.448  30.079  27.529  1.00  0.00     0.016 A 
ATOM     33  C   UNL A   1      38.578  27.928  29.324  1.00  0.00     0.010 A 
ATOM     34  C   UNL A   1      39.528  29.234  27.510  1.00  0.00     0.010 A 
ATOM     35  C   UNL A   1      39.639  28.214  28.463  1.00  0.00    -0.014 A 
BRANCH  35  36
ATOM     36  C   UNL A   1      41.004  27.715  28.616  1.00  0.00     0.031 A 
ATOM     37  C   UNL A   1      41.489  26.449  28.061  1.00  0.00     0.074 A 
ATOM     38  C   UNL A   1      41.834  28.552  29.276  1.00  0.00     0.049 A 
ATOM     39  N   UNL A   1      42.404  25.718  28.606  1.00  0.00    -0.248 NA
ATOM     40  C   UNL A   1      40.976  25.904  26.813  1.00  0.00     0.031 C 
ATOM     41  C   UNL A   1      43.273  28.521  29.457  1.00  0.00     0.029 A 
ATOM     42  N   UNL A   1      41.417  29.597  30.094  1.00  0.00    -0.354 N 
ATOM     43  C   UNL A   1      42.823  24.824  27.645  1.00  0.00     0.074 A 
ATOM     44  C   UNL A   1      41.814  24.880  26.611  1.00  0.00     0.031 C 
ATOM     45  C   UNL A   1      43.581  29.305  30.511  1.00  0.00     0.029 A 
ATOM     46  C   UNL A   1      42.326  29.727  31.129  1.00  0.00     0.049 A 
ATOM     47  H   UNL A   1      40.613  30.148  29.960  1.00  0.00     0.167 HD
ATOM     48  C   UNL A   1      44.081  24.297  27.710  1.00  0.00     0.031 A 
ATOM     49  C   UNL A   1      41.895  29.404  32.385  1.00  0.00     0.031 A 
ATOM     50  C   UNL A   1      44.815  24.823  28.864  1.00  0.00     0.049 A 
ATOM     51  C   UNL A   1      42.646  28.214  32.928  1.00  0.00     0.074 A 
ATOM     52  C   UNL A   1      45.763  25.828  28.967  1.00  0.00     0.029 A 
ATOM     53  N   UNL A   1      44.367  24.569  30.155  1.00  0.00    -0.354 N 
ATOM     54  N   UNL A   1      43.186  27.287  32.186  1.00  0.00    -0.248 NA
ATOM     55  C   UNL A   1      42.861  27.996  34.351  1.00  0.00     0.031 C 
ATOM     56  C   UNL A   1      45.817  26.242  30.322  1.00  0.00     0.029 A 
ATOM     57  C   UNL A   1      44.930  25.463  31.047  1.00  0.00     0.049 A 
ATOM     58  H   UNL A   1      43.738  23.852  30.401  1.00  0.00     0.167 HD
ATOM     59  C   UNL A   1      43.877  26.416  32.982  1.00  0.00     0.074 A 
ATOM     60  C   UNL A   1      43.626  26.891  34.333  1.00  0.00     0.031 C 
ATOM     61  C   UNL A   1      44.619  25.392  32.468  1.00  0.00     0.031 A 
BRANCH  48  62
ATOM     62  C   UNL A   1      44.764  23.613  26.541  1.00  0.00    -0.014 A 
ATOM     63  C   UNL A   1      44.583  22.230  26.336  1.00  0.00     0.009 A 
ATOM     64  C   UNL A   1      45.623  24.256  25.634  1.00  0.00     0.009 A 
ATOM     65  C   UNL A   1      45.301  21.514  25.368  1.00  0.00     0.001 A 
ATOM     66  C   UNL A   1      46.372  23.542  24.683  1.00  0.00     0.001 A 
ATOM     67  C   UNL A   1      46.222  22.167  24.561  1.00  0.00     0.000 A 
ENDBRANCH  48  62
BRANCH  49  68
ATOM     68  C   UNL A   1      40.435  29.673  32.638  1.00  0.00    -0.014 A 
ATOM     69  C   UNL A   1      39.926  30.971  32.394  1.00  0.00     0.009 A 
ATOM     70  C   UNL A   1      39.507  28.638  32.823  1.00  0.00     0.009 A 
ATOM     71  C   UNL A   1      38.553  31.204  32.248  1.00  0.00     0.001 A 
ATOM     72  C   UNL A   1      38.129  28.879  32.699  1.00  0.00     0.001 A 
ATOM     73  C   UNL A   1      37.654  30.153  32.385  1.00  0.00     0.000 A 
ENDBRANCH  49  68
BRANCH  61  74
ATOM     74  C   UNL A   1      45.219  24.262  33.262  1.00  0.00    -0.014 A 
ATOM     75  C   UNL A   1      46.490  24.300  33.846  1.00  0.00     0.009 A 
ATOM     76  C   UNL A   1      44.413  23.142  33.566  1.00  0.00     0.009 A 
ATOM     77  C   UNL A   1      46.952  23.251  34.649  1.00  0.00     0.001 A 
ATOM     78  C   UNL A   1      44.850  22.119  34.410  1.00  0.00     0.001 A 
ATOM     79  C   UNL A   1      46.129  22.168  34.941  1.00  0.00     0.000 A 
ENDBRANCH  61  74
ENDBRANCH  35  36
ENDBRANCH  28  30
ENDBRANCH  27  28
ENDBRANCH  26  27
ENDBRANCH   1  26
TORSDOF 14
ENDMDL
