MODEL 1
REMARK VINA RESULT:     -10.0      0.000      0.000
REMARK SMILES Cc1cc2c(c(C)c1Br)C=C(C(=O)OCCOC(=O)c1ccc(-c3c4nc(c(-c5ccccc5)c5ccc([nH]5)c(-c5ccccc5)c5nc(c(-c6ccccc6)c6ccc3[nH]6)C=C5)C=C4)cc1)[C@@H](C(F)(F)F)O2
REMARK SMILES IDX 16 1 15 2 14 3 12 4 13 5 11 6 1 7 2 8 3 9 8 10 4 11 6 12
REMARK SMILES IDX 9 13 5 14 73 15 7 16 10 17 68 18 69 19 70 20 71 21 72 22
REMARK SMILES IDX 17 23 18 24 19 25 20 26 21 27 67 28 22 29 66 30 23 31 24 32
REMARK SMILES IDX 25 33 60 34 26 35 65 36 59 37 61 38 27 39 64 40 58 41 57 42
REMARK SMILES IDX 28 44 50 45 35 46 49 47 36 48 39 49 48 50 62 51 37 52 38 53
REMARK SMILES IDX 47 55 63 56 40 57 29 58 30 59 34 60 31 61 33 62 32 63 51 64
REMARK SMILES IDX 52 65 56 66 53 67 55 68 54 69 41 70 42 71 46 72 43 73 45 74
REMARK SMILES IDX 44 75
REMARK H PARENT 61 43 39 54
REMARK Flexibility Score: inf
ROOT
ATOM      1  C   UNL A   1      40.043  19.632  25.730  1.00  0.00     0.275 C 
ENDROOT
BRANCH   1   2
ATOM      2  C   UNL A   1      41.495  19.594  26.205  1.00  0.00     0.275 C 
BRANCH   2   3
ATOM      3  O   UNL A   1      42.221  20.762  25.761  1.00  0.00    -0.459 OA
BRANCH   3   4
ATOM      4  C   UNL A   1      43.509  20.548  25.406  1.00  0.00     0.338 C 
ATOM      5  O   UNL A   1      43.922  19.696  24.635  1.00  0.00    -0.246 OA
BRANCH   4   6
ATOM      6  C   UNL A   1      44.397  21.517  26.075  1.00  0.00     0.087 C 
ATOM      7  C   UNL A   1      47.115  26.350  29.443  1.00  0.00     0.046 C 
ATOM      8  C   UNL A   1      46.300  25.179  28.960  1.00  0.00    -0.033 A 
ATOM      9  C   UNL A   1      46.663  24.570  27.751  1.00  0.00     0.051 A 
ATOM     10  C   UNL A   1      45.193  24.678  29.675  1.00  0.00     0.024 A 
ATOM     11  C   UNL A   1      45.924  23.511  27.231  1.00  0.00     0.128 A 
ATOM     12  C   UNL A   1      44.432  23.598  29.167  1.00  0.00    -0.026 A 
ATOM     13  Br  UNL A   1      44.745  25.496  31.349  1.00  0.00    -0.050 Br
ATOM     14  C   UNL A   1      44.805  23.030  27.918  1.00  0.00     0.021 A 
ATOM     15  O   UNL A   1      46.388  22.999  26.052  1.00  0.00    -0.475 OA
ATOM     16  C   UNL A   1      43.245  23.033  29.914  1.00  0.00     0.046 C 
ATOM     17  C   UNL A   1      44.037  21.961  27.285  1.00  0.00     0.027 C 
ATOM     18  C   UNL A   1      45.568  22.055  25.315  1.00  0.00     0.316 C 
BRANCH  18  19
ATOM     19  C   UNL A   1      45.130  22.702  23.991  1.00  0.00     0.430 C 
ATOM     20  F   UNL A   1      46.107  23.487  23.477  1.00  0.00    -0.167 F 
ATOM     21  F   UNL A   1      44.852  21.768  23.049  1.00  0.00    -0.167 F 
ATOM     22  F   UNL A   1      44.027  23.470  24.136  1.00  0.00    -0.167 F 
ENDBRANCH  18  19
ENDBRANCH   4   6
ENDBRANCH   3   4
ENDBRANCH   2   3
ENDBRANCH   1   2
BRANCH   1  23
ATOM     23  O   UNL A   1      39.267  20.488  26.590  1.00  0.00    -0.458 OA
BRANCH  23  24
ATOM     24  C   UNL A   1      38.731  21.578  25.997  1.00  0.00     0.338 C 
ATOM     25  O   UNL A   1      37.913  21.608  25.094  1.00  0.00    -0.246 OA
BRANCH  24  26
ATOM     26  C   UNL A   1      39.227  22.802  26.648  1.00  0.00     0.060 A 
ATOM     27  C   UNL A   1      38.691  24.028  26.275  1.00  0.00     0.016 A 
ATOM     28  C   UNL A   1      40.344  22.758  27.479  1.00  0.00     0.016 A 
ATOM     29  C   UNL A   1      39.360  25.205  26.594  1.00  0.00     0.010 A 
ATOM     30  C   UNL A   1      40.931  23.954  27.916  1.00  0.00     0.010 A 
ATOM     31  C   UNL A   1      40.487  25.196  27.429  1.00  0.00    -0.014 A 
BRANCH  31  32
ATOM     32  C   UNL A   1      41.217  26.467  27.736  1.00  0.00     0.031 A 
ATOM     33  C   UNL A   1      40.643  27.464  28.717  1.00  0.00     0.074 A 
ATOM     34  C   UNL A   1      42.422  26.726  27.184  1.00  0.00     0.049 A 
ATOM     35  N   UNL A   1      41.023  28.694  28.964  1.00  0.00    -0.248 NA
ATOM     36  C   UNL A   1      39.484  27.031  29.517  1.00  0.00     0.031 C 
ATOM     37  C   UNL A   1      43.155  25.841  26.275  1.00  0.00     0.029 A 
ATOM     38  N   UNL A   1      43.264  27.804  27.332  1.00  0.00    -0.354 N 
ATOM     39  C   UNL A   1      40.113  29.199  29.887  1.00  0.00     0.074 A 
ATOM     40  C   UNL A   1      39.160  28.146  30.157  1.00  0.00     0.031 C 
ATOM     41  C   UNL A   1      44.363  26.364  26.023  1.00  0.00     0.029 A 
ATOM     42  C   UNL A   1      44.442  27.684  26.634  1.00  0.00     0.049 A 
ATOM     43  H   UNL A   1      43.043  28.588  27.886  1.00  0.00     0.167 HD
ATOM     44  C   UNL A   1      40.072  30.429  30.455  1.00  0.00     0.031 A 
ATOM     45  C   UNL A   1      45.459  28.549  26.452  1.00  0.00     0.031 A 
ATOM     46  C   UNL A   1      41.055  31.458  30.238  1.00  0.00     0.049 A 
ATOM     47  C   UNL A   1      45.363  29.926  27.039  1.00  0.00     0.074 A 
ATOM     48  C   UNL A   1      41.092  32.739  30.764  1.00  0.00     0.029 A 
ATOM     49  N   UNL A   1      42.189  31.315  29.455  1.00  0.00    -0.354 N 
ATOM     50  N   UNL A   1      44.435  30.427  27.817  1.00  0.00    -0.248 NA
ATOM     51  C   UNL A   1      46.435  30.870  26.693  1.00  0.00     0.031 C 
ATOM     52  C   UNL A   1      42.227  33.384  30.265  1.00  0.00     0.029 A 
ATOM     53  C   UNL A   1      42.925  32.487  29.473  1.00  0.00     0.049 A 
ATOM     54  H   UNL A   1      42.435  30.501  28.959  1.00  0.00     0.167 HD
ATOM     55  C   UNL A   1      44.812  31.741  28.057  1.00  0.00     0.074 A 
ATOM     56  C   UNL A   1      46.067  31.953  27.364  1.00  0.00     0.031 C 
ATOM     57  C   UNL A   1      44.169  32.689  28.778  1.00  0.00     0.031 A 
BRANCH  44  58
ATOM     58  C   UNL A   1      38.906  30.757  31.348  1.00  0.00    -0.014 A 
ATOM     59  C   UNL A   1      39.017  30.730  32.746  1.00  0.00     0.009 A 
ATOM     60  C   UNL A   1      37.694  31.175  30.771  1.00  0.00     0.009 A 
ATOM     61  C   UNL A   1      37.931  31.096  33.548  1.00  0.00     0.001 A 
ATOM     62  C   UNL A   1      36.622  31.567  31.574  1.00  0.00     0.001 A 
ATOM     63  C   UNL A   1      36.739  31.521  32.962  1.00  0.00     0.000 A 
ENDBRANCH  44  58
BRANCH  45  64
ATOM     64  C   UNL A   1      46.627  28.155  25.619  1.00  0.00    -0.014 A 
ATOM     65  C   UNL A   1      47.843  27.798  26.220  1.00  0.00     0.009 A 
ATOM     66  C   UNL A   1      46.524  28.109  24.218  1.00  0.00     0.009 A 
ATOM     67  C   UNL A   1      48.931  27.404  25.436  1.00  0.00     0.001 A 
ATOM     68  C   UNL A   1      47.601  27.681  23.440  1.00  0.00     0.001 A 
ATOM     69  C   UNL A   1      48.805  27.334  24.049  1.00  0.00     0.000 A 
ENDBRANCH  45  64
BRANCH  57  70
ATOM     70  C   UNL A   1      44.816  34.040  28.877  1.00  0.00    -0.014 A 
ATOM     71  C   UNL A   1      45.725  34.332  29.906  1.00  0.00     0.009 A 
ATOM     72  C   UNL A   1      44.557  35.010  27.898  1.00  0.00     0.009 A 
ATOM     73  C   UNL A   1      46.346  35.581  29.961  1.00  0.00     0.001 A 
ATOM     74  C   UNL A   1      45.200  36.248  27.942  1.00  0.00     0.001 A 
ATOM     75  C   UNL A   1      46.089  36.535  28.976  1.00  0.00     0.000 A 
ENDBRANCH  57  70
ENDBRANCH  31  32
ENDBRANCH  24  26
ENDBRANCH  23  24
ENDBRANCH   1  23
TORSDOF 12
ENDMDL
MODEL 2
REMARK VINA RESULT:      -9.9      6.098     10.216
REMARK SMILES Cc1cc2c(c(C)c1Br)C=C(C(=O)OCCOC(=O)c1ccc(-c3c4nc(c(-c5ccccc5)c5ccc([nH]5)c(-c5ccccc5)c5nc(c(-c6ccccc6)c6ccc3[nH]6)C=C5)C=C4)cc1)[C@@H](C(F)(F)F)O2
REMARK SMILES IDX 16 1 15 2 14 3 12 4 13 5 11 6 1 7 2 8 3 9 8 10 4 11 6 12
REMARK SMILES IDX 9 13 5 14 73 15 7 16 10 17 68 18 69 19 70 20 71 21 72 22
REMARK SMILES IDX 17 23 18 24 19 25 20 26 21 27 67 28 22 29 66 30 23 31 24 32
REMARK SMILES IDX 25 33 60 34 26 35 65 36 59 37 61 38 27 39 64 40 58 41 57 42
REMARK SMILES IDX 28 44 50 45 35 46 49 47 36 48 39 49 48 50 62 51 37 52 38 53
REMARK SMILES IDX 47 55 63 56 40 57 29 58 30 59 34 60 31 61 33 62 32 63 51 64
REMARK SMILES IDX 52 65 56 66 53 67 55 68 54 69 41 70 42 71 46 72 43 73 45 74
REMARK SMILES IDX 44 75
REMARK H PARENT 61 43 39 54
REMARK Flexibility Score: inf
ROOT
ATOM      1  C   UNL A   1      33.031  34.126  28.089  1.00  0.00     0.275 C 
ENDROOT
BRANCH   1   2
ATOM      2  C   UNL A   1      33.310  34.710  29.473  1.00  0.00     0.275 C 
BRANCH   2   3
ATOM      3  O   UNL A   1      34.699  34.552  29.837  1.00  0.00    -0.459 OA
BRANCH   3   4
ATOM      4  C   UNL A   1      34.947  33.647  30.811  1.00  0.00     0.338 C 
ATOM      5  O   UNL A   1      34.351  32.599  31.004  1.00  0.00    -0.246 OA
BRANCH   4   6
ATOM      6  C   UNL A   1      36.085  34.083  31.643  1.00  0.00     0.087 C 
ATOM      7  C   UNL A   1      41.671  34.827  34.856  1.00  0.00     0.046 C 
ATOM      8  C   UNL A   1      40.589  34.594  33.835  1.00  0.00    -0.033 A 
ATOM      9  C   UNL A   1      39.268  34.907  34.183  1.00  0.00     0.051 A 
ATOM     10  C   UNL A   1      40.856  34.076  32.551  1.00  0.00     0.024 A 
ATOM     11  C   UNL A   1      38.219  34.676  33.298  1.00  0.00     0.128 A 
ATOM     12  C   UNL A   1      39.804  33.838  31.634  1.00  0.00    -0.026 A 
ATOM     13  Br  UNL A   1      42.674  33.699  32.081  1.00  0.00    -0.050 Br
ATOM     14  C   UNL A   1      38.471  34.130  32.035  1.00  0.00     0.021 A 
ATOM     15  O   UNL A   1      36.981  35.035  33.754  1.00  0.00    -0.475 OA
ATOM     16  C   UNL A   1      40.058  33.290  30.248  1.00  0.00     0.046 C 
ATOM     17  C   UNL A   1      37.319  33.853  31.181  1.00  0.00     0.027 C 
ATOM     18  C   UNL A   1      35.804  34.627  33.008  1.00  0.00     0.316 C 
BRANCH  18  19
ATOM     19  C   UNL A   1      34.997  33.630  33.857  1.00  0.00     0.430 C 
ATOM     20  F   UNL A   1      33.672  33.711  33.589  1.00  0.00    -0.167 F 
ATOM     21  F   UNL A   1      35.363  32.350  33.599  1.00  0.00    -0.167 F 
ATOM     22  F   UNL A   1      35.159  33.837  35.182  1.00  0.00    -0.167 F 
ENDBRANCH  18  19
ENDBRANCH   4   6
ENDBRANCH   3   4
ENDBRANCH   2   3
ENDBRANCH   1   2
BRANCH   1  23
ATOM     23  O   UNL A   1      34.174  33.382  27.630  1.00  0.00    -0.458 OA
BRANCH  23  24
ATOM     24  C   UNL A   1      34.011  32.041  27.571  1.00  0.00     0.338 C 
ATOM     25  O   UNL A   1      33.025  31.426  27.206  1.00  0.00    -0.246 OA
BRANCH  24  26
ATOM     26  C   UNL A   1      35.260  31.364  27.959  1.00  0.00     0.060 A 
ATOM     27  C   UNL A   1      35.198  30.062  28.441  1.00  0.00     0.016 A 
ATOM     28  C   UNL A   1      36.457  32.073  28.030  1.00  0.00     0.016 A 
ATOM     29  C   UNL A   1      36.278  29.526  29.135  1.00  0.00     0.010 A 
ATOM     30  C   UNL A   1      37.586  31.472  28.604  1.00  0.00     0.010 A 
ATOM     31  C   UNL A   1      37.497  30.213  29.225  1.00  0.00    -0.014 A 
BRANCH  31  32
ATOM     32  C   UNL A   1      38.639  29.639  30.005  1.00  0.00     0.031 A 
ATOM     33  C   UNL A   1      38.797  29.952  31.476  1.00  0.00     0.074 A 
ATOM     34  C   UNL A   1      39.518  28.792  29.428  1.00  0.00     0.049 A 
ATOM     35  N   UNL A   1      39.814  29.712  32.268  1.00  0.00    -0.248 NA
ATOM     36  C   UNL A   1      37.675  30.634  32.144  1.00  0.00     0.031 C 
ATOM     37  C   UNL A   1      39.471  28.325  28.040  1.00  0.00     0.029 A 
ATOM     38  N   UNL A   1      40.615  28.144  29.949  1.00  0.00    -0.354 N 
ATOM     39  C   UNL A   1      39.484  30.274  33.497  1.00  0.00     0.074 A 
ATOM     40  C   UNL A   1      38.175  30.868  33.350  1.00  0.00     0.031 C 
ATOM     41  C   UNL A   1      40.428  27.405  27.848  1.00  0.00     0.029 A 
ATOM     42  C   UNL A   1      41.245  27.316  29.050  1.00  0.00     0.049 A 
ATOM     43  H   UNL A   1      40.920  28.264  30.877  1.00  0.00     0.167 HD
ATOM     44  C   UNL A   1      40.208  30.296  34.643  1.00  0.00     0.031 A 
ATOM     45  C   UNL A   1      42.382  26.600  29.148  1.00  0.00     0.031 A 
ATOM     46  C   UNL A   1      41.483  29.650  34.812  1.00  0.00     0.049 A 
ATOM     47  C   UNL A   1      43.198  26.689  30.404  1.00  0.00     0.074 A 
ATOM     48  C   UNL A   1      42.294  29.625  35.935  1.00  0.00     0.029 A 
ATOM     49  N   UNL A   1      42.119  28.890  33.843  1.00  0.00    -0.354 N 
ATOM     50  N   UNL A   1      42.926  27.321  31.520  1.00  0.00    -0.248 NA
ATOM     51  C   UNL A   1      44.494  25.997  30.402  1.00  0.00     0.031 C 
ATOM     52  C   UNL A   1      43.440  28.886  35.631  1.00  0.00     0.029 A 
ATOM     53  C   UNL A   1      43.317  28.404  34.338  1.00  0.00     0.049 A 
ATOM     54  H   UNL A   1      41.771  28.722  32.938  1.00  0.00     0.167 HD
ATOM     55  C   UNL A   1      44.013  27.100  32.353  1.00  0.00     0.074 A 
ATOM     56  C   UNL A   1      44.937  26.254  31.625  1.00  0.00     0.031 C 
ATOM     57  C   UNL A   1      44.230  27.567  33.605  1.00  0.00     0.031 A 
BRANCH  44  58
ATOM     58  C   UNL A   1      39.660  31.073  35.810  1.00  0.00    -0.014 A 
ATOM     59  C   UNL A   1      40.398  32.092  36.429  1.00  0.00     0.009 A 
ATOM     60  C   UNL A   1      38.346  30.827  36.244  1.00  0.00     0.009 A 
ATOM     61  C   UNL A   1      39.840  32.834  37.474  1.00  0.00     0.001 A 
ATOM     62  C   UNL A   1      37.780  31.589  37.267  1.00  0.00     0.001 A 
ATOM     63  C   UNL A   1      38.530  32.588  37.885  1.00  0.00     0.000 A 
ENDBRANCH  44  58
BRANCH  45  64
ATOM     64  C   UNL A   1      42.848  25.787  27.993  1.00  0.00    -0.014 A 
ATOM     65  C   UNL A   1      42.514  24.429  27.895  1.00  0.00     0.009 A 
ATOM     66  C   UNL A   1      43.608  26.373  26.966  1.00  0.00     0.009 A 
ATOM     67  C   UNL A   1      42.932  23.674  26.796  1.00  0.00     0.001 A 
ATOM     68  C   UNL A   1      43.994  25.627  25.852  1.00  0.00     0.001 A 
ATOM     69  C   UNL A   1      43.660  24.276  25.770  1.00  0.00     0.000 A 
ENDBRANCH  45  64
BRANCH  57  70
ATOM     70  C   UNL A   1      45.506  27.160  34.283  1.00  0.00    -0.014 A 
ATOM     71  C   UNL A   1      46.655  27.961  34.202  1.00  0.00     0.009 A 
ATOM     72  C   UNL A   1      45.540  25.993  35.061  1.00  0.00     0.009 A 
ATOM     73  C   UNL A   1      47.822  27.587  34.870  1.00  0.00     0.001 A 
ATOM     74  C   UNL A   1      46.700  25.636  35.750  1.00  0.00     0.001 A 
ATOM     75  C   UNL A   1      47.842  26.429  35.649  1.00  0.00     0.000 A 
ENDBRANCH  57  70
ENDBRANCH  31  32
ENDBRANCH  24  26
ENDBRANCH  23  24
ENDBRANCH   1  23
TORSDOF 12
ENDMDL
MODEL 3
REMARK VINA RESULT:      -9.7      4.590      7.190
REMARK SMILES Cc1cc2c(c(C)c1Br)C=C(C(=O)OCCOC(=O)c1ccc(-c3c4nc(c(-c5ccccc5)c5ccc([nH]5)c(-c5ccccc5)c5nc(c(-c6ccccc6)c6ccc3[nH]6)C=C5)C=C4)cc1)[C@@H](C(F)(F)F)O2
REMARK SMILES IDX 16 1 15 2 14 3 12 4 13 5 11 6 1 7 2 8 3 9 8 10 4 11 6 12
REMARK SMILES IDX 9 13 5 14 73 15 7 16 10 17 68 18 69 19 70 20 71 21 72 22
REMARK SMILES IDX 17 23 18 24 19 25 20 26 21 27 67 28 22 29 66 30 23 31 24 32
REMARK SMILES IDX 25 33 60 34 26 35 65 36 59 37 61 38 27 39 64 40 58 41 57 42
REMARK SMILES IDX 28 44 50 45 35 46 49 47 36 48 39 49 48 50 62 51 37 52 38 53
REMARK SMILES IDX 47 55 63 56 40 57 29 58 30 59 34 60 31 61 33 62 32 63 51 64
REMARK SMILES IDX 52 65 56 66 53 67 55 68 54 69 41 70 42 71 46 72 43 73 45 74
REMARK SMILES IDX 44 75
REMARK H PARENT 61 43 39 54
REMARK Flexibility Score: inf
ROOT
ATOM      1  C   UNL A   1      36.347  20.884  25.338  1.00  0.00     0.275 C 
ENDROOT
BRANCH   1   2
ATOM      2  C   UNL A   1      35.160  21.562  24.656  1.00  0.00     0.275 C 
BRANCH   2   3
ATOM      3  O   UNL A   1      35.176  22.990  24.876  1.00  0.00    -0.459 OA
BRANCH   3   4
ATOM      4  C   UNL A   1      34.242  23.457  25.737  1.00  0.00     0.338 C 
ATOM      5  O   UNL A   1      34.011  23.040  26.861  1.00  0.00    -0.246 OA
BRANCH   4   6
ATOM      6  C   UNL A   1      33.513  24.593  25.141  1.00  0.00     0.087 C 
ATOM      7  C   UNL A   1      30.054  29.925  23.839  1.00  0.00     0.046 C 
ATOM      8  C   UNL A   1      31.032  28.904  24.360  1.00  0.00    -0.033 A 
ATOM      9  C   UNL A   1      31.107  27.663  23.712  1.00  0.00     0.051 A 
ATOM     10  C   UNL A   1      31.866  29.149  25.470  1.00  0.00     0.024 A 
ATOM     11  C   UNL A   1      31.961  26.665  24.171  1.00  0.00     0.128 A 
ATOM     12  C   UNL A   1      32.744  28.149  25.950  1.00  0.00    -0.026 A 
ATOM     13  Br  UNL A   1      31.778  30.868  26.311  1.00  0.00    -0.050 Br
ATOM     14  C   UNL A   1      32.767  26.889  25.292  1.00  0.00     0.021 A 
ATOM     15  O   UNL A   1      31.948  25.507  23.444  1.00  0.00    -0.475 OA
ATOM     16  C   UNL A   1      33.657  28.384  27.132  1.00  0.00     0.046 C 
ATOM     17  C   UNL A   1      33.590  25.777  25.760  1.00  0.00     0.027 C 
ATOM     18  C   UNL A   1      32.622  24.332  23.968  1.00  0.00     0.316 C 
BRANCH  18  19
ATOM     19  C   UNL A   1      31.571  23.256  24.287  1.00  0.00     0.430 C 
ATOM     20  F   UNL A   1      32.062  22.010  24.082  1.00  0.00    -0.167 F 
ATOM     21  F   UNL A   1      31.187  23.308  25.586  1.00  0.00    -0.167 F 
ATOM     22  F   UNL A   1      30.459  23.385  23.530  1.00  0.00    -0.167 F 
ENDBRANCH  18  19
ENDBRANCH   4   6
ENDBRANCH   3   4
ENDBRANCH   2   3
ENDBRANCH   1   2
BRANCH   1  23
ATOM     23  O   UNL A   1      37.567  21.562  24.988  1.00  0.00    -0.458 OA
BRANCH  23  24
ATOM     24  C   UNL A   1      38.652  21.227  25.723  1.00  0.00     0.338 C 
ATOM     25  O   UNL A   1      39.191  20.137  25.800  1.00  0.00    -0.246 OA
BRANCH  24  26
ATOM     26  C   UNL A   1      39.182  22.417  26.410  1.00  0.00     0.060 A 
ATOM     27  C   UNL A   1      38.613  23.656  26.145  1.00  0.00     0.016 A 
ATOM     28  C   UNL A   1      40.352  22.337  27.161  1.00  0.00     0.016 A 
ATOM     29  C   UNL A   1      39.293  24.820  26.487  1.00  0.00     0.010 A 
ATOM     30  C   UNL A   1      40.958  23.513  27.627  1.00  0.00     0.010 A 
ATOM     31  C   UNL A   1      40.474  24.776  27.243  1.00  0.00    -0.014 A 
BRANCH  31  32
ATOM     32  C   UNL A   1      41.213  26.035  27.574  1.00  0.00     0.031 A 
ATOM     33  C   UNL A   1      40.623  27.041  28.537  1.00  0.00     0.074 A 
ATOM     34  C   UNL A   1      42.440  26.275  27.063  1.00  0.00     0.049 A 
ATOM     35  N   UNL A   1      41.015  28.266  28.797  1.00  0.00    -0.248 NA
ATOM     36  C   UNL A   1      39.432  26.627  29.297  1.00  0.00     0.031 C 
ATOM     37  C   UNL A   1      43.188  25.378  26.179  1.00  0.00     0.029 A 
ATOM     38  N   UNL A   1      43.294  27.339  27.239  1.00  0.00    -0.354 N 
ATOM     39  C   UNL A   1      40.082  28.785  29.689  1.00  0.00     0.074 A 
ATOM     40  C   UNL A   1      39.104  27.747  29.927  1.00  0.00     0.031 C 
ATOM     41  C   UNL A   1      44.412  25.882  25.967  1.00  0.00     0.029 A 
ATOM     42  C   UNL A   1      44.492  27.201  26.580  1.00  0.00     0.049 A 
ATOM     43  H   UNL A   1      43.067  28.127  27.785  1.00  0.00     0.167 HD
ATOM     44  C   UNL A   1      40.043  30.016  30.256  1.00  0.00     0.031 A 
ATOM     45  C   UNL A   1      45.528  28.049  26.432  1.00  0.00     0.031 A 
ATOM     46  C   UNL A   1      41.048  31.028  30.072  1.00  0.00     0.049 A 
ATOM     47  C   UNL A   1      45.434  29.428  27.016  1.00  0.00     0.074 A 
ATOM     48  C   UNL A   1      41.089  32.309  30.599  1.00  0.00     0.029 A 
ATOM     49  N   UNL A   1      42.206  30.867  29.326  1.00  0.00    -0.354 N 
ATOM     50  N   UNL A   1      44.489  29.944  27.764  1.00  0.00    -0.248 NA
ATOM     51  C   UNL A   1      46.533  30.354  26.706  1.00  0.00     0.031 C 
ATOM     52  C   UNL A   1      42.249  32.936  30.138  1.00  0.00     0.029 A 
ATOM     53  C   UNL A   1      42.958  32.028  29.369  1.00  0.00     0.049 A 
ATOM     54  H   UNL A   1      42.454  30.049  28.838  1.00  0.00     0.167 HD
ATOM     55  C   UNL A   1      44.880  31.251  28.016  1.00  0.00     0.074 A 
ATOM     56  C   UNL A   1      46.159  31.443  27.365  1.00  0.00     0.031 C 
ATOM     57  C   UNL A   1      44.228  32.209  28.716  1.00  0.00     0.031 A 
BRANCH  44  58
ATOM     58  C   UNL A   1      38.853  30.362  31.110  1.00  0.00    -0.014 A 
ATOM     59  C   UNL A   1      38.876  30.211  32.504  1.00  0.00     0.009 A 
ATOM     60  C   UNL A   1      37.714  30.923  30.507  1.00  0.00     0.009 A 
ATOM     61  C   UNL A   1      37.775  30.596  33.275  1.00  0.00     0.001 A 
ATOM     62  C   UNL A   1      36.628  31.334  31.282  1.00  0.00     0.001 A 
ATOM     63  C   UNL A   1      36.657  31.164  32.665  1.00  0.00     0.000 A 
ENDBRANCH  44  58
BRANCH  45  64
ATOM     64  C   UNL A   1      46.717  27.637  25.638  1.00  0.00    -0.014 A 
ATOM     65  C   UNL A   1      47.785  26.965  26.251  1.00  0.00     0.009 A 
ATOM     66  C   UNL A   1      46.777  27.889  24.257  1.00  0.00     0.009 A 
ATOM     67  C   UNL A   1      48.889  26.557  25.497  1.00  0.00     0.001 A 
ATOM     68  C   UNL A   1      47.864  27.448  23.501  1.00  0.00     0.001 A 
ATOM     69  C   UNL A   1      48.921  26.787  24.122  1.00  0.00     0.000 A 
ENDBRANCH  45  64
BRANCH  57  70
ATOM     70  C   UNL A   1      44.892  33.550  28.837  1.00  0.00    -0.014 A 
ATOM     71  C   UNL A   1      44.611  34.581  27.928  1.00  0.00     0.009 A 
ATOM     72  C   UNL A   1      45.765  33.801  29.906  1.00  0.00     0.009 A 
ATOM     73  C   UNL A   1      45.209  35.833  28.077  1.00  0.00     0.001 A 
ATOM     74  C   UNL A   1      46.341  35.063  30.067  1.00  0.00     0.001 A 
ATOM     75  C   UNL A   1      46.067  36.075  29.150  1.00  0.00     0.000 A 
ENDBRANCH  57  70
ENDBRANCH  31  32
ENDBRANCH  24  26
ENDBRANCH  23  24
ENDBRANCH   1  23
TORSDOF 12
ENDMDL
