MODEL 1
REMARK VINA RESULT:      -9.0      0.000      0.000
REMARK SMILES CCCCCCCCNC(=O)Oc1cccc(-c2ccc([C@@H](C)C(=O)OCCOC(=O)c3ccc(-c4c5nc(c(-c6ccccc6)c6ccc([nH]6)c(-c6ccccc6)c6nc(c(-c7ccccc7)c7ccc4[nH]7)C=C6)C=C5)cc3)cc2F)c1
REMARK SMILES IDX 18 1 19 2 20 3 21 4 80 5 81 6 82 7 17 8 13 9 14 10 83 11
REMARK SMILES IDX 15 12 16 13 12 14 10 15 9 16 11 18 8 19 7 20 6 21 5 22 4 23
REMARK SMILES IDX 3 24 2 25 1 26 22 27 23 28 24 29 25 30 26 31 27 32 28 33
REMARK SMILES IDX 29 34 30 35 31 36 32 37 33 38 79 39 34 40 78 41 35 42 36 43
REMARK SMILES IDX 37 44 72 45 38 46 77 47 71 48 73 49 39 50 76 51 70 52 69 53
REMARK SMILES IDX 40 55 62 56 47 57 61 58 48 59 51 60 60 61 74 62 49 63 50 64
REMARK SMILES IDX 59 66 75 67 52 68 41 69 42 70 46 71 43 72 45 73 44 74 63 75
REMARK SMILES IDX 64 76 68 77 65 78 67 79 66 80 53 81 54 82 58 83 55 84 57 85
REMARK SMILES IDX 56 86
REMARK H PARENT 9 17 73 54 51 65
REMARK Flexibility Score: inf
ROOT
ATOM      1  C   UNL A   1      44.931  24.648  30.347  1.00  0.00     0.018 A 
ATOM      2  C   UNL A   1      44.111  23.581  30.743  1.00  0.00     0.012 A 
ATOM      3  C   UNL A   1      43.882  23.299  32.095  1.00  0.00     0.005 A 
ATOM      4  C   UNL A   1      44.480  24.071  33.101  1.00  0.00    -0.031 A 
ATOM      5  C   UNL A   1      45.315  25.129  32.711  1.00  0.00     0.044 A 
ATOM      6  C   UNL A   1      45.533  25.405  31.360  1.00  0.00     0.131 A 
ATOM      7  F   UNL A   1      46.320  26.448  31.054  1.00  0.00    -0.206 F 
ENDROOT
BRANCH   1   8
ATOM      8  C   UNL A   1      45.119  24.962  28.920  1.00  0.00    -0.012 A 
ATOM      9  C   UNL A   1      46.069  24.486  26.740  1.00  0.00     0.133 A 
ATOM     10  C   UNL A   1      45.463  25.615  26.194  1.00  0.00     0.047 A 
ATOM     11  C   UNL A   1      45.918  24.161  28.090  1.00  0.00     0.056 A 
ATOM     12  C   UNL A   1      44.670  26.419  27.004  1.00  0.00     0.004 A 
ATOM     13  C   UNL A   1      44.500  26.094  28.353  1.00  0.00     0.009 A 
BRANCH   9  14
ATOM     14  O   UNL A   1      46.935  23.764  25.907  1.00  0.00    -0.410 OA
BRANCH  14  15
ATOM     15  C   UNL A   1      46.890  24.034  24.548  1.00  0.00     0.412 C 
ATOM     16  N   UNL A   1      46.081  23.173  23.860  1.00  0.00    -0.321 N 
ATOM     17  H   UNL A   1      45.996  23.326  22.892  1.00  0.00     0.167 HD
ATOM     18  O   UNL A   1      47.500  24.923  23.965  1.00  0.00    -0.224 OA
BRANCH  16  19
ATOM     19  C   UNL A   1      45.335  22.058  24.408  1.00  0.00     0.119 C 
BRANCH  19  20
ATOM     20  C   UNL A   1      43.840  22.359  24.508  1.00  0.00     0.021 C 
BRANCH  20  21
ATOM     21  C   UNL A   1      43.337  22.670  25.924  1.00  0.00     0.002 C 
BRANCH  21  22
ATOM     22  C   UNL A   1      41.886  22.268  26.212  1.00  0.00     0.000 C 
BRANCH  22  23
ATOM     23  C   UNL A   1      41.653  21.603  27.572  1.00  0.00    -0.000 C 
BRANCH  23  24
ATOM     24  C   UNL A   1      41.190  20.142  27.512  1.00  0.00    -0.000 C 
BRANCH  24  25
ATOM     25  C   UNL A   1      41.397  19.443  26.165  1.00  0.00    -0.003 C 
ATOM     26  C   UNL A   1      42.714  18.689  26.070  1.00  0.00     0.004 C 
ENDBRANCH  24  25
ENDBRANCH  23  24
ENDBRANCH  22  23
ENDBRANCH  21  22
ENDBRANCH  20  21
ENDBRANCH  19  20
ENDBRANCH  16  19
ENDBRANCH  14  15
ENDBRANCH   9  14
ENDBRANCH   1   8
BRANCH   4  27
ATOM     27  C   UNL A   1      44.243  23.793  34.577  1.00  0.00     0.126 C 
ATOM     28  C   UNL A   1      42.761  23.646  34.912  1.00  0.00     0.025 C 
BRANCH  27  29
ATOM     29  C   UNL A   1      45.031  22.633  35.173  1.00  0.00     0.313 C 
ATOM     30  O   UNL A   1      44.736  21.463  34.947  1.00  0.00    -0.252 OA
BRANCH  29  31
ATOM     31  O   UNL A   1      46.088  23.023  35.932  1.00  0.00    -0.462 OA
BRANCH  31  32
ATOM     32  C   UNL A   1      45.926  22.954  37.362  1.00  0.00     0.274 C 
BRANCH  32  33
ATOM     33  C   UNL A   1      46.343  24.266  38.028  1.00  0.00     0.275 C 
BRANCH  33  34
ATOM     34  O   UNL A   1      45.486  25.351  37.627  1.00  0.00    -0.458 OA
BRANCH  34  35
ATOM     35  C   UNL A   1      46.111  26.381  37.011  1.00  0.00     0.338 C 
ATOM     36  O   UNL A   1      47.280  26.706  37.100  1.00  0.00    -0.246 OA
BRANCH  35  37
ATOM     37  C   UNL A   1      45.170  27.034  36.096  1.00  0.00     0.060 A 
ATOM     38  C   UNL A   1      45.672  27.906  35.125  1.00  0.00     0.016 A 
ATOM     39  C   UNL A   1      43.797  26.847  36.248  1.00  0.00     0.016 A 
ATOM     40  C   UNL A   1      44.798  28.605  34.297  1.00  0.00     0.010 A 
ATOM     41  C   UNL A   1      42.921  27.539  35.412  1.00  0.00     0.010 A 
ATOM     42  C   UNL A   1      43.416  28.428  34.440  1.00  0.00    -0.014 A 
BRANCH  42  43
ATOM     43  C   UNL A   1      42.466  29.194  33.603  1.00  0.00     0.031 A 
ATOM     44  C   UNL A   1      41.794  30.407  34.172  1.00  0.00     0.074 A 
ATOM     45  C   UNL A   1      42.177  28.774  32.358  1.00  0.00     0.049 A 
ATOM     46  N   UNL A   1      40.795  31.100  33.690  1.00  0.00    -0.248 NA
ATOM     47  C   UNL A   1      42.312  30.903  35.457  1.00  0.00     0.031 C 
ATOM     48  C   UNL A   1      42.809  27.644  31.678  1.00  0.00     0.029 A 
ATOM     49  N   UNL A   1      41.256  29.240  31.455  1.00  0.00    -0.354 N 
ATOM     50  C   UNL A   1      40.541  32.092  34.627  1.00  0.00     0.074 A 
ATOM     51  C   UNL A   1      41.488  31.910  35.707  1.00  0.00     0.031 C 
ATOM     52  C   UNL A   1      42.244  27.492  30.469  1.00  0.00     0.029 A 
ATOM     53  C   UNL A   1      41.176  28.475  30.318  1.00  0.00     0.049 A 
ATOM     54  H   UNL A   1      40.707  30.042  31.608  1.00  0.00     0.167 HD
ATOM     55  C   UNL A   1      39.595  33.060  34.592  1.00  0.00     0.031 A 
ATOM     56  C   UNL A   1      40.306  28.532  29.292  1.00  0.00     0.031 A 
ATOM     57  C   UNL A   1      38.658  33.232  33.514  1.00  0.00     0.049 A 
ATOM     58  C   UNL A   1      39.216  29.567  29.309  1.00  0.00     0.074 A 
ATOM     59  C   UNL A   1      37.666  34.187  33.378  1.00  0.00     0.029 A 
ATOM     60  N   UNL A   1      38.600  32.428  32.387  1.00  0.00    -0.354 N 
ATOM     61  N   UNL A   1      38.970  30.491  30.207  1.00  0.00    -0.248 NA
ATOM     62  C   UNL A   1      38.278  29.562  28.178  1.00  0.00     0.031 C 
ATOM     63  C   UNL A   1      36.978  33.932  32.187  1.00  0.00     0.029 A 
ATOM     64  C   UNL A   1      37.574  32.850  31.560  1.00  0.00     0.049 A 
ATOM     65  H   UNL A   1      39.198  31.669  32.202  1.00  0.00     0.167 HD
ATOM     66  C   UNL A   1      37.869  31.193  29.738  1.00  0.00     0.074 A 
ATOM     67  C   UNL A   1      37.495  30.590  28.474  1.00  0.00     0.031 C 
ATOM     68  C   UNL A   1      37.227  32.244  30.301  1.00  0.00     0.031 A 
BRANCH  55  69
ATOM     69  C   UNL A   1      39.498  33.975  35.777  1.00  0.00    -0.014 A 
ATOM     70  C   UNL A   1      40.139  35.224  35.792  1.00  0.00     0.009 A 
ATOM     71  C   UNL A   1      38.728  33.592  36.887  1.00  0.00     0.009 A 
ATOM     72  C   UNL A   1      40.034  36.056  36.909  1.00  0.00     0.001 A 
ATOM     73  C   UNL A   1      38.606  34.437  37.991  1.00  0.00     0.001 A 
ATOM     74  C   UNL A   1      39.266  35.664  38.004  1.00  0.00     0.000 A 
ENDBRANCH  55  69
BRANCH  56  75
ATOM     75  C   UNL A   1      40.406  27.547  28.185  1.00  0.00    -0.014 A 
ATOM     76  C   UNL A   1      41.160  27.836  27.039  1.00  0.00     0.009 A 
ATOM     77  C   UNL A   1      39.753  26.307  28.275  1.00  0.00     0.009 A 
ATOM     78  C   UNL A   1      41.248  26.908  25.999  1.00  0.00     0.001 A 
ATOM     79  C   UNL A   1      39.863  25.372  27.244  1.00  0.00     0.001 A 
ATOM     80  C   UNL A   1      40.605  25.676  26.105  1.00  0.00     0.000 A 
ENDBRANCH  56  75
BRANCH  68  81
ATOM     81  C   UNL A   1      36.084  32.845  29.536  1.00  0.00    -0.014 A 
ATOM     82  C   UNL A   1      34.803  32.274  29.573  1.00  0.00     0.009 A 
ATOM     83  C   UNL A   1      36.283  34.038  28.822  1.00  0.00     0.009 A 
ATOM     84  C   UNL A   1      33.745  32.881  28.894  1.00  0.00     0.001 A 
ATOM     85  C   UNL A   1      35.218  34.652  28.163  1.00  0.00     0.001 A 
ATOM     86  C   UNL A   1      33.951  34.072  28.197  1.00  0.00     0.000 A 
ENDBRANCH  68  81
ENDBRANCH  42  43
ENDBRANCH  35  37
ENDBRANCH  34  35
ENDBRANCH  33  34
ENDBRANCH  32  33
ENDBRANCH  31  32
ENDBRANCH  29  31
ENDBRANCH  27  29
ENDBRANCH   4  27
TORSDOF 22
ENDMDL
MODEL 2
REMARK VINA RESULT:      -9.0      5.669     10.420
REMARK SMILES CCCCCCCCNC(=O)Oc1cccc(-c2ccc([C@@H](C)C(=O)OCCOC(=O)c3ccc(-c4c5nc(c(-c6ccccc6)c6ccc([nH]6)c(-c6ccccc6)c6nc(c(-c7ccccc7)c7ccc4[nH]7)C=C6)C=C5)cc3)cc2F)c1
REMARK SMILES IDX 18 1 19 2 20 3 21 4 80 5 81 6 82 7 17 8 13 9 14 10 83 11
REMARK SMILES IDX 15 12 16 13 12 14 10 15 9 16 11 18 8 19 7 20 6 21 5 22 4 23
REMARK SMILES IDX 3 24 2 25 1 26 22 27 23 28 24 29 25 30 26 31 27 32 28 33
REMARK SMILES IDX 29 34 30 35 31 36 32 37 33 38 79 39 34 40 78 41 35 42 36 43
REMARK SMILES IDX 37 44 72 45 38 46 77 47 71 48 73 49 39 50 76 51 70 52 69 53
REMARK SMILES IDX 40 55 62 56 47 57 61 58 48 59 51 60 60 61 74 62 49 63 50 64
REMARK SMILES IDX 59 66 75 67 52 68 41 69 42 70 46 71 43 72 45 73 44 74 63 75
REMARK SMILES IDX 64 76 68 77 65 78 67 79 66 80 53 81 54 82 58 83 55 84 57 85
REMARK SMILES IDX 56 86
REMARK H PARENT 9 17 73 54 51 65
REMARK Flexibility Score: inf
ROOT
ATOM      1  C   UNL A   1      36.217  22.092  24.792  1.00  0.00     0.018 A 
ATOM      2  C   UNL A   1      36.991  20.936  24.604  1.00  0.00     0.012 A 
ATOM      3  C   UNL A   1      38.292  20.839  25.111  1.00  0.00     0.005 A 
ATOM      4  C   UNL A   1      38.871  21.904  25.814  1.00  0.00    -0.031 A 
ATOM      5  C   UNL A   1      38.109  23.069  25.990  1.00  0.00     0.044 A 
ATOM      6  C   UNL A   1      36.810  23.155  25.485  1.00  0.00     0.131 A 
ATOM      7  F   UNL A   1      36.124  24.286  25.711  1.00  0.00    -0.206 F 
ENDROOT
BRANCH   1   8
ATOM      8  C   UNL A   1      34.832  22.157  24.297  1.00  0.00    -0.012 A 
ATOM      9  C   UNL A   1      32.981  23.362  23.296  1.00  0.00     0.133 A 
ATOM     10  C   UNL A   1      32.163  22.238  23.378  1.00  0.00     0.047 A 
ATOM     11  C   UNL A   1      34.297  23.338  23.759  1.00  0.00     0.056 A 
ATOM     12  C   UNL A   1      32.677  21.061  23.909  1.00  0.00     0.004 A 
ATOM     13  C   UNL A   1      33.998  21.022  24.363  1.00  0.00     0.009 A 
BRANCH   9  14
ATOM     14  O   UNL A   1      32.386  24.548  22.842  1.00  0.00    -0.410 OA
BRANCH  14  15
ATOM     15  C   UNL A   1      33.071  25.285  21.890  1.00  0.00     0.412 C 
ATOM     16  N   UNL A   1      33.557  26.467  22.377  1.00  0.00    -0.321 N 
ATOM     17  H   UNL A   1      34.067  27.026  21.749  1.00  0.00     0.167 HD
ATOM     18  O   UNL A   1      33.241  24.973  20.717  1.00  0.00    -0.224 OA
BRANCH  16  19
ATOM     19  C   UNL A   1      33.398  26.981  23.722  1.00  0.00     0.119 C 
BRANCH  19  20
ATOM     20  C   UNL A   1      31.929  27.198  24.086  1.00  0.00     0.021 C 
BRANCH  20  21
ATOM     21  C   UNL A   1      31.531  26.707  25.485  1.00  0.00     0.002 C 
BRANCH  21  22
ATOM     22  C   UNL A   1      30.319  25.770  25.534  1.00  0.00     0.000 C 
BRANCH  22  23
ATOM     23  C   UNL A   1      30.572  24.411  26.195  1.00  0.00    -0.000 C 
BRANCH  23  24
ATOM     24  C   UNL A   1      32.005  24.183  26.687  1.00  0.00    -0.000 C 
BRANCH  24  25
ATOM     25  C   UNL A   1      32.326  22.754  27.135  1.00  0.00    -0.003 C 
ATOM     26  C   UNL A   1      33.683  22.621  27.809  1.00  0.00     0.004 C 
ENDBRANCH  24  25
ENDBRANCH  23  24
ENDBRANCH  22  23
ENDBRANCH  21  22
ENDBRANCH  20  21
ENDBRANCH  19  20
ENDBRANCH  16  19
ENDBRANCH  14  15
ENDBRANCH   9  14
ENDBRANCH   1   8
BRANCH   4  27
ATOM     27  C   UNL A   1      40.279  21.824  26.382  1.00  0.00     0.126 C 
ATOM     28  C   UNL A   1      40.513  22.835  27.503  1.00  0.00     0.025 C 
BRANCH  27  29
ATOM     29  C   UNL A   1      40.745  20.441  26.821  1.00  0.00     0.313 C 
ATOM     30  O   UNL A   1      40.738  20.096  28.000  1.00  0.00    -0.252 OA
BRANCH  29  31
ATOM     31  O   UNL A   1      41.124  19.640  25.792  1.00  0.00    -0.462 OA
BRANCH  31  32
ATOM     32  C   UNL A   1      42.154  18.671  26.064  1.00  0.00     0.274 C 
BRANCH  32  33
ATOM     33  C   UNL A   1      43.467  19.053  25.378  1.00  0.00     0.275 C 
BRANCH  33  34
ATOM     34  O   UNL A   1      43.959  20.317  25.860  1.00  0.00    -0.458 OA
BRANCH  34  35
ATOM     35  C   UNL A   1      44.237  21.230  24.901  1.00  0.00     0.338 C 
ATOM     36  O   UNL A   1      44.492  21.029  23.730  1.00  0.00    -0.246 OA
BRANCH  35  37
ATOM     37  C   UNL A   1      44.089  22.576  25.465  1.00  0.00     0.060 A 
ATOM     38  C   UNL A   1      43.875  23.649  24.595  1.00  0.00     0.016 A 
ATOM     39  C   UNL A   1      44.239  22.785  26.834  1.00  0.00     0.016 A 
ATOM     40  C   UNL A   1      43.814  24.948  25.091  1.00  0.00     0.010 A 
ATOM     41  C   UNL A   1      44.168  24.086  27.334  1.00  0.00     0.010 A 
ATOM     42  C   UNL A   1      43.965  25.173  26.465  1.00  0.00    -0.014 A 
BRANCH  42  43
ATOM     43  C   UNL A   1      43.950  26.548  27.011  1.00  0.00     0.031 A 
ATOM     44  C   UNL A   1      45.248  27.251  27.275  1.00  0.00     0.074 A 
ATOM     45  C   UNL A   1      42.780  27.140  27.309  1.00  0.00     0.049 A 
ATOM     46  N   UNL A   1      45.466  28.365  27.926  1.00  0.00    -0.248 NA
ATOM     47  C   UNL A   1      46.461  26.612  26.742  1.00  0.00     0.031 C 
ATOM     48  C   UNL A   1      41.456  26.580  27.043  1.00  0.00     0.029 A 
ATOM     49  N   UNL A   1      42.523  28.339  27.925  1.00  0.00    -0.354 N 
ATOM     50  C   UNL A   1      46.843  28.543  27.910  1.00  0.00     0.074 A 
ATOM     51  C   UNL A   1      47.409  27.423  27.189  1.00  0.00     0.031 C 
ATOM     52  C   UNL A   1      40.523  27.426  27.509  1.00  0.00     0.029 A 
ATOM     53  C   UNL A   1      41.187  28.554  28.156  1.00  0.00     0.049 A 
ATOM     54  H   UNL A   1      43.226  28.979  28.176  1.00  0.00     0.167 HD
ATOM     55  C   UNL A   1      47.567  29.548  28.458  1.00  0.00     0.031 A 
ATOM     56  C   UNL A   1      40.571  29.527  28.853  1.00  0.00     0.031 A 
ATOM     57  C   UNL A   1      46.994  30.656  29.174  1.00  0.00     0.049 A 
ATOM     58  C   UNL A   1      41.399  30.591  29.518  1.00  0.00     0.074 A 
ATOM     59  C   UNL A   1      47.640  31.730  29.760  1.00  0.00     0.029 A 
ATOM     60  N   UNL A   1      45.638  30.830  29.399  1.00  0.00    -0.354 N 
ATOM     61  N   UNL A   1      42.702  30.745  29.514  1.00  0.00    -0.248 NA
ATOM     62  C   UNL A   1      40.675  31.610  30.290  1.00  0.00     0.031 C 
ATOM     63  C   UNL A   1      46.675  32.533  30.378  1.00  0.00     0.029 A 
ATOM     64  C   UNL A   1      45.427  31.983  30.134  1.00  0.00     0.049 A 
ATOM     65  H   UNL A   1      44.930  30.224  29.084  1.00  0.00     0.167 HD
ATOM     66  C   UNL A   1      42.951  31.889  30.258  1.00  0.00     0.074 A 
ATOM     67  C   UNL A   1      41.665  32.393  30.696  1.00  0.00     0.031 C 
ATOM     68  C   UNL A   1      44.138  32.472  30.549  1.00  0.00     0.031 A 
BRANCH  55  69
ATOM     69  C   UNL A   1      49.061  29.464  28.345  1.00  0.00    -0.014 A 
ATOM     70  C   UNL A   1      49.749  30.062  27.278  1.00  0.00     0.009 A 
ATOM     71  C   UNL A   1      49.794  28.799  29.340  1.00  0.00     0.009 A 
ATOM     72  C   UNL A   1      51.140  29.968  27.195  1.00  0.00     0.001 A 
ATOM     73  C   UNL A   1      51.186  28.728  29.268  1.00  0.00     0.001 A 
ATOM     74  C   UNL A   1      51.857  29.305  28.191  1.00  0.00     0.000 A 
ENDBRANCH  55  69
BRANCH  56  75
ATOM     75  C   UNL A   1      39.093  29.511  28.995  1.00  0.00    -0.014 A 
ATOM     76  C   UNL A   1      38.495  29.090  30.191  1.00  0.00     0.009 A 
ATOM     77  C   UNL A   1      38.272  29.928  27.935  1.00  0.00     0.009 A 
ATOM     78  C   UNL A   1      37.104  29.073  30.318  1.00  0.00     0.001 A 
ATOM     79  C   UNL A   1      36.883  29.934  28.073  1.00  0.00     0.001 A 
ATOM     80  C   UNL A   1      36.300  29.500  29.262  1.00  0.00     0.000 A 
ENDBRANCH  56  75
BRANCH  68  81
ATOM     81  C   UNL A   1      44.104  33.749  31.339  1.00  0.00    -0.014 A 
ATOM     82  C   UNL A   1      44.215  33.742  32.737  1.00  0.00     0.009 A 
ATOM     83  C   UNL A   1      44.027  34.977  30.663  1.00  0.00     0.009 A 
ATOM     84  C   UNL A   1      44.233  34.946  33.445  1.00  0.00     0.001 A 
ATOM     85  C   UNL A   1      44.067  36.177  31.372  1.00  0.00     0.001 A 
ATOM     86  C   UNL A   1      44.166  36.161  32.762  1.00  0.00     0.000 A 
ENDBRANCH  68  81
ENDBRANCH  42  43
ENDBRANCH  35  37
ENDBRANCH  34  35
ENDBRANCH  33  34
ENDBRANCH  32  33
ENDBRANCH  31  32
ENDBRANCH  29  31
ENDBRANCH  27  29
ENDBRANCH   4  27
TORSDOF 22
ENDMDL
MODEL 3
REMARK VINA RESULT:      -8.8      4.730     11.064
REMARK SMILES CCCCCCCCNC(=O)Oc1cccc(-c2ccc([C@@H](C)C(=O)OCCOC(=O)c3ccc(-c4c5nc(c(-c6ccccc6)c6ccc([nH]6)c(-c6ccccc6)c6nc(c(-c7ccccc7)c7ccc4[nH]7)C=C6)C=C5)cc3)cc2F)c1
REMARK SMILES IDX 18 1 19 2 20 3 21 4 80 5 81 6 82 7 17 8 13 9 14 10 83 11
REMARK SMILES IDX 15 12 16 13 12 14 10 15 9 16 11 18 8 19 7 20 6 21 5 22 4 23
REMARK SMILES IDX 3 24 2 25 1 26 22 27 23 28 24 29 25 30 26 31 27 32 28 33
REMARK SMILES IDX 29 34 30 35 31 36 32 37 33 38 79 39 34 40 78 41 35 42 36 43
REMARK SMILES IDX 37 44 72 45 38 46 77 47 71 48 73 49 39 50 76 51 70 52 69 53
REMARK SMILES IDX 40 55 62 56 47 57 61 58 48 59 51 60 60 61 74 62 49 63 50 64
REMARK SMILES IDX 59 66 75 67 52 68 41 69 42 70 46 71 43 72 45 73 44 74 63 75
REMARK SMILES IDX 64 76 68 77 65 78 67 79 66 80 53 81 54 82 58 83 55 84 57 85
REMARK SMILES IDX 56 86
REMARK H PARENT 9 17 73 54 51 65
REMARK Flexibility Score: inf
ROOT
ATOM      1  C   UNL A   1      37.031  33.489  33.281  1.00  0.00     0.018 A 
ATOM      2  C   UNL A   1      36.753  33.645  31.914  1.00  0.00     0.012 A 
ATOM      3  C   UNL A   1      35.566  34.243  31.474  1.00  0.00     0.005 A 
ATOM      4  C   UNL A   1      34.606  34.693  32.390  1.00  0.00    -0.031 A 
ATOM      5  C   UNL A   1      34.870  34.525  33.758  1.00  0.00     0.044 A 
ATOM      6  C   UNL A   1      36.059  33.932  34.187  1.00  0.00     0.131 A 
ATOM      7  F   UNL A   1      36.264  33.826  35.510  1.00  0.00    -0.206 F 
ENDROOT
BRANCH   1   8
ATOM      8  C   UNL A   1      38.308  32.907  33.726  1.00  0.00    -0.012 A 
ATOM      9  C   UNL A   1      39.683  31.008  34.345  1.00  0.00     0.133 A 
ATOM     10  C   UNL A   1      40.772  31.838  34.599  1.00  0.00     0.047 A 
ATOM     11  C   UNL A   1      38.456  31.526  33.927  1.00  0.00     0.056 A 
ATOM     12  C   UNL A   1      40.641  33.208  34.405  1.00  0.00     0.004 A 
ATOM     13  C   UNL A   1      39.421  33.736  33.974  1.00  0.00     0.009 A 
BRANCH   9  14
ATOM     14  O   UNL A   1      39.838  29.647  34.648  1.00  0.00    -0.410 OA
BRANCH  14  15
ATOM     15  C   UNL A   1      39.852  28.753  33.589  1.00  0.00     0.412 C 
ATOM     16  N   UNL A   1      41.093  28.233  33.346  1.00  0.00    -0.321 N 
ATOM     17  H   UNL A   1      41.161  27.579  32.615  1.00  0.00     0.167 HD
ATOM     18  O   UNL A   1      38.892  28.436  32.896  1.00  0.00    -0.224 OA
BRANCH  16  19
ATOM     19  C   UNL A   1      42.318  28.546  34.053  1.00  0.00     0.119 C 
BRANCH  19  20
ATOM     20  C   UNL A   1      43.355  27.429  33.933  1.00  0.00     0.021 C 
BRANCH  20  21
ATOM     21  C   UNL A   1      44.065  27.064  35.244  1.00  0.00     0.002 C 
BRANCH  21  22
ATOM     22  C   UNL A   1      43.747  25.671  35.800  1.00  0.00     0.000 C 
BRANCH  22  23
ATOM     23  C   UNL A   1      42.732  24.862  34.988  1.00  0.00    -0.000 C 
BRANCH  23  24
ATOM     24  C   UNL A   1      43.168  23.435  34.635  1.00  0.00    -0.000 C 
BRANCH  24  25
ATOM     25  C   UNL A   1      44.417  23.329  33.755  1.00  0.00    -0.003 C 
ATOM     26  C   UNL A   1      44.256  23.987  32.393  1.00  0.00     0.004 C 
ENDBRANCH  24  25
ENDBRANCH  23  24
ENDBRANCH  22  23
ENDBRANCH  21  22
ENDBRANCH  20  21
ENDBRANCH  19  20
ENDBRANCH  16  19
ENDBRANCH  14  15
ENDBRANCH   9  14
ENDBRANCH   1   8
BRANCH   4  27
ATOM     27  C   UNL A   1      33.311  35.352  31.942  1.00  0.00     0.126 C 
ATOM     28  C   UNL A   1      33.071  36.694  32.631  1.00  0.00     0.025 C 
BRANCH  27  29
ATOM     29  C   UNL A   1      33.121  35.497  30.437  1.00  0.00     0.313 C 
ATOM     30  O   UNL A   1      33.060  36.596  29.892  1.00  0.00    -0.252 OA
BRANCH  29  31
ATOM     31  O   UNL A   1      33.065  34.312  29.777  1.00  0.00    -0.462 OA
BRANCH  31  32
ATOM     32  C   UNL A   1      33.471  34.314  28.394  1.00  0.00     0.274 C 
BRANCH  32  33
ATOM     33  C   UNL A   1      34.684  33.409  28.173  1.00  0.00     0.275 C 
BRANCH  33  34
ATOM     34  O   UNL A   1      34.529  32.152  28.857  1.00  0.00    -0.458 OA
BRANCH  34  35
ATOM     35  C   UNL A   1      34.664  31.053  28.080  1.00  0.00     0.338 C 
ATOM     36  O   UNL A   1      33.919  30.663  27.202  1.00  0.00    -0.246 OA
BRANCH  35  37
ATOM     37  C   UNL A   1      35.946  30.408  28.382  1.00  0.00     0.060 A 
ATOM     38  C   UNL A   1      36.158  29.905  29.669  1.00  0.00     0.016 A 
ATOM     39  C   UNL A   1      36.957  30.371  27.424  1.00  0.00     0.016 A 
ATOM     40  C   UNL A   1      37.393  29.362  30.010  1.00  0.00     0.010 A 
ATOM     41  C   UNL A   1      38.193  29.818  27.763  1.00  0.00     0.010 A 
ATOM     42  C   UNL A   1      38.419  29.320  29.059  1.00  0.00    -0.014 A 
BRANCH  42  43
ATOM     43  C   UNL A   1      39.755  28.790  29.412  1.00  0.00     0.031 A 
ATOM     44  C   UNL A   1      40.735  29.674  30.123  1.00  0.00     0.074 A 
ATOM     45  C   UNL A   1      40.098  27.539  29.054  1.00  0.00     0.049 A 
ATOM     46  N   UNL A   1      42.009  29.481  30.348  1.00  0.00    -0.248 NA
ATOM     47  C   UNL A   1      40.213  30.947  30.644  1.00  0.00     0.031 C 
ATOM     48  C   UNL A   1      39.211  26.569  28.412  1.00  0.00     0.029 A 
ATOM     49  N   UNL A   1      41.297  26.882  29.162  1.00  0.00    -0.354 N 
ATOM     50  C   UNL A   1      42.450  30.621  31.006  1.00  0.00     0.074 A 
ATOM     51  C   UNL A   1      41.309  31.502  31.142  1.00  0.00     0.031 C 
ATOM     52  C   UNL A   1      39.902  25.444  28.166  1.00  0.00     0.029 A 
ATOM     53  C   UNL A   1      41.289  25.639  28.579  1.00  0.00     0.049 A 
ATOM     54  H   UNL A   1      42.085  27.265  29.611  1.00  0.00     0.167 HD
ATOM     55  C   UNL A   1      43.697  30.908  31.447  1.00  0.00     0.031 A 
ATOM     56  C   UNL A   1      42.298  24.775  28.360  1.00  0.00     0.031 A 
ATOM     57  C   UNL A   1      44.824  30.025  31.306  1.00  0.00     0.049 A 
ATOM     58  C   UNL A   1      43.689  25.147  28.790  1.00  0.00     0.074 A 
ATOM     59  C   UNL A   1      46.129  30.219  31.727  1.00  0.00     0.029 A 
ATOM     60  N   UNL A   1      44.778  28.782  30.697  1.00  0.00    -0.354 N 
ATOM     61  N   UNL A   1      44.102  26.234  29.397  1.00  0.00    -0.248 NA
ATOM     62  C   UNL A   1      44.754  24.178  28.498  1.00  0.00     0.031 C 
ATOM     63  C   UNL A   1      46.882  29.108  31.332  1.00  0.00     0.029 A 
ATOM     64  C   UNL A   1      46.036  28.204  30.711  1.00  0.00     0.049 A 
ATOM     65  H   UNL A   1      43.972  28.370  30.312  1.00  0.00     0.167 HD
ATOM     66  C   UNL A   1      45.468  26.069  29.582  1.00  0.00     0.074 A 
ATOM     67  C   UNL A   1      45.814  24.776  29.027  1.00  0.00     0.031 C 
ATOM     68  C   UNL A   1      46.355  26.911  30.163  1.00  0.00     0.031 A 
BRANCH  55  69
ATOM     69  C   UNL A   1      43.915  32.252  32.079  1.00  0.00    -0.014 A 
ATOM     70  C   UNL A   1      43.897  33.430  31.316  1.00  0.00     0.009 A 
ATOM     71  C   UNL A   1      44.112  32.342  33.465  1.00  0.00     0.009 A 
ATOM     72  C   UNL A   1      44.103  34.668  31.928  1.00  0.00     0.001 A 
ATOM     73  C   UNL A   1      44.294  33.583  34.077  1.00  0.00     0.001 A 
ATOM     74  C   UNL A   1      44.298  34.744  33.307  1.00  0.00     0.000 A 
ENDBRANCH  55  69
BRANCH  56  75
ATOM     75  C   UNL A   1      42.032  23.494  27.659  1.00  0.00    -0.014 A 
ATOM     76  C   UNL A   1      42.272  23.370  26.283  1.00  0.00     0.009 A 
ATOM     77  C   UNL A   1      41.546  22.383  28.367  1.00  0.00     0.009 A 
ATOM     78  C   UNL A   1      42.016  22.163  25.627  1.00  0.00     0.001 A 
ATOM     79  C   UNL A   1      41.316  21.170  27.714  1.00  0.00     0.001 A 
ATOM     80  C   UNL A   1      41.545  21.064  26.344  1.00  0.00     0.000 A 
ENDBRANCH  56  75
BRANCH  68  81
ATOM     81  C   UNL A   1      47.777  26.445  30.275  1.00  0.00    -0.014 A 
ATOM     82  C   UNL A   1      48.707  26.693  29.255  1.00  0.00     0.009 A 
ATOM     83  C   UNL A   1      48.204  25.807  31.451  1.00  0.00     0.009 A 
ATOM     84  C   UNL A   1      50.037  26.295  29.405  1.00  0.00     0.001 A 
ATOM     85  C   UNL A   1      49.538  25.430  31.606  1.00  0.00     0.001 A 
ATOM     86  C   UNL A   1      50.452  25.671  30.582  1.00  0.00     0.000 A 
ENDBRANCH  68  81
ENDBRANCH  42  43
ENDBRANCH  35  37
ENDBRANCH  34  35
ENDBRANCH  33  34
ENDBRANCH  32  33
ENDBRANCH  31  32
ENDBRANCH  29  31
ENDBRANCH  27  29
ENDBRANCH   4  27
TORSDOF 22
ENDMDL
