MODEL 1
REMARK VINA RESULT:     -10.9      0.000      0.000
REMARK SMILES CC1=C(C)C[C@@H](C(=O)OCCOC(=O)c2ccc(-c3c4nc(c(-c5ccccc5)c5ccc([nH]5)c(-c5ccccc5)c5nc(c(-c6ccccc6)c6ccc3[nH]6)C=C5)C=C4)cc2)[C@H](C(=O)NCc2cccnc2)C1
REMARK SMILES IDX 10 1 9 2 7 3 8 4 6 5 1 6 2 7 3 8 74 9 4 10 5 11 63 12 64 13
REMARK SMILES IDX 65 14 66 15 67 17 68 18 69 19 73 20 70 21 72 22 71 23 11 24
REMARK SMILES IDX 12 25 13 26 14 27 15 28 16 29 62 30 17 31 61 32 18 33 19 34
REMARK SMILES IDX 20 35 55 36 21 37 60 38 54 39 56 40 22 41 59 42 53 43 52 44
REMARK SMILES IDX 23 46 45 47 30 48 44 49 31 50 34 51 43 52 57 53 32 54 33 55
REMARK SMILES IDX 42 57 58 58 35 59 24 60 25 61 29 62 26 63 28 64 27 65 46 66
REMARK SMILES IDX 47 67 51 68 48 69 50 70 49 71 36 72 37 73 41 74 38 75 40 76
REMARK SMILES IDX 39 77
REMARK H PARENT 66 16 56 45 34 56
REMARK Flexibility Score: inf
ROOT
ATOM      1  C   UNL A   1      31.910  28.230  27.551  1.00  0.00     0.274 C 
ENDROOT
BRANCH   1   2
ATOM      2  O   UNL A   1      32.504  27.123  26.842  1.00  0.00    -0.462 OA
BRANCH   2   3
ATOM      3  C   UNL A   1      31.643  26.153  26.442  1.00  0.00     0.310 C 
ATOM      4  O   UNL A   1      30.455  26.107  26.743  1.00  0.00    -0.252 OA
BRANCH   3   5
ATOM      5  C   UNL A   1      32.311  25.039  25.656  1.00  0.00     0.116 C 
ATOM      6  C   UNL A   1      36.320  23.058  25.892  1.00  0.00     0.039 C 
ATOM      7  C   UNL A   1      34.952  23.692  25.899  1.00  0.00    -0.074 C 
ATOM      8  C   UNL A   1      33.906  23.200  26.589  1.00  0.00    -0.073 C 
ATOM      9  C   UNL A   1      34.864  24.957  25.083  1.00  0.00     0.045 C 
ATOM     10  C   UNL A   1      33.928  21.910  27.374  1.00  0.00     0.039 C 
ATOM     11  C   UNL A   1      32.572  23.896  26.644  1.00  0.00     0.046 C 
ATOM     12  C   UNL A   1      33.472  25.508  24.769  1.00  0.00     0.097 C 
BRANCH  12  13
ATOM     13  C   UNL A   1      33.153  25.391  23.272  1.00  0.00     0.224 C 
ATOM     14  O   UNL A   1      33.170  24.287  22.719  1.00  0.00    -0.275 OA
ATOM     15  N   UNL A   1      32.862  26.447  22.475  1.00  0.00    -0.352 N 
ATOM     16  H   UNL A   1      32.823  26.226  21.515  1.00  0.00     0.163 HD
BRANCH  15  17
ATOM     17  C   UNL A   1      32.600  27.833  22.772  1.00  0.00     0.153 C 
BRANCH  17  18
ATOM     18  C   UNL A   1      31.133  28.142  22.731  1.00  0.00    -0.010 A 
ATOM     19  C   UNL A   1      30.190  27.352  23.395  1.00  0.00     0.009 A 
ATOM     20  C   UNL A   1      30.652  29.238  22.021  1.00  0.00     0.116 A 
ATOM     21  C   UNL A   1      28.841  27.700  23.347  1.00  0.00     0.020 A 
ATOM     22  N   UNL A   1      29.351  29.599  21.957  1.00  0.00    -0.264 NA
ATOM     23  C   UNL A   1      28.475  28.823  22.625  1.00  0.00     0.111 A 
ENDBRANCH  17  18
ENDBRANCH  15  17
ENDBRANCH  12  13
ENDBRANCH   3   5
ENDBRANCH   2   3
ENDBRANCH   1   2
BRANCH   1  24
ATOM     24  C   UNL A   1      32.567  29.571  27.211  1.00  0.00     0.275 C 
BRANCH  24  25
ATOM     25  O   UNL A   1      34.001  29.506  27.300  1.00  0.00    -0.458 OA
BRANCH  25  26
ATOM     26  C   UNL A   1      34.574  30.523  27.986  1.00  0.00     0.338 C 
ATOM     27  O   UNL A   1      34.046  31.566  28.325  1.00  0.00    -0.246 OA
BRANCH  26  28
ATOM     28  C   UNL A   1      35.939  30.141  28.380  1.00  0.00     0.060 A 
ATOM     29  C   UNL A   1      36.950  30.188  27.418  1.00  0.00     0.016 A 
ATOM     30  C   UNL A   1      36.209  29.670  29.664  1.00  0.00     0.016 A 
ATOM     31  C   UNL A   1      38.237  29.757  27.724  1.00  0.00     0.010 A 
ATOM     32  C   UNL A   1      37.503  29.241  29.976  1.00  0.00     0.010 A 
ATOM     33  C   UNL A   1      38.521  29.275  29.005  1.00  0.00    -0.014 A 
BRANCH  33  34
ATOM     34  C   UNL A   1      39.873  28.765  29.327  1.00  0.00     0.031 A 
ATOM     35  C   UNL A   1      40.856  29.652  30.031  1.00  0.00     0.074 A 
ATOM     36  C   UNL A   1      40.220  27.514  28.976  1.00  0.00     0.049 A 
ATOM     37  N   UNL A   1      42.129  29.454  30.262  1.00  0.00    -0.248 NA
ATOM     38  C   UNL A   1      40.338  30.931  30.542  1.00  0.00     0.031 C 
ATOM     39  C   UNL A   1      39.334  26.534  28.347  1.00  0.00     0.029 A 
ATOM     40  N   UNL A   1      41.421  26.859  29.088  1.00  0.00    -0.354 N 
ATOM     41  C   UNL A   1      42.570  30.592  30.924  1.00  0.00     0.074 A 
ATOM     42  C   UNL A   1      41.433  31.480  31.050  1.00  0.00     0.031 C 
ATOM     43  C   UNL A   1      40.027  25.408  28.112  1.00  0.00     0.029 A 
ATOM     44  C   UNL A   1      41.413  25.608  28.526  1.00  0.00     0.049 A 
ATOM     45  H   UNL A   1      42.210  27.249  29.530  1.00  0.00     0.167 HD
ATOM     46  C   UNL A   1      43.814  30.870  31.383  1.00  0.00     0.031 A 
ATOM     47  C   UNL A   1      42.419  24.737  28.324  1.00  0.00     0.031 A 
ATOM     48  C   UNL A   1      44.942  29.988  31.253  1.00  0.00     0.049 A 
ATOM     49  C   UNL A   1      43.809  25.106  28.761  1.00  0.00     0.074 A 
ATOM     50  C   UNL A   1      46.244  30.181  31.683  1.00  0.00     0.029 A 
ATOM     51  N   UNL A   1      44.902  28.744  30.642  1.00  0.00    -0.354 N 
ATOM     52  N   UNL A   1      44.223  26.192  29.367  1.00  0.00    -0.248 NA
ATOM     53  C   UNL A   1      44.874  24.132  28.475  1.00  0.00     0.031 C 
ATOM     54  C   UNL A   1      47.001  29.070  31.295  1.00  0.00     0.029 A 
ATOM     55  C   UNL A   1      46.160  28.167  30.664  1.00  0.00     0.049 A 
ATOM     56  H   UNL A   1      44.098  28.332  30.252  1.00  0.00     0.167 HD
ATOM     57  C   UNL A   1      45.590  26.028  29.548  1.00  0.00     0.074 A 
ATOM     58  C   UNL A   1      45.933  24.730  29.003  1.00  0.00     0.031 C 
ATOM     59  C   UNL A   1      46.483  26.877  30.111  1.00  0.00     0.031 A 
BRANCH  46  60
ATOM     60  C   UNL A   1      44.025  32.207  32.033  1.00  0.00    -0.014 A 
ATOM     61  C   UNL A   1      43.879  32.375  33.419  1.00  0.00     0.009 A 
ATOM     62  C   UNL A   1      44.405  33.308  31.250  1.00  0.00     0.009 A 
ATOM     63  C   UNL A   1      44.083  33.628  34.003  1.00  0.00     0.001 A 
ATOM     64  C   UNL A   1      44.630  34.553  31.839  1.00  0.00     0.001 A 
ATOM     65  C   UNL A   1      44.461  34.713  33.213  1.00  0.00     0.000 A 
ENDBRANCH  46  60
BRANCH  47  66
ATOM     66  C   UNL A   1      42.160  23.455  27.623  1.00  0.00    -0.014 A 
ATOM     67  C   UNL A   1      41.653  22.347  28.316  1.00  0.00     0.009 A 
ATOM     68  C   UNL A   1      42.421  23.335  26.247  1.00  0.00     0.009 A 
ATOM     69  C   UNL A   1      41.431  21.138  27.651  1.00  0.00     0.001 A 
ATOM     70  C   UNL A   1      42.173  22.135  25.580  1.00  0.00     0.001 A 
ATOM     71  C   UNL A   1      41.686  21.036  26.283  1.00  0.00     0.000 A 
ENDBRANCH  47  66
BRANCH  59  72
ATOM     72  C   UNL A   1      47.910  26.419  30.187  1.00  0.00    -0.014 A 
ATOM     73  C   UNL A   1      48.394  25.745  31.319  1.00  0.00     0.009 A 
ATOM     74  C   UNL A   1      48.768  26.629  29.097  1.00  0.00     0.009 A 
ATOM     75  C   UNL A   1      49.720  25.311  31.365  1.00  0.00     0.001 A 
ATOM     76  C   UNL A   1      50.086  26.172  29.137  1.00  0.00     0.001 A 
ATOM     77  C   UNL A   1      50.562  25.520  30.273  1.00  0.00     0.000 A 
ENDBRANCH  59  72
ENDBRANCH  33  34
ENDBRANCH  26  28
ENDBRANCH  25  26
ENDBRANCH  24  25
ENDBRANCH   1  24
TORSDOF 14
ENDMDL
MODEL 2
REMARK VINA RESULT:     -10.9      2.485      7.107
REMARK SMILES CC1=C(C)C[C@@H](C(=O)OCCOC(=O)c2ccc(-c3c4nc(c(-c5ccccc5)c5ccc([nH]5)c(-c5ccccc5)c5nc(c(-c6ccccc6)c6ccc3[nH]6)C=C5)C=C4)cc2)[C@H](C(=O)NCc2cccnc2)C1
REMARK SMILES IDX 10 1 9 2 7 3 8 4 6 5 1 6 2 7 3 8 74 9 4 10 5 11 63 12 64 13
REMARK SMILES IDX 65 14 66 15 67 17 68 18 69 19 73 20 70 21 72 22 71 23 11 24
REMARK SMILES IDX 12 25 13 26 14 27 15 28 16 29 62 30 17 31 61 32 18 33 19 34
REMARK SMILES IDX 20 35 55 36 21 37 60 38 54 39 56 40 22 41 59 42 53 43 52 44
REMARK SMILES IDX 23 46 45 47 30 48 44 49 31 50 34 51 43 52 57 53 32 54 33 55
REMARK SMILES IDX 42 57 58 58 35 59 24 60 25 61 29 62 26 63 28 64 27 65 46 66
REMARK SMILES IDX 47 67 51 68 48 69 50 70 49 71 36 72 37 73 41 74 38 75 40 76
REMARK SMILES IDX 39 77
REMARK H PARENT 66 16 56 45 34 56
REMARK Flexibility Score: inf
ROOT
ATOM      1  C   UNL A   1      31.663  31.481  26.611  1.00  0.00     0.274 C 
ENDROOT
BRANCH   1   2
ATOM      2  O   UNL A   1      32.162  30.297  25.957  1.00  0.00    -0.462 OA
BRANCH   2   3
ATOM      3  C   UNL A   1      31.766  29.117  26.501  1.00  0.00     0.310 C 
ATOM      4  O   UNL A   1      31.417  28.968  27.666  1.00  0.00    -0.252 OA
BRANCH   3   5
ATOM      5  C   UNL A   1      31.899  27.940  25.550  1.00  0.00     0.116 C 
ATOM      6  C   UNL A   1      34.489  24.288  25.486  1.00  0.00     0.039 C 
ATOM      7  C   UNL A   1      33.578  25.486  25.588  1.00  0.00    -0.074 C 
ATOM      8  C   UNL A   1      32.371  25.456  26.184  1.00  0.00    -0.073 C 
ATOM      9  C   UNL A   1      34.156  26.741  24.985  1.00  0.00     0.045 C 
ATOM     10  C   UNL A   1      31.727  24.215  26.752  1.00  0.00     0.039 C 
ATOM     11  C   UNL A   1      31.516  26.686  26.343  1.00  0.00     0.046 C 
ATOM     12  C   UNL A   1      33.212  27.922  24.755  1.00  0.00     0.097 C 
BRANCH  12  13
ATOM     13  C   UNL A   1      32.995  28.179  23.258  1.00  0.00     0.224 C 
ATOM     14  O   UNL A   1      33.728  28.968  22.652  1.00  0.00    -0.275 OA
ATOM     15  N   UNL A   1      32.013  27.603  22.524  1.00  0.00    -0.352 N 
ATOM     16  H   UNL A   1      31.916  27.978  21.618  1.00  0.00     0.163 HD
BRANCH  15  17
ATOM     17  C   UNL A   1      31.083  26.543  22.826  1.00  0.00     0.153 C 
BRANCH  17  18
ATOM     18  C   UNL A   1      31.711  25.191  22.662  1.00  0.00    -0.010 A 
ATOM     19  C   UNL A   1      31.153  24.041  23.228  1.00  0.00     0.009 A 
ATOM     20  C   UNL A   1      32.885  25.030  21.931  1.00  0.00     0.116 A 
ATOM     21  C   UNL A   1      31.761  22.804  23.022  1.00  0.00     0.020 A 
ATOM     22  N   UNL A   1      33.496  23.844  21.715  1.00  0.00    -0.264 NA
ATOM     23  C   UNL A   1      32.918  22.757  22.262  1.00  0.00     0.111 A 
ENDBRANCH  17  18
ENDBRANCH  15  17
ENDBRANCH  12  13
ENDBRANCH   3   5
ENDBRANCH   2   3
ENDBRANCH   1   2
BRANCH   1  24
ATOM     24  C   UNL A   1      32.725  32.177  27.467  1.00  0.00     0.275 C 
BRANCH  24  25
ATOM     25  O   UNL A   1      32.493  33.594  27.568  1.00  0.00    -0.458 OA
BRANCH  25  26
ATOM     26  C   UNL A   1      33.034  34.180  28.662  1.00  0.00     0.338 C 
ATOM     27  O   UNL A   1      32.505  34.998  29.391  1.00  0.00    -0.246 OA
BRANCH  26  28
ATOM     28  C   UNL A   1      34.358  33.594  28.927  1.00  0.00     0.060 A 
ATOM     29  C   UNL A   1      34.526  32.815  30.074  1.00  0.00     0.016 A 
ATOM     30  C   UNL A   1      35.442  33.868  28.094  1.00  0.00     0.016 A 
ATOM     31  C   UNL A   1      35.779  32.310  30.407  1.00  0.00     0.010 A 
ATOM     32  C   UNL A   1      36.701  33.357  28.424  1.00  0.00     0.010 A 
ATOM     33  C   UNL A   1      36.877  32.582  29.586  1.00  0.00    -0.014 A 
BRANCH  33  34
ATOM     34  C   UNL A   1      38.225  32.094  29.957  1.00  0.00     0.031 A 
ATOM     35  C   UNL A   1      38.707  30.772  29.438  1.00  0.00     0.074 A 
ATOM     36  C   UNL A   1      39.007  32.831  30.767  1.00  0.00     0.049 A 
ATOM     37  N   UNL A   1      39.780  30.098  29.768  1.00  0.00    -0.248 NA
ATOM     38  C   UNL A   1      37.872  30.123  28.416  1.00  0.00     0.031 C 
ATOM     39  C   UNL A   1      38.678  34.160  31.282  1.00  0.00     0.029 A 
ATOM     40  N   UNL A   1      40.236  32.553  31.309  1.00  0.00    -0.354 N 
ATOM     41  C   UNL A   1      39.738  28.935  29.011  1.00  0.00     0.074 A 
ATOM     42  C   UNL A   1      38.530  28.990  28.213  1.00  0.00     0.031 C 
ATOM     43  C   UNL A   1      39.674  34.575  32.082  1.00  0.00     0.029 A 
ATOM     44  C   UNL A   1      40.681  33.522  32.173  1.00  0.00     0.049 A 
ATOM     45  H   UNL A   1      40.749  31.740  31.098  1.00  0.00     0.167 HD
ATOM     46  C   UNL A   1      40.626  27.913  28.986  1.00  0.00     0.031 A 
ATOM     47  C   UNL A   1      41.755  33.540  32.984  1.00  0.00     0.031 A 
ATOM     48  C   UNL A   1      41.822  27.860  29.783  1.00  0.00     0.049 A 
ATOM     49  C   UNL A   1      42.679  32.355  33.007  1.00  0.00     0.074 A 
ATOM     50  C   UNL A   1      42.785  26.866  29.830  1.00  0.00     0.029 A 
ATOM     51  N   UNL A   1      42.218  28.844  30.675  1.00  0.00    -0.354 N 
ATOM     52  N   UNL A   1      42.621  31.250  32.304  1.00  0.00    -0.248 NA
ATOM     53  C   UNL A   1      43.811  32.415  33.943  1.00  0.00     0.031 C 
ATOM     54  C   UNL A   1      43.742  27.232  30.784  1.00  0.00     0.029 A 
ATOM     55  C   UNL A   1      43.399  28.473  31.296  1.00  0.00     0.049 A 
ATOM     56  H   UNL A   1      41.732  29.684  30.843  1.00  0.00     0.167 HD
ATOM     57  C   UNL A   1      43.713  30.490  32.702  1.00  0.00     0.074 A 
ATOM     58  C   UNL A   1      44.426  31.267  33.695  1.00  0.00     0.031 C 
ATOM     59  C   UNL A   1      44.090  29.257  32.285  1.00  0.00     0.031 A 
BRANCH  46  60
ATOM     60  C   UNL A   1      40.310  26.747  28.095  1.00  0.00    -0.014 A 
ATOM     61  C   UNL A   1      40.815  26.670  26.788  1.00  0.00     0.009 A 
ATOM     62  C   UNL A   1      39.520  25.694  28.583  1.00  0.00     0.009 A 
ATOM     63  C   UNL A   1      40.510  25.574  25.977  1.00  0.00     0.001 A 
ATOM     64  C   UNL A   1      39.236  24.590  27.778  1.00  0.00     0.001 A 
ATOM     65  C   UNL A   1      39.724  24.535  26.474  1.00  0.00     0.000 A 
ENDBRANCH  46  60
BRANCH  47  66
ATOM     66  C   UNL A   1      41.983  34.697  33.886  1.00  0.00    -0.014 A 
ATOM     67  C   UNL A   1      41.472  34.700  35.192  1.00  0.00     0.009 A 
ATOM     68  C   UNL A   1      42.717  35.809  33.440  1.00  0.00     0.009 A 
ATOM     69  C   UNL A   1      41.675  35.802  36.027  1.00  0.00     0.001 A 
ATOM     70  C   UNL A   1      42.941  36.896  34.285  1.00  0.00     0.001 A 
ATOM     71  C   UNL A   1      42.413  36.895  35.575  1.00  0.00     0.000 A 
ENDBRANCH  47  66
BRANCH  59  72
ATOM     72  C   UNL A   1      45.341  28.684  32.886  1.00  0.00    -0.014 A 
ATOM     73  C   UNL A   1      46.595  28.917  32.301  1.00  0.00     0.009 A 
ATOM     74  C   UNL A   1      45.266  27.938  34.071  1.00  0.00     0.009 A 
ATOM     75  C   UNL A   1      47.750  28.391  32.883  1.00  0.00     0.001 A 
ATOM     76  C   UNL A   1      46.425  27.434  34.663  1.00  0.00     0.001 A 
ATOM     77  C   UNL A   1      47.665  27.655  34.064  1.00  0.00     0.000 A 
ENDBRANCH  59  72
ENDBRANCH  33  34
ENDBRANCH  26  28
ENDBRANCH  25  26
ENDBRANCH  24  25
ENDBRANCH   1  24
TORSDOF 14
ENDMDL
MODEL 3
REMARK VINA RESULT:     -10.9      3.412      7.075
REMARK SMILES CC1=C(C)C[C@@H](C(=O)OCCOC(=O)c2ccc(-c3c4nc(c(-c5ccccc5)c5ccc([nH]5)c(-c5ccccc5)c5nc(c(-c6ccccc6)c6ccc3[nH]6)C=C5)C=C4)cc2)[C@H](C(=O)NCc2cccnc2)C1
REMARK SMILES IDX 10 1 9 2 7 3 8 4 6 5 1 6 2 7 3 8 74 9 4 10 5 11 63 12 64 13
REMARK SMILES IDX 65 14 66 15 67 17 68 18 69 19 73 20 70 21 72 22 71 23 11 24
REMARK SMILES IDX 12 25 13 26 14 27 15 28 16 29 62 30 17 31 61 32 18 33 19 34
REMARK SMILES IDX 20 35 55 36 21 37 60 38 54 39 56 40 22 41 59 42 53 43 52 44
REMARK SMILES IDX 23 46 45 47 30 48 44 49 31 50 34 51 43 52 57 53 32 54 33 55
REMARK SMILES IDX 42 57 58 58 35 59 24 60 25 61 29 62 26 63 28 64 27 65 46 66
REMARK SMILES IDX 47 67 51 68 48 69 50 70 49 71 36 72 37 73 41 74 38 75 40 76
REMARK SMILES IDX 39 77
REMARK H PARENT 66 16 56 45 34 56
REMARK Flexibility Score: inf
ROOT
ATOM      1  C   UNL A   1      34.976  21.520  26.414  1.00  0.00     0.274 C 
ENDROOT
BRANCH   1   2
ATOM      2  O   UNL A   1      35.007  22.961  26.361  1.00  0.00    -0.462 OA
BRANCH   2   3
ATOM      3  C   UNL A   1      33.825  23.562  26.070  1.00  0.00     0.310 C 
ATOM      4  O   UNL A   1      32.916  23.741  26.874  1.00  0.00    -0.252 OA
BRANCH   3   5
ATOM      5  C   UNL A   1      33.670  23.907  24.599  1.00  0.00     0.116 C 
ATOM      6  C   UNL A   1      31.011  26.716  22.342  1.00  0.00     0.039 C 
ATOM      7  C   UNL A   1      31.944  25.845  23.146  1.00  0.00    -0.074 C 
ATOM      8  C   UNL A   1      33.150  26.251  23.584  1.00  0.00    -0.073 C 
ATOM      9  C   UNL A   1      31.390  24.475  23.445  1.00  0.00     0.045 C 
ATOM     10  C   UNL A   1      33.771  27.589  23.265  1.00  0.00     0.039 C 
ATOM     11  C   UNL A   1      34.029  25.390  24.452  1.00  0.00     0.046 C 
ATOM     12  C   UNL A   1      32.356  23.415  23.977  1.00  0.00     0.097 C 
BRANCH  12  13
ATOM     13  C   UNL A   1      32.576  22.297  22.948  1.00  0.00     0.224 C 
ATOM     14  O   UNL A   1      32.904  22.576  21.790  1.00  0.00    -0.275 OA
ATOM     15  N   UNL A   1      32.411  20.979  23.215  1.00  0.00    -0.352 N 
ATOM     16  H   UNL A   1      32.449  20.401  22.418  1.00  0.00     0.163 HD
BRANCH  15  17
ATOM     17  C   UNL A   1      32.192  20.268  24.450  1.00  0.00     0.153 C 
BRANCH  17  18
ATOM     18  C   UNL A   1      32.641  18.841  24.357  1.00  0.00    -0.010 A 
ATOM     19  C   UNL A   1      32.824  18.046  25.492  1.00  0.00     0.009 A 
ATOM     20  C   UNL A   1      32.897  18.250  23.123  1.00  0.00     0.116 A 
ATOM     21  C   UNL A   1      33.216  16.716  25.348  1.00  0.00     0.020 A 
ATOM     22  N   UNL A   1      33.278  16.964  22.953  1.00  0.00    -0.264 NA
ATOM     23  C   UNL A   1      33.426  16.225  24.070  1.00  0.00     0.111 A 
ENDBRANCH  17  18
ENDBRANCH  15  17
ENDBRANCH  12  13
ENDBRANCH   3   5
ENDBRANCH   2   3
ENDBRANCH   1   2
BRANCH   1  24
ATOM     24  C   UNL A   1      35.878  20.870  25.361  1.00  0.00     0.275 C 
BRANCH  24  25
ATOM     25  O   UNL A   1      37.020  21.689  25.049  1.00  0.00    -0.458 OA
BRANCH  25  26
ATOM     26  C   UNL A   1      38.187  21.265  25.590  1.00  0.00     0.338 C 
ATOM     27  O   UNL A   1      38.632  20.133  25.574  1.00  0.00    -0.246 OA
BRANCH  26  28
ATOM     28  C   UNL A   1      38.926  22.419  26.126  1.00  0.00     0.060 A 
ATOM     29  C   UNL A   1      38.463  23.703  25.832  1.00  0.00     0.016 A 
ATOM     30  C   UNL A   1      40.104  22.242  26.849  1.00  0.00     0.016 A 
ATOM     31  C   UNL A   1      39.177  24.823  26.247  1.00  0.00     0.010 A 
ATOM     32  C   UNL A   1      40.820  23.366  27.273  1.00  0.00     0.010 A 
ATOM     33  C   UNL A   1      40.364  24.661  26.967  1.00  0.00    -0.014 A 
BRANCH  33  34
ATOM     34  C   UNL A   1      41.158  25.844  27.370  1.00  0.00     0.031 A 
ATOM     35  C   UNL A   1      40.557  26.870  28.284  1.00  0.00     0.074 A 
ATOM     36  C   UNL A   1      42.411  26.001  26.906  1.00  0.00     0.049 A 
ATOM     37  N   UNL A   1      41.023  28.043  28.627  1.00  0.00    -0.248 NA
ATOM     38  C   UNL A   1      39.261  26.530  28.890  1.00  0.00     0.031 C 
ATOM     39  C   UNL A   1      43.130  25.043  26.066  1.00  0.00     0.029 A 
ATOM     40  N   UNL A   1      43.296  27.038  27.068  1.00  0.00    -0.354 N 
ATOM     41  C   UNL A   1      40.067  28.593  29.471  1.00  0.00     0.074 A 
ATOM     42  C   UNL A   1      38.991  27.629  29.580  1.00  0.00     0.031 C 
ATOM     43  C   UNL A   1      44.340  25.545  25.770  1.00  0.00     0.029 A 
ATOM     44  C   UNL A   1      44.458  26.877  26.356  1.00  0.00     0.049 A 
ATOM     45  H   UNL A   1      43.115  27.819  27.639  1.00  0.00     0.167 HD
ATOM     46  C   UNL A   1      40.085  29.795  30.096  1.00  0.00     0.031 A 
ATOM     47  C   UNL A   1      45.483  27.726  26.159  1.00  0.00     0.031 A 
ATOM     48  C   UNL A   1      41.153  30.751  29.982  1.00  0.00     0.049 A 
ATOM     49  C   UNL A   1      45.440  29.090  26.789  1.00  0.00     0.074 A 
ATOM     50  C   UNL A   1      41.263  31.998  30.574  1.00  0.00     0.029 A 
ATOM     51  N   UNL A   1      42.296  30.567  29.220  1.00  0.00    -0.354 N 
ATOM     52  N   UNL A   1      44.524  29.611  27.569  1.00  0.00    -0.248 NA
ATOM     53  C   UNL A   1      46.569  29.988  26.504  1.00  0.00     0.031 C 
ATOM     54  C   UNL A   1      42.456  32.585  30.136  1.00  0.00     0.029 A 
ATOM     55  C   UNL A   1      43.108  31.685  29.308  1.00  0.00     0.049 A 
ATOM     56  H   UNL A   1      42.502  29.760  28.694  1.00  0.00     0.167 HD
ATOM     57  C   UNL A   1      44.969  30.889  27.877  1.00  0.00     0.074 A 
ATOM     58  C   UNL A   1      46.246  31.059  27.215  1.00  0.00     0.031 C 
ATOM     59  C   UNL A   1      44.373  31.838  28.637  1.00  0.00     0.031 A 
BRANCH  46  60
ATOM     60  C   UNL A   1      38.889  30.157  30.928  1.00  0.00    -0.014 A 
ATOM     61  C   UNL A   1      37.774  30.795  30.363  1.00  0.00     0.009 A 
ATOM     62  C   UNL A   1      38.866  29.827  32.292  1.00  0.00     0.009 A 
ATOM     63  C   UNL A   1      36.671  31.120  31.156  1.00  0.00     0.001 A 
ATOM     64  C   UNL A   1      37.753  30.133  33.077  1.00  0.00     0.001 A 
ATOM     65  C   UNL A   1      36.660  30.786  32.509  1.00  0.00     0.000 A 
ENDBRANCH  46  60
BRANCH  47  66
ATOM     66  C   UNL A   1      46.612  27.333  25.279  1.00  0.00    -0.014 A 
ATOM     67  C   UNL A   1      47.615  26.468  25.739  1.00  0.00     0.009 A 
ATOM     68  C   UNL A   1      46.690  27.827  23.965  1.00  0.00     0.009 A 
ATOM     69  C   UNL A   1      48.683  26.120  24.909  1.00  0.00     0.001 A 
ATOM     70  C   UNL A   1      47.744  27.456  23.130  1.00  0.00     0.001 A 
ATOM     71  C   UNL A   1      48.744  26.609  23.605  1.00  0.00     0.000 A 
ENDBRANCH  47  66
BRANCH  59  72
ATOM     72  C   UNL A   1      45.106  33.136  28.812  1.00  0.00    -0.014 A 
ATOM     73  C   UNL A   1      44.873  34.220  27.951  1.00  0.00     0.009 A 
ATOM     74  C   UNL A   1      46.009  33.289  29.875  1.00  0.00     0.009 A 
ATOM     75  C   UNL A   1      45.551  35.426  28.140  1.00  0.00     0.001 A 
ATOM     76  C   UNL A   1      46.667  34.503  30.075  1.00  0.00     0.001 A 
ATOM     77  C   UNL A   1      46.443  35.568  29.203  1.00  0.00     0.000 A 
ENDBRANCH  59  72
ENDBRANCH  33  34
ENDBRANCH  26  28
ENDBRANCH  25  26
ENDBRANCH  24  25
ENDBRANCH   1  24
TORSDOF 14
ENDMDL
