MODEL 1
REMARK VINA RESULT:      -8.6      0.000      0.000
REMARK SMILES COC[C@@H](C)[C@@](O)(C(=O)OCCOC(=O)c1ccc(-c2c3nc(c(-c4ccccc4)c4ccc([nH]4)c(-c4ccccc4)c4nc(c(-c5ccccc5)c5ccc2[nH]5)C=C4)C=C3)cc1)C(C)C
REMARK SMILES IDX 11 1 10 2 8 3 9 4 6 5 4 6 5 7 3 8 2 9 1 10 7 11 64 13 65 14
REMARK SMILES IDX 66 15 12 16 13 17 14 18 15 19 16 20 17 21 63 22 18 23 62 24
REMARK SMILES IDX 19 25 20 26 21 27 56 28 22 29 61 30 55 31 57 32 23 33 60 34
REMARK SMILES IDX 54 35 53 36 24 38 46 39 31 40 45 41 32 42 35 43 44 44 58 45
REMARK SMILES IDX 33 46 34 47 43 49 59 50 36 51 25 52 26 53 30 54 27 55 29 56
REMARK SMILES IDX 28 57 47 58 48 59 52 60 49 61 51 62 50 63 37 64 38 65 42 66
REMARK SMILES IDX 39 67 41 68 40 69
REMARK H PARENT 7 12 57 37 35 48
REMARK Flexibility Score: inf
ROOT
ATOM      1  C   UNL A   1      31.775  28.024  26.031  1.00  0.00     0.274 C 
ENDROOT
BRANCH   1   2
ATOM      2  O   UNL A   1      31.692  27.172  24.868  1.00  0.00    -0.460 OA
BRANCH   2   3
ATOM      3  C   UNL A   1      32.854  26.647  24.408  1.00  0.00     0.338 C 
ATOM      4  O   UNL A   1      33.785  27.320  23.967  1.00  0.00    -0.249 OA
BRANCH   3   5
ATOM      5  C   UNL A   1      32.894  25.088  24.383  1.00  0.00     0.168 C 
BRANCH   5   6
ATOM      6  C   UNL A   1      34.303  24.475  24.676  1.00  0.00     0.055 C 
ATOM      7  C   UNL A   1      34.887  23.570  23.581  1.00  0.00     0.014 C 
BRANCH   6   8
ATOM      8  C   UNL A   1      34.348  23.800  26.064  1.00  0.00     0.166 C 
BRANCH   8   9
ATOM      9  O   UNL A   1      33.726  22.513  26.089  1.00  0.00    -0.384 OA
ATOM     10  C   UNL A   1      34.026  21.747  27.250  1.00  0.00     0.194 C 
ENDBRANCH   8   9
ENDBRANCH   6   8
ENDBRANCH   5   6
BRANCH   5  11
ATOM     11  O   UNL A   1      32.081  24.789  25.558  1.00  0.00    -0.378 OA
ATOM     12  H   UNL A   1      32.230  23.869  25.828  1.00  0.00     0.212 HD
ENDBRANCH   5  11
BRANCH   5  13
ATOM     13  C   UNL A   1      32.097  24.568  23.122  1.00  0.00     0.026 C 
ATOM     14  C   UNL A   1      30.664  24.104  23.381  1.00  0.00     0.011 C 
ATOM     15  C   UNL A   1      32.100  25.516  21.909  1.00  0.00     0.011 C 
ENDBRANCH   5  13
ENDBRANCH   3   5
ENDBRANCH   2   3
ENDBRANCH   1   2
BRANCH   1  16
ATOM     16  C   UNL A   1      31.527  29.474  25.623  1.00  0.00     0.275 C 
BRANCH  16  17
ATOM     17  O   UNL A   1      32.784  30.174  25.647  1.00  0.00    -0.458 OA
BRANCH  17  18
ATOM     18  C   UNL A   1      32.987  31.002  26.697  1.00  0.00     0.338 C 
ATOM     19  O   UNL A   1      32.209  31.840  27.128  1.00  0.00    -0.246 OA
BRANCH  18  20
ATOM     20  C   UNL A   1      34.309  30.727  27.309  1.00  0.00     0.060 A 
ATOM     21  C   UNL A   1      34.690  29.432  27.661  1.00  0.00     0.016 A 
ATOM     22  C   UNL A   1      35.147  31.798  27.627  1.00  0.00     0.016 A 
ATOM     23  C   UNL A   1      35.848  29.219  28.412  1.00  0.00     0.010 A 
ATOM     24  C   UNL A   1      36.358  31.569  28.291  1.00  0.00     0.010 A 
ATOM     25  C   UNL A   1      36.711  30.280  28.725  1.00  0.00    -0.014 A 
BRANCH  25  26
ATOM     26  C   UNL A   1      37.961  30.059  29.509  1.00  0.00     0.031 A 
ATOM     27  C   UNL A   1      39.101  29.258  28.926  1.00  0.00     0.074 A 
ATOM     28  C   UNL A   1      38.092  30.555  30.757  1.00  0.00     0.049 A 
ATOM     29  N   UNL A   1      40.143  28.741  29.530  1.00  0.00    -0.248 NA
ATOM     30  C   UNL A   1      39.053  28.988  27.480  1.00  0.00     0.031 C 
ATOM     31  C   UNL A   1      37.111  31.391  31.452  1.00  0.00     0.029 A 
ATOM     32  N   UNL A   1      39.115  30.423  31.666  1.00  0.00    -0.354 N 
ATOM     33  C   UNL A   1      40.831  28.026  28.557  1.00  0.00     0.074 A 
ATOM     34  C   UNL A   1      40.098  28.188  27.319  1.00  0.00     0.031 C 
ATOM     35  C   UNL A   1      37.596  31.733  32.654  1.00  0.00     0.029 A 
ATOM     36  C   UNL A   1      38.871  31.058  32.860  1.00  0.00     0.049 A 
ATOM     37  H   UNL A   1      39.942  29.924  31.480  1.00  0.00     0.167 HD
ATOM     38  C   UNL A   1      41.962  27.291  28.686  1.00  0.00     0.031 A 
ATOM     39  C   UNL A   1      39.558  31.058  34.018  1.00  0.00     0.031 A 
ATOM     40  C   UNL A   1      42.727  27.173  29.900  1.00  0.00     0.049 A 
ATOM     41  C   UNL A   1      40.798  30.227  34.145  1.00  0.00     0.074 A 
ATOM     42  C   UNL A   1      43.888  26.451  30.123  1.00  0.00     0.029 A 
ATOM     43  N   UNL A   1      42.422  27.813  31.090  1.00  0.00    -0.354 N 
ATOM     44  N   UNL A   1      41.378  29.471  33.246  1.00  0.00    -0.248 NA
ATOM     45  C   UNL A   1      41.461  30.224  35.457  1.00  0.00     0.031 C 
ATOM     46  C   UNL A   1      44.271  26.635  31.456  1.00  0.00     0.029 A 
ATOM     47  C   UNL A   1      43.371  27.502  32.049  1.00  0.00     0.049 A 
ATOM     48  H   UNL A   1      41.647  28.404  31.231  1.00  0.00     0.167 HD
ATOM     49  C   UNL A   1      42.469  28.898  33.884  1.00  0.00     0.074 A 
ATOM     50  C   UNL A   1      42.487  29.415  35.237  1.00  0.00     0.031 C 
ATOM     51  C   UNL A   1      43.369  28.013  33.394  1.00  0.00     0.031 A 
BRANCH  38  52
ATOM     52  C   UNL A   1      42.429  26.513  27.487  1.00  0.00    -0.014 A 
ATOM     53  C   UNL A   1      41.964  25.217  27.224  1.00  0.00     0.009 A 
ATOM     54  C   UNL A   1      43.309  27.119  26.575  1.00  0.00     0.009 A 
ATOM     55  C   UNL A   1      42.389  24.534  26.081  1.00  0.00     0.001 A 
ATOM     56  C   UNL A   1      43.715  26.444  25.424  1.00  0.00     0.001 A 
ATOM     57  C   UNL A   1      43.259  25.149  25.181  1.00  0.00     0.000 A 
ENDBRANCH  38  52
BRANCH  39  58
ATOM     58  C   UNL A   1      39.035  31.825  35.178  1.00  0.00    -0.014 A 
ATOM     59  C   UNL A   1      39.281  33.200  35.291  1.00  0.00     0.009 A 
ATOM     60  C   UNL A   1      38.259  31.186  36.159  1.00  0.00     0.009 A 
ATOM     61  C   UNL A   1      38.761  33.921  36.368  1.00  0.00     0.001 A 
ATOM     62  C   UNL A   1      37.718  31.914  37.218  1.00  0.00     0.001 A 
ATOM     63  C   UNL A   1      37.973  33.280  37.325  1.00  0.00     0.000 A 
ENDBRANCH  39  58
BRANCH  51  64
ATOM     64  C   UNL A   1      44.454  27.561  34.328  1.00  0.00    -0.014 A 
ATOM     65  C   UNL A   1      45.648  28.286  34.447  1.00  0.00     0.009 A 
ATOM     66  C   UNL A   1      44.270  26.408  35.105  1.00  0.00     0.009 A 
ATOM     67  C   UNL A   1      46.656  27.846  35.308  1.00  0.00     0.001 A 
ATOM     68  C   UNL A   1      45.272  25.981  35.979  1.00  0.00     0.001 A 
ATOM     69  C   UNL A   1      46.466  26.695  36.073  1.00  0.00     0.000 A 
ENDBRANCH  51  64
ENDBRANCH  25  26
ENDBRANCH  18  20
ENDBRANCH  17  18
ENDBRANCH  16  17
ENDBRANCH   1  16
TORSDOF 16
ENDMDL
MODEL 2
REMARK VINA RESULT:      -8.6      1.083      2.242
REMARK SMILES COC[C@@H](C)[C@@](O)(C(=O)OCCOC(=O)c1ccc(-c2c3nc(c(-c4ccccc4)c4ccc([nH]4)c(-c4ccccc4)c4nc(c(-c5ccccc5)c5ccc2[nH]5)C=C4)C=C3)cc1)C(C)C
REMARK SMILES IDX 11 1 10 2 8 3 9 4 6 5 4 6 5 7 3 8 2 9 1 10 7 11 64 13 65 14
REMARK SMILES IDX 66 15 12 16 13 17 14 18 15 19 16 20 17 21 63 22 18 23 62 24
REMARK SMILES IDX 19 25 20 26 21 27 56 28 22 29 61 30 55 31 57 32 23 33 60 34
REMARK SMILES IDX 54 35 53 36 24 38 46 39 31 40 45 41 32 42 35 43 44 44 58 45
REMARK SMILES IDX 33 46 34 47 43 49 59 50 36 51 25 52 26 53 30 54 27 55 29 56
REMARK SMILES IDX 28 57 47 58 48 59 52 60 49 61 51 62 50 63 37 64 38 65 42 66
REMARK SMILES IDX 39 67 41 68 40 69
REMARK H PARENT 7 12 57 37 35 48
REMARK Flexibility Score: inf
ROOT
ATOM      1  C   UNL A   1      31.655  28.745  27.209  1.00  0.00     0.274 C 
ENDROOT
BRANCH   1   2
ATOM      2  O   UNL A   1      32.369  27.632  26.629  1.00  0.00    -0.460 OA
BRANCH   2   3
ATOM      3  C   UNL A   1      31.632  26.713  25.957  1.00  0.00     0.338 C 
ATOM      4  O   UNL A   1      30.639  26.154  26.424  1.00  0.00    -0.249 OA
BRANCH   3   5
ATOM      5  C   UNL A   1      32.195  26.332  24.554  1.00  0.00     0.168 C 
BRANCH   5   6
ATOM      6  C   UNL A   1      31.182  26.522  23.378  1.00  0.00     0.055 C 
ATOM      7  C   UNL A   1      31.667  26.083  21.989  1.00  0.00     0.014 C 
BRANCH   6   8
ATOM      8  C   UNL A   1      30.601  27.953  23.358  1.00  0.00     0.166 C 
BRANCH   8   9
ATOM      9  O   UNL A   1      30.197  28.383  22.056  1.00  0.00    -0.384 OA
ATOM     10  C   UNL A   1      29.508  29.628  22.044  1.00  0.00     0.194 C 
ENDBRANCH   8   9
ENDBRANCH   6   8
ENDBRANCH   5   6
BRANCH   5  11
ATOM     11  O   UNL A   1      33.199  27.379  24.384  1.00  0.00    -0.378 OA
ATOM     12  H   UNL A   1      33.731  27.451  25.193  1.00  0.00     0.212 HD
ENDBRANCH   5  11
BRANCH   5  13
ATOM     13  C   UNL A   1      32.970  24.959  24.662  1.00  0.00     0.026 C 
ATOM     14  C   UNL A   1      34.122  24.918  25.665  1.00  0.00     0.011 C 
ATOM     15  C   UNL A   1      32.081  23.721  24.876  1.00  0.00     0.011 C 
ENDBRANCH   5  13
ENDBRANCH   3   5
ENDBRANCH   2   3
ENDBRANCH   1   2
BRANCH   1  16
ATOM     16  C   UNL A   1      31.687  29.930  26.249  1.00  0.00     0.275 C 
BRANCH  16  17
ATOM     17  O   UNL A   1      33.044  30.393  26.142  1.00  0.00    -0.458 OA
BRANCH  17  18
ATOM     18  C   UNL A   1      33.420  31.354  27.015  1.00  0.00     0.338 C 
ATOM     19  O   UNL A   1      32.784  32.352  27.321  1.00  0.00    -0.246 OA
BRANCH  18  20
ATOM     20  C   UNL A   1      34.735  31.013  27.607  1.00  0.00     0.060 A 
ATOM     21  C   UNL A   1      35.054  29.700  27.959  1.00  0.00     0.016 A 
ATOM     22  C   UNL A   1      35.632  32.040  27.909  1.00  0.00     0.016 A 
ATOM     23  C   UNL A   1      36.211  29.430  28.693  1.00  0.00     0.010 A 
ATOM     24  C   UNL A   1      36.840  31.750  28.556  1.00  0.00     0.010 A 
ATOM     25  C   UNL A   1      37.132  30.445  28.989  1.00  0.00    -0.014 A 
BRANCH  25  26
ATOM     26  C   UNL A   1      38.381  30.162  29.755  1.00  0.00     0.031 A 
ATOM     27  C   UNL A   1      39.493  29.351  29.135  1.00  0.00     0.074 A 
ATOM     28  C   UNL A   1      38.534  30.610  31.018  1.00  0.00     0.049 A 
ATOM     29  N   UNL A   1      40.524  28.784  29.712  1.00  0.00    -0.248 NA
ATOM     30  C   UNL A   1      39.427  29.133  27.681  1.00  0.00     0.031 C 
ATOM     31  C   UNL A   1      37.582  31.448  31.750  1.00  0.00     0.029 A 
ATOM     32  N   UNL A   1      39.560  30.418  31.914  1.00  0.00    -0.354 N 
ATOM     33  C   UNL A   1      41.186  28.084  28.709  1.00  0.00     0.074 A 
ATOM     34  C   UNL A   1      40.449  28.310  27.484  1.00  0.00     0.031 C 
ATOM     35  C   UNL A   1      38.085  31.734  32.960  1.00  0.00     0.029 A 
ATOM     36  C   UNL A   1      39.342  31.016  33.132  1.00  0.00     0.049 A 
ATOM     37  H   UNL A   1      40.371  29.902  31.703  1.00  0.00     0.167 HD
ATOM     38  C   UNL A   1      42.296  27.314  28.803  1.00  0.00     0.031 A 
ATOM     39  C   UNL A   1      40.037  30.956  34.283  1.00  0.00     0.031 A 
ATOM     40  C   UNL A   1      43.065  27.132  30.007  1.00  0.00     0.049 A 
ATOM     41  C   UNL A   1      41.254  30.086  34.371  1.00  0.00     0.074 A 
ATOM     42  C   UNL A   1      44.208  26.370  30.194  1.00  0.00     0.029 A 
ATOM     43  N   UNL A   1      42.788  27.738  31.220  1.00  0.00    -0.354 N 
ATOM     44  N   UNL A   1      41.806  29.347  33.441  1.00  0.00    -0.248 NA
ATOM     45  C   UNL A   1      41.926  30.019  35.677  1.00  0.00     0.031 C 
ATOM     46  C   UNL A   1      44.605  26.496  31.530  1.00  0.00     0.029 A 
ATOM     47  C   UNL A   1      43.733  27.366  32.161  1.00  0.00     0.049 A 
ATOM     48  H   UNL A   1      42.030  28.344  31.389  1.00  0.00     0.167 HD
ATOM     49  C   UNL A   1      42.885  28.721  34.051  1.00  0.00     0.074 A 
ATOM     50  C   UNL A   1      42.927  29.190  35.420  1.00  0.00     0.031 C 
ATOM     51  C   UNL A   1      43.756  27.829  33.522  1.00  0.00     0.031 A 
BRANCH  38  52
ATOM     52  C   UNL A   1      42.732  26.566  27.574  1.00  0.00    -0.014 A 
ATOM     53  C   UNL A   1      42.229  25.293  27.270  1.00  0.00     0.009 A 
ATOM     54  C   UNL A   1      43.623  27.179  26.677  1.00  0.00     0.009 A 
ATOM     55  C   UNL A   1      42.627  24.639  26.100  1.00  0.00     0.001 A 
ATOM     56  C   UNL A   1      44.001  26.534  25.499  1.00  0.00     0.001 A 
ATOM     57  C   UNL A   1      43.508  25.261  25.215  1.00  0.00     0.000 A 
ENDBRANCH  38  52
BRANCH  39  58
ATOM     58  C   UNL A   1      39.544  31.696  35.473  1.00  0.00    -0.014 A 
ATOM     59  C   UNL A   1      40.077  32.950  35.803  1.00  0.00     0.009 A 
ATOM     60  C   UNL A   1      38.514  31.162  36.265  1.00  0.00     0.009 A 
ATOM     61  C   UNL A   1      39.588  33.654  36.906  1.00  0.00     0.001 A 
ATOM     62  C   UNL A   1      38.008  31.880  37.348  1.00  0.00     0.001 A 
ATOM     63  C   UNL A   1      38.549  33.123  37.672  1.00  0.00     0.000 A 
ENDBRANCH  39  58
BRANCH  51  64
ATOM     64  C   UNL A   1      44.834  27.315  34.431  1.00  0.00    -0.014 A 
ATOM     65  C   UNL A   1      46.057  27.990  34.551  1.00  0.00     0.009 A 
ATOM     66  C   UNL A   1      44.615  26.152  35.185  1.00  0.00     0.009 A 
ATOM     67  C   UNL A   1      47.057  27.491  35.388  1.00  0.00     0.001 A 
ATOM     68  C   UNL A   1      45.610  25.666  36.035  1.00  0.00     0.001 A 
ATOM     69  C   UNL A   1      46.833  26.332  36.129  1.00  0.00     0.000 A 
ENDBRANCH  51  64
ENDBRANCH  25  26
ENDBRANCH  18  20
ENDBRANCH  17  18
ENDBRANCH  16  17
ENDBRANCH   1  16
TORSDOF 16
ENDMDL
MODEL 3
REMARK VINA RESULT:      -8.6      3.752      7.265
REMARK SMILES COC[C@@H](C)[C@@](O)(C(=O)OCCOC(=O)c1ccc(-c2c3nc(c(-c4ccccc4)c4ccc([nH]4)c(-c4ccccc4)c4nc(c(-c5ccccc5)c5ccc2[nH]5)C=C4)C=C3)cc1)C(C)C
REMARK SMILES IDX 11 1 10 2 8 3 9 4 6 5 4 6 5 7 3 8 2 9 1 10 7 11 64 13 65 14
REMARK SMILES IDX 66 15 12 16 13 17 14 18 15 19 16 20 17 21 63 22 18 23 62 24
REMARK SMILES IDX 19 25 20 26 21 27 56 28 22 29 61 30 55 31 57 32 23 33 60 34
REMARK SMILES IDX 54 35 53 36 24 38 46 39 31 40 45 41 32 42 35 43 44 44 58 45
REMARK SMILES IDX 33 46 34 47 43 49 59 50 36 51 25 52 26 53 30 54 27 55 29 56
REMARK SMILES IDX 28 57 47 58 48 59 52 60 49 61 51 62 50 63 37 64 38 65 42 66
REMARK SMILES IDX 39 67 41 68 40 69
REMARK H PARENT 7 12 57 37 35 48
REMARK Flexibility Score: inf
ROOT
ATOM      1  C   UNL A   1      33.033  28.404  27.101  1.00  0.00     0.274 C 
ENDROOT
BRANCH   1   2
ATOM      2  O   UNL A   1      31.938  28.012  26.244  1.00  0.00    -0.460 OA
BRANCH   2   3
ATOM      3  C   UNL A   1      31.805  26.689  25.984  1.00  0.00     0.338 C 
ATOM      4  O   UNL A   1      31.482  25.852  26.828  1.00  0.00    -0.249 OA
BRANCH   3   5
ATOM      5  C   UNL A   1      32.190  26.272  24.532  1.00  0.00     0.168 C 
BRANCH   5   6
ATOM      6  C   UNL A   1      30.972  26.097  23.567  1.00  0.00     0.055 C 
ATOM      7  C   UNL A   1      30.447  24.665  23.391  1.00  0.00     0.014 C 
BRANCH   6   8
ATOM      8  C   UNL A   1      31.224  26.787  22.208  1.00  0.00     0.166 C 
BRANCH   8   9
ATOM      9  O   UNL A   1      30.368  27.907  21.974  1.00  0.00    -0.384 OA
ATOM     10  C   UNL A   1      29.574  28.275  23.096  1.00  0.00     0.194 C 
ENDBRANCH   8   9
ENDBRANCH   6   8
ENDBRANCH   5   6
BRANCH   5  11
ATOM     11  O   UNL A   1      32.876  27.482  24.088  1.00  0.00    -0.378 OA
ATOM     12  H   UNL A   1      32.643  27.665  23.164  1.00  0.00     0.212 HD
ENDBRANCH   5  11
BRANCH   5  13
ATOM     13  C   UNL A   1      33.270  25.120  24.592  1.00  0.00     0.026 C 
ATOM     14  C   UNL A   1      33.934  24.756  23.265  1.00  0.00     0.011 C 
ATOM     15  C   UNL A   1      34.364  25.303  25.660  1.00  0.00     0.011 C 
ENDBRANCH   5  13
ENDBRANCH   3   5
ENDBRANCH   2   3
ENDBRANCH   1   2
BRANCH   1  16
ATOM     16  C   UNL A   1      32.872  29.867  27.502  1.00  0.00     0.275 C 
BRANCH  16  17
ATOM     17  O   UNL A   1      34.124  30.540  27.281  1.00  0.00    -0.458 OA
BRANCH  17  18
ATOM     18  C   UNL A   1      34.781  30.958  28.386  1.00  0.00     0.338 C 
ATOM     19  O   UNL A   1      34.379  31.764  29.214  1.00  0.00    -0.246 OA
BRANCH  18  20
ATOM     20  C   UNL A   1      36.084  30.262  28.495  1.00  0.00     0.060 A 
ATOM     21  C   UNL A   1      36.497  29.679  29.694  1.00  0.00     0.016 A 
ATOM     22  C   UNL A   1      36.956  30.275  27.404  1.00  0.00     0.016 A 
ATOM     23  C   UNL A   1      37.803  29.203  29.832  1.00  0.00     0.010 A 
ATOM     24  C   UNL A   1      38.230  29.705  27.517  1.00  0.00     0.010 A 
ATOM     25  C   UNL A   1      38.686  29.192  28.743  1.00  0.00    -0.014 A 
BRANCH  25  26
ATOM     26  C   UNL A   1      40.077  28.666  28.875  1.00  0.00     0.031 A 
ATOM     27  C   UNL A   1      41.199  29.571  29.323  1.00  0.00     0.074 A 
ATOM     28  C   UNL A   1      40.360  27.380  28.582  1.00  0.00     0.049 A 
ATOM     29  N   UNL A   1      42.494  29.381  29.250  1.00  0.00    -0.248 NA
ATOM     30  C   UNL A   1      40.816  30.864  29.912  1.00  0.00     0.031 C 
ATOM     31  C   UNL A   1      39.389  26.359  28.184  1.00  0.00     0.029 A 
ATOM     32  N   UNL A   1      41.562  26.712  28.575  1.00  0.00    -0.354 N 
ATOM     33  C   UNL A   1      43.078  30.555  29.712  1.00  0.00     0.074 A 
ATOM     34  C   UNL A   1      41.997  31.446  30.078  1.00  0.00     0.031 C 
ATOM     35  C   UNL A   1      40.023  25.189  28.016  1.00  0.00     0.029 A 
ATOM     36  C   UNL A   1      41.455  25.397  28.190  1.00  0.00     0.049 A 
ATOM     37  H   UNL A   1      42.416  27.134  28.823  1.00  0.00     0.167 HD
ATOM     38  C   UNL A   1      44.392  30.866  29.810  1.00  0.00     0.031 A 
ATOM     39  C   UNL A   1      42.398  24.468  27.944  1.00  0.00     0.031 A 
ATOM     40  C   UNL A   1      45.472  29.964  29.503  1.00  0.00     0.049 A 
ATOM     41  C   UNL A   1      43.846  24.837  28.043  1.00  0.00     0.074 A 
ATOM     42  C   UNL A   1      46.836  30.194  29.575  1.00  0.00     0.029 A 
ATOM     43  N   UNL A   1      45.311  28.653  29.090  1.00  0.00    -0.354 N 
ATOM     44  N   UNL A   1      44.383  25.984  28.379  1.00  0.00    -0.248 NA
ATOM     45  C   UNL A   1      44.820  23.791  27.698  1.00  0.00     0.031 C 
ATOM     46  C   UNL A   1      47.500  29.027  29.180  1.00  0.00     0.029 A 
ATOM     47  C   UNL A   1      46.548  28.062  28.901  1.00  0.00     0.049 A 
ATOM     48  H   UNL A   1      44.444  28.206  28.952  1.00  0.00     0.167 HD
ATOM     49  C   UNL A   1      45.755  25.800  28.280  1.00  0.00     0.074 A 
ATOM     50  C   UNL A   1      45.970  24.425  27.881  1.00  0.00     0.031 C 
ATOM     51  C   UNL A   1      46.747  26.698  28.491  1.00  0.00     0.031 A 
BRANCH  38  52
ATOM     52  C   UNL A   1      44.749  32.265  30.232  1.00  0.00    -0.014 A 
ATOM     53  C   UNL A   1      44.859  33.308  29.303  1.00  0.00     0.009 A 
ATOM     54  C   UNL A   1      44.920  32.548  31.598  1.00  0.00     0.009 A 
ATOM     55  C   UNL A   1      45.155  34.606  29.731  1.00  0.00     0.001 A 
ATOM     56  C   UNL A   1      45.193  33.847  32.025  1.00  0.00     0.001 A 
ATOM     57  C   UNL A   1      45.318  34.875  31.090  1.00  0.00     0.000 A 
ENDBRANCH  38  52
BRANCH  39  58
ATOM     58  C   UNL A   1      41.988  23.110  27.505  1.00  0.00    -0.014 A 
ATOM     59  C   UNL A   1      41.627  22.136  28.447  1.00  0.00     0.009 A 
ATOM     60  C   UNL A   1      41.925  22.794  26.137  1.00  0.00     0.009 A 
ATOM     61  C   UNL A   1      41.214  20.870  28.026  1.00  0.00     0.001 A 
ATOM     62  C   UNL A   1      41.484  21.538  25.720  1.00  0.00     0.001 A 
ATOM     63  C   UNL A   1      41.134  20.575  26.664  1.00  0.00     0.000 A 
ENDBRANCH  39  58
BRANCH  51  64
ATOM     64  C   UNL A   1      48.154  26.208  28.304  1.00  0.00    -0.014 A 
ATOM     65  C   UNL A   1      48.776  26.267  27.049  1.00  0.00     0.009 A 
ATOM     66  C   UNL A   1      48.866  25.698  29.400  1.00  0.00     0.009 A 
ATOM     67  C   UNL A   1      50.079  25.793  26.886  1.00  0.00     0.001 A 
ATOM     68  C   UNL A   1      50.176  25.242  29.238  1.00  0.00     0.001 A 
ATOM     69  C   UNL A   1      50.778  25.283  27.980  1.00  0.00     0.000 A 
ENDBRANCH  51  64
ENDBRANCH  25  26
ENDBRANCH  18  20
ENDBRANCH  17  18
ENDBRANCH  16  17
ENDBRANCH   1  16
TORSDOF 16
ENDMDL
