MODEL 1
REMARK VINA RESULT:     -10.2      0.000      0.000
REMARK SMILES CC[C@@H](C)N(C)S(=O)(=O)c1cc(C(=O)OCCOC(=O)c2ccc(-c3c4nc(c(-c5ccccc5)c5ccc([nH]5)c(-c5ccccc5)c5nc(c(-c6ccccc6)c6ccc3[nH]6)C=C5)C=C4)cc2)ccc1Br
REMARK SMILES IDX 16 1 15 2 13 3 14 4 12 5 10 6 11 7 71 8 70 9 72 10 69 11
REMARK SMILES IDX 7 12 8 13 9 14 5 15 6 16 3 17 4 18 2 19 1 20 17 21 18 22
REMARK SMILES IDX 19 23 20 24 21 25 22 26 68 27 23 28 67 29 24 30 25 31 26 32
REMARK SMILES IDX 61 33 27 34 66 35 60 36 62 37 28 38 65 39 59 40 58 41 29 43
REMARK SMILES IDX 51 44 36 45 50 46 37 47 40 48 49 49 63 50 38 51 39 52 48 54
REMARK SMILES IDX 64 55 41 56 30 57 31 58 35 59 32 60 34 61 33 62 52 63 53 64
REMARK SMILES IDX 57 65 54 66 56 67 55 68 42 69 43 70 47 71 44 72 46 73 45 74
REMARK H PARENT 62 42 40 53
REMARK Flexibility Score: inf
ROOT
ATOM      1  C   UNL A   1      31.008  29.852  24.457  1.00  0.00     0.275 C 
ENDROOT
BRANCH   1   2
ATOM      2  O   UNL A   1      30.111  28.784  24.080  1.00  0.00    -0.458 OA
BRANCH   2   3
ATOM      3  C   UNL A   1      30.234  28.307  22.818  1.00  0.00     0.338 C 
ATOM      4  O   UNL A   1      29.902  28.866  21.786  1.00  0.00    -0.246 OA
BRANCH   3   5
ATOM      5  C   UNL A   1      30.920  26.989  22.825  1.00  0.00     0.061 A 
ATOM      6  C   UNL A   1      31.644  25.000  24.058  1.00  0.00     0.097 A 
ATOM      7  C   UNL A   1      31.022  26.262  24.021  1.00  0.00     0.038 A 
ATOM      8  C   UNL A   1      32.256  24.512  22.900  1.00  0.00     0.038 A 
ATOM      9  C   UNL A   1      32.175  25.260  21.711  1.00  0.00     0.018 A 
ATOM     10  Br  UNL A   1      33.300  22.933  22.777  1.00  0.00    -0.049 Br
ATOM     11  C   UNL A   1      31.493  26.478  21.664  1.00  0.00     0.017 A 
BRANCH   6  12
ATOM     12  S   UNL A   1      31.430  24.060  25.568  1.00  0.00     0.244 S 
ATOM     13  O   UNL A   1      31.128  22.685  25.240  1.00  0.00    -0.207 OA
ATOM     14  O   UNL A   1      30.506  24.822  26.381  1.00  0.00    -0.207 OA
BRANCH  12  15
ATOM     15  N   UNL A   1      32.965  24.102  26.342  1.00  0.00    -0.198 NA
ATOM     16  C   UNL A   1      33.932  25.067  25.762  1.00  0.00     0.124 C 
BRANCH  15  17
ATOM     17  C   UNL A   1      33.634  22.758  26.617  1.00  0.00     0.069 C 
ATOM     18  C   UNL A   1      33.290  22.203  28.002  1.00  0.00     0.026 C 
BRANCH  17  19
ATOM     19  C   UNL A   1      35.150  22.793  26.354  1.00  0.00     0.016 C 
ATOM     20  C   UNL A   1      35.652  21.576  25.580  1.00  0.00     0.005 C 
ENDBRANCH  17  19
ENDBRANCH  15  17
ENDBRANCH  12  15
ENDBRANCH   6  12
ENDBRANCH   3   5
ENDBRANCH   2   3
ENDBRANCH   1   2
BRANCH   1  21
ATOM     21  C   UNL A   1      31.597  29.623  25.850  1.00  0.00     0.275 C 
BRANCH  21  22
ATOM     22  O   UNL A   1      32.950  30.104  25.908  1.00  0.00    -0.458 OA
BRANCH  22  23
ATOM     23  C   UNL A   1      33.185  31.049  26.846  1.00  0.00     0.338 C 
ATOM     24  O   UNL A   1      32.418  31.904  27.253  1.00  0.00    -0.246 OA
BRANCH  23  25
ATOM     25  C   UNL A   1      34.521  30.843  27.420  1.00  0.00     0.060 A 
ATOM     26  C   UNL A   1      34.865  29.553  27.804  1.00  0.00     0.016 A 
ATOM     27  C   UNL A   1      35.361  31.909  27.722  1.00  0.00     0.016 A 
ATOM     28  C   UNL A   1      35.987  29.325  28.587  1.00  0.00     0.010 A 
ATOM     29  C   UNL A   1      36.560  31.660  28.405  1.00  0.00     0.010 A 
ATOM     30  C   UNL A   1      36.872  30.368  28.871  1.00  0.00    -0.014 A 
BRANCH  30  31
ATOM     31  C   UNL A   1      38.114  30.101  29.650  1.00  0.00     0.031 A 
ATOM     32  C   UNL A   1      39.215  29.258  29.063  1.00  0.00     0.074 A 
ATOM     33  C   UNL A   1      38.262  30.615  30.889  1.00  0.00     0.049 A 
ATOM     34  N   UNL A   1      40.260  28.735  29.654  1.00  0.00    -0.248 NA
ATOM     35  C   UNL A   1      39.118  28.948  27.628  1.00  0.00     0.031 C 
ATOM     36  C   UNL A   1      37.311  31.504  31.562  1.00  0.00     0.029 A 
ATOM     37  N   UNL A   1      39.272  30.461  31.808  1.00  0.00    -0.354 N 
ATOM     38  C   UNL A   1      40.911  27.988  28.679  1.00  0.00     0.074 A 
ATOM     39  C   UNL A   1      40.140  28.119  27.461  1.00  0.00     0.031 C 
ATOM     40  C   UNL A   1      37.798  31.843  32.765  1.00  0.00     0.029 A 
ATOM     41  C   UNL A   1      39.034  31.110  32.997  1.00  0.00     0.049 A 
ATOM     42  H   UNL A   1      40.087  29.938  31.632  1.00  0.00     0.167 HD
ATOM     43  C   UNL A   1      42.048  27.259  28.794  1.00  0.00     0.031 A 
ATOM     44  C   UNL A   1      39.694  31.073  34.169  1.00  0.00     0.031 A 
ATOM     45  C   UNL A   1      42.830  27.166  29.999  1.00  0.00     0.049 A 
ATOM     46  C   UNL A   1      40.901  30.191  34.296  1.00  0.00     0.074 A 
ATOM     47  C   UNL A   1      44.008  26.470  30.211  1.00  0.00     0.029 A 
ATOM     48  N   UNL A   1      42.520  27.800  31.193  1.00  0.00    -0.354 N 
ATOM     49  N   UNL A   1      41.484  29.455  33.382  1.00  0.00    -0.248 NA
ATOM     50  C   UNL A   1      41.528  30.118  35.623  1.00  0.00     0.031 C 
ATOM     51  C   UNL A   1      44.377  26.635  31.550  1.00  0.00     0.029 A 
ATOM     52  C   UNL A   1      43.465  27.484  32.154  1.00  0.00     0.049 A 
ATOM     53  H   UNL A   1      41.741  28.387  31.335  1.00  0.00     0.167 HD
ATOM     54  C   UNL A   1      42.553  28.840  34.018  1.00  0.00     0.074 A 
ATOM     55  C   UNL A   1      42.554  29.310  35.389  1.00  0.00     0.031 C 
ATOM     56  C   UNL A   1      43.451  27.961  33.513  1.00  0.00     0.031 A 
BRANCH  43  57
ATOM     57  C   UNL A   1      42.494  26.461  27.597  1.00  0.00    -0.014 A 
ATOM     58  C   UNL A   1      42.058  25.146  27.380  1.00  0.00     0.009 A 
ATOM     59  C   UNL A   1      43.330  27.063  26.642  1.00  0.00     0.009 A 
ATOM     60  C   UNL A   1      42.477  24.439  26.250  1.00  0.00     0.001 A 
ATOM     61  C   UNL A   1      43.722  26.366  25.498  1.00  0.00     0.001 A 
ATOM     62  C   UNL A   1      43.302  25.051  25.307  1.00  0.00     0.000 A 
ENDBRANCH  43  57
BRANCH  44  63
ATOM     63  C   UNL A   1      39.178  31.837  35.337  1.00  0.00    -0.014 A 
ATOM     64  C   UNL A   1      39.580  33.162  35.561  1.00  0.00     0.009 A 
ATOM     65  C   UNL A   1      38.276  31.243  36.236  1.00  0.00     0.009 A 
ATOM     66  C   UNL A   1      39.103  33.868  36.668  1.00  0.00     0.001 A 
ATOM     67  C   UNL A   1      37.773  31.963  37.320  1.00  0.00     0.001 A 
ATOM     68  C   UNL A   1      38.194  33.272  37.541  1.00  0.00     0.000 A 
ENDBRANCH  44  63
BRANCH  56  69
ATOM     69  C   UNL A   1      44.528  27.475  34.439  1.00  0.00    -0.014 A 
ATOM     70  C   UNL A   1      45.729  28.185  34.594  1.00  0.00     0.009 A 
ATOM     71  C   UNL A   1      44.320  26.314  35.200  1.00  0.00     0.009 A 
ATOM     72  C   UNL A   1      46.710  27.727  35.474  1.00  0.00     0.001 A 
ATOM     73  C   UNL A   1      45.290  25.876  36.101  1.00  0.00     0.001 A 
ATOM     74  C   UNL A   1      46.487  26.578  36.232  1.00  0.00     0.000 A 
ENDBRANCH  56  69
ENDBRANCH  30  31
ENDBRANCH  23  25
ENDBRANCH  22  23
ENDBRANCH  21  22
ENDBRANCH   1  21
TORSDOF 15
ENDMDL
MODEL 2
REMARK VINA RESULT:     -10.1      4.465      7.927
REMARK SMILES CC[C@@H](C)N(C)S(=O)(=O)c1cc(C(=O)OCCOC(=O)c2ccc(-c3c4nc(c(-c5ccccc5)c5ccc([nH]5)c(-c5ccccc5)c5nc(c(-c6ccccc6)c6ccc3[nH]6)C=C5)C=C4)cc2)ccc1Br
REMARK SMILES IDX 16 1 15 2 13 3 14 4 12 5 10 6 11 7 71 8 70 9 72 10 69 11
REMARK SMILES IDX 7 12 8 13 9 14 5 15 6 16 3 17 4 18 2 19 1 20 17 21 18 22
REMARK SMILES IDX 19 23 20 24 21 25 22 26 68 27 23 28 67 29 24 30 25 31 26 32
REMARK SMILES IDX 61 33 27 34 66 35 60 36 62 37 28 38 65 39 59 40 58 41 29 43
REMARK SMILES IDX 51 44 36 45 50 46 37 47 40 48 49 49 63 50 38 51 39 52 48 54
REMARK SMILES IDX 64 55 41 56 30 57 31 58 35 59 32 60 34 61 33 62 52 63 53 64
REMARK SMILES IDX 57 65 54 66 56 67 55 68 42 69 43 70 47 71 44 72 46 73 45 74
REMARK H PARENT 62 42 40 53
REMARK Flexibility Score: inf
ROOT
ATOM      1  C   UNL A   1      39.289  21.152  26.139  1.00  0.00     0.275 C 
ENDROOT
BRANCH   1   2
ATOM      2  O   UNL A   1      38.276  21.515  25.175  1.00  0.00    -0.458 OA
BRANCH   2   3
ATOM      3  C   UNL A   1      37.615  22.676  25.400  1.00  0.00     0.338 C 
ATOM      4  O   UNL A   1      38.047  23.670  25.959  1.00  0.00    -0.246 OA
BRANCH   3   5
ATOM      5  C   UNL A   1      36.258  22.626  24.797  1.00  0.00     0.061 A 
ATOM      6  C   UNL A   1      34.124  21.459  24.510  1.00  0.00     0.097 A 
ATOM      7  C   UNL A   1      35.424  21.526  25.045  1.00  0.00     0.038 A 
ATOM      8  C   UNL A   1      33.699  22.463  23.634  1.00  0.00     0.038 A 
ATOM      9  C   UNL A   1      34.553  23.548  23.366  1.00  0.00     0.018 A 
ATOM     10  Br  UNL A   1      32.070  22.472  22.662  1.00  0.00    -0.049 Br
ATOM     11  C   UNL A   1      35.814  23.645  23.959  1.00  0.00     0.017 A 
BRANCH   6  12
ATOM     12  S   UNL A   1      33.071  20.161  25.154  1.00  0.00     0.244 S 
ATOM     13  O   UNL A   1      31.689  20.578  25.075  1.00  0.00    -0.207 OA
ATOM     14  O   UNL A   1      33.636  19.794  26.436  1.00  0.00    -0.207 OA
BRANCH  12  15
ATOM     15  N   UNL A   1      33.292  18.833  24.086  1.00  0.00    -0.198 NA
ATOM     16  C   UNL A   1      32.202  18.636  23.098  1.00  0.00     0.124 C 
BRANCH  15  17
ATOM     17  C   UNL A   1      33.706  17.505  24.714  1.00  0.00     0.069 C 
ATOM     18  C   UNL A   1      34.359  16.556  23.706  1.00  0.00     0.026 C 
BRANCH  17  19
ATOM     19  C   UNL A   1      32.557  16.841  25.493  1.00  0.00     0.016 C 
ATOM     20  C   UNL A   1      32.615  15.316  25.461  1.00  0.00     0.005 C 
ENDBRANCH  17  19
ENDBRANCH  15  17
ENDBRANCH  12  15
ENDBRANCH   6  12
ENDBRANCH   3   5
ENDBRANCH   2   3
ENDBRANCH   1   2
BRANCH   1  21
ATOM     21  C   UNL A   1      39.940  19.813  25.789  1.00  0.00     0.275 C 
BRANCH  21  22
ATOM     22  O   UNL A   1      41.136  19.619  26.563  1.00  0.00    -0.458 OA
BRANCH  22  23
ATOM     23  C   UNL A   1      42.289  19.935  25.931  1.00  0.00     0.338 C 
ATOM     24  O   UNL A   1      42.892  19.273  25.105  1.00  0.00    -0.246 OA
BRANCH  23  25
ATOM     25  C   UNL A   1      42.692  21.296  26.307  1.00  0.00     0.060 A 
ATOM     26  C   UNL A   1      42.647  21.632  27.654  1.00  0.00     0.016 A 
ATOM     27  C   UNL A   1      42.958  22.270  25.352  1.00  0.00     0.016 A 
ATOM     28  C   UNL A   1      42.754  22.956  28.055  1.00  0.00     0.010 A 
ATOM     29  C   UNL A   1      43.192  23.588  25.769  1.00  0.00     0.010 A 
ATOM     30  C   UNL A   1      43.064  23.952  27.124  1.00  0.00    -0.014 A 
BRANCH  30  31
ATOM     31  C   UNL A   1      43.251  25.360  27.573  1.00  0.00     0.031 A 
ATOM     32  C   UNL A   1      44.632  25.898  27.837  1.00  0.00     0.074 A 
ATOM     33  C   UNL A   1      42.182  26.165  27.747  1.00  0.00     0.049 A 
ATOM     34  N   UNL A   1      44.986  27.008  28.435  1.00  0.00    -0.248 NA
ATOM     35  C   UNL A   1      45.763  25.073  27.384  1.00  0.00     0.031 C 
ATOM     36  C   UNL A   1      40.789  25.804  27.468  1.00  0.00     0.029 A 
ATOM     37  N   UNL A   1      42.099  27.458  28.203  1.00  0.00    -0.354 N 
ATOM     38  C   UNL A   1      46.376  26.985  28.482  1.00  0.00     0.074 A 
ATOM     39  C   UNL A   1      46.800  25.749  27.859  1.00  0.00     0.031 C 
ATOM     40  C   UNL A   1      39.999  26.857  27.723  1.00  0.00     0.029 A 
ATOM     41  C   UNL A   1      40.809  27.926  28.291  1.00  0.00     0.049 A 
ATOM     42  H   UNL A   1      42.886  27.998  28.444  1.00  0.00     0.167 HD
ATOM     43  C   UNL A   1      47.218  27.911  29.001  1.00  0.00     0.031 A 
ATOM     44  C   UNL A   1      40.315  29.058  28.826  1.00  0.00     0.031 A 
ATOM     45  C   UNL A   1      46.789  29.157  29.584  1.00  0.00     0.049 A 
ATOM     46  C   UNL A   1      41.261  30.029  29.471  1.00  0.00     0.074 A 
ATOM     47  C   UNL A   1      47.565  30.171  30.118  1.00  0.00     0.029 A 
ATOM     48  N   UNL A   1      45.468  29.562  29.696  1.00  0.00    -0.354 N 
ATOM     49  N   UNL A   1      42.568  29.978  29.550  1.00  0.00    -0.248 NA
ATOM     50  C   UNL A   1      40.660  31.202  30.120  1.00  0.00     0.031 C 
ATOM     51  C   UNL A   1      46.710  31.163  30.607  1.00  0.00     0.029 A 
ATOM     52  C   UNL A   1      45.406  30.797  30.321  1.00  0.00     0.049 A 
ATOM     53  H   UNL A   1      44.690  29.048  29.379  1.00  0.00     0.167 HD
ATOM     54  C   UNL A   1      42.948  31.117  30.245  1.00  0.00     0.074 A 
ATOM     55  C   UNL A   1      41.736  31.852  30.544  1.00  0.00     0.031 C 
ATOM     56  C   UNL A   1      44.191  31.515  30.610  1.00  0.00     0.031 A 
BRANCH  43  57
ATOM     57  C   UNL A   1      48.690  27.597  29.008  1.00  0.00    -0.014 A 
ATOM     58  C   UNL A   1      49.540  28.005  27.970  1.00  0.00     0.009 A 
ATOM     59  C   UNL A   1      49.243  26.918  30.107  1.00  0.00     0.009 A 
ATOM     60  C   UNL A   1      50.905  27.713  28.017  1.00  0.00     0.001 A 
ATOM     61  C   UNL A   1      50.613  26.654  30.166  1.00  0.00     0.001 A 
ATOM     62  C   UNL A   1      51.441  27.044  29.116  1.00  0.00     0.000 A 
ENDBRANCH  43  57
BRANCH  44  63
ATOM     63  C   UNL A   1      38.847  29.294  28.844  1.00  0.00    -0.014 A 
ATOM     64  C   UNL A   1      38.099  29.070  30.010  1.00  0.00     0.009 A 
ATOM     65  C   UNL A   1      38.183  29.748  27.691  1.00  0.00     0.009 A 
ATOM     66  C   UNL A   1      36.718  29.280  30.015  1.00  0.00     0.001 A 
ATOM     67  C   UNL A   1      36.810  29.992  27.710  1.00  0.00     0.001 A 
ATOM     68  C   UNL A   1      36.076  29.749  28.869  1.00  0.00     0.000 A 
ENDBRANCH  44  63
BRANCH  56  69
ATOM     69  C   UNL A   1      44.304  32.820  31.343  1.00  0.00    -0.014 A 
ATOM     70  C   UNL A   1      44.302  32.869  32.746  1.00  0.00     0.009 A 
ATOM     71  C   UNL A   1      44.460  34.013  30.619  1.00  0.00     0.009 A 
ATOM     72  C   UNL A   1      44.429  34.091  33.408  1.00  0.00     0.001 A 
ATOM     73  C   UNL A   1      44.616  35.228  31.285  1.00  0.00     0.001 A 
ATOM     74  C   UNL A   1      44.592  35.267  32.677  1.00  0.00     0.000 A 
ENDBRANCH  56  69
ENDBRANCH  30  31
ENDBRANCH  23  25
ENDBRANCH  22  23
ENDBRANCH  21  22
ENDBRANCH   1  21
TORSDOF 15
ENDMDL
MODEL 3
REMARK VINA RESULT:     -10.0      4.114      8.552
REMARK SMILES CC[C@@H](C)N(C)S(=O)(=O)c1cc(C(=O)OCCOC(=O)c2ccc(-c3c4nc(c(-c5ccccc5)c5ccc([nH]5)c(-c5ccccc5)c5nc(c(-c6ccccc6)c6ccc3[nH]6)C=C5)C=C4)cc2)ccc1Br
REMARK SMILES IDX 16 1 15 2 13 3 14 4 12 5 10 6 11 7 71 8 70 9 72 10 69 11
REMARK SMILES IDX 7 12 8 13 9 14 5 15 6 16 3 17 4 18 2 19 1 20 17 21 18 22
REMARK SMILES IDX 19 23 20 24 21 25 22 26 68 27 23 28 67 29 24 30 25 31 26 32
REMARK SMILES IDX 61 33 27 34 66 35 60 36 62 37 28 38 65 39 59 40 58 41 29 43
REMARK SMILES IDX 51 44 36 45 50 46 37 47 40 48 49 49 63 50 38 51 39 52 48 54
REMARK SMILES IDX 64 55 41 56 30 57 31 58 35 59 32 60 34 61 33 62 52 63 53 64
REMARK SMILES IDX 57 65 54 66 56 67 55 68 42 69 43 70 47 71 44 72 46 73 45 74
REMARK H PARENT 62 42 40 53
REMARK Flexibility Score: inf
ROOT
ATOM      1  C   UNL A   1      38.889  21.646  25.989  1.00  0.00     0.275 C 
ENDROOT
BRANCH   1   2
ATOM      2  O   UNL A   1      37.478  21.819  25.738  1.00  0.00    -0.458 OA
BRANCH   2   3
ATOM      3  C   UNL A   1      37.013  23.091  25.741  1.00  0.00     0.338 C 
ATOM      4  O   UNL A   1      37.591  24.083  26.155  1.00  0.00    -0.246 OA
BRANCH   3   5
ATOM      5  C   UNL A   1      35.681  23.160  25.087  1.00  0.00     0.061 A 
ATOM      6  C   UNL A   1      33.854  24.510  24.170  1.00  0.00     0.097 A 
ATOM      7  C   UNL A   1      35.103  24.408  24.811  1.00  0.00     0.038 A 
ATOM      8  C   UNL A   1      33.137  23.342  23.895  1.00  0.00     0.038 A 
ATOM      9  C   UNL A   1      33.710  22.094  24.201  1.00  0.00     0.018 A 
ATOM     10  Br  UNL A   1      31.370  23.259  23.210  1.00  0.00    -0.049 Br
ATOM     11  C   UNL A   1      34.983  21.999  24.770  1.00  0.00     0.017 A 
BRANCH   6  12
ATOM     12  S   UNL A   1      33.385  26.146  23.609  1.00  0.00     0.244 S 
ATOM     13  O   UNL A   1      33.415  26.186  22.165  1.00  0.00    -0.207 OA
ATOM     14  O   UNL A   1      34.199  27.072  24.369  1.00  0.00    -0.207 OA
BRANCH  12  15
ATOM     15  N   UNL A   1      31.755  26.342  24.117  1.00  0.00    -0.198 NA
ATOM     16  C   UNL A   1      30.991  27.381  23.381  1.00  0.00     0.124 C 
BRANCH  15  17
ATOM     17  C   UNL A   1      31.510  26.448  25.620  1.00  0.00     0.069 C 
ATOM     18  C   UNL A   1      30.355  25.559  26.091  1.00  0.00     0.026 C 
BRANCH  17  19
ATOM     19  C   UNL A   1      31.364  27.906  26.091  1.00  0.00     0.016 C 
ATOM     20  C   UNL A   1      31.729  28.100  27.560  1.00  0.00     0.005 C 
ENDBRANCH  17  19
ENDBRANCH  15  17
ENDBRANCH  12  15
ENDBRANCH   6  12
ENDBRANCH   3   5
ENDBRANCH   2   3
ENDBRANCH   1   2
BRANCH   1  21
ATOM     21  C   UNL A   1      39.377  20.274  25.522  1.00  0.00     0.275 C 
BRANCH  21  22
ATOM     22  O   UNL A   1      40.401  19.779  26.404  1.00  0.00    -0.458 OA
BRANCH  22  23
ATOM     23  C   UNL A   1      41.670  19.977  25.981  1.00  0.00     0.338 C 
ATOM     24  O   UNL A   1      42.311  19.296  25.200  1.00  0.00    -0.246 OA
BRANCH  23  25
ATOM     25  C   UNL A   1      42.172  21.243  26.529  1.00  0.00     0.060 A 
ATOM     26  C   UNL A   1      42.169  21.394  27.910  1.00  0.00     0.016 A 
ATOM     27  C   UNL A   1      42.494  22.319  25.709  1.00  0.00     0.016 A 
ATOM     28  C   UNL A   1      42.373  22.641  28.484  1.00  0.00     0.010 A 
ATOM     29  C   UNL A   1      42.826  23.548  26.295  1.00  0.00     0.010 A 
ATOM     30  C   UNL A   1      42.740  23.731  27.690  1.00  0.00    -0.014 A 
BRANCH  30  31
ATOM     31  C   UNL A   1      43.032  25.049  28.322  1.00  0.00     0.031 A 
ATOM     32  C   UNL A   1      41.923  26.034  28.576  1.00  0.00     0.074 A 
ATOM     33  C   UNL A   1      44.296  25.368  28.672  1.00  0.00     0.049 A 
ATOM     34  N   UNL A   1      42.001  27.299  28.907  1.00  0.00    -0.248 NA
ATOM     35  C   UNL A   1      40.547  25.537  28.421  1.00  0.00     0.031 C 
ATOM     36  C   UNL A   1      45.463  24.490  28.549  1.00  0.00     0.029 A 
ATOM     37  N   UNL A   1      44.813  26.525  29.204  1.00  0.00    -0.354 N 
ATOM     38  C   UNL A   1      40.690  27.761  28.942  1.00  0.00     0.074 A 
ATOM     39  C   UNL A   1      39.838  26.645  28.592  1.00  0.00     0.031 C 
ATOM     40  C   UNL A   1      46.546  25.123  29.023  1.00  0.00     0.029 A 
ATOM     41  C   UNL A   1      46.176  26.486  29.377  1.00  0.00     0.049 A 
ATOM     42  H   UNL A   1      44.261  27.305  29.439  1.00  0.00     0.167 HD
ATOM     43  C   UNL A   1      40.243  29.006  29.237  1.00  0.00     0.031 A 
ATOM     44  C   UNL A   1      47.050  27.451  29.717  1.00  0.00     0.031 A 
ATOM     45  C   UNL A   1      41.095  30.101  29.623  1.00  0.00     0.049 A 
ATOM     46  C   UNL A   1      46.540  28.842  29.956  1.00  0.00     0.074 A 
ATOM     47  C   UNL A   1      40.737  31.394  29.963  1.00  0.00     0.029 A 
ATOM     48  N   UNL A   1      42.476  30.026  29.733  1.00  0.00    -0.354 N 
ATOM     49  N   UNL A   1      45.304  29.280  29.944  1.00  0.00    -0.248 NA
ATOM     50  C   UNL A   1      47.546  29.876  30.233  1.00  0.00     0.031 C 
ATOM     51  C   UNL A   1      41.906  32.118  30.220  1.00  0.00     0.029 A 
ATOM     52  C   UNL A   1      42.986  31.259  30.103  1.00  0.00     0.049 A 
ATOM     53  H   UNL A   1      43.012  29.216  29.571  1.00  0.00     0.167 HD
ATOM     54  C   UNL A   1      45.383  30.637  30.224  1.00  0.00     0.074 A 
ATOM     55  C   UNL A   1      46.784  30.944  30.427  1.00  0.00     0.031 C 
ATOM     56  C   UNL A   1      44.383  31.548  30.301  1.00  0.00     0.031 A 
BRANCH  43  57
ATOM     57  C   UNL A   1      38.766  29.270  29.110  1.00  0.00    -0.014 A 
ATOM     58  C   UNL A   1      37.902  29.190  30.212  1.00  0.00     0.009 A 
ATOM     59  C   UNL A   1      38.241  29.656  27.865  1.00  0.00     0.009 A 
ATOM     60  C   UNL A   1      36.539  29.459  30.063  1.00  0.00     0.001 A 
ATOM     61  C   UNL A   1      36.885  29.955  27.726  1.00  0.00     0.001 A 
ATOM     62  C   UNL A   1      36.033  29.847  28.823  1.00  0.00     0.000 A 
ENDBRANCH  43  57
BRANCH  44  63
ATOM     63  C   UNL A   1      48.506  27.151  29.773  1.00  0.00    -0.014 A 
ATOM     64  C   UNL A   1      49.313  27.304  28.636  1.00  0.00     0.009 A 
ATOM     65  C   UNL A   1      49.098  26.711  30.969  1.00  0.00     0.009 A 
ATOM     66  C   UNL A   1      50.678  27.006  28.692  1.00  0.00     0.001 A 
ATOM     67  C   UNL A   1      50.467  26.450  31.031  1.00  0.00     0.001 A 
ATOM     68  C   UNL A   1      51.255  26.588  29.891  1.00  0.00     0.000 A 
ENDBRANCH  44  63
BRANCH  56  69
ATOM     69  C   UNL A   1      44.767  32.957  30.650  1.00  0.00    -0.014 A 
ATOM     70  C   UNL A   1      45.046  33.903  29.651  1.00  0.00     0.009 A 
ATOM     71  C   UNL A   1      44.804  33.354  31.996  1.00  0.00     0.009 A 
ATOM     72  C   UNL A   1      45.381  35.213  29.996  1.00  0.00     0.001 A 
ATOM     73  C   UNL A   1      45.110  34.672  32.335  1.00  0.00     0.001 A 
ATOM     74  C   UNL A   1      45.406  35.597  31.337  1.00  0.00     0.000 A 
ENDBRANCH  56  69
ENDBRANCH  30  31
ENDBRANCH  23  25
ENDBRANCH  22  23
ENDBRANCH  21  22
ENDBRANCH   1  21
TORSDOF 15
ENDMDL
