MODEL 1
REMARK VINA RESULT:     -10.9      0.000      0.000
REMARK SMILES Cc1occc1C(=O)NN1C(=O)/C(=C\c2ccc(O[C@H](C)C(=O)OCCOC(=O)c3ccc(-c4c5nc(c(-c6ccccc6)c6ccc([nH]6)c(-c6ccccc6)c6nc(c(-c7ccccc7)c7ccc4[nH]7)C=C6)C=C5)cc3)cc2)SC1=S
REMARK SMILES IDX 24 1 22 2 23 3 20 4 21 5 19 6 18 7 15 8 16 9 79 10 17 11
REMARK SMILES IDX 78 12 14 13 10 14 11 15 81 16 12 17 13 18 80 19 82 20 9 21
REMARK SMILES IDX 7 22 8 23 6 25 1 26 2 27 3 28 4 29 5 30 25 31 26 32 27 33
REMARK SMILES IDX 28 34 29 35 30 36 31 37 77 38 32 39 76 40 33 41 34 42 35 43
REMARK SMILES IDX 70 44 36 45 75 46 69 47 71 48 37 49 74 50 68 51 67 52 38 54
REMARK SMILES IDX 60 55 45 56 59 57 46 58 49 59 58 60 72 61 47 62 48 63 57 65
REMARK SMILES IDX 73 66 50 67 39 68 40 69 44 70 41 71 43 72 42 73 61 74 62 75
REMARK SMILES IDX 66 76 63 77 65 78 64 79 51 80 52 81 56 82 53 83 55 84 54 85
REMARK H PARENT 9 24 71 53 49 64
REMARK Flexibility Score: inf
ROOT
ATOM      1  O   UNL A   1      41.712  20.214  26.429  1.00  0.00    -0.459 OA
ENDROOT
BRANCH   1   2
ATOM      2  C   UNL A   1      40.391  20.169  26.107  1.00  0.00     0.347 C 
ATOM      3  O   UNL A   1      39.829  19.192  25.620  1.00  0.00    -0.248 OA
BRANCH   2   4
ATOM      4  C   UNL A   1      39.662  21.480  26.388  1.00  0.00     0.279 C 
ATOM      5  C   UNL A   1      40.516  22.632  26.925  1.00  0.00     0.066 C 
BRANCH   4   6
ATOM      6  O   UNL A   1      38.734  21.771  25.349  1.00  0.00    -0.479 OA
BRANCH   6   7
ATOM      7  C   UNL A   1      37.393  21.833  25.540  1.00  0.00     0.120 A 
ATOM      8  C   UNL A   1      34.667  22.447  25.810  1.00  0.00    -0.024 A 
ATOM      9  C   UNL A   1      35.073  21.269  25.176  1.00  0.00     0.012 A 
ATOM     10  C   UNL A   1      35.631  23.229  26.448  1.00  0.00     0.012 A 
ATOM     11  C   UNL A   1      36.431  20.953  25.063  1.00  0.00     0.047 A 
ATOM     12  C   UNL A   1      36.985  22.939  26.285  1.00  0.00     0.047 A 
BRANCH   8  13
ATOM     13  C   UNL A   1      33.250  22.827  25.741  1.00  0.00     0.029 C 
ATOM     14  N   UNL A   1      32.636  25.872  23.853  1.00  0.00    -0.198 N 
ATOM     15  C   UNL A   1      33.487  24.832  24.187  1.00  0.00     0.285 C 
ATOM     16  C   UNL A   1      31.282  25.672  24.011  1.00  0.00     0.168 C 
ATOM     17  O   UNL A   1      34.644  24.740  23.808  1.00  0.00    -0.266 OA
ATOM     18  C   UNL A   1      32.744  23.836  25.014  1.00  0.00     0.082 C 
ATOM     19  S   UNL A   1      31.045  24.181  24.930  1.00  0.00    -0.052 SA
ATOM     20  S   UNL A   1      30.027  26.608  23.444  1.00  0.00    -0.050 S 
BRANCH  14  21
ATOM     21  N   UNL A   1      33.193  26.925  23.135  1.00  0.00    -0.254 N 
ATOM     22  C   UNL A   1      33.670  28.114  23.637  1.00  0.00     0.273 C 
ATOM     23  O   UNL A   1      34.313  28.831  22.866  1.00  0.00    -0.267 OA
ATOM     24  H   UNL A   1      33.253  26.806  22.160  1.00  0.00     0.192 HD
BRANCH  22  25
ATOM     25  C   UNL A   1      33.344  28.595  24.975  1.00  0.00     0.082 A 
ATOM     26  C   UNL A   1      31.107  30.041  24.928  1.00  0.00     0.088 C 
ATOM     27  C   UNL A   1      32.314  29.385  25.467  1.00  0.00     0.113 A 
ATOM     28  O   UNL A   1      32.443  29.540  26.819  1.00  0.00    -0.469 OA
ATOM     29  C   UNL A   1      33.502  28.805  27.220  1.00  0.00     0.196 A 
ATOM     30  C   UNL A   1      34.075  28.187  26.142  1.00  0.00     0.056 A 
ENDBRANCH  22  25
ENDBRANCH  14  21
ENDBRANCH   8  13
ENDBRANCH   6   7
ENDBRANCH   4   6
ENDBRANCH   2   4
ENDBRANCH   1   2
BRANCH   1  31
ATOM     31  C   UNL A   1      42.316  18.947  26.752  1.00  0.00     0.274 C 
BRANCH  31  32
ATOM     32  C   UNL A   1      43.230  18.438  25.633  1.00  0.00     0.275 C 
BRANCH  32  33
ATOM     33  O   UNL A   1      44.481  19.150  25.581  1.00  0.00    -0.458 OA
BRANCH  33  34
ATOM     34  C   UNL A   1      44.676  19.873  24.455  1.00  0.00     0.338 C 
ATOM     35  O   UNL A   1      44.529  19.500  23.303  1.00  0.00    -0.246 OA
BRANCH  34  36
ATOM     36  C   UNL A   1      44.960  21.274  24.796  1.00  0.00     0.060 A 
ATOM     37  C   UNL A   1      45.373  21.553  26.100  1.00  0.00     0.016 A 
ATOM     38  C   UNL A   1      44.725  22.311  23.893  1.00  0.00     0.016 A 
ATOM     39  C   UNL A   1      45.527  22.864  26.526  1.00  0.00     0.010 A 
ATOM     40  C   UNL A   1      44.895  23.634  24.316  1.00  0.00     0.010 A 
ATOM     41  C   UNL A   1      45.280  23.916  25.638  1.00  0.00    -0.014 A 
BRANCH  41  42
ATOM     42  C   UNL A   1      45.385  25.308  26.128  1.00  0.00     0.031 A 
ATOM     43  C   UNL A   1      46.704  26.020  26.075  1.00  0.00     0.074 A 
ATOM     44  C   UNL A   1      44.285  25.944  26.570  1.00  0.00     0.049 A 
ATOM     45  N   UNL A   1      47.016  27.211  26.516  1.00  0.00    -0.248 NA
ATOM     46  C   UNL A   1      47.818  25.299  25.438  1.00  0.00     0.031 C 
ATOM     47  C   UNL A   1      42.935  25.379  26.599  1.00  0.00     0.029 A 
ATOM     48  N   UNL A   1      44.132  27.210  27.073  1.00  0.00    -0.354 N 
ATOM     49  C   UNL A   1      48.365  27.375  26.233  1.00  0.00     0.074 A 
ATOM     50  C   UNL A   1      48.816  26.159  25.590  1.00  0.00     0.031 C 
ATOM     51  C   UNL A   1      42.088  26.299  27.090  1.00  0.00     0.029 A 
ATOM     52  C   UNL A   1      42.844  27.493  27.455  1.00  0.00     0.049 A 
ATOM     53  H   UNL A   1      44.873  27.853  27.153  1.00  0.00     0.167 HD
ATOM     54  C   UNL A   1      49.157  28.443  26.491  1.00  0.00     0.031 A 
ATOM     55  C   UNL A   1      42.337  28.584  28.059  1.00  0.00     0.031 A 
ATOM     56  C   UNL A   1      48.707  29.650  27.127  1.00  0.00     0.049 A 
ATOM     57  C   UNL A   1      43.253  29.723  28.403  1.00  0.00     0.074 A 
ATOM     58  C   UNL A   1      49.434  30.787  27.438  1.00  0.00     0.029 A 
ATOM     59  N   UNL A   1      47.405  29.879  27.549  1.00  0.00    -0.354 N 
ATOM     60  N   UNL A   1      44.534  29.855  28.158  1.00  0.00    -0.248 NA
ATOM     61  C   UNL A   1      42.653  30.861  29.112  1.00  0.00     0.031 C 
ATOM     62  C   UNL A   1      48.580  31.687  28.084  1.00  0.00     0.029 A 
ATOM     63  C   UNL A   1      47.313  31.130  28.135  1.00  0.00     0.049 A 
ATOM     64  H   UNL A   1      46.659  29.246  27.445  1.00  0.00     0.167 HD
ATOM     65  C   UNL A   1      44.891  31.095  28.670  1.00  0.00     0.074 A 
ATOM     66  C   UNL A   1      43.688  31.682  29.224  1.00  0.00     0.031 C 
ATOM     67  C   UNL A   1      46.107  31.693  28.684  1.00  0.00     0.031 A 
BRANCH  54  68
ATOM     68  C   UNL A   1      50.607  28.326  26.123  1.00  0.00    -0.014 A 
ATOM     69  C   UNL A   1      51.587  28.055  27.090  1.00  0.00     0.009 A 
ATOM     70  C   UNL A   1      50.993  28.464  24.780  1.00  0.00     0.009 A 
ATOM     71  C   UNL A   1      52.931  27.955  26.722  1.00  0.00     0.001 A 
ATOM     72  C   UNL A   1      52.334  28.342  24.412  1.00  0.00     0.001 A 
ATOM     73  C   UNL A   1      53.302  28.095  25.385  1.00  0.00     0.000 A 
ENDBRANCH  54  68
BRANCH  55  74
ATOM     74  C   UNL A   1      40.898  28.630  28.418  1.00  0.00    -0.014 A 
ATOM     75  C   UNL A   1      39.951  29.140  27.518  1.00  0.00     0.009 A 
ATOM     76  C   UNL A   1      40.465  28.163  29.670  1.00  0.00     0.009 A 
ATOM     77  C   UNL A   1      38.602  29.200  27.872  1.00  0.00     0.001 A 
ATOM     78  C   UNL A   1      39.112  28.201  30.010  1.00  0.00     0.001 A 
ATOM     79  C   UNL A   1      38.182  28.726  29.115  1.00  0.00     0.000 A 
ENDBRANCH  55  74
BRANCH  67  80
ATOM     80  C   UNL A   1      46.185  33.060  29.296  1.00  0.00    -0.014 A 
ATOM     81  C   UNL A   1      46.497  33.228  30.654  1.00  0.00     0.009 A 
ATOM     82  C   UNL A   1      45.975  34.194  28.497  1.00  0.00     0.009 A 
ATOM     83  C   UNL A   1      46.570  34.508  31.206  1.00  0.00     0.001 A 
ATOM     84  C   UNL A   1      46.071  35.472  29.047  1.00  0.00     0.001 A 
ATOM     85  C   UNL A   1      46.360  35.628  30.402  1.00  0.00     0.000 A 
ENDBRANCH  67  80
ENDBRANCH  41  42
ENDBRANCH  34  36
ENDBRANCH  33  34
ENDBRANCH  32  33
ENDBRANCH  31  32
ENDBRANCH   1  31
TORSDOF 16
ENDMDL
MODEL 2
REMARK VINA RESULT:     -10.9      5.981     11.770
REMARK SMILES Cc1occc1C(=O)NN1C(=O)/C(=C\c2ccc(O[C@H](C)C(=O)OCCOC(=O)c3ccc(-c4c5nc(c(-c6ccccc6)c6ccc([nH]6)c(-c6ccccc6)c6nc(c(-c7ccccc7)c7ccc4[nH]7)C=C6)C=C5)cc3)cc2)SC1=S
REMARK SMILES IDX 24 1 22 2 23 3 20 4 21 5 19 6 18 7 15 8 16 9 79 10 17 11
REMARK SMILES IDX 78 12 14 13 10 14 11 15 81 16 12 17 13 18 80 19 82 20 9 21
REMARK SMILES IDX 7 22 8 23 6 25 1 26 2 27 3 28 4 29 5 30 25 31 26 32 27 33
REMARK SMILES IDX 28 34 29 35 30 36 31 37 77 38 32 39 76 40 33 41 34 42 35 43
REMARK SMILES IDX 70 44 36 45 75 46 69 47 71 48 37 49 74 50 68 51 67 52 38 54
REMARK SMILES IDX 60 55 45 56 59 57 46 58 49 59 58 60 72 61 47 62 48 63 57 65
REMARK SMILES IDX 73 66 50 67 39 68 40 69 44 70 41 71 43 72 42 73 61 74 62 75
REMARK SMILES IDX 66 76 63 77 65 78 64 79 51 80 52 81 56 82 53 83 55 84 54 85
REMARK H PARENT 9 24 71 53 49 64
REMARK Flexibility Score: inf
ROOT
ATOM      1  O   UNL A   1      32.702  34.368  28.934  1.00  0.00    -0.459 OA
ENDROOT
BRANCH   1   2
ATOM      2  C   UNL A   1      32.926  35.589  29.491  1.00  0.00     0.347 C 
ATOM      3  O   UNL A   1      32.623  36.657  28.966  1.00  0.00    -0.248 OA
BRANCH   2   4
ATOM      4  C   UNL A   1      33.628  35.511  30.844  1.00  0.00     0.279 C 
ATOM      5  C   UNL A   1      33.323  36.637  31.835  1.00  0.00     0.066 C 
BRANCH   4   6
ATOM      6  O   UNL A   1      33.622  34.175  31.337  1.00  0.00    -0.479 OA
BRANCH   6   7
ATOM      7  C   UNL A   1      34.750  33.463  31.579  1.00  0.00     0.120 A 
ATOM      8  C   UNL A   1      37.307  32.440  32.120  1.00  0.00    -0.024 A 
ATOM      9  C   UNL A   1      36.176  31.893  32.734  1.00  0.00     0.012 A 
ATOM     10  C   UNL A   1      37.128  33.391  31.115  1.00  0.00     0.012 A 
ATOM     11  C   UNL A   1      34.900  32.389  32.445  1.00  0.00     0.047 A 
ATOM     12  C   UNL A   1      35.861  33.920  30.871  1.00  0.00     0.047 A 
BRANCH   8  13
ATOM     13  C   UNL A   1      38.632  32.018  32.592  1.00  0.00     0.029 C 
ATOM     14  N   UNL A   1      40.064  34.208  35.114  1.00  0.00    -0.198 N 
ATOM     15  C   UNL A   1      38.958  33.784  34.398  1.00  0.00     0.285 C 
ATOM     16  C   UNL A   1      41.121  33.335  35.243  1.00  0.00     0.168 C 
ATOM     17  O   UNL A   1      37.851  34.298  34.470  1.00  0.00    -0.266 OA
ATOM     18  C   UNL A   1      39.324  32.580  33.595  1.00  0.00     0.082 C 
ATOM     19  S   UNL A   1      40.859  31.980  34.139  1.00  0.00    -0.052 SA
ATOM     20  S   UNL A   1      42.438  33.449  36.256  1.00  0.00    -0.050 S 
BRANCH  14  21
ATOM     21  N   UNL A   1      39.910  35.367  35.867  1.00  0.00    -0.254 N 
ATOM     22  C   UNL A   1      39.686  35.457  37.223  1.00  0.00     0.273 C 
ATOM     23  O   UNL A   1      39.785  36.574  37.734  1.00  0.00    -0.267 OA
ATOM     24  H   UNL A   1      39.967  36.218  35.377  1.00  0.00     0.192 HD
BRANCH  22  25
ATOM     25  C   UNL A   1      39.229  34.327  38.024  1.00  0.00     0.082 A 
ATOM     26  C   UNL A   1      41.070  33.657  39.829  1.00  0.00     0.088 C 
ATOM     27  C   UNL A   1      39.814  33.608  39.058  1.00  0.00     0.113 A 
ATOM     28  O   UNL A   1      38.959  32.635  39.498  1.00  0.00    -0.469 OA
ATOM     29  C   UNL A   1      37.803  32.759  38.810  1.00  0.00     0.196 A 
ATOM     30  C   UNL A   1      37.902  33.790  37.915  1.00  0.00     0.056 A 
ENDBRANCH  22  25
ENDBRANCH  14  21
ENDBRANCH   8  13
ENDBRANCH   6   7
ENDBRANCH   4   6
ENDBRANCH   2   4
ENDBRANCH   1   2
BRANCH   1  31
ATOM     31  C   UNL A   1      33.683  33.933  27.975  1.00  0.00     0.274 C 
BRANCH  31  32
ATOM     32  C   UNL A   1      33.581  32.433  27.680  1.00  0.00     0.275 C 
BRANCH  32  33
ATOM     33  O   UNL A   1      34.331  31.639  28.619  1.00  0.00    -0.458 OA
BRANCH  33  34
ATOM     34  C   UNL A   1      34.649  30.397  28.185  1.00  0.00     0.338 C 
ATOM     35  O   UNL A   1      33.953  29.644  27.524  1.00  0.00    -0.246 OA
BRANCH  34  36
ATOM     36  C   UNL A   1      36.056  30.100  28.490  1.00  0.00     0.060 A 
ATOM     37  C   UNL A   1      36.976  30.173  27.443  1.00  0.00     0.016 A 
ATOM     38  C   UNL A   1      36.454  29.654  29.751  1.00  0.00     0.016 A 
ATOM     39  C   UNL A   1      38.292  29.775  27.631  1.00  0.00     0.010 A 
ATOM     40  C   UNL A   1      37.785  29.267  29.947  1.00  0.00     0.010 A 
ATOM     41  C   UNL A   1      38.704  29.310  28.884  1.00  0.00    -0.014 A 
BRANCH  41  42
ATOM     42  C   UNL A   1      40.093  28.828  29.049  1.00  0.00     0.031 A 
ATOM     43  C   UNL A   1      41.134  29.739  29.628  1.00  0.00     0.074 A 
ATOM     44  C   UNL A   1      40.401  27.559  28.727  1.00  0.00     0.049 A 
ATOM     45  N   UNL A   1      42.415  29.528  29.789  1.00  0.00    -0.248 NA
ATOM     46  C   UNL A   1      40.675  31.058  30.090  1.00  0.00     0.031 C 
ATOM     47  C   UNL A   1      39.456  26.560  28.226  1.00  0.00     0.029 A 
ATOM     48  N   UNL A   1      41.598  26.893  28.783  1.00  0.00    -0.354 N 
ATOM     49  C   UNL A   1      42.920  30.695  30.348  1.00  0.00     0.074 A 
ATOM     50  C   UNL A   1      41.810  31.613  30.491  1.00  0.00     0.031 C 
ATOM     51  C   UNL A   1      40.110  25.404  28.025  1.00  0.00     0.029 A 
ATOM     52  C   UNL A   1      41.523  25.598  28.334  1.00  0.00     0.049 A 
ATOM     53  H   UNL A   1      42.430  27.304  29.112  1.00  0.00     0.167 HD
ATOM     54  C   UNL A   1      44.196  30.976  30.706  1.00  0.00     0.031 A 
ATOM     55  C   UNL A   1      42.493  24.680  28.162  1.00  0.00     0.031 A 
ATOM     56  C   UNL A   1      45.296  30.061  30.565  1.00  0.00     0.049 A 
ATOM     57  C   UNL A   1      43.911  25.043  28.496  1.00  0.00     0.074 A 
ATOM     58  C   UNL A   1      46.627  30.253  30.893  1.00  0.00     0.029 A 
ATOM     59  N   UNL A   1      45.190  28.775  30.056  1.00  0.00    -0.354 N 
ATOM     60  N   UNL A   1      44.382  26.160  28.995  1.00  0.00    -0.248 NA
ATOM     61  C   UNL A   1      44.933  24.020  28.234  1.00  0.00     0.031 C 
ATOM     62  C   UNL A   1      47.334  29.097  30.544  1.00  0.00     0.029 A 
ATOM     63  C   UNL A   1      46.435  28.170  30.040  1.00  0.00     0.049 A 
ATOM     64  H   UNL A   1      44.353  28.356  29.751  1.00  0.00     0.167 HD
ATOM     65  C   UNL A   1      45.752  25.970  29.121  1.00  0.00     0.074 A 
ATOM     66  C   UNL A   1      46.032  24.626  28.661  1.00  0.00     0.031 C 
ATOM     67  C   UNL A   1      46.693  26.833  29.574  1.00  0.00     0.031 A 
BRANCH  54  68
ATOM     68  C   UNL A   1      44.472  32.350  31.241  1.00  0.00    -0.014 A 
ATOM     69  C   UNL A   1      44.841  33.404  30.392  1.00  0.00     0.009 A 
ATOM     70  C   UNL A   1      44.334  32.597  32.616  1.00  0.00     0.009 A 
ATOM     71  C   UNL A   1      45.097  34.674  30.916  1.00  0.00     0.001 A 
ATOM     72  C   UNL A   1      44.569  33.872  33.134  1.00  0.00     0.001 A 
ATOM     73  C   UNL A   1      44.957  34.907  32.284  1.00  0.00     0.000 A 
ENDBRANCH  54  68
BRANCH  55  74
ATOM     74  C   UNL A   1      42.159  23.345  27.608  1.00  0.00    -0.014 A 
ATOM     75  C   UNL A   1      41.693  22.319  28.443  1.00  0.00     0.009 A 
ATOM     76  C   UNL A   1      42.310  23.090  26.235  1.00  0.00     0.009 A 
ATOM     77  C   UNL A   1      41.402  21.059  27.916  1.00  0.00     0.001 A 
ATOM     78  C   UNL A   1      41.994  21.837  25.708  1.00  0.00     0.001 A 
ATOM     79  C   UNL A   1      41.547  20.820  26.550  1.00  0.00     0.000 A 
ENDBRANCH  55  74
BRANCH  67  80
ATOM     80  C   UNL A   1      48.107  26.335  29.615  1.00  0.00    -0.014 A 
ATOM     81  C   UNL A   1      48.946  26.445  28.496  1.00  0.00     0.009 A 
ATOM     82  C   UNL A   1      48.616  25.779  30.799  1.00  0.00     0.009 A 
ATOM     83  C   UNL A   1      50.261  25.980  28.553  1.00  0.00     0.001 A 
ATOM     84  C   UNL A   1      49.937  25.336  30.859  1.00  0.00     0.001 A 
ATOM     85  C   UNL A   1      50.756  25.430  29.735  1.00  0.00     0.000 A 
ENDBRANCH  67  80
ENDBRANCH  41  42
ENDBRANCH  34  36
ENDBRANCH  33  34
ENDBRANCH  32  33
ENDBRANCH  31  32
ENDBRANCH   1  31
TORSDOF 16
ENDMDL
MODEL 3
REMARK VINA RESULT:     -10.9      2.715      9.279
REMARK SMILES Cc1occc1C(=O)NN1C(=O)/C(=C\c2ccc(O[C@H](C)C(=O)OCCOC(=O)c3ccc(-c4c5nc(c(-c6ccccc6)c6ccc([nH]6)c(-c6ccccc6)c6nc(c(-c7ccccc7)c7ccc4[nH]7)C=C6)C=C5)cc3)cc2)SC1=S
REMARK SMILES IDX 24 1 22 2 23 3 20 4 21 5 19 6 18 7 15 8 16 9 79 10 17 11
REMARK SMILES IDX 78 12 14 13 10 14 11 15 81 16 12 17 13 18 80 19 82 20 9 21
REMARK SMILES IDX 7 22 8 23 6 25 1 26 2 27 3 28 4 29 5 30 25 31 26 32 27 33
REMARK SMILES IDX 28 34 29 35 30 36 31 37 77 38 32 39 76 40 33 41 34 42 35 43
REMARK SMILES IDX 70 44 36 45 75 46 69 47 71 48 37 49 74 50 68 51 67 52 38 54
REMARK SMILES IDX 60 55 45 56 59 57 46 58 49 59 58 60 72 61 47 62 48 63 57 65
REMARK SMILES IDX 73 66 50 67 39 68 40 69 44 70 41 71 43 72 42 73 61 74 62 75
REMARK SMILES IDX 66 76 63 77 65 78 64 79 51 80 52 81 56 82 53 83 55 84 54 85
REMARK H PARENT 9 24 71 53 49 64
REMARK Flexibility Score: inf
ROOT
ATOM      1  O   UNL A   1      35.482  33.664  31.129  1.00  0.00    -0.459 OA
ENDROOT
BRANCH   1   2
ATOM      2  C   UNL A   1      34.361  33.982  30.426  1.00  0.00     0.347 C 
ATOM      3  O   UNL A   1      33.429  34.647  30.870  1.00  0.00    -0.248 OA
BRANCH   2   4
ATOM      4  C   UNL A   1      34.356  33.402  29.014  1.00  0.00     0.279 C 
ATOM      5  C   UNL A   1      34.810  34.339  27.893  1.00  0.00     0.066 C 
BRANCH   4   6
ATOM      6  O   UNL A   1      34.864  32.072  29.015  1.00  0.00    -0.479 OA
BRANCH   6   7
ATOM      7  C   UNL A   1      34.452  31.114  28.149  1.00  0.00     0.120 A 
ATOM      8  C   UNL A   1      33.455  29.519  26.065  1.00  0.00    -0.024 A 
ATOM      9  C   UNL A   1      34.673  29.211  26.678  1.00  0.00     0.012 A 
ATOM     10  C   UNL A   1      32.668  30.533  26.613  1.00  0.00     0.012 A 
ATOM     11  C   UNL A   1      35.158  29.994  27.731  1.00  0.00     0.047 A 
ATOM     12  C   UNL A   1      33.179  31.343  27.626  1.00  0.00     0.047 A 
BRANCH   8  13
ATOM     13  C   UNL A   1      33.080  28.788  24.848  1.00  0.00     0.029 C 
ATOM     14  N   UNL A   1      31.624  25.519  25.486  1.00  0.00    -0.198 N 
ATOM     15  C   UNL A   1      31.995  26.767  25.956  1.00  0.00     0.285 C 
ATOM     16  C   UNL A   1      31.386  25.385  24.135  1.00  0.00     0.168 C 
ATOM     17  O   UNL A   1      31.923  27.112  27.126  1.00  0.00    -0.266 OA
ATOM     18  C   UNL A   1      32.422  27.619  24.807  1.00  0.00     0.082 C 
ATOM     19  S   UNL A   1      31.952  26.849  23.324  1.00  0.00    -0.052 SA
ATOM     20  S   UNL A   1      30.672  24.112  23.334  1.00  0.00    -0.050 S 
BRANCH  14  21
ATOM     21  N   UNL A   1      31.262  24.577  26.442  1.00  0.00    -0.254 N 
ATOM     22  C   UNL A   1      32.005  23.503  26.877  1.00  0.00     0.273 C 
ATOM     23  O   UNL A   1      31.597  22.907  27.876  1.00  0.00    -0.267 OA
ATOM     24  H   UNL A   1      30.376  24.690  26.853  1.00  0.00     0.192 HD
BRANCH  22  25
ATOM     25  C   UNL A   1      33.156  22.990  26.143  1.00  0.00     0.082 A 
ATOM     26  C   UNL A   1      32.463  20.875  24.678  1.00  0.00     0.088 C 
ATOM     27  C   UNL A   1      33.319  21.918  25.276  1.00  0.00     0.113 A 
ATOM     28  O   UNL A   1      34.610  21.864  24.829  1.00  0.00    -0.469 OA
ATOM     29  C   UNL A   1      35.269  22.927  25.340  1.00  0.00     0.196 A 
ATOM     30  C   UNL A   1      34.425  23.662  26.129  1.00  0.00     0.056 A 
ENDBRANCH  22  25
ENDBRANCH  14  21
ENDBRANCH   8  13
ENDBRANCH   6   7
ENDBRANCH   4   6
ENDBRANCH   2   4
ENDBRANCH   1   2
BRANCH   1  31
ATOM     31  C   UNL A   1      35.282  33.401  32.531  1.00  0.00     0.274 C 
BRANCH  31  32
ATOM     32  C   UNL A   1      36.307  32.408  33.087  1.00  0.00     0.275 C 
BRANCH  32  33
ATOM     33  O   UNL A   1      37.209  31.926  32.072  1.00  0.00    -0.458 OA
BRANCH  33  34
ATOM     34  C   UNL A   1      36.957  30.670  31.639  1.00  0.00     0.338 C 
ATOM     35  O   UNL A   1      35.900  30.065  31.701  1.00  0.00    -0.246 OA
BRANCH  34  36
ATOM     36  C   UNL A   1      38.123  30.141  30.915  1.00  0.00     0.060 A 
ATOM     37  C   UNL A   1      39.066  29.417  31.647  1.00  0.00     0.016 A 
ATOM     38  C   UNL A   1      38.347  30.437  29.571  1.00  0.00     0.016 A 
ATOM     39  C   UNL A   1      40.253  29.007  31.057  1.00  0.00     0.010 A 
ATOM     40  C   UNL A   1      39.537  30.010  28.970  1.00  0.00     0.010 A 
ATOM     41  C   UNL A   1      40.501  29.308  29.715  1.00  0.00    -0.014 A 
BRANCH  41  42
ATOM     42  C   UNL A   1      41.799  28.921  29.121  1.00  0.00     0.031 A 
ATOM     43  C   UNL A   1      42.001  27.523  28.617  1.00  0.00     0.074 A 
ATOM     44  C   UNL A   1      42.772  29.840  28.989  1.00  0.00     0.049 A 
ATOM     45  N   UNL A   1      43.081  26.971  28.128  1.00  0.00    -0.248 NA
ATOM     46  C   UNL A   1      40.833  26.628  28.666  1.00  0.00     0.031 C 
ATOM     47  C   UNL A   1      42.665  31.248  29.373  1.00  0.00     0.029 A 
ATOM     48  N   UNL A   1      44.042  29.723  28.485  1.00  0.00    -0.354 N 
ATOM     49  C   UNL A   1      42.733  25.659  27.834  1.00  0.00     0.074 A 
ATOM     50  C   UNL A   1      41.344  25.495  28.205  1.00  0.00     0.031 C 
ATOM     51  C   UNL A   1      43.822  31.868  29.086  1.00  0.00     0.029 A 
ATOM     52  C   UNL A   1      44.762  30.890  28.547  1.00  0.00     0.049 A 
ATOM     53  H   UNL A   1      44.402  28.884  28.116  1.00  0.00     0.167 HD
ATOM     54  C   UNL A   1      43.504  24.680  27.304  1.00  0.00     0.031 A 
ATOM     55  C   UNL A   1      46.048  31.136  28.232  1.00  0.00     0.031 A 
ATOM     56  C   UNL A   1      44.883  24.848  26.933  1.00  0.00     0.049 A 
ATOM     57  C   UNL A   1      46.903  30.013  27.718  1.00  0.00     0.074 A 
ATOM     58  C   UNL A   1      45.753  23.915  26.394  1.00  0.00     0.029 A 
ATOM     59  N   UNL A   1      45.594  26.031  27.061  1.00  0.00    -0.354 N 
ATOM     60  N   UNL A   1      46.571  28.769  27.472  1.00  0.00    -0.248 NA
ATOM     61  C   UNL A   1      48.312  30.328  27.446  1.00  0.00     0.031 C 
ATOM     62  C   UNL A   1      47.002  24.524  26.234  1.00  0.00     0.029 A 
ATOM     63  C   UNL A   1      46.897  25.847  26.631  1.00  0.00     0.049 A 
ATOM     64  H   UNL A   1      45.227  26.877  27.406  1.00  0.00     0.167 HD
ATOM     65  C   UNL A   1      47.725  28.156  27.002  1.00  0.00     0.074 A 
ATOM     66  C   UNL A   1      48.760  29.169  26.983  1.00  0.00     0.031 C 
ATOM     67  C   UNL A   1      47.912  26.868  26.624  1.00  0.00     0.031 A 
BRANCH  54  68
ATOM     68  C   UNL A   1      42.879  23.326  27.141  1.00  0.00    -0.014 A 
ATOM     69  C   UNL A   1      42.857  22.399  28.194  1.00  0.00     0.009 A 
ATOM     70  C   UNL A   1      42.278  22.985  25.919  1.00  0.00     0.009 A 
ATOM     71  C   UNL A   1      42.272  21.143  28.015  1.00  0.00     0.001 A 
ATOM     72  C   UNL A   1      41.674  21.738  25.750  1.00  0.00     0.001 A 
ATOM     73  C   UNL A   1      41.679  20.816  26.797  1.00  0.00     0.000 A 
ENDBRANCH  54  68
BRANCH  55  74
ATOM     74  C   UNL A   1      46.615  32.491  28.437  1.00  0.00    -0.014 A 
ATOM     75  C   UNL A   1      47.201  32.845  29.661  1.00  0.00     0.009 A 
ATOM     76  C   UNL A   1      46.568  33.442  27.405  1.00  0.00     0.009 A 
ATOM     77  C   UNL A   1      47.713  34.130  29.853  1.00  0.00     0.001 A 
ATOM     78  C   UNL A   1      47.104  34.717  27.591  1.00  0.00     0.001 A 
ATOM     79  C   UNL A   1      47.669  35.063  28.817  1.00  0.00     0.000 A 
ENDBRANCH  55  74
BRANCH  67  80
ATOM     80  C   UNL A   1      49.280  26.495  26.136  1.00  0.00    -0.014 A 
ATOM     81  C   UNL A   1      50.197  25.846  26.977  1.00  0.00     0.009 A 
ATOM     82  C   UNL A   1      49.645  26.769  24.809  1.00  0.00     0.009 A 
ATOM     83  C   UNL A   1      51.465  25.502  26.505  1.00  0.00     0.001 A 
ATOM     84  C   UNL A   1      50.905  26.404  24.333  1.00  0.00     0.001 A 
ATOM     85  C   UNL A   1      51.816  25.779  25.183  1.00  0.00     0.000 A 
ENDBRANCH  67  80
ENDBRANCH  41  42
ENDBRANCH  34  36
ENDBRANCH  33  34
ENDBRANCH  32  33
ENDBRANCH  31  32
ENDBRANCH   1  31
TORSDOF 16
ENDMDL
