MODEL 1
REMARK VINA RESULT:     -10.8      0.000      0.000
REMARK SMILES CC(C)Cc1cc2c(cc1Cl)C=C(C(=O)OCCOC(=O)c1ccc(-c3c4nc(c(-c5ccccc5)c5ccc([nH]5)c(-c5ccccc5)c5nc(c(-c6ccccc6)c6ccc3[nH]6)C=C5)C=C4)cc1)[C@H](C(F)(F)F)O2
REMARK SMILES IDX 17 1 16 2 14 3 15 4 13 5 5 6 6 7 10 8 7 9 9 10 11 11 8 12
REMARK SMILES IDX 75 13 12 14 70 15 4 16 2 17 1 18 3 19 71 20 72 21 73 22
REMARK SMILES IDX 74 23 18 24 19 25 20 26 21 27 22 28 23 29 69 30 24 31 68 32
REMARK SMILES IDX 25 33 26 34 27 35 62 36 28 37 67 38 61 39 63 40 29 41 66 42
REMARK SMILES IDX 60 43 59 44 30 46 52 47 37 48 51 49 38 50 41 51 50 52 64 53
REMARK SMILES IDX 39 54 40 55 49 57 65 58 42 59 31 60 32 61 36 62 33 63 35 64
REMARK SMILES IDX 34 65 53 66 54 67 58 68 55 69 57 70 56 71 43 72 44 73 48 74
REMARK SMILES IDX 45 75 47 76 46 77
REMARK H PARENT 63 45 41 56
REMARK Flexibility Score: inf
ROOT
ATOM      1  C   UNL A   1      32.055  29.892  25.702  1.00  0.00     0.275 C 
ENDROOT
BRANCH   1   2
ATOM      2  O   UNL A   1      32.538  28.897  24.774  1.00  0.00    -0.459 OA
BRANCH   2   3
ATOM      3  C   UNL A   1      31.697  27.885  24.479  1.00  0.00     0.338 C 
ATOM      4  O   UNL A   1      30.490  27.980  24.314  1.00  0.00    -0.246 OA
BRANCH   3   5
ATOM      5  C   UNL A   1      32.446  26.629  24.268  1.00  0.00     0.087 C 
ATOM      6  C   UNL A   1      34.928  22.313  25.042  1.00  0.00    -0.025 A 
ATOM      7  C   UNL A   1      34.775  23.179  23.940  1.00  0.00     0.052 A 
ATOM      8  C   UNL A   1      34.292  22.645  26.249  1.00  0.00     0.045 A 
ATOM      9  C   UNL A   1      34.019  24.346  24.041  1.00  0.00     0.128 A 
ATOM     10  C   UNL A   1      33.545  23.818  26.352  1.00  0.00     0.032 A 
ATOM     11  Cl  UNL A   1      34.421  21.662  27.663  1.00  0.00    -0.084 Cl
ATOM     12  C   UNL A   1      33.425  24.674  25.253  1.00  0.00     0.019 A 
ATOM     13  O   UNL A   1      33.946  25.145  22.934  1.00  0.00    -0.475 OA
ATOM     14  C   UNL A   1      32.721  25.932  25.379  1.00  0.00     0.027 C 
ATOM     15  C   UNL A   1      32.948  26.216  22.906  1.00  0.00     0.316 C 
BRANCH   6  16
ATOM     16  C   UNL A   1      35.769  21.066  24.882  1.00  0.00     0.040 C 
BRANCH  16  17
ATOM     17  C   UNL A   1      37.273  21.333  24.679  1.00  0.00    -0.013 C 
ATOM     18  C   UNL A   1      37.810  22.386  25.651  1.00  0.00     0.008 C 
ATOM     19  C   UNL A   1      38.052  20.026  24.844  1.00  0.00     0.008 C 
ENDBRANCH  16  17
ENDBRANCH   6  16
BRANCH  15  20
ATOM     20  C   UNL A   1      31.869  25.871  21.863  1.00  0.00     0.430 C 
ATOM     21  F   UNL A   1      32.386  25.345  20.734  1.00  0.00    -0.167 F 
ATOM     22  F   UNL A   1      30.958  24.997  22.356  1.00  0.00    -0.167 F 
ATOM     23  F   UNL A   1      31.163  26.974  21.505  1.00  0.00    -0.167 F 
ENDBRANCH  15  20
ENDBRANCH   3   5
ENDBRANCH   2   3
ENDBRANCH   1   2
BRANCH   1  24
ATOM     24  C   UNL A   1      32.616  29.643  27.102  1.00  0.00     0.275 C 
BRANCH  24  25
ATOM     25  O   UNL A   1      34.050  29.761  27.087  1.00  0.00    -0.458 OA
BRANCH  25  26
ATOM     26  C   UNL A   1      34.579  30.652  27.955  1.00  0.00     0.338 C 
ATOM     27  O   UNL A   1      34.048  31.638  28.439  1.00  0.00    -0.246 OA
BRANCH  26  28
ATOM     28  C   UNL A   1      35.936  30.216  28.307  1.00  0.00     0.060 A 
ATOM     29  C   UNL A   1      36.226  29.695  29.564  1.00  0.00     0.016 A 
ATOM     30  C   UNL A   1      36.918  30.261  27.322  1.00  0.00     0.016 A 
ATOM     31  C   UNL A   1      37.527  29.258  29.837  1.00  0.00     0.010 A 
ATOM     32  C   UNL A   1      38.186  29.739  27.562  1.00  0.00     0.010 A 
ATOM     33  C   UNL A   1      38.520  29.264  28.836  1.00  0.00    -0.014 A 
BRANCH  33  34
ATOM     34  C   UNL A   1      39.909  28.803  29.115  1.00  0.00     0.031 A 
ATOM     35  C   UNL A   1      40.362  27.426  28.692  1.00  0.00     0.074 A 
ATOM     36  C   UNL A   1      40.765  29.608  29.778  1.00  0.00     0.049 A 
ATOM     37  N   UNL A   1      41.529  26.855  28.856  1.00  0.00    -0.248 NA
ATOM     38  C   UNL A   1      39.368  26.566  28.026  1.00  0.00     0.031 C 
ATOM     39  C   UNL A   1      40.442  30.936  30.302  1.00  0.00     0.029 A 
ATOM     40  N   UNL A   1      42.085  29.431  30.113  1.00  0.00    -0.354 N 
ATOM     41  C   UNL A   1      41.399  25.570  28.342  1.00  0.00     0.074 A 
ATOM     42  C   UNL A   1      40.027  25.422  27.913  1.00  0.00     0.031 C 
ATOM     43  C   UNL A   1      41.548  31.479  30.832  1.00  0.00     0.029 A 
ATOM     44  C   UNL A   1      42.648  30.524  30.725  1.00  0.00     0.049 A 
ATOM     45  H   UNL A   1      42.581  28.600  29.931  1.00  0.00     0.167 HD
ATOM     46  C   UNL A   1      42.342  24.606  28.208  1.00  0.00     0.031 A 
ATOM     47  C   UNL A   1      43.910  30.746  31.143  1.00  0.00     0.031 A 
ATOM     48  C   UNL A   1      43.720  24.768  28.584  1.00  0.00     0.049 A 
ATOM     49  C   UNL A   1      44.951  29.678  30.950  1.00  0.00     0.074 A 
ATOM     50  C   UNL A   1      44.766  23.879  28.409  1.00  0.00     0.029 A 
ATOM     51  N   UNL A   1      44.245  25.893  29.197  1.00  0.00    -0.354 N 
ATOM     52  N   UNL A   1      44.824  28.494  30.403  1.00  0.00    -0.248 NA
ATOM     53  C   UNL A   1      46.310  29.978  31.426  1.00  0.00     0.031 C 
ATOM     54  C   UNL A   1      45.917  24.449  28.956  1.00  0.00     0.029 A 
ATOM     55  C   UNL A   1      45.598  25.714  29.425  1.00  0.00     0.049 A 
ATOM     56  H   UNL A   1      43.732  26.699  29.437  1.00  0.00     0.167 HD
ATOM     57  C   UNL A   1      46.083  27.912  30.457  1.00  0.00     0.074 A 
ATOM     58  C   UNL A   1      46.967  28.881  31.072  1.00  0.00     0.031 C 
ATOM     59  C   UNL A   1      46.468  26.683  30.038  1.00  0.00     0.031 A 
BRANCH  46  60
ATOM     60  C   UNL A   1      41.928  23.294  27.600  1.00  0.00    -0.014 A 
ATOM     61  C   UNL A   1      41.475  22.251  28.424  1.00  0.00     0.009 A 
ATOM     62  C   UNL A   1      42.062  23.059  26.222  1.00  0.00     0.009 A 
ATOM     63  C   UNL A   1      41.167  21.001  27.882  1.00  0.00     0.001 A 
ATOM     64  C   UNL A   1      41.723  21.818  25.678  1.00  0.00     0.001 A 
ATOM     65  C   UNL A   1      41.284  20.788  26.509  1.00  0.00     0.000 A 
ENDBRANCH  46  60
BRANCH  47  66
ATOM     66  C   UNL A   1      44.262  32.063  31.735  1.00  0.00    -0.014 A 
ATOM     67  C   UNL A   1      44.214  32.263  33.124  1.00  0.00     0.009 A 
ATOM     68  C   UNL A   1      44.594  33.144  30.905  1.00  0.00     0.009 A 
ATOM     69  C   UNL A   1      44.468  33.526  33.666  1.00  0.00     0.001 A 
ATOM     70  C   UNL A   1      44.872  34.399  31.453  1.00  0.00     0.001 A 
ATOM     71  C   UNL A   1      44.799  34.591  32.831  1.00  0.00     0.000 A 
ENDBRANCH  47  66
BRANCH  59  72
ATOM     72  C   UNL A   1      47.906  26.294  30.220  1.00  0.00    -0.014 A 
ATOM     73  C   UNL A   1      48.800  26.401  29.143  1.00  0.00     0.009 A 
ATOM     74  C   UNL A   1      48.345  25.707  31.417  1.00  0.00     0.009 A 
ATOM     75  C   UNL A   1      50.101  25.909  29.253  1.00  0.00     0.001 A 
ATOM     76  C   UNL A   1      49.655  25.239  31.531  1.00  0.00     0.001 A 
ATOM     77  C   UNL A   1      50.528  25.330  30.447  1.00  0.00     0.000 A 
ENDBRANCH  59  72
ENDBRANCH  33  34
ENDBRANCH  26  28
ENDBRANCH  25  26
ENDBRANCH  24  25
ENDBRANCH   1  24
TORSDOF 14
ENDMDL
MODEL 2
REMARK VINA RESULT:     -10.6      2.757      7.943
REMARK SMILES CC(C)Cc1cc2c(cc1Cl)C=C(C(=O)OCCOC(=O)c1ccc(-c3c4nc(c(-c5ccccc5)c5ccc([nH]5)c(-c5ccccc5)c5nc(c(-c6ccccc6)c6ccc3[nH]6)C=C5)C=C4)cc1)[C@H](C(F)(F)F)O2
REMARK SMILES IDX 17 1 16 2 14 3 15 4 13 5 5 6 6 7 10 8 7 9 9 10 11 11 8 12
REMARK SMILES IDX 75 13 12 14 70 15 4 16 2 17 1 18 3 19 71 20 72 21 73 22
REMARK SMILES IDX 74 23 18 24 19 25 20 26 21 27 22 28 23 29 69 30 24 31 68 32
REMARK SMILES IDX 25 33 26 34 27 35 62 36 28 37 67 38 61 39 63 40 29 41 66 42
REMARK SMILES IDX 60 43 59 44 30 46 52 47 37 48 51 49 38 50 41 51 50 52 64 53
REMARK SMILES IDX 39 54 40 55 49 57 65 58 42 59 31 60 32 61 36 62 33 63 35 64
REMARK SMILES IDX 34 65 53 66 54 67 58 68 55 69 57 70 56 71 43 72 44 73 48 74
REMARK SMILES IDX 45 75 47 76 46 77
REMARK H PARENT 63 45 41 56
REMARK Flexibility Score: inf
ROOT
ATOM      1  C   UNL A   1      35.838  21.440  25.714  1.00  0.00     0.275 C 
ENDROOT
BRANCH   1   2
ATOM      2  O   UNL A   1      35.331  22.601  26.407  1.00  0.00    -0.459 OA
BRANCH   2   3
ATOM      3  C   UNL A   1      34.094  22.500  26.933  1.00  0.00     0.338 C 
ATOM      4  O   UNL A   1      33.706  21.629  27.696  1.00  0.00    -0.246 OA
BRANCH   3   5
ATOM      5  C   UNL A   1      33.268  23.664  26.549  1.00  0.00     0.087 C 
ATOM      6  C   UNL A   1      31.795  28.177  24.860  1.00  0.00    -0.025 A 
ATOM      7  C   UNL A   1      31.182  27.160  25.621  1.00  0.00     0.052 A 
ATOM      8  C   UNL A   1      33.120  27.991  24.436  1.00  0.00     0.045 A 
ATOM      9  C   UNL A   1      31.873  25.997  25.958  1.00  0.00     0.128 A 
ATOM     10  C   UNL A   1      33.814  26.832  24.783  1.00  0.00     0.032 A 
ATOM     11  Cl  UNL A   1      33.970  29.175  23.509  1.00  0.00    -0.084 Cl
ATOM     12  C   UNL A   1      33.195  25.846  25.557  1.00  0.00     0.019 A 
ATOM     13  O   UNL A   1      31.216  25.075  26.723  1.00  0.00    -0.475 OA
ATOM     14  C   UNL A   1      33.937  24.681  25.989  1.00  0.00     0.027 C 
ATOM     15  C   UNL A   1      31.793  23.736  26.859  1.00  0.00     0.316 C 
BRANCH   6  16
ATOM     16  C   UNL A   1      31.003  29.424  24.532  1.00  0.00     0.040 C 
BRANCH  16  17
ATOM     17  C   UNL A   1      29.848  29.202  23.536  1.00  0.00    -0.013 C 
ATOM     18  C   UNL A   1      28.951  30.436  23.406  1.00  0.00     0.008 C 
ATOM     19  C   UNL A   1      30.419  28.827  22.166  1.00  0.00     0.008 C 
ENDBRANCH  16  17
ENDBRANCH   6  16
BRANCH  15  20
ATOM     20  C   UNL A   1      30.897  22.724  26.121  1.00  0.00     0.430 C 
ATOM     21  F   UNL A   1      31.552  21.591  25.795  1.00  0.00    -0.167 F 
ATOM     22  F   UNL A   1      29.812  22.386  26.860  1.00  0.00    -0.167 F 
ATOM     23  F   UNL A   1      30.407  23.251  24.970  1.00  0.00    -0.167 F 
ENDBRANCH  15  20
ENDBRANCH   3   5
ENDBRANCH   2   3
ENDBRANCH   1   2
BRANCH   1  24
ATOM     24  C   UNL A   1      37.223  21.721  25.131  1.00  0.00     0.275 C 
BRANCH  24  25
ATOM     25  O   UNL A   1      37.767  22.922  25.709  1.00  0.00    -0.458 OA
BRANCH  25  26
ATOM     26  C   UNL A   1      39.026  22.830  26.189  1.00  0.00     0.338 C 
ATOM     27  O   UNL A   1      39.800  21.890  26.099  1.00  0.00    -0.246 OA
BRANCH  26  28
ATOM     28  C   UNL A   1      39.384  24.107  26.817  1.00  0.00     0.060 A 
ATOM     29  C   UNL A   1      39.124  24.351  28.162  1.00  0.00     0.016 A 
ATOM     30  C   UNL A   1      40.066  25.049  26.052  1.00  0.00     0.016 A 
ATOM     31  C   UNL A   1      39.519  25.571  28.723  1.00  0.00     0.010 A 
ATOM     32  C   UNL A   1      40.544  26.220  26.632  1.00  0.00     0.010 A 
ATOM     33  C   UNL A   1      40.244  26.515  27.968  1.00  0.00    -0.014 A 
BRANCH  33  34
ATOM     34  C   UNL A   1      40.669  27.818  28.553  1.00  0.00     0.031 A 
ATOM     35  C   UNL A   1      39.668  28.929  28.763  1.00  0.00     0.074 A 
ATOM     36  C   UNL A   1      41.964  28.024  28.870  1.00  0.00     0.049 A 
ATOM     37  N   UNL A   1      39.859  30.129  29.253  1.00  0.00    -0.248 NA
ATOM     38  C   UNL A   1      38.280  28.673  28.342  1.00  0.00     0.031 C 
ATOM     39  C   UNL A   1      43.048  27.063  28.660  1.00  0.00     0.029 A 
ATOM     40  N   UNL A   1      42.585  29.103  29.449  1.00  0.00    -0.354 N 
ATOM     41  C   UNL A   1      38.629  30.772  29.171  1.00  0.00     0.074 A 
ATOM     42  C   UNL A   1      37.712  29.854  28.535  1.00  0.00     0.031 C 
ATOM     43  C   UNL A   1      44.185  27.568  29.161  1.00  0.00     0.029 A 
ATOM     44  C   UNL A   1      43.923  28.904  29.690  1.00  0.00     0.049 A 
ATOM     45  H   UNL A   1      42.117  29.941  29.669  1.00  0.00     0.167 HD
ATOM     46  C   UNL A   1      38.281  32.004  29.614  1.00  0.00     0.031 A 
ATOM     47  C   UNL A   1      44.838  29.696  30.283  1.00  0.00     0.031 A 
ATOM     48  C   UNL A   1      39.176  32.900  30.295  1.00  0.00     0.049 A 
ATOM     49  C   UNL A   1      44.422  31.045  30.803  1.00  0.00     0.074 A 
ATOM     50  C   UNL A   1      38.892  34.133  30.856  1.00  0.00     0.029 A 
ATOM     51  N   UNL A   1      40.520  32.654  30.520  1.00  0.00    -0.354 N 
ATOM     52  N   UNL A   1      43.239  31.608  30.775  1.00  0.00    -0.248 NA
ATOM     53  C   UNL A   1      45.464  31.863  31.440  1.00  0.00     0.031 C 
ATOM     54  C   UNL A   1      40.076  34.654  31.382  1.00  0.00     0.029 A 
ATOM     55  C   UNL A   1      41.084  33.721  31.196  1.00  0.00     0.049 A 
ATOM     56  H   UNL A   1      41.002  31.842  30.241  1.00  0.00     0.167 HD
ATOM     57  C   UNL A   1      43.390  32.840  31.399  1.00  0.00     0.074 A 
ATOM     58  C   UNL A   1      44.774  32.934  31.813  1.00  0.00     0.031 C 
ATOM     59  C   UNL A   1      42.463  33.806  31.602  1.00  0.00     0.031 A 
BRANCH  46  60
ATOM     60  C   UNL A   1      36.860  32.454  29.406  1.00  0.00    -0.014 A 
ATOM     61  C   UNL A   1      36.508  33.148  28.237  1.00  0.00     0.009 A 
ATOM     62  C   UNL A   1      35.887  32.263  30.399  1.00  0.00     0.009 A 
ATOM     63  C   UNL A   1      35.213  33.643  28.069  1.00  0.00     0.001 A 
ATOM     64  C   UNL A   1      34.584  32.732  30.215  1.00  0.00     0.001 A 
ATOM     65  C   UNL A   1      34.251  33.428  29.054  1.00  0.00     0.000 A 
ENDBRANCH  46  60
BRANCH  47  66
ATOM     66  C   UNL A   1      46.227  29.199  30.463  1.00  0.00    -0.014 A 
ATOM     67  C   UNL A   1      46.600  28.511  31.629  1.00  0.00     0.009 A 
ATOM     68  C   UNL A   1      47.202  29.461  29.489  1.00  0.00     0.009 A 
ATOM     69  C   UNL A   1      47.926  28.119  31.826  1.00  0.00     0.001 A 
ATOM     70  C   UNL A   1      48.522  29.044  29.677  1.00  0.00     0.001 A 
ATOM     71  C   UNL A   1      48.885  28.382  30.849  1.00  0.00     0.000 A 
ENDBRANCH  47  66
BRANCH  59  72
ATOM     72  C   UNL A   1      42.893  35.059  32.307  1.00  0.00    -0.014 A 
ATOM     73  C   UNL A   1      42.572  35.245  33.661  1.00  0.00     0.009 A 
ATOM     74  C   UNL A   1      43.505  36.106  31.600  1.00  0.00     0.009 A 
ATOM     75  C   UNL A   1      42.837  36.462  34.290  1.00  0.00     0.001 A 
ATOM     76  C   UNL A   1      43.791  37.313  32.240  1.00  0.00     0.001 A 
ATOM     77  C   UNL A   1      43.448  37.494  33.579  1.00  0.00     0.000 A 
ENDBRANCH  59  72
ENDBRANCH  33  34
ENDBRANCH  26  28
ENDBRANCH  25  26
ENDBRANCH  24  25
ENDBRANCH   1  24
TORSDOF 14
ENDMDL
MODEL 3
REMARK VINA RESULT:     -10.5      1.169      6.123
REMARK SMILES CC(C)Cc1cc2c(cc1Cl)C=C(C(=O)OCCOC(=O)c1ccc(-c3c4nc(c(-c5ccccc5)c5ccc([nH]5)c(-c5ccccc5)c5nc(c(-c6ccccc6)c6ccc3[nH]6)C=C5)C=C4)cc1)[C@H](C(F)(F)F)O2
REMARK SMILES IDX 17 1 16 2 14 3 15 4 13 5 5 6 6 7 10 8 7 9 9 10 11 11 8 12
REMARK SMILES IDX 75 13 12 14 70 15 4 16 2 17 1 18 3 19 71 20 72 21 73 22
REMARK SMILES IDX 74 23 18 24 19 25 20 26 21 27 22 28 23 29 69 30 24 31 68 32
REMARK SMILES IDX 25 33 26 34 27 35 62 36 28 37 67 38 61 39 63 40 29 41 66 42
REMARK SMILES IDX 60 43 59 44 30 46 52 47 37 48 51 49 38 50 41 51 50 52 64 53
REMARK SMILES IDX 39 54 40 55 49 57 65 58 42 59 31 60 32 61 36 62 33 63 35 64
REMARK SMILES IDX 34 65 53 66 54 67 58 68 55 69 57 70 56 71 43 72 44 73 48 74
REMARK SMILES IDX 45 75 47 76 46 77
REMARK H PARENT 63 45 41 56
REMARK Flexibility Score: inf
ROOT
ATOM      1  C   UNL A   1      33.066  29.712  25.296  1.00  0.00     0.275 C 
ENDROOT
BRANCH   1   2
ATOM      2  O   UNL A   1      32.896  28.342  24.873  1.00  0.00    -0.459 OA
BRANCH   2   3
ATOM      3  C   UNL A   1      33.626  27.940  23.814  1.00  0.00     0.338 C 
ATOM      4  O   UNL A   1      34.277  28.663  23.074  1.00  0.00    -0.246 OA
BRANCH   3   5
ATOM      5  C   UNL A   1      33.633  26.466  23.715  1.00  0.00     0.087 C 
ATOM      6  C   UNL A   1      34.012  21.566  24.824  1.00  0.00    -0.025 A 
ATOM      7  C   UNL A   1      33.956  22.304  23.624  1.00  0.00     0.052 A 
ATOM      8  C   UNL A   1      33.971  22.262  26.042  1.00  0.00     0.045 A 
ATOM      9  C   UNL A   1      33.870  23.696  23.638  1.00  0.00     0.128 A 
ATOM     10  C   UNL A   1      33.897  23.655  26.055  1.00  0.00     0.032 A 
ATOM     11  Cl  UNL A   1      34.046  21.459  27.570  1.00  0.00    -0.084 Cl
ATOM     12  C   UNL A   1      33.865  24.369  24.854  1.00  0.00     0.019 A 
ATOM     13  O   UNL A   1      33.850  24.336  22.431  1.00  0.00    -0.475 OA
ATOM     14  C   UNL A   1      33.872  25.816  24.861  1.00  0.00     0.027 C 
ATOM     15  C   UNL A   1      33.480  25.752  22.394  1.00  0.00     0.316 C 
BRANCH   6  16
ATOM     16  C   UNL A   1      34.116  20.058  24.752  1.00  0.00     0.040 C 
BRANCH  16  17
ATOM     17  C   UNL A   1      32.761  19.330  24.647  1.00  0.00    -0.013 C 
ATOM     18  C   UNL A   1      32.500  18.793  23.238  1.00  0.00     0.008 C 
ATOM     19  C   UNL A   1      32.717  18.182  25.659  1.00  0.00     0.008 C 
ENDBRANCH  16  17
ENDBRANCH   6  16
BRANCH  15  20
ATOM     20  C   UNL A   1      32.112  25.898  21.701  1.00  0.00     0.430 C 
ATOM     21  F   UNL A   1      31.178  25.073  22.217  1.00  0.00    -0.167 F 
ATOM     22  F   UNL A   1      31.644  27.167  21.782  1.00  0.00    -0.167 F 
ATOM     23  F   UNL A   1      32.202  25.623  20.375  1.00  0.00    -0.167 F 
ENDBRANCH  15  20
ENDBRANCH   3   5
ENDBRANCH   2   3
ENDBRANCH   1   2
BRANCH   1  24
ATOM     24  C   UNL A   1      32.576  29.899  26.732  1.00  0.00     0.275 C 
BRANCH  24  25
ATOM     25  O   UNL A   1      33.659  29.679  27.654  1.00  0.00    -0.458 OA
BRANCH  25  26
ATOM     26  C   UNL A   1      34.390  30.768  27.979  1.00  0.00     0.338 C 
ATOM     27  O   UNL A   1      34.030  31.933  28.019  1.00  0.00    -0.246 OA
BRANCH  26  28
ATOM     28  C   UNL A   1      35.739  30.331  28.360  1.00  0.00     0.060 A 
ATOM     29  C   UNL A   1      35.982  29.715  29.584  1.00  0.00     0.016 A 
ATOM     30  C   UNL A   1      36.765  30.476  27.431  1.00  0.00     0.016 A 
ATOM     31  C   UNL A   1      37.279  29.283  29.883  1.00  0.00     0.010 A 
ATOM     32  C   UNL A   1      38.032  29.961  27.689  1.00  0.00     0.010 A 
ATOM     33  C   UNL A   1      38.317  29.389  28.935  1.00  0.00    -0.014 A 
BRANCH  33  34
ATOM     34  C   UNL A   1      39.702  28.935  29.243  1.00  0.00     0.031 A 
ATOM     35  C   UNL A   1      40.637  29.807  30.046  1.00  0.00     0.074 A 
ATOM     36  C   UNL A   1      40.140  27.747  28.776  1.00  0.00     0.049 A 
ATOM     37  N   UNL A   1      41.876  29.578  30.403  1.00  0.00    -0.248 NA
ATOM     38  C   UNL A   1      40.128  31.120  30.478  1.00  0.00     0.031 C 
ATOM     39  C   UNL A   1      39.367  26.833  27.934  1.00  0.00     0.029 A 
ATOM     40  N   UNL A   1      41.338  27.100  28.955  1.00  0.00    -0.354 N 
ATOM     41  C   UNL A   1      42.297  30.722  31.072  1.00  0.00     0.074 A 
ATOM     42  C   UNL A   1      41.204  31.667  31.023  1.00  0.00     0.031 C 
ATOM     43  C   UNL A   1      40.083  25.718  27.725  1.00  0.00     0.029 A 
ATOM     44  C   UNL A   1      41.381  25.853  28.380  1.00  0.00     0.049 A 
ATOM     45  H   UNL A   1      42.095  27.493  29.448  1.00  0.00     0.167 HD
ATOM     46  C   UNL A   1      43.474  30.957  31.700  1.00  0.00     0.031 A 
ATOM     47  C   UNL A   1      42.347  24.913  28.388  1.00  0.00     0.031 A 
ATOM     48  C   UNL A   1      44.542  30.001  31.797  1.00  0.00     0.049 A 
ATOM     49  C   UNL A   1      43.631  25.179  29.123  1.00  0.00     0.074 A 
ATOM     50  C   UNL A   1      45.738  30.118  32.484  1.00  0.00     0.029 A 
ATOM     51  N   UNL A   1      44.540  28.750  31.202  1.00  0.00    -0.354 N 
ATOM     52  N   UNL A   1      43.984  26.242  29.805  1.00  0.00    -0.248 NA
ATOM     53  C   UNL A   1      44.647  24.116  29.096  1.00  0.00     0.031 C 
ATOM     54  C   UNL A   1      46.479  28.953  32.269  1.00  0.00     0.029 A 
ATOM     55  C   UNL A   1      45.721  28.092  31.492  1.00  0.00     0.049 A 
ATOM     56  H   UNL A   1      43.807  28.384  30.654  1.00  0.00     0.167 HD
ATOM     57  C   UNL A   1      45.255  25.973  30.297  1.00  0.00     0.074 A 
ATOM     58  C   UNL A   1      45.604  24.639  29.853  1.00  0.00     0.031 C 
ATOM     59  C   UNL A   1      46.059  26.765  31.044  1.00  0.00     0.031 A 
BRANCH  46  60
ATOM     60  C   UNL A   1      43.665  32.294  32.363  1.00  0.00    -0.014 A 
ATOM     61  C   UNL A   1      44.277  33.345  31.660  1.00  0.00     0.009 A 
ATOM     62  C   UNL A   1      43.314  32.493  33.707  1.00  0.00     0.009 A 
ATOM     63  C   UNL A   1      44.535  34.564  32.290  1.00  0.00     0.001 A 
ATOM     64  C   UNL A   1      43.544  33.724  34.326  1.00  0.00     0.001 A 
ATOM     65  C   UNL A   1      44.162  34.755  33.620  1.00  0.00     0.000 A 
ENDBRANCH  46  60
BRANCH  47  66
ATOM     66  C   UNL A   1      42.102  23.609  27.717  1.00  0.00    -0.014 A 
ATOM     67  C   UNL A   1      42.476  23.408  26.379  1.00  0.00     0.009 A 
ATOM     68  C   UNL A   1      41.440  22.578  28.399  1.00  0.00     0.009 A 
ATOM     69  C   UNL A   1      42.169  22.208  25.731  1.00  0.00     0.001 A 
ATOM     70  C   UNL A   1      41.158  21.370  27.757  1.00  0.00     0.001 A 
ATOM     71  C   UNL A   1      41.514  21.190  26.421  1.00  0.00     0.000 A 
ENDBRANCH  47  66
BRANCH  59  72
ATOM     72  C   UNL A   1      47.403  26.230  31.444  1.00  0.00    -0.014 A 
ATOM     73  C   UNL A   1      48.463  26.245  30.523  1.00  0.00     0.009 A 
ATOM     74  C   UNL A   1      47.585  25.600  32.685  1.00  0.00     0.009 A 
ATOM     75  C   UNL A   1      49.674  25.621  30.829  1.00  0.00     0.001 A 
ATOM     76  C   UNL A   1      48.806  25.000  32.996  1.00  0.00     0.001 A 
ATOM     77  C   UNL A   1      49.845  25.001  32.065  1.00  0.00     0.000 A 
ENDBRANCH  59  72
ENDBRANCH  33  34
ENDBRANCH  26  28
ENDBRANCH  25  26
ENDBRANCH  24  25
ENDBRANCH   1  24
TORSDOF 14
ENDMDL
