MODEL 1
REMARK VINA RESULT:     -12.9      0.000      0.000
REMARK SMILES C[C@@H](NC(=O)CNC(=O)N1CC(=O)Nc2ccccc21)C(=O)OCCOC(=O)c1ccc(-c2c3nc(c(-c4ccccc4)c4ccc([nH]4)c(-c4ccccc4)c4nc(c(-c5ccccc5)c5ccc2[nH]5)C=C4)C=C3)cc1
REMARK SMILES IDX 24 1 23 2 21 3 22 4 2 5 1 6 3 7 4 8 5 10 6 11 7 12 8 13 9 15
REMARK SMILES IDX 10 16 11 17 20 18 12 19 15 20 19 21 13 22 14 23 16 24 18 25
REMARK SMILES IDX 17 27 25 28 26 29 27 30 28 31 29 32 30 33 76 34 31 35 75 36
REMARK SMILES IDX 32 37 33 38 34 39 69 40 35 41 74 42 68 43 70 44 36 45 73 46
REMARK SMILES IDX 67 47 66 48 37 50 59 51 44 52 58 53 45 54 48 55 57 56 71 57
REMARK SMILES IDX 46 58 47 59 56 61 72 62 49 63 38 64 39 65 43 66 40 67 42 68
REMARK SMILES IDX 41 69 60 70 61 71 65 72 62 73 64 74 63 75 50 76 51 77 55 78
REMARK SMILES IDX 52 79 54 80 53 81
REMARK H PARENT 3 9 7 14 14 26 70 49 48 60
REMARK Flexibility Score: inf
ROOT
ATOM      1  C   UNL A   1      37.904  21.565  25.106  1.00  0.00     0.274 C 
ENDROOT
BRANCH   1   2
ATOM      2  O   UNL A   1      36.341  22.200  24.760  1.00  0.00    -0.461 OA
BRANCH   2   3
ATOM      3  C   UNL A   1      35.576  23.006  23.857  1.00  0.00     0.328 C 
ATOM      4  O   UNL A   1      35.947  23.085  22.679  1.00  0.00    -0.250 OA
BRANCH   3   5
ATOM      5  C   UNL A   1      34.480  24.129  24.309  1.00  0.00     0.189 C 
ATOM      6  C   UNL A   1      34.171  24.871  25.639  1.00  0.00     0.043 C 
BRANCH   5   7
ATOM      7  N   UNL A   1      34.471  25.111  23.275  1.00  0.00    -0.341 N 
ATOM      8  C   UNL A   1      33.409  25.223  22.435  1.00  0.00     0.240 C 
ATOM      9  H   UNL A   1      35.242  25.713  23.169  1.00  0.00     0.164 HD
ATOM     10  O   UNL A   1      33.467  26.049  21.525  1.00  0.00    -0.273 OA
BRANCH   8  11
ATOM     11  C   UNL A   1      32.095  24.435  22.780  1.00  0.00     0.218 C 
BRANCH  11  12
ATOM     12  N   UNL A   1      31.973  22.834  22.502  1.00  0.00    -0.329 N 
ATOM     13  C   UNL A   1      32.123  21.471  22.713  1.00  0.00     0.322 C 
ATOM     14  H   UNL A   1      31.489  22.834  21.644  1.00  0.00     0.165 HD
ATOM     15  O   UNL A   1      31.942  21.081  21.580  1.00  0.00    -0.248 OA
BRANCH  13  16
ATOM     16  N   UNL A   1      32.282  20.571  23.818  1.00  0.00    -0.283 N 
ATOM     17  C   UNL A   1      32.137  20.674  25.343  1.00  0.00     0.227 C 
ATOM     18  C   UNL A   1      33.093  19.288  23.727  1.00  0.00     0.070 A 
ATOM     19  C   UNL A   1      33.490  20.868  26.035  1.00  0.00     0.244 C 
ATOM     20  C   UNL A   1      34.216  19.122  24.568  1.00  0.00     0.065 A 
ATOM     21  C   UNL A   1      32.616  18.075  23.183  1.00  0.00     0.028 A 
ATOM     22  O   UNL A   1      33.644  21.435  27.113  1.00  0.00    -0.273 OA
ATOM     23  N   UNL A   1      34.498  20.082  25.538  1.00  0.00    -0.323 N 
ATOM     24  C   UNL A   1      34.959  17.928  24.637  1.00  0.00     0.028 A 
ATOM     25  C   UNL A   1      33.314  16.854  23.284  1.00  0.00     0.002 A 
ATOM     26  H   UNL A   1      35.418  20.195  25.867  1.00  0.00     0.170 HD
ATOM     27  C   UNL A   1      34.510  16.789  23.980  1.00  0.00     0.002 A 
ENDBRANCH  13  16
ENDBRANCH  11  12
ENDBRANCH   8  11
ENDBRANCH   5   7
ENDBRANCH   3   5
ENDBRANCH   2   3
ENDBRANCH   1   2
BRANCH   1  28
ATOM     28  C   UNL A   1      39.236  21.962  26.235  1.00  0.00     0.275 C 
BRANCH  28  29
ATOM     29  O   UNL A   1      40.927  22.208  26.191  1.00  0.00    -0.458 OA
BRANCH  29  30
ATOM     30  C   UNL A   1      42.297  22.527  26.417  1.00  0.00     0.338 C 
ATOM     31  O   UNL A   1      43.012  21.581  26.779  1.00  0.00    -0.246 OA
BRANCH  30  32
ATOM     32  C   UNL A   1      43.111  23.939  26.447  1.00  0.00     0.060 A 
ATOM     33  C   UNL A   1      43.598  24.622  27.596  1.00  0.00     0.016 A 
ATOM     34  C   UNL A   1      43.295  24.701  25.293  1.00  0.00     0.016 A 
ATOM     35  C   UNL A   1      44.561  25.664  27.584  1.00  0.00     0.010 A 
ATOM     36  C   UNL A   1      44.190  25.829  25.265  1.00  0.00     0.010 A 
ATOM     37  C   UNL A   1      44.901  26.293  26.402  1.00  0.00    -0.014 A 
BRANCH  37  38
ATOM     38  C   UNL A   1      45.724  27.570  26.434  1.00  0.00     0.031 A 
ATOM     39  C   UNL A   1      47.218  27.436  26.241  1.00  0.00     0.074 A 
ATOM     40  C   UNL A   1      45.247  28.837  26.548  1.00  0.00     0.049 A 
ATOM     41  N   UNL A   1      48.171  28.327  26.372  1.00  0.00    -0.248 NA
ATOM     42  C   UNL A   1      47.698  26.094  25.889  1.00  0.00     0.031 C 
ATOM     43  C   UNL A   1      43.846  29.238  26.677  1.00  0.00     0.029 A 
ATOM     44  N   UNL A   1      45.921  30.052  26.567  1.00  0.00    -0.354 N 
ATOM     45  C   UNL A   1      49.357  27.624  26.205  1.00  0.00     0.074 A 
ATOM     46  C   UNL A   1      49.002  26.231  26.050  1.00  0.00     0.031 C 
ATOM     47  C   UNL A   1      43.767  30.582  26.774  1.00  0.00     0.029 A 
ATOM     48  C   UNL A   1      45.110  31.160  26.713  1.00  0.00     0.049 A 
ATOM     49  H   UNL A   1      46.899  30.117  26.484  1.00  0.00     0.167 HD
ATOM     50  C   UNL A   1      50.633  28.069  26.118  1.00  0.00     0.031 A 
ATOM     51  C   UNL A   1      45.401  32.482  26.783  1.00  0.00     0.031 A 
ATOM     52  C   UNL A   1      51.035  29.445  26.132  1.00  0.00     0.049 A 
ATOM     53  C   UNL A   1      46.832  32.971  26.672  1.00  0.00     0.074 A 
ATOM     54  C   UNL A   1      52.309  29.969  25.989  1.00  0.00     0.029 A 
ATOM     55  N   UNL A   1      50.171  30.518  26.248  1.00  0.00    -0.354 N 
ATOM     56  N   UNL A   1      47.934  32.283  26.509  1.00  0.00    -0.248 NA
ATOM     57  C   UNL A   1      47.052  34.431  26.733  1.00  0.00     0.031 C 
ATOM     58  C   UNL A   1      52.217  31.363  26.035  1.00  0.00     0.029 A 
ATOM     59  C   UNL A   1      50.883  31.702  26.171  1.00  0.00     0.049 A 
ATOM     60  H   UNL A   1      49.196  30.450  26.369  1.00  0.00     0.167 HD
ATOM     61  C   UNL A   1      48.959  33.221  26.402  1.00  0.00     0.074 A 
ATOM     62  C   UNL A   1      48.355  34.529  26.507  1.00  0.00     0.031 C 
ATOM     63  C   UNL A   1      50.287  33.010  26.232  1.00  0.00     0.031 A 
BRANCH  50  64
ATOM     64  C   UNL A   1      51.694  27.019  25.969  1.00  0.00    -0.014 A 
ATOM     65  C   UNL A   1      52.338  26.474  27.092  1.00  0.00     0.009 A 
ATOM     66  C   UNL A   1      52.080  26.600  24.688  1.00  0.00     0.009 A 
ATOM     67  C   UNL A   1      53.399  25.584  26.932  1.00  0.00     0.001 A 
ATOM     68  C   UNL A   1      53.113  25.677  24.532  1.00  0.00     0.001 A 
ATOM     69  C   UNL A   1      53.784  25.185  25.652  1.00  0.00     0.000 A 
ENDBRANCH  50  64
BRANCH  51  70
ATOM     70  C   UNL A   1      44.326  33.508  26.960  1.00  0.00    -0.014 A 
ATOM     71  C   UNL A   1      43.805  34.198  25.850  1.00  0.00     0.009 A 
ATOM     72  C   UNL A   1      43.916  33.899  28.243  1.00  0.00     0.009 A 
ATOM     73  C   UNL A   1      42.933  35.278  26.024  1.00  0.00     0.001 A 
ATOM     74  C   UNL A   1      43.023  34.963  28.414  1.00  0.00     0.001 A 
ATOM     75  C   UNL A   1      42.543  35.660  27.305  1.00  0.00     0.000 A 
ENDBRANCH  51  70
BRANCH  63  76
ATOM     76  C   UNL A   1      51.187  34.204  26.070  1.00  0.00    -0.014 A 
ATOM     77  C   UNL A   1      51.855  34.777  27.165  1.00  0.00     0.009 A 
ATOM     78  C   UNL A   1      51.425  34.723  24.787  1.00  0.00     0.009 A 
ATOM     79  C   UNL A   1      52.719  35.860  26.979  1.00  0.00     0.001 A 
ATOM     80  C   UNL A   1      52.309  35.788  24.600  1.00  0.00     0.001 A 
ATOM     81  C   UNL A   1      52.950  36.362  25.697  1.00  0.00     0.000 A 
ENDBRANCH  63  76
ENDBRANCH  37  38
ENDBRANCH  30  32
ENDBRANCH  29  30
ENDBRANCH  28  29
ENDBRANCH   1  28
TORSDOF 15
ENDMDL
MODEL 2
REMARK VINA RESULT:     -12.8      4.451      8.780
REMARK SMILES C[C@@H](NC(=O)CNC(=O)N1CC(=O)Nc2ccccc21)C(=O)OCCOC(=O)c1ccc(-c2c3nc(c(-c4ccccc4)c4ccc([nH]4)c(-c4ccccc4)c4nc(c(-c5ccccc5)c5ccc2[nH]5)C=C4)C=C3)cc1
REMARK SMILES IDX 24 1 23 2 21 3 22 4 2 5 1 6 3 7 4 8 5 10 6 11 7 12 8 13 9 15
REMARK SMILES IDX 10 16 11 17 20 18 12 19 15 20 19 21 13 22 14 23 16 24 18 25
REMARK SMILES IDX 17 27 25 28 26 29 27 30 28 31 29 32 30 33 76 34 31 35 75 36
REMARK SMILES IDX 32 37 33 38 34 39 69 40 35 41 74 42 68 43 70 44 36 45 73 46
REMARK SMILES IDX 67 47 66 48 37 50 59 51 44 52 58 53 45 54 48 55 57 56 71 57
REMARK SMILES IDX 46 58 47 59 56 61 72 62 49 63 38 64 39 65 43 66 40 67 42 68
REMARK SMILES IDX 41 69 60 70 61 71 65 72 62 73 64 74 63 75 50 76 51 77 55 78
REMARK SMILES IDX 52 79 54 80 53 81
REMARK H PARENT 3 9 7 14 14 26 70 49 48 60
REMARK Flexibility Score: inf
ROOT
ATOM      1  C   UNL A   1      36.339  20.293  24.897  1.00  0.00     0.274 C 
ENDROOT
BRANCH   1   2
ATOM      2  O   UNL A   1      35.514  21.437  25.885  1.00  0.00    -0.461 OA
BRANCH   2   3
ATOM      3  C   UNL A   1      34.257  21.789  26.471  1.00  0.00     0.328 C 
ATOM      4  O   UNL A   1      34.186  21.877  27.704  1.00  0.00    -0.250 OA
BRANCH   3   5
ATOM      5  C   UNL A   1      32.817  21.720  25.703  1.00  0.00     0.189 C 
ATOM      6  C   UNL A   1      32.095  20.645  24.844  1.00  0.00     0.043 C 
BRANCH   5   7
ATOM      7  N   UNL A   1      31.854  22.232  26.622  1.00  0.00    -0.341 N 
ATOM      8  C   UNL A   1      31.062  23.282  26.283  1.00  0.00     0.240 C 
ATOM      9  H   UNL A   1      31.763  21.820  27.512  1.00  0.00     0.164 HD
ATOM     10  O   UNL A   1      30.282  23.723  27.126  1.00  0.00    -0.273 OA
BRANCH   8  11
ATOM     11  C   UNL A   1      31.044  23.753  24.785  1.00  0.00     0.218 C 
BRANCH  11  12
ATOM     12  N   UNL A   1      30.055  24.947  24.286  1.00  0.00    -0.329 N 
ATOM     13  C   UNL A   1      29.545  26.231  24.150  1.00  0.00     0.322 C 
ATOM     14  H   UNL A   1      29.417  24.438  23.735  1.00  0.00     0.165 HD
ATOM     15  O   UNL A   1      28.425  25.952  23.781  1.00  0.00    -0.248 OA
BRANCH  13  16
ATOM     16  N   UNL A   1      30.020  27.583  24.211  1.00  0.00    -0.283 N 
ATOM     17  C   UNL A   1      29.631  28.909  23.544  1.00  0.00     0.227 C 
ATOM     18  C   UNL A   1      31.409  27.947  24.711  1.00  0.00     0.070 A 
ATOM     19  C   UNL A   1      30.538  29.240  22.355  1.00  0.00     0.244 C 
ATOM     20  C   UNL A   1      32.306  28.601  23.836  1.00  0.00     0.065 A 
ATOM     21  C   UNL A   1      31.765  28.067  26.073  1.00  0.00     0.028 A 
ATOM     22  O   UNL A   1      30.201  29.924  21.392  1.00  0.00    -0.273 OA
ATOM     23  N   UNL A   1      31.870  28.998  22.574  1.00  0.00    -0.323 N 
ATOM     24  C   UNL A   1      33.567  29.078  24.241  1.00  0.00     0.028 A 
ATOM     25  C   UNL A   1      33.000  28.592  26.505  1.00  0.00     0.002 A 
ATOM     26  H   UNL A   1      32.518  29.106  21.840  1.00  0.00     0.170 HD
ATOM     27  C   UNL A   1      33.921  29.063  25.584  1.00  0.00     0.002 A 
ENDBRANCH  13  16
ENDBRANCH  11  12
ENDBRANCH   8  11
ENDBRANCH   5   7
ENDBRANCH   3   5
ENDBRANCH   2   3
ENDBRANCH   1   2
BRANCH   1  28
ATOM     28  C   UNL A   1      37.743  19.198  25.090  1.00  0.00     0.275 C 
BRANCH  28  29
ATOM     29  O   UNL A   1      39.399  19.292  25.507  1.00  0.00    -0.458 OA
BRANCH  29  30
ATOM     30  C   UNL A   1      40.731  19.657  25.853  1.00  0.00     0.338 C 
ATOM     31  O   UNL A   1      41.570  18.748  25.779  1.00  0.00    -0.246 OA
BRANCH  30  32
ATOM     32  C   UNL A   1      41.374  21.015  26.487  1.00  0.00     0.060 A 
ATOM     33  C   UNL A   1      42.133  22.003  25.801  1.00  0.00     0.016 A 
ATOM     34  C   UNL A   1      41.338  21.269  27.858  1.00  0.00     0.016 A 
ATOM     35  C   UNL A   1      42.407  23.309  26.285  1.00  0.00     0.010 A 
ATOM     36  C   UNL A   1      41.704  22.552  28.400  1.00  0.00     0.010 A 
ATOM     37  C   UNL A   1      42.182  23.629  27.610  1.00  0.00    -0.014 A 
BRANCH  37  38
ATOM     38  C   UNL A   1      42.721  24.932  28.175  1.00  0.00     0.031 A 
ATOM     39  C   UNL A   1      41.718  26.025  28.475  1.00  0.00     0.074 A 
ATOM     40  C   UNL A   1      44.011  25.197  28.510  1.00  0.00     0.049 A 
ATOM     41  N   UNL A   1      41.907  27.277  28.814  1.00  0.00    -0.248 NA
ATOM     42  C   UNL A   1      40.306  25.652  28.328  1.00  0.00     0.031 C 
ATOM     43  C   UNL A   1      45.152  24.291  28.384  1.00  0.00     0.029 A 
ATOM     44  N   UNL A   1      44.582  26.345  29.045  1.00  0.00    -0.354 N 
ATOM     45  C   UNL A   1      40.641  27.848  28.832  1.00  0.00     0.074 A 
ATOM     46  C   UNL A   1      39.715  26.831  28.387  1.00  0.00     0.031 C 
ATOM     47  C   UNL A   1      46.272  24.912  28.810  1.00  0.00     0.029 A 
ATOM     48  C   UNL A   1      45.946  26.270  29.249  1.00  0.00     0.049 A 
ATOM     49  H   UNL A   1      44.056  27.148  29.262  1.00  0.00     0.167 HD
ATOM     50  C   UNL A   1      40.243  29.078  29.234  1.00  0.00     0.031 A 
ATOM     51  C   UNL A   1      46.832  27.173  29.735  1.00  0.00     0.031 A 
ATOM     52  C   UNL A   1      41.094  30.081  29.805  1.00  0.00     0.049 A 
ATOM     53  C   UNL A   1      46.373  28.543  30.195  1.00  0.00     0.074 A 
ATOM     54  C   UNL A   1      40.742  31.330  30.289  1.00  0.00     0.029 A 
ATOM     55  N   UNL A   1      42.452  29.936  30.016  1.00  0.00    -0.354 N 
ATOM     56  N   UNL A   1      45.167  29.055  30.204  1.00  0.00    -0.248 NA
ATOM     57  C   UNL A   1      47.404  29.453  30.735  1.00  0.00     0.031 C 
ATOM     58  C   UNL A   1      41.895  31.950  30.781  1.00  0.00     0.029 A 
ATOM     59  C   UNL A   1      42.953  31.070  30.633  1.00  0.00     0.049 A 
ATOM     60  H   UNL A   1      42.983  29.146  29.766  1.00  0.00     0.167 HD
ATOM     61  C   UNL A   1      45.291  30.315  30.789  1.00  0.00     0.074 A 
ATOM     62  C   UNL A   1      46.683  30.492  31.132  1.00  0.00     0.031 C 
ATOM     63  C   UNL A   1      44.328  31.241  31.018  1.00  0.00     0.031 A 
BRANCH  50  64
ATOM     64  C   UNL A   1      38.782  29.384  29.085  1.00  0.00    -0.014 A 
ATOM     65  C   UNL A   1      37.896  29.237  30.165  1.00  0.00     0.009 A 
ATOM     66  C   UNL A   1      38.281  29.786  27.838  1.00  0.00     0.009 A 
ATOM     67  C   UNL A   1      36.526  29.416  29.981  1.00  0.00     0.001 A 
ATOM     68  C   UNL A   1      36.915  30.006  27.668  1.00  0.00     0.001 A 
ATOM     69  C   UNL A   1      36.038  29.802  28.733  1.00  0.00     0.000 A 
ENDBRANCH  50  64
BRANCH  51  70
ATOM     70  C   UNL A   1      48.289  26.853  29.848  1.00  0.00    -0.014 A 
ATOM     71  C   UNL A   1      49.170  27.145  28.790  1.00  0.00     0.009 A 
ATOM     72  C   UNL A   1      48.780  26.135  30.949  1.00  0.00     0.009 A 
ATOM     73  C   UNL A   1      50.493  26.690  28.815  1.00  0.00     0.001 A 
ATOM     74  C   UNL A   1      50.111  25.705  30.983  1.00  0.00     0.001 A 
ATOM     75  C   UNL A   1      50.963  25.970  29.911  1.00  0.00     0.000 A 
ENDBRANCH  51  70
BRANCH  63  76
ATOM     76  C   UNL A   1      44.708  32.506  31.736  1.00  0.00    -0.014 A 
ATOM     77  C   UNL A   1      45.023  33.684  31.040  1.00  0.00     0.009 A 
ATOM     78  C   UNL A   1      44.684  32.538  33.141  1.00  0.00     0.009 A 
ATOM     79  C   UNL A   1      45.331  34.857  31.735  1.00  0.00     0.001 A 
ATOM     80  C   UNL A   1      44.966  33.718  33.833  1.00  0.00     0.001 A 
ATOM     81  C   UNL A   1      45.297  34.875  33.129  1.00  0.00     0.000 A 
ENDBRANCH  63  76
ENDBRANCH  37  38
ENDBRANCH  30  32
ENDBRANCH  29  30
ENDBRANCH  28  29
ENDBRANCH   1  28
TORSDOF 15
ENDMDL
MODEL 3
REMARK VINA RESULT:     -12.7      5.844      9.223
REMARK SMILES C[C@@H](NC(=O)CNC(=O)N1CC(=O)Nc2ccccc21)C(=O)OCCOC(=O)c1ccc(-c2c3nc(c(-c4ccccc4)c4ccc([nH]4)c(-c4ccccc4)c4nc(c(-c5ccccc5)c5ccc2[nH]5)C=C4)C=C3)cc1
REMARK SMILES IDX 24 1 23 2 21 3 22 4 2 5 1 6 3 7 4 8 5 10 6 11 7 12 8 13 9 15
REMARK SMILES IDX 10 16 11 17 20 18 12 19 15 20 19 21 13 22 14 23 16 24 18 25
REMARK SMILES IDX 17 27 25 28 26 29 27 30 28 31 29 32 30 33 76 34 31 35 75 36
REMARK SMILES IDX 32 37 33 38 34 39 69 40 35 41 74 42 68 43 70 44 36 45 73 46
REMARK SMILES IDX 67 47 66 48 37 50 59 51 44 52 58 53 45 54 48 55 57 56 71 57
REMARK SMILES IDX 46 58 47 59 56 61 72 62 49 63 38 64 39 65 43 66 40 67 42 68
REMARK SMILES IDX 41 69 60 70 61 71 65 72 62 73 64 74 63 75 50 76 51 77 55 78
REMARK SMILES IDX 52 79 54 80 53 81
REMARK H PARENT 3 9 7 14 14 26 70 49 48 60
REMARK Flexibility Score: inf
ROOT
ATOM      1  C   UNL A   1      31.251  30.758  25.501  1.00  0.00     0.274 C 
ENDROOT
BRANCH   1   2
ATOM      2  O   UNL A   1      32.491  29.959  24.615  1.00  0.00    -0.461 OA
BRANCH   2   3
ATOM      3  C   UNL A   1      33.015  28.687  24.216  1.00  0.00     0.328 C 
ATOM      4  O   UNL A   1      33.031  28.410  23.009  1.00  0.00    -0.250 OA
BRANCH   3   5
ATOM      5  C   UNL A   1      33.248  27.418  25.217  1.00  0.00     0.189 C 
ATOM      6  C   UNL A   1      34.427  26.439  25.472  1.00  0.00     0.043 C 
BRANCH   5   7
ATOM      7  N   UNL A   1      32.766  27.829  26.495  1.00  0.00    -0.341 N 
ATOM      8  C   UNL A   1      31.662  27.253  27.038  1.00  0.00     0.240 C 
ATOM      9  H   UNL A   1      33.238  28.538  26.988  1.00  0.00     0.164 HD
ATOM     10  O   UNL A   1      31.253  27.675  28.118  1.00  0.00    -0.273 OA
BRANCH   8  11
ATOM     11  C   UNL A   1      31.081  25.961  26.359  1.00  0.00     0.218 C 
BRANCH  11  12
ATOM     12  N   UNL A   1      31.628  24.479  26.756  1.00  0.00    -0.329 N 
ATOM     13  C   UNL A   1      32.028  23.161  26.588  1.00  0.00     0.322 C 
ATOM     14  H   UNL A   1      31.755  24.585  27.728  1.00  0.00     0.165 HD
ATOM     15  O   UNL A   1      31.923  22.782  27.735  1.00  0.00    -0.248 OA
BRANCH  13  16
ATOM     16  N   UNL A   1      32.574  22.333  25.553  1.00  0.00    -0.283 N 
ATOM     17  C   UNL A   1      32.120  21.069  24.810  1.00  0.00     0.227 C 
ATOM     18  C   UNL A   1      34.055  22.312  25.208  1.00  0.00     0.070 A 
ATOM     19  C   UNL A   1      32.765  19.804  25.384  1.00  0.00     0.244 C 
ATOM     20  C   UNL A   1      34.775  21.103  25.340  1.00  0.00     0.065 A 
ATOM     21  C   UNL A   1      34.701  23.263  24.388  1.00  0.00     0.028 A 
ATOM     22  O   UNL A   1      32.264  18.684  25.334  1.00  0.00    -0.273 OA
ATOM     23  N   UNL A   1      34.099  19.931  25.676  1.00  0.00    -0.323 N 
ATOM     24  C   UNL A   1      36.117  20.957  24.939  1.00  0.00     0.028 A 
ATOM     25  C   UNL A   1      36.026  23.114  23.928  1.00  0.00     0.002 A 
ATOM     26  H   UNL A   1      34.579  19.196  26.122  1.00  0.00     0.170 HD
ATOM     27  C   UNL A   1      36.750  21.975  24.238  1.00  0.00     0.002 A 
ENDBRANCH  13  16
ENDBRANCH  11  12
ENDBRANCH   8  11
ENDBRANCH   5   7
ENDBRANCH   3   5
ENDBRANCH   2   3
ENDBRANCH   1   2
BRANCH   1  28
ATOM     28  C   UNL A   1      31.054  32.352  26.293  1.00  0.00     0.275 C 
BRANCH  28  29
ATOM     29  O   UNL A   1      31.947  33.404  27.303  1.00  0.00    -0.458 OA
BRANCH  29  30
ATOM     30  C   UNL A   1      32.825  34.037  28.227  1.00  0.00     0.338 C 
ATOM     31  O   UNL A   1      32.496  35.179  28.581  1.00  0.00    -0.246 OA
BRANCH  30  32
ATOM     32  C   UNL A   1      34.289  33.627  28.818  1.00  0.00     0.060 A 
ATOM     33  C   UNL A   1      34.562  32.987  30.059  1.00  0.00     0.016 A 
ATOM     34  C   UNL A   1      35.468  34.005  28.175  1.00  0.00     0.016 A 
ATOM     35  C   UNL A   1      35.788  32.362  30.407  1.00  0.00     0.010 A 
ATOM     36  C   UNL A   1      36.747  33.468  28.563  1.00  0.00     0.010 A 
ATOM     37  C   UNL A   1      36.925  32.574  29.651  1.00  0.00    -0.014 A 
BRANCH  37  38
ATOM     38  C   UNL A   1      38.277  32.121  30.174  1.00  0.00     0.031 A 
ATOM     39  C   UNL A   1      38.833  30.825  29.627  1.00  0.00     0.074 A 
ATOM     40  C   UNL A   1      39.079  32.800  31.036  1.00  0.00     0.049 A 
ATOM     41  N   UNL A   1      39.879  30.129  30.002  1.00  0.00    -0.248 NA
ATOM     42  C   UNL A   1      38.071  30.217  28.530  1.00  0.00     0.031 C 
ATOM     43  C   UNL A   1      38.804  34.098  31.651  1.00  0.00     0.029 A 
ATOM     44  N   UNL A   1      40.328  32.470  31.549  1.00  0.00    -0.354 N 
ATOM     45  C   UNL A   1      39.838  28.967  29.242  1.00  0.00     0.074 A 
ATOM     46  C   UNL A   1      38.625  29.020  28.457  1.00  0.00     0.031 C 
ATOM     47  C   UNL A   1      39.832  34.444  32.455  1.00  0.00     0.029 A 
ATOM     48  C   UNL A   1      40.856  33.399  32.424  1.00  0.00     0.049 A 
ATOM     49  H   UNL A   1      40.799  31.641  31.306  1.00  0.00     0.167 HD
ATOM     50  C   UNL A   1      40.737  27.960  29.135  1.00  0.00     0.031 A 
ATOM     51  C   UNL A   1      42.021  33.419  33.116  1.00  0.00     0.031 A 
ATOM     52  C   UNL A   1      42.014  27.915  29.785  1.00  0.00     0.049 A 
ATOM     53  C   UNL A   1      43.027  32.293  32.978  1.00  0.00     0.074 A 
ATOM     54  C   UNL A   1      43.000  26.949  29.672  1.00  0.00     0.029 A 
ATOM     55  N   UNL A   1      42.505  28.894  30.629  1.00  0.00    -0.354 N 
ATOM     56  N   UNL A   1      42.964  31.207  32.247  1.00  0.00    -0.248 NA
ATOM     57  C   UNL A   1      44.281  32.412  33.749  1.00  0.00     0.031 C 
ATOM     58  C   UNL A   1      44.086  27.338  30.464  1.00  0.00     0.029 A 
ATOM     59  C   UNL A   1      43.785  28.560  31.038  1.00  0.00     0.049 A 
ATOM     60  H   UNL A   1      42.017  29.705  30.899  1.00  0.00     0.167 HD
ATOM     61  C   UNL A   1      44.177  30.548  32.436  1.00  0.00     0.074 A 
ATOM     62  C   UNL A   1      44.966  31.353  33.339  1.00  0.00     0.031 C 
ATOM     63  C   UNL A   1      44.595  29.374  31.902  1.00  0.00     0.031 A 
BRANCH  50  64
ATOM     64  C   UNL A   1      40.356  26.823  28.234  1.00  0.00    -0.014 A 
ATOM     65  C   UNL A   1      39.560  25.763  28.700  1.00  0.00     0.009 A 
ATOM     66  C   UNL A   1      40.833  26.793  26.915  1.00  0.00     0.009 A 
ATOM     67  C   UNL A   1      39.310  24.660  27.886  1.00  0.00     0.001 A 
ATOM     68  C   UNL A   1      40.545  25.708  26.089  1.00  0.00     0.001 A 
ATOM     69  C   UNL A   1      39.801  24.635  26.581  1.00  0.00     0.000 A 
ENDBRANCH  50  64
BRANCH  51  70
ATOM     70  C   UNL A   1      42.365  34.552  34.030  1.00  0.00    -0.014 A 
ATOM     71  C   UNL A   1      41.968  34.529  35.379  1.00  0.00     0.009 A 
ATOM     72  C   UNL A   1      42.969  35.715  33.530  1.00  0.00     0.009 A 
ATOM     73  C   UNL A   1      42.129  35.657  36.192  1.00  0.00     0.001 A 
ATOM     74  C   UNL A   1      43.154  36.833  34.351  1.00  0.00     0.001 A 
ATOM     75  C   UNL A   1      42.722  36.808  35.677  1.00  0.00     0.000 A 
ENDBRANCH  51  70
BRANCH  63  76
ATOM     76  C   UNL A   1      45.992  28.906  32.207  1.00  0.00    -0.014 A 
ATOM     77  C   UNL A   1      47.066  29.180  31.345  1.00  0.00     0.009 A 
ATOM     78  C   UNL A   1      46.249  28.237  33.415  1.00  0.00     0.009 A 
ATOM     79  C   UNL A   1      48.361  28.771  31.675  1.00  0.00     0.001 A 
ATOM     80  C   UNL A   1      47.548  27.852  33.755  1.00  0.00     0.001 A 
ATOM     81  C   UNL A   1      48.603  28.112  32.881  1.00  0.00     0.000 A 
ENDBRANCH  63  76
ENDBRANCH  37  38
ENDBRANCH  30  32
ENDBRANCH  29  30
ENDBRANCH  28  29
ENDBRANCH   1  28
TORSDOF 15
ENDMDL
