MODEL 1
REMARK VINA RESULT:     -10.7      0.000      0.000
REMARK SMILES CC[C@@H](C)c1ccccc1NC(=O)[C@@H]1[C@@H](C(=O)OCCOC(=O)c2ccc(-c3c4nc(c(-c5ccccc5)c5ccc([nH]5)c(-c5ccccc5)c5nc(c(-c6ccccc6)c6ccc3[nH]6)C=C5)C=C4)cc2)[C@@H]2C=C[C@H]1C2
REMARK SMILES IDX 19 1 18 2 16 3 17 4 15 5 14 6 75 7 72 8 74 9 76 10 73 11
REMARK SMILES IDX 12 12 11 13 13 15 10 16 5 17 6 18 7 19 9 20 8 21 3 22 4 23
REMARK SMILES IDX 2 24 1 25 20 26 21 27 22 28 23 29 24 30 25 31 71 32 26 33
REMARK SMILES IDX 70 34 27 35 28 36 29 37 64 38 30 39 69 40 63 41 65 42 31 43
REMARK SMILES IDX 68 44 62 45 61 46 32 48 54 49 39 50 53 51 40 52 43 53 52 54
REMARK SMILES IDX 66 55 41 56 42 57 51 59 67 60 44 61 33 62 34 63 38 64 35 65
REMARK SMILES IDX 37 66 36 67 55 68 56 69 60 70 57 71 59 72 58 73 45 74 46 75
REMARK SMILES IDX 50 76 47 77 49 78 48 79
REMARK H PARENT 11 14 65 47 43 58
REMARK Flexibility Score: inf
ROOT
ATOM      1  C   UNL A   1      38.283  21.255  25.379  1.00  0.00     0.274 C 
ENDROOT
BRANCH   1   2
ATOM      2  O   UNL A   1      36.847  21.136  25.466  1.00  0.00    -0.462 OA
BRANCH   2   3
ATOM      3  C   UNL A   1      36.203  22.306  25.684  1.00  0.00     0.310 C 
ATOM      4  O   UNL A   1      36.741  23.309  26.146  1.00  0.00    -0.252 OA
BRANCH   3   5
ATOM      5  C   UNL A   1      34.735  22.300  25.320  1.00  0.00     0.119 C 
ATOM      6  C   UNL A   1      34.274  23.785  25.375  1.00  0.00     0.100 C 
ATOM      7  C   UNL A   1      32.909  23.702  26.077  1.00  0.00     0.025 C 
ATOM      8  C   UNL A   1      33.735  21.625  26.292  1.00  0.00     0.027 C 
ATOM      9  C   UNL A   1      31.973  22.762  25.346  1.00  0.00    -0.027 C 
ATOM     10  C   UNL A   1      33.310  22.766  27.228  1.00  0.00     0.017 C 
ATOM     11  C   UNL A   1      32.442  21.514  25.509  1.00  0.00    -0.027 C 
BRANCH   6  12
ATOM     12  C   UNL A   1      34.318  24.592  24.101  1.00  0.00     0.228 C 
ATOM     13  N   UNL A   1      33.835  25.879  24.050  1.00  0.00    -0.326 N 
ATOM     14  H   UNL A   1      33.893  26.263  23.145  1.00  0.00     0.169 HD
ATOM     15  O   UNL A   1      34.768  24.105  23.058  1.00  0.00    -0.274 OA
BRANCH  13  16
ATOM     16  C   UNL A   1      33.273  26.791  24.990  1.00  0.00     0.044 A 
ATOM     17  C   UNL A   1      31.896  27.135  24.892  1.00  0.00    -0.022 A 
ATOM     18  C   UNL A   1      31.321  27.923  25.922  1.00  0.00     0.006 A 
ATOM     19  C   UNL A   1      32.068  28.417  26.985  1.00  0.00     0.000 A 
ATOM     20  C   UNL A   1      34.009  27.402  26.017  1.00  0.00     0.026 A 
ATOM     21  C   UNL A   1      33.424  28.187  27.011  1.00  0.00     0.002 A 
BRANCH  17  22
ATOM     22  C   UNL A   1      31.030  26.773  23.670  1.00  0.00     0.018 C 
ATOM     23  C   UNL A   1      30.532  28.077  23.026  1.00  0.00     0.013 C 
BRANCH  22  24
ATOM     24  C   UNL A   1      29.838  25.831  23.987  1.00  0.00     0.005 C 
ATOM     25  C   UNL A   1      28.471  26.498  23.935  1.00  0.00     0.004 C 
ENDBRANCH  22  24
ENDBRANCH  17  22
ENDBRANCH  13  16
ENDBRANCH   6  12
ENDBRANCH   3   5
ENDBRANCH   2   3
ENDBRANCH   1   2
BRANCH   1  26
ATOM     26  C   UNL A   1      38.990  19.895  25.340  1.00  0.00     0.275 C 
BRANCH  26  27
ATOM     27  O   UNL A   1      39.805  19.648  26.504  1.00  0.00    -0.458 OA
BRANCH  27  28
ATOM     28  C   UNL A   1      41.137  19.624  26.267  1.00  0.00     0.338 C 
ATOM     29  O   UNL A   1      41.768  18.738  25.715  1.00  0.00    -0.246 OA
BRANCH  28  30
ATOM     30  C   UNL A   1      41.758  20.901  26.656  1.00  0.00     0.060 A 
ATOM     31  C   UNL A   1      41.791  21.217  28.016  1.00  0.00     0.016 A 
ATOM     32  C   UNL A   1      42.171  21.838  25.708  1.00  0.00     0.016 A 
ATOM     33  C   UNL A   1      42.191  22.473  28.444  1.00  0.00     0.010 A 
ATOM     34  C   UNL A   1      42.584  23.105  26.139  1.00  0.00     0.010 A 
ATOM     35  C   UNL A   1      42.568  23.436  27.508  1.00  0.00    -0.014 A 
BRANCH  35  36
ATOM     36  C   UNL A   1      42.839  24.812  27.976  1.00  0.00     0.031 A 
ATOM     37  C   UNL A   1      44.258  25.250  28.192  1.00  0.00     0.074 A 
ATOM     38  C   UNL A   1      41.828  25.685  28.123  1.00  0.00     0.049 A 
ATOM     39  N   UNL A   1      44.712  26.390  28.646  1.00  0.00    -0.248 NA
ATOM     40  C   UNL A   1      45.308  24.277  27.845  1.00  0.00     0.031 C 
ATOM     41  C   UNL A   1      40.419  25.404  27.845  1.00  0.00     0.029 A 
ATOM     42  N   UNL A   1      41.837  26.995  28.527  1.00  0.00    -0.354 N 
ATOM     43  C   UNL A   1      46.095  26.263  28.664  1.00  0.00     0.074 A 
ATOM     44  C   UNL A   1      46.407  24.933  28.188  1.00  0.00     0.031 C 
ATOM     45  C   UNL A   1      39.698  26.514  28.075  1.00  0.00     0.029 A 
ATOM     46  C   UNL A   1      40.588  27.564  28.563  1.00  0.00     0.049 A 
ATOM     47  H   UNL A   1      42.659  27.481  28.767  1.00  0.00     0.167 HD
ATOM     48  C   UNL A   1      47.021  27.175  29.043  1.00  0.00     0.031 A 
ATOM     49  C   UNL A   1      40.205  28.789  28.968  1.00  0.00     0.031 A 
ATOM     50  C   UNL A   1      46.708  28.499  29.508  1.00  0.00     0.049 A 
ATOM     51  C   UNL A   1      41.244  29.751  29.469  1.00  0.00     0.074 A 
ATOM     52  C   UNL A   1      47.571  29.493  29.936  1.00  0.00     0.029 A 
ATOM     53  N   UNL A   1      45.424  29.016  29.599  1.00  0.00    -0.354 N 
ATOM     54  N   UNL A   1      42.546  29.606  29.528  1.00  0.00    -0.248 NA
ATOM     55  C   UNL A   1      40.758  31.046  29.966  1.00  0.00     0.031 C 
ATOM     56  C   UNL A   1      46.804  30.598  30.324  1.00  0.00     0.029 A 
ATOM     57  C   UNL A   1      45.469  30.308  30.094  1.00  0.00     0.049 A 
ATOM     58  H   UNL A   1      44.603  28.534  29.349  1.00  0.00     0.167 HD
ATOM     59  C   UNL A   1      43.037  30.796  30.047  1.00  0.00     0.074 A 
ATOM     60  C   UNL A   1      41.894  31.657  30.274  1.00  0.00     0.031 C 
ATOM     61  C   UNL A   1      44.319  31.145  30.312  1.00  0.00     0.031 A 
BRANCH  48  62
ATOM     62  C   UNL A   1      48.459  26.742  29.017  1.00  0.00    -0.014 A 
ATOM     63  C   UNL A   1      49.274  26.971  27.898  1.00  0.00     0.009 A 
ATOM     64  C   UNL A   1      49.008  26.098  30.138  1.00  0.00     0.009 A 
ATOM     65  C   UNL A   1      50.600  26.533  27.889  1.00  0.00     0.001 A 
ATOM     66  C   UNL A   1      50.340  25.683  30.136  1.00  0.00     0.001 A 
ATOM     67  C   UNL A   1      51.133  25.891  29.008  1.00  0.00     0.000 A 
ENDBRANCH  48  62
BRANCH  49  68
ATOM     68  C   UNL A   1      38.767  29.161  28.949  1.00  0.00    -0.014 A 
ATOM     69  C   UNL A   1      38.183  29.693  27.789  1.00  0.00     0.009 A 
ATOM     70  C   UNL A   1      37.975  28.995  30.095  1.00  0.00     0.009 A 
ATOM     71  C   UNL A   1      36.836  30.067  27.787  1.00  0.00     0.001 A 
ATOM     72  C   UNL A   1      36.624  29.344  30.081  1.00  0.00     0.001 A 
ATOM     73  C   UNL A   1      36.058  29.889  28.929  1.00  0.00     0.000 A 
ENDBRANCH  49  68
BRANCH  61  74
ATOM     74  C   UNL A   1      44.550  32.530  30.843  1.00  0.00    -0.014 A 
ATOM     75  C   UNL A   1      44.743  33.617  29.978  1.00  0.00     0.009 A 
ATOM     76  C   UNL A   1      44.545  32.751  32.230  1.00  0.00     0.009 A 
ATOM     77  C   UNL A   1      44.959  34.896  30.495  1.00  0.00     0.001 A 
ATOM     78  C   UNL A   1      44.737  34.033  32.741  1.00  0.00     0.001 A 
ATOM     79  C   UNL A   1      44.952  35.104  31.873  1.00  0.00     0.000 A 
ENDBRANCH  61  74
ENDBRANCH  35  36
ENDBRANCH  28  30
ENDBRANCH  27  28
ENDBRANCH  26  27
ENDBRANCH   1  26
TORSDOF 15
ENDMDL
MODEL 2
REMARK VINA RESULT:     -10.7      3.517      8.477
REMARK SMILES CC[C@@H](C)c1ccccc1NC(=O)[C@@H]1[C@@H](C(=O)OCCOC(=O)c2ccc(-c3c4nc(c(-c5ccccc5)c5ccc([nH]5)c(-c5ccccc5)c5nc(c(-c6ccccc6)c6ccc3[nH]6)C=C5)C=C4)cc2)[C@@H]2C=C[C@H]1C2
REMARK SMILES IDX 19 1 18 2 16 3 17 4 15 5 14 6 75 7 72 8 74 9 76 10 73 11
REMARK SMILES IDX 12 12 11 13 13 15 10 16 5 17 6 18 7 19 9 20 8 21 3 22 4 23
REMARK SMILES IDX 2 24 1 25 20 26 21 27 22 28 23 29 24 30 25 31 71 32 26 33
REMARK SMILES IDX 70 34 27 35 28 36 29 37 64 38 30 39 69 40 63 41 65 42 31 43
REMARK SMILES IDX 68 44 62 45 61 46 32 48 54 49 39 50 53 51 40 52 43 53 52 54
REMARK SMILES IDX 66 55 41 56 42 57 51 59 67 60 44 61 33 62 34 63 38 64 35 65
REMARK SMILES IDX 37 66 36 67 55 68 56 69 60 70 57 71 59 72 58 73 45 74 46 75
REMARK SMILES IDX 50 76 47 77 49 78 48 79
REMARK H PARENT 11 14 65 47 43 58
REMARK Flexibility Score: inf
ROOT
ATOM      1  C   UNL A   1      32.826  30.399  27.152  1.00  0.00     0.274 C 
ENDROOT
BRANCH   1   2
ATOM      2  O   UNL A   1      31.859  29.358  26.896  1.00  0.00    -0.462 OA
BRANCH   2   3
ATOM      3  C   UNL A   1      32.401  28.169  26.544  1.00  0.00     0.310 C 
ATOM      4  O   UNL A   1      33.561  27.845  26.787  1.00  0.00    -0.252 OA
BRANCH   3   5
ATOM      5  C   UNL A   1      31.464  27.239  25.805  1.00  0.00     0.119 C 
ATOM      6  C   UNL A   1      32.302  25.974  25.461  1.00  0.00     0.100 C 
ATOM      7  C   UNL A   1      31.884  25.662  24.014  1.00  0.00     0.025 C 
ATOM      8  C   UNL A   1      30.948  27.665  24.409  1.00  0.00     0.027 C 
ATOM      9  C   UNL A   1      30.383  25.494  23.901  1.00  0.00    -0.027 C 
ATOM     10  C   UNL A   1      31.992  27.085  23.443  1.00  0.00     0.017 C 
ATOM     11  C   UNL A   1      29.824  26.700  24.095  1.00  0.00    -0.027 C 
BRANCH   6  12
ATOM     12  C   UNL A   1      32.272  24.815  26.426  1.00  0.00     0.228 C 
ATOM     13  N   UNL A   1      33.183  23.787  26.341  1.00  0.00    -0.326 N 
ATOM     14  H   UNL A   1      33.014  23.084  27.009  1.00  0.00     0.169 HD
ATOM     15  O   UNL A   1      31.406  24.745  27.304  1.00  0.00    -0.274 OA
BRANCH  13  16
ATOM     16  C   UNL A   1      34.313  23.496  25.523  1.00  0.00     0.044 A 
ATOM     17  C   UNL A   1      34.141  22.715  24.346  1.00  0.00    -0.022 A 
ATOM     18  C   UNL A   1      35.245  22.564  23.468  1.00  0.00     0.006 A 
ATOM     19  C   UNL A   1      36.497  23.099  23.749  1.00  0.00     0.000 A 
ATOM     20  C   UNL A   1      35.618  23.921  25.818  1.00  0.00     0.026 A 
ATOM     21  C   UNL A   1      36.693  23.746  24.946  1.00  0.00     0.002 A 
BRANCH  17  22
ATOM     22  C   UNL A   1      32.841  21.949  24.036  1.00  0.00     0.018 C 
ATOM     23  C   UNL A   1      33.076  20.459  24.327  1.00  0.00     0.013 C 
BRANCH  22  24
ATOM     24  C   UNL A   1      32.312  22.146  22.590  1.00  0.00     0.005 C 
ATOM     25  C   UNL A   1      31.904  20.861  21.883  1.00  0.00     0.004 C 
ENDBRANCH  22  24
ENDBRANCH  17  22
ENDBRANCH  13  16
ENDBRANCH   6  12
ENDBRANCH   3   5
ENDBRANCH   2   3
ENDBRANCH   1   2
BRANCH   1  26
ATOM     26  C   UNL A   1      32.183  31.784  27.294  1.00  0.00     0.275 C 
BRANCH  26  27
ATOM     27  O   UNL A   1      33.109  32.864  27.056  1.00  0.00    -0.458 OA
BRANCH  27  28
ATOM     28  C   UNL A   1      33.269  33.712  28.099  1.00  0.00     0.338 C 
ATOM     29  O   UNL A   1      32.469  34.541  28.500  1.00  0.00    -0.246 OA
BRANCH  28  30
ATOM     30  C   UNL A   1      34.526  33.429  28.812  1.00  0.00     0.060 A 
ATOM     31  C   UNL A   1      35.721  33.763  28.173  1.00  0.00     0.016 A 
ATOM     32  C   UNL A   1      34.547  32.725  30.016  1.00  0.00     0.016 A 
ATOM     33  C   UNL A   1      36.942  33.366  28.695  1.00  0.00     0.010 A 
ATOM     34  C   UNL A   1      35.780  32.329  30.551  1.00  0.00     0.010 A 
ATOM     35  C   UNL A   1      36.980  32.624  29.876  1.00  0.00    -0.014 A 
BRANCH  35  36
ATOM     36  C   UNL A   1      38.278  32.079  30.329  1.00  0.00     0.031 A 
ATOM     37  C   UNL A   1      38.774  30.785  29.754  1.00  0.00     0.074 A 
ATOM     38  C   UNL A   1      39.042  32.781  31.183  1.00  0.00     0.049 A 
ATOM     39  N   UNL A   1      39.855  30.108  30.049  1.00  0.00    -0.248 NA
ATOM     40  C   UNL A   1      37.946  30.172  28.701  1.00  0.00     0.031 C 
ATOM     41  C   UNL A   1      38.711  34.097  31.731  1.00  0.00     0.029 A 
ATOM     42  N   UNL A   1      40.267  32.489  31.726  1.00  0.00    -0.354 N 
ATOM     43  C   UNL A   1      39.823  28.980  29.240  1.00  0.00     0.074 A 
ATOM     44  C   UNL A   1      38.613  29.055  28.450  1.00  0.00     0.031 C 
ATOM     45  C   UNL A   1      39.716  34.506  32.523  1.00  0.00     0.029 A 
ATOM     46  C   UNL A   1      40.733  33.460  32.577  1.00  0.00     0.049 A 
ATOM     47  H   UNL A   1      40.764  31.663  31.524  1.00  0.00     0.167 HD
ATOM     48  C   UNL A   1      40.725  27.972  29.161  1.00  0.00     0.031 A 
ATOM     49  C   UNL A   1      41.846  33.488  33.333  1.00  0.00     0.031 A 
ATOM     50  C   UNL A   1      41.930  27.905  29.942  1.00  0.00     0.049 A 
ATOM     51  C   UNL A   1      42.785  32.316  33.295  1.00  0.00     0.074 A 
ATOM     52  C   UNL A   1      42.901  26.918  29.953  1.00  0.00     0.029 A 
ATOM     53  N   UNL A   1      42.334  28.875  30.848  1.00  0.00    -0.354 N 
ATOM     54  N   UNL A   1      42.725  31.230  32.562  1.00  0.00    -0.248 NA
ATOM     55  C   UNL A   1      43.945  32.371  34.196  1.00  0.00     0.031 C 
ATOM     56  C   UNL A   1      43.871  27.273  30.898  1.00  0.00     0.029 A 
ATOM     57  C   UNL A   1      43.529  28.501  31.438  1.00  0.00     0.049 A 
ATOM     58  H   UNL A   1      41.843  29.706  31.042  1.00  0.00     0.167 HD
ATOM     59  C   UNL A   1      43.846  30.484  32.896  1.00  0.00     0.074 A 
ATOM     60  C   UNL A   1      44.577  31.247  33.888  1.00  0.00     0.031 C 
ATOM     61  C   UNL A   1      44.237  29.276  32.424  1.00  0.00     0.031 A 
BRANCH  48  62
ATOM     62  C   UNL A   1      40.404  26.837  28.232  1.00  0.00    -0.014 A 
ATOM     63  C   UNL A   1      39.587  25.769  28.633  1.00  0.00     0.009 A 
ATOM     64  C   UNL A   1      40.927  26.842  26.929  1.00  0.00     0.009 A 
ATOM     65  C   UNL A   1      39.327  24.712  27.758  1.00  0.00     0.001 A 
ATOM     66  C   UNL A   1      40.647  25.796  26.049  1.00  0.00     0.001 A 
ATOM     67  C   UNL A   1      39.856  24.727  26.467  1.00  0.00     0.000 A 
ENDBRANCH  48  62
BRANCH  49  68
ATOM     68  C   UNL A   1      42.115  34.652  34.215  1.00  0.00    -0.014 A 
ATOM     69  C   UNL A   1      41.672  34.657  35.546  1.00  0.00     0.009 A 
ATOM     70  C   UNL A   1      42.808  35.769  33.725  1.00  0.00     0.009 A 
ATOM     71  C   UNL A   1      41.904  35.767  36.363  1.00  0.00     0.001 A 
ATOM     72  C   UNL A   1      43.062  36.865  34.551  1.00  0.00     0.001 A 
ATOM     73  C   UNL A   1      42.601  36.867  35.866  1.00  0.00     0.000 A 
ENDBRANCH  49  68
BRANCH  61  74
ATOM     74  C   UNL A   1      45.530  28.726  32.951  1.00  0.00    -0.014 A 
ATOM     75  C   UNL A   1      45.559  27.891  34.078  1.00  0.00     0.009 A 
ATOM     76  C   UNL A   1      46.733  29.027  32.293  1.00  0.00     0.009 A 
ATOM     77  C   UNL A   1      46.773  27.392  34.553  1.00  0.00     0.001 A 
ATOM     78  C   UNL A   1      47.941  28.508  32.756  1.00  0.00     0.001 A 
ATOM     79  C   UNL A   1      47.961  27.697  33.891  1.00  0.00     0.000 A 
ENDBRANCH  61  74
ENDBRANCH  35  36
ENDBRANCH  28  30
ENDBRANCH  27  28
ENDBRANCH  26  27
ENDBRANCH   1  26
TORSDOF 15
ENDMDL
MODEL 3
REMARK VINA RESULT:     -10.7      3.383      8.512
REMARK SMILES CC[C@@H](C)c1ccccc1NC(=O)[C@@H]1[C@@H](C(=O)OCCOC(=O)c2ccc(-c3c4nc(c(-c5ccccc5)c5ccc([nH]5)c(-c5ccccc5)c5nc(c(-c6ccccc6)c6ccc3[nH]6)C=C5)C=C4)cc2)[C@@H]2C=C[C@H]1C2
REMARK SMILES IDX 19 1 18 2 16 3 17 4 15 5 14 6 75 7 72 8 74 9 76 10 73 11
REMARK SMILES IDX 12 12 11 13 13 15 10 16 5 17 6 18 7 19 9 20 8 21 3 22 4 23
REMARK SMILES IDX 2 24 1 25 20 26 21 27 22 28 23 29 24 30 25 31 71 32 26 33
REMARK SMILES IDX 70 34 27 35 28 36 29 37 64 38 30 39 69 40 63 41 65 42 31 43
REMARK SMILES IDX 68 44 62 45 61 46 32 48 54 49 39 50 53 51 40 52 43 53 52 54
REMARK SMILES IDX 66 55 41 56 42 57 51 59 67 60 44 61 33 62 34 63 38 64 35 65
REMARK SMILES IDX 37 66 36 67 55 68 56 69 60 70 57 71 59 72 58 73 45 74 46 75
REMARK SMILES IDX 50 76 47 77 49 78 48 79
REMARK H PARENT 11 14 65 47 43 58
REMARK Flexibility Score: inf
ROOT
ATOM      1  C   UNL A   1      32.785  30.375  26.979  1.00  0.00     0.274 C 
ENDROOT
BRANCH   1   2
ATOM      2  O   UNL A   1      31.841  29.299  26.795  1.00  0.00    -0.462 OA
BRANCH   2   3
ATOM      3  C   UNL A   1      32.400  28.124  26.426  1.00  0.00     0.310 C 
ATOM      4  O   UNL A   1      33.578  27.834  26.621  1.00  0.00    -0.252 OA
BRANCH   3   5
ATOM      5  C   UNL A   1      31.459  27.163  25.733  1.00  0.00     0.119 C 
ATOM      6  C   UNL A   1      32.304  25.899  25.406  1.00  0.00     0.100 C 
ATOM      7  C   UNL A   1      31.860  25.542  23.977  1.00  0.00     0.025 C 
ATOM      8  C   UNL A   1      30.909  27.545  24.337  1.00  0.00     0.027 C 
ATOM      9  C   UNL A   1      30.359  25.354  23.901  1.00  0.00    -0.027 C 
ATOM     10  C   UNL A   1      31.939  26.950  23.365  1.00  0.00     0.017 C 
ATOM     11  C   UNL A   1      29.790  26.558  24.074  1.00  0.00    -0.027 C 
BRANCH   6  12
ATOM     12  C   UNL A   1      32.309  24.766  26.402  1.00  0.00     0.228 C 
ATOM     13  N   UNL A   1      33.269  23.781  26.365  1.00  0.00    -0.326 N 
ATOM     14  H   UNL A   1      33.119  23.089  27.049  1.00  0.00     0.169 HD
ATOM     15  O   UNL A   1      31.429  24.679  27.265  1.00  0.00    -0.274 OA
BRANCH  13  16
ATOM     16  C   UNL A   1      34.428  23.522  25.577  1.00  0.00     0.044 A 
ATOM     17  C   UNL A   1      34.301  22.777  24.372  1.00  0.00    -0.022 A 
ATOM     18  C   UNL A   1      35.436  22.659  23.528  1.00  0.00     0.006 A 
ATOM     19  C   UNL A   1      36.674  23.192  23.868  1.00  0.00     0.000 A 
ATOM     20  C   UNL A   1      35.719  23.944  25.930  1.00  0.00     0.026 A 
ATOM     21  C   UNL A   1      36.824  23.803  25.091  1.00  0.00     0.002 A 
BRANCH  17  22
ATOM     22  C   UNL A   1      33.018  22.014  23.993  1.00  0.00     0.018 C 
ATOM     23  C   UNL A   1      33.209  20.533  24.360  1.00  0.00     0.013 C 
BRANCH  22  24
ATOM     24  C   UNL A   1      32.603  22.158  22.505  1.00  0.00     0.005 C 
ATOM     25  C   UNL A   1      31.854  20.961  21.936  1.00  0.00     0.004 C 
ENDBRANCH  22  24
ENDBRANCH  17  22
ENDBRANCH  13  16
ENDBRANCH   6  12
ENDBRANCH   3   5
ENDBRANCH   2   3
ENDBRANCH   1   2
BRANCH   1  26
ATOM     26  C   UNL A   1      32.106  31.713  27.298  1.00  0.00     0.275 C 
BRANCH  26  27
ATOM     27  O   UNL A   1      32.925  32.855  26.973  1.00  0.00    -0.458 OA
BRANCH  27  28
ATOM     28  C   UNL A   1      33.162  33.694  28.008  1.00  0.00     0.338 C 
ATOM     29  O   UNL A   1      32.422  34.567  28.428  1.00  0.00    -0.246 OA
BRANCH  28  30
ATOM     30  C   UNL A   1      34.421  33.341  28.687  1.00  0.00     0.060 A 
ATOM     31  C   UNL A   1      35.615  33.602  28.011  1.00  0.00     0.016 A 
ATOM     32  C   UNL A   1      34.436  32.642  29.893  1.00  0.00     0.016 A 
ATOM     33  C   UNL A   1      36.825  33.135  28.501  1.00  0.00     0.010 A 
ATOM     34  C   UNL A   1      35.658  32.177  30.395  1.00  0.00     0.010 A 
ATOM     35  C   UNL A   1      36.853  32.398  29.685  1.00  0.00    -0.014 A 
BRANCH  35  36
ATOM     36  C   UNL A   1      38.130  31.779  30.104  1.00  0.00     0.031 A 
ATOM     37  C   UNL A   1      38.953  32.440  31.171  1.00  0.00     0.074 A 
ATOM     38  C   UNL A   1      38.503  30.594  29.593  1.00  0.00     0.049 A 
ATOM     39  N   UNL A   1      40.122  32.094  31.647  1.00  0.00    -0.248 NA
ATOM     40  C   UNL A   1      38.381  33.648  31.790  1.00  0.00     0.031 C 
ATOM     41  C   UNL A   1      37.736  29.809  28.625  1.00  0.00     0.029 A 
ATOM     42  N   UNL A   1      39.619  29.834  29.834  1.00  0.00    -0.354 N 
ATOM     43  C   UNL A   1      40.437  33.054  32.600  1.00  0.00     0.074 A 
ATOM     44  C   UNL A   1      39.345  34.002  32.628  1.00  0.00     0.031 C 
ATOM     45  C   UNL A   1      38.399  28.670  28.363  1.00  0.00     0.029 A 
ATOM     46  C   UNL A   1      39.656  28.671  29.105  1.00  0.00     0.049 A 
ATOM     47  H   UNL A   1      40.325  30.097  30.468  1.00  0.00     0.167 HD
ATOM     48  C   UNL A   1      41.539  33.136  33.383  1.00  0.00     0.031 A 
ATOM     49  C   UNL A   1      40.611  27.727  29.029  1.00  0.00     0.031 A 
ATOM     50  C   UNL A   1      42.619  32.187  33.358  1.00  0.00     0.049 A 
ATOM     51  C   UNL A   1      41.864  27.887  29.841  1.00  0.00     0.074 A 
ATOM     52  C   UNL A   1      43.790  32.189  34.095  1.00  0.00     0.029 A 
ATOM     53  N   UNL A   1      42.654  31.058  32.553  1.00  0.00    -0.354 N 
ATOM     54  N   UNL A   1      42.177  28.823  30.705  1.00  0.00    -0.248 NA
ATOM     55  C   UNL A   1      42.902  26.862  29.661  1.00  0.00     0.031 C 
ATOM     56  C   UNL A   1      44.552  31.081  33.706  1.00  0.00     0.029 A 
ATOM     57  C   UNL A   1      43.834  30.366  32.761  1.00  0.00     0.049 A 
ATOM     58  H   UNL A   1      41.944  30.789  31.926  1.00  0.00     0.167 HD
ATOM     59  C   UNL A   1      43.434  28.490  31.188  1.00  0.00     0.074 A 
ATOM     60  C   UNL A   1      43.822  27.258  30.531  1.00  0.00     0.031 C 
ATOM     61  C   UNL A   1      44.199  29.143  32.095  1.00  0.00     0.031 A 
BRANCH  48  62
ATOM     62  C   UNL A   1      41.646  34.326  34.292  1.00  0.00    -0.014 A 
ATOM     63  C   UNL A   1      41.208  34.273  35.624  1.00  0.00     0.009 A 
ATOM     64  C   UNL A   1      42.203  35.520  33.806  1.00  0.00     0.009 A 
ATOM     65  C   UNL A   1      41.293  35.403  36.440  1.00  0.00     0.001 A 
ATOM     66  C   UNL A   1      42.309  36.641  34.630  1.00  0.00     0.001 A 
ATOM     67  C   UNL A   1      41.845  36.585  35.944  1.00  0.00     0.000 A 
ENDBRANCH  48  62
BRANCH  49  68
ATOM     68  C   UNL A   1      40.433  26.562  28.124  1.00  0.00    -0.014 A 
ATOM     69  C   UNL A   1      39.710  25.436  28.544  1.00  0.00     0.009 A 
ATOM     70  C   UNL A   1      40.995  26.569  26.839  1.00  0.00     0.009 A 
ATOM     71  C   UNL A   1      39.569  24.332  27.698  1.00  0.00     0.001 A 
ATOM     72  C   UNL A   1      40.830  25.476  25.986  1.00  0.00     0.001 A 
ATOM     73  C   UNL A   1      40.126  24.355  26.420  1.00  0.00     0.000 A 
ENDBRANCH  49  68
BRANCH  61  74
ATOM     74  C   UNL A   1      45.516  28.517  32.451  1.00  0.00    -0.014 A 
ATOM     75  C   UNL A   1      46.690  28.852  31.761  1.00  0.00     0.009 A 
ATOM     76  C   UNL A   1      45.584  27.599  33.512  1.00  0.00     0.009 A 
ATOM     77  C   UNL A   1      47.904  28.255  32.107  1.00  0.00     0.001 A 
ATOM     78  C   UNL A   1      46.802  27.024  33.871  1.00  0.00     0.001 A 
ATOM     79  C   UNL A   1      47.960  27.345  33.163  1.00  0.00     0.000 A 
ENDBRANCH  61  74
ENDBRANCH  35  36
ENDBRANCH  28  30
ENDBRANCH  27  28
ENDBRANCH  26  27
ENDBRANCH   1  26
TORSDOF 15
ENDMDL
