MODEL 1
REMARK VINA RESULT:     -10.7      0.000      0.000
REMARK SMILES CCCCCCNC(=O)Oc1cccc(-c2ccc([C@@H](C)C(=O)OCCOC(=O)c3ccc(-c4c5nc(c(-c6ccccc6)c6ccc([nH]6)c(-c6ccccc6)c6nc(c(-c7ccccc7)c7ccc4[nH]7)C=C6)C=C5)cc3)cc2C)c1
REMARK SMILES IDX 20 1 21 2 19 3 16 4 17 5 79 6 18 7 78 8 80 9 15 10 11 11
REMARK SMILES IDX 12 12 81 13 13 14 14 15 10 16 8 17 7 18 9 20 6 21 5 22 4 23
REMARK SMILES IDX 3 24 2 25 1 26 22 27 23 28 24 29 25 30 26 31 27 32 28 33
REMARK SMILES IDX 29 34 30 35 31 36 77 37 32 38 76 39 33 40 34 41 35 42 70 43
REMARK SMILES IDX 36 44 75 45 69 46 71 47 37 48 74 49 68 50 67 51 38 53 60 54
REMARK SMILES IDX 45 55 59 56 46 57 49 58 58 59 72 60 47 61 48 62 57 64 73 65
REMARK SMILES IDX 50 66 39 67 40 68 44 69 41 70 43 71 42 72 61 73 62 74 66 75
REMARK SMILES IDX 63 76 65 77 64 78 51 79 52 80 56 81 53 82 55 83 54 84
REMARK H PARENT 7 19 71 52 49 63
REMARK Flexibility Score: inf
ROOT
ATOM      1  C   UNL A   1      35.481  32.690  29.129  1.00  0.00     0.126 C 
ATOM      2  C   UNL A   1      36.399  33.631  28.353  1.00  0.00     0.025 C 
ENDROOT
BRANCH   1   3
ATOM      3  C   UNL A   1      35.003  31.515  28.290  1.00  0.00    -0.034 A 
ATOM      4  C   UNL A   1      34.039  29.332  26.733  1.00  0.00    -0.015 A 
ATOM      5  C   UNL A   1      35.319  29.315  27.317  1.00  0.00     0.009 A 
ATOM      6  C   UNL A   1      33.229  30.468  26.942  1.00  0.00    -0.043 A 
ATOM      7  C   UNL A   1      35.790  30.379  28.090  1.00  0.00     0.005 A 
ATOM      8  C   UNL A   1      33.730  31.547  27.700  1.00  0.00     0.008 A 
ATOM      9  C   UNL A   1      31.846  30.610  26.362  1.00  0.00     0.045 C 
BRANCH   4  10
ATOM     10  C   UNL A   1      33.593  28.145  25.977  1.00  0.00    -0.014 A 
ATOM     11  C   UNL A   1      32.517  25.977  25.840  1.00  0.00     0.133 A 
ATOM     12  C   UNL A   1      32.820  25.880  24.483  1.00  0.00     0.047 A 
ATOM     13  C   UNL A   1      32.892  27.093  26.590  1.00  0.00     0.056 A 
ATOM     14  C   UNL A   1      33.495  26.923  23.859  1.00  0.00     0.004 A 
ATOM     15  C   UNL A   1      33.882  28.042  24.602  1.00  0.00     0.009 A 
BRANCH  11  16
ATOM     16  O   UNL A   1      31.945  24.839  26.433  1.00  0.00    -0.410 OA
BRANCH  16  17
ATOM     17  C   UNL A   1      30.582  24.624  26.303  1.00  0.00     0.412 C 
ATOM     18  N   UNL A   1      30.279  23.354  25.891  1.00  0.00    -0.321 N 
ATOM     19  H   UNL A   1      29.324  23.137  25.801  1.00  0.00     0.167 HD
ATOM     20  O   UNL A   1      29.698  25.446  26.504  1.00  0.00    -0.224 OA
BRANCH  18  21
ATOM     21  C   UNL A   1      31.216  22.294  25.572  1.00  0.00     0.119 C 
BRANCH  21  22
ATOM     22  C   UNL A   1      31.561  22.255  24.084  1.00  0.00     0.021 C 
BRANCH  22  23
ATOM     23  C   UNL A   1      32.851  21.499  23.738  1.00  0.00     0.002 C 
BRANCH  23  24
ATOM     24  C   UNL A   1      32.753  19.969  23.778  1.00  0.00    -0.000 C 
BRANCH  24  25
ATOM     25  C   UNL A   1      33.643  19.278  24.814  1.00  0.00    -0.003 C 
ATOM     26  C   UNL A   1      34.390  18.074  24.260  1.00  0.00     0.004 C 
ENDBRANCH  24  25
ENDBRANCH  23  24
ENDBRANCH  22  23
ENDBRANCH  21  22
ENDBRANCH  18  21
ENDBRANCH  16  17
ENDBRANCH  11  16
ENDBRANCH   4  10
ENDBRANCH   1   3
BRANCH   1  27
ATOM     27  C   UNL A   1      34.395  33.490  29.839  1.00  0.00     0.313 C 
ATOM     28  O   UNL A   1      33.839  34.446  29.306  1.00  0.00    -0.252 OA
BRANCH  27  29
ATOM     29  O   UNL A   1      34.086  33.018  31.074  1.00  0.00    -0.462 OA
BRANCH  29  30
ATOM     30  C   UNL A   1      34.291  33.909  32.186  1.00  0.00     0.274 C 
BRANCH  30  31
ATOM     31  C   UNL A   1      34.907  33.169  33.376  1.00  0.00     0.275 C 
BRANCH  31  32
ATOM     32  O   UNL A   1      35.786  32.123  32.928  1.00  0.00    -0.458 OA
BRANCH  32  33
ATOM     33  C   UNL A   1      36.911  31.959  33.662  1.00  0.00     0.338 C 
ATOM     34  O   UNL A   1      37.027  31.988  34.872  1.00  0.00    -0.246 OA
BRANCH  33  35
ATOM     35  C   UNL A   1      38.023  31.631  32.762  1.00  0.00     0.060 A 
ATOM     36  C   UNL A   1      37.920  31.998  31.419  1.00  0.00     0.016 A 
ATOM     37  C   UNL A   1      39.117  30.897  33.220  1.00  0.00     0.016 A 
ATOM     38  C   UNL A   1      38.910  31.625  30.517  1.00  0.00     0.010 A 
ATOM     39  C   UNL A   1      40.118  30.534  32.317  1.00  0.00     0.010 A 
ATOM     40  C   UNL A   1      40.015  30.886  30.958  1.00  0.00    -0.014 A 
BRANCH  40  41
ATOM     41  C   UNL A   1      41.045  30.449  29.989  1.00  0.00     0.031 A 
ATOM     42  C   UNL A   1      40.911  29.124  29.301  1.00  0.00     0.074 A 
ATOM     43  C   UNL A   1      42.090  31.252  29.719  1.00  0.00     0.049 A 
ATOM     44  N   UNL A   1      41.743  28.533  28.479  1.00  0.00    -0.248 NA
ATOM     45  C   UNL A   1      39.683  28.363  29.570  1.00  0.00     0.031 C 
ATOM     46  C   UNL A   1      42.301  32.586  30.282  1.00  0.00     0.029 A 
ATOM     47  N   UNL A   1      43.172  31.057  28.899  1.00  0.00    -0.354 N 
ATOM     48  C   UNL A   1      41.150  27.320  28.154  1.00  0.00     0.074 A 
ATOM     49  C   UNL A   1      39.895  27.255  28.875  1.00  0.00     0.031 C 
ATOM     50  C   UNL A   1      43.437  33.096  29.778  1.00  0.00     0.029 A 
ATOM     51  C   UNL A   1      44.055  32.107  28.903  1.00  0.00     0.049 A 
ATOM     52  H   UNL A   1      43.301  30.244  28.359  1.00  0.00     0.167 HD
ATOM     53  C   UNL A   1      41.612  26.347  27.333  1.00  0.00     0.031 A 
ATOM     54  C   UNL A   1      45.247  32.243  28.292  1.00  0.00     0.031 A 
ATOM     55  C   UNL A   1      42.859  26.413  26.619  1.00  0.00     0.049 A 
ATOM     56  C   UNL A   1      45.777  31.115  27.455  1.00  0.00     0.074 A 
ATOM     57  C   UNL A   1      43.405  25.490  25.744  1.00  0.00     0.029 A 
ATOM     58  N   UNL A   1      43.761  27.463  26.705  1.00  0.00    -0.354 N 
ATOM     59  N   UNL A   1      45.212  29.971  27.158  1.00  0.00    -0.248 NA
ATOM     60  C   UNL A   1      47.118  31.295  26.879  1.00  0.00     0.031 C 
ATOM     61  C   UNL A   1      44.659  25.959  25.339  1.00  0.00     0.029 A 
ATOM     62  C   UNL A   1      44.874  27.196  25.926  1.00  0.00     0.049 A 
ATOM     63  H   UNL A   1      43.629  28.279  27.240  1.00  0.00     0.167 HD
ATOM     64  C   UNL A   1      46.120  29.296  26.353  1.00  0.00     0.074 A 
ATOM     65  C   UNL A   1      47.268  30.168  26.196  1.00  0.00     0.031 C 
ATOM     66  C   UNL A   1      46.014  28.066  25.796  1.00  0.00     0.031 A 
BRANCH  53  67
ATOM     67  C   UNL A   1      40.778  25.104  27.208  1.00  0.00    -0.014 A 
ATOM     68  C   UNL A   1      41.181  23.891  27.787  1.00  0.00     0.009 A 
ATOM     69  C   UNL A   1      39.565  25.154  26.503  1.00  0.00     0.009 A 
ATOM     70  C   UNL A   1      40.401  22.743  27.631  1.00  0.00     0.001 A 
ATOM     71  C   UNL A   1      38.778  24.010  26.368  1.00  0.00     0.001 A 
ATOM     72  C   UNL A   1      39.201  22.803  26.923  1.00  0.00     0.000 A 
ENDBRANCH  53  67
BRANCH  54  73
ATOM     73  C   UNL A   1      46.032  33.489  28.476  1.00  0.00    -0.014 A 
ATOM     74  C   UNL A   1      45.789  34.608  27.666  1.00  0.00     0.009 A 
ATOM     75  C   UNL A   1      47.015  33.572  29.474  1.00  0.00     0.009 A 
ATOM     76  C   UNL A   1      46.524  35.782  27.845  1.00  0.00     0.001 A 
ATOM     77  C   UNL A   1      47.731  34.754  29.667  1.00  0.00     0.001 A 
ATOM     78  C   UNL A   1      47.489  35.856  28.849  1.00  0.00     0.000 A 
ENDBRANCH  54  73
BRANCH  66  79
ATOM     79  C   UNL A   1      47.166  27.599  24.954  1.00  0.00    -0.014 A 
ATOM     80  C   UNL A   1      48.207  26.841  25.513  1.00  0.00     0.009 A 
ATOM     81  C   UNL A   1      47.196  27.895  23.583  1.00  0.00     0.009 A 
ATOM     82  C   UNL A   1      49.271  26.412  24.717  1.00  0.00     0.001 A 
ATOM     83  C   UNL A   1      48.249  27.445  22.786  1.00  0.00     0.001 A 
ATOM     84  C   UNL A   1      49.289  26.712  23.354  1.00  0.00     0.000 A 
ENDBRANCH  66  79
ENDBRANCH  40  41
ENDBRANCH  33  35
ENDBRANCH  32  33
ENDBRANCH  31  32
ENDBRANCH  30  31
ENDBRANCH  29  30
ENDBRANCH  27  29
ENDBRANCH   1  27
TORSDOF 20
ENDMDL
MODEL 2
REMARK VINA RESULT:     -10.6      4.487     10.249
REMARK SMILES CCCCCCNC(=O)Oc1cccc(-c2ccc([C@@H](C)C(=O)OCCOC(=O)c3ccc(-c4c5nc(c(-c6ccccc6)c6ccc([nH]6)c(-c6ccccc6)c6nc(c(-c7ccccc7)c7ccc4[nH]7)C=C6)C=C5)cc3)cc2C)c1
REMARK SMILES IDX 20 1 21 2 19 3 16 4 17 5 79 6 18 7 78 8 80 9 15 10 11 11
REMARK SMILES IDX 12 12 81 13 13 14 14 15 10 16 8 17 7 18 9 20 6 21 5 22 4 23
REMARK SMILES IDX 3 24 2 25 1 26 22 27 23 28 24 29 25 30 26 31 27 32 28 33
REMARK SMILES IDX 29 34 30 35 31 36 77 37 32 38 76 39 33 40 34 41 35 42 70 43
REMARK SMILES IDX 36 44 75 45 69 46 71 47 37 48 74 49 68 50 67 51 38 53 60 54
REMARK SMILES IDX 45 55 59 56 46 57 49 58 58 59 72 60 47 61 48 62 57 64 73 65
REMARK SMILES IDX 50 66 39 67 40 68 44 69 41 70 43 71 42 72 61 73 62 74 66 75
REMARK SMILES IDX 63 76 65 77 64 78 51 79 52 80 56 81 53 82 55 83 54 84
REMARK H PARENT 7 19 71 52 49 63
REMARK Flexibility Score: inf
ROOT
ATOM      1  C   UNL A   1      42.113  19.889  26.777  1.00  0.00     0.126 C 
ATOM      2  C   UNL A   1      41.978  18.908  27.939  1.00  0.00     0.025 C 
ENDROOT
BRANCH   1   3
ATOM      3  C   UNL A   1      40.770  20.420  26.301  1.00  0.00    -0.034 A 
ATOM      4  C   UNL A   1      38.253  21.463  25.464  1.00  0.00    -0.015 A 
ATOM      5  C   UNL A   1      38.633  20.136  25.187  1.00  0.00     0.009 A 
ATOM      6  C   UNL A   1      39.157  22.276  26.180  1.00  0.00    -0.043 A 
ATOM      7  C   UNL A   1      39.861  19.619  25.606  1.00  0.00     0.005 A 
ATOM      8  C   UNL A   1      40.406  21.749  26.571  1.00  0.00     0.008 A 
ATOM      9  C   UNL A   1      38.872  23.713  26.529  1.00  0.00     0.045 C 
BRANCH   4  10
ATOM     10  C   UNL A   1      36.916  21.917  25.037  1.00  0.00    -0.014 A 
ATOM     11  C   UNL A   1      34.510  22.036  25.307  1.00  0.00     0.133 A 
ATOM     12  C   UNL A   1      34.385  22.771  24.130  1.00  0.00     0.047 A 
ATOM     13  C   UNL A   1      35.757  21.609  25.767  1.00  0.00     0.056 A 
ATOM     14  C   UNL A   1      35.526  23.102  23.408  1.00  0.00     0.004 A 
ATOM     15  C   UNL A   1      36.778  22.674  23.856  1.00  0.00     0.009 A 
BRANCH  11  16
ATOM     16  O   UNL A   1      33.311  21.631  25.920  1.00  0.00    -0.410 OA
BRANCH  16  17
ATOM     17  C   UNL A   1      33.009  22.105  27.187  1.00  0.00     0.412 C 
ATOM     18  N   UNL A   1      31.749  22.632  27.273  1.00  0.00    -0.321 N 
ATOM     19  H   UNL A   1      31.471  22.966  28.156  1.00  0.00     0.167 HD
ATOM     20  O   UNL A   1      33.753  22.096  28.158  1.00  0.00    -0.224 OA
BRANCH  18  21
ATOM     21  C   UNL A   1      30.779  22.752  26.201  1.00  0.00     0.119 C 
BRANCH  21  22
ATOM     22  C   UNL A   1      31.041  23.971  25.318  1.00  0.00     0.021 C 
BRANCH  22  23
ATOM     23  C   UNL A   1      31.071  23.684  23.811  1.00  0.00     0.002 C 
BRANCH  23  24
ATOM     24  C   UNL A   1      30.957  24.912  22.899  1.00  0.00    -0.000 C 
BRANCH  24  25
ATOM     25  C   UNL A   1      32.207  25.247  22.083  1.00  0.00    -0.003 C 
ATOM     26  C   UNL A   1      33.217  26.092  22.845  1.00  0.00     0.004 C 
ENDBRANCH  24  25
ENDBRANCH  23  24
ENDBRANCH  22  23
ENDBRANCH  21  22
ENDBRANCH  18  21
ENDBRANCH  16  17
ENDBRANCH  11  16
ENDBRANCH   4  10
ENDBRANCH   1   3
BRANCH   1  27
ATOM     27  C   UNL A   1      43.019  19.300  25.701  1.00  0.00     0.313 C 
ATOM     28  O   UNL A   1      43.307  18.107  25.676  1.00  0.00    -0.252 OA
BRANCH  27  29
ATOM     29  O   UNL A   1      43.426  20.204  24.774  1.00  0.00    -0.462 OA
BRANCH  29  30
ATOM     30  C   UNL A   1      44.455  21.130  25.170  1.00  0.00     0.274 C 
BRANCH  30  31
ATOM     31  C   UNL A   1      44.416  22.395  24.310  1.00  0.00     0.275 C 
BRANCH  31  32
ATOM     32  O   UNL A   1      43.653  23.430  24.956  1.00  0.00    -0.458 OA
BRANCH  32  33
ATOM     33  C   UNL A   1      44.333  24.568  25.223  1.00  0.00     0.338 C 
ATOM     34  O   UNL A   1      45.314  25.007  24.654  1.00  0.00    -0.246 OA
BRANCH  33  35
ATOM     35  C   UNL A   1      43.641  25.297  26.293  1.00  0.00     0.060 A 
ATOM     36  C   UNL A   1      43.940  26.648  26.476  1.00  0.00     0.016 A 
ATOM     37  C   UNL A   1      42.769  24.635  27.157  1.00  0.00     0.016 A 
ATOM     38  C   UNL A   1      43.374  27.350  27.534  1.00  0.00     0.010 A 
ATOM     39  C   UNL A   1      42.190  25.343  28.212  1.00  0.00     0.010 A 
ATOM     40  C   UNL A   1      42.498  26.701  28.414  1.00  0.00    -0.014 A 
BRANCH  40  41
ATOM     41  C   UNL A   1      41.932  27.436  29.567  1.00  0.00     0.031 A 
ATOM     42  C   UNL A   1      40.624  28.156  29.427  1.00  0.00     0.074 A 
ATOM     43  C   UNL A   1      42.589  27.444  30.741  1.00  0.00     0.049 A 
ATOM     44  N   UNL A   1      40.003  28.914  30.295  1.00  0.00    -0.248 NA
ATOM     45  C   UNL A   1      39.921  28.002  28.145  1.00  0.00     0.031 C 
ATOM     46  C   UNL A   1      43.839  26.736  31.017  1.00  0.00     0.029 A 
ATOM     47  N   UNL A   1      42.288  28.071  31.923  1.00  0.00    -0.354 N 
ATOM     48  C   UNL A   1      38.849  29.349  29.654  1.00  0.00     0.074 A 
ATOM     49  C   UNL A   1      38.863  28.779  28.324  1.00  0.00     0.031 C 
ATOM     50  C   UNL A   1      44.193  26.958  32.293  1.00  0.00     0.029 A 
ATOM     51  C   UNL A   1      43.224  27.862  32.905  1.00  0.00     0.049 A 
ATOM     52  H   UNL A   1      41.480  28.616  32.056  1.00  0.00     0.167 HD
ATOM     53  C   UNL A   1      37.871  30.155  30.132  1.00  0.00     0.031 A 
ATOM     54  C   UNL A   1      43.307  28.367  34.150  1.00  0.00     0.031 A 
ATOM     55  C   UNL A   1      37.860  30.722  31.454  1.00  0.00     0.049 A 
ATOM     56  C   UNL A   1      42.254  29.326  34.626  1.00  0.00     0.074 A 
ATOM     57  C   UNL A   1      36.901  31.530  32.040  1.00  0.00     0.029 A 
ATOM     58  N   UNL A   1      38.862  30.544  32.395  1.00  0.00    -0.354 N 
ATOM     59  N   UNL A   1      41.171  29.734  34.011  1.00  0.00    -0.248 NA
ATOM     60  C   UNL A   1      42.444  29.902  35.965  1.00  0.00     0.031 C 
ATOM     61  C   UNL A   1      37.349  31.882  33.319  1.00  0.00     0.029 A 
ATOM     62  C   UNL A   1      38.562  31.254  33.546  1.00  0.00     0.049 A 
ATOM     63  H   UNL A   1      39.668  29.992  32.266  1.00  0.00     0.167 HD
ATOM     64  C   UNL A   1      40.543  30.607  34.889  1.00  0.00     0.074 A 
ATOM     65  C   UNL A   1      41.360  30.656  36.086  1.00  0.00     0.031 C 
ATOM     66  C   UNL A   1      39.395  31.305  34.719  1.00  0.00     0.031 A 
BRANCH  53  67
ATOM     67  C   UNL A   1      36.756  30.508  29.190  1.00  0.00    -0.014 A 
ATOM     68  C   UNL A   1      35.863  29.535  28.714  1.00  0.00     0.009 A 
ATOM     69  C   UNL A   1      36.596  31.840  28.778  1.00  0.00     0.009 A 
ATOM     70  C   UNL A   1      34.853  29.886  27.815  1.00  0.00     0.001 A 
ATOM     71  C   UNL A   1      35.572  32.191  27.897  1.00  0.00     0.001 A 
ATOM     72  C   UNL A   1      34.708  31.212  27.408  1.00  0.00     0.000 A 
ENDBRANCH  53  67
BRANCH  54  73
ATOM     73  C   UNL A   1      44.449  27.995  35.022  1.00  0.00    -0.014 A 
ATOM     74  C   UNL A   1      44.374  26.862  35.845  1.00  0.00     0.009 A 
ATOM     75  C   UNL A   1      45.625  28.760  35.022  1.00  0.00     0.009 A 
ATOM     76  C   UNL A   1      45.453  26.509  36.660  1.00  0.00     0.001 A 
ATOM     77  C   UNL A   1      46.709  28.393  35.820  1.00  0.00     0.001 A 
ATOM     78  C   UNL A   1      46.620  27.271  36.642  1.00  0.00     0.000 A 
ENDBRANCH  54  73
BRANCH  66  79
ATOM     79  C   UNL A   1      38.951  32.172  35.862  1.00  0.00    -0.014 A 
ATOM     80  C   UNL A   1      39.326  33.523  35.932  1.00  0.00     0.009 A 
ATOM     81  C   UNL A   1      38.125  31.640  36.863  1.00  0.00     0.009 A 
ATOM     82  C   UNL A   1      38.904  34.316  37.000  1.00  0.00     0.001 A 
ATOM     83  C   UNL A   1      37.685  32.442  37.917  1.00  0.00     0.001 A 
ATOM     84  C   UNL A   1      38.082  33.776  37.989  1.00  0.00     0.000 A 
ENDBRANCH  66  79
ENDBRANCH  40  41
ENDBRANCH  33  35
ENDBRANCH  32  33
ENDBRANCH  31  32
ENDBRANCH  30  31
ENDBRANCH  29  30
ENDBRANCH  27  29
ENDBRANCH   1  27
TORSDOF 20
ENDMDL
MODEL 3
REMARK VINA RESULT:     -10.5      3.931      9.942
REMARK SMILES CCCCCCNC(=O)Oc1cccc(-c2ccc([C@@H](C)C(=O)OCCOC(=O)c3ccc(-c4c5nc(c(-c6ccccc6)c6ccc([nH]6)c(-c6ccccc6)c6nc(c(-c7ccccc7)c7ccc4[nH]7)C=C6)C=C5)cc3)cc2C)c1
REMARK SMILES IDX 20 1 21 2 19 3 16 4 17 5 79 6 18 7 78 8 80 9 15 10 11 11
REMARK SMILES IDX 12 12 81 13 13 14 14 15 10 16 8 17 7 18 9 20 6 21 5 22 4 23
REMARK SMILES IDX 3 24 2 25 1 26 22 27 23 28 24 29 25 30 26 31 27 32 28 33
REMARK SMILES IDX 29 34 30 35 31 36 77 37 32 38 76 39 33 40 34 41 35 42 70 43
REMARK SMILES IDX 36 44 75 45 69 46 71 47 37 48 74 49 68 50 67 51 38 53 60 54
REMARK SMILES IDX 45 55 59 56 46 57 49 58 58 59 72 60 47 61 48 62 57 64 73 65
REMARK SMILES IDX 50 66 39 67 40 68 44 69 41 70 43 71 42 72 61 73 62 74 66 75
REMARK SMILES IDX 63 76 65 77 64 78 51 79 52 80 56 81 53 82 55 83 54 84
REMARK H PARENT 7 19 71 52 49 63
REMARK Flexibility Score: inf
ROOT
ATOM      1  C   UNL A   1      41.253  21.389  26.568  1.00  0.00     0.126 C 
ATOM      2  C   UNL A   1      41.847  21.945  27.860  1.00  0.00     0.025 C 
ENDROOT
BRANCH   1   3
ATOM      3  C   UNL A   1      39.856  21.920  26.290  1.00  0.00    -0.034 A 
ATOM      4  C   UNL A   1      37.230  22.866  25.717  1.00  0.00    -0.015 A 
ATOM      5  C   UNL A   1      38.216  23.709  26.263  1.00  0.00     0.009 A 
ATOM      6  C   UNL A   1      37.576  21.525  25.450  1.00  0.00    -0.043 A 
ATOM      7  C   UNL A   1      39.508  23.250  26.534  1.00  0.00     0.005 A 
ATOM      8  C   UNL A   1      38.875  21.069  25.757  1.00  0.00     0.008 A 
ATOM      9  C   UNL A   1      36.608  20.523  24.877  1.00  0.00     0.045 C 
BRANCH   4  10
ATOM     10  C   UNL A   1      35.906  23.440  25.406  1.00  0.00    -0.014 A 
ATOM     11  C   UNL A   1      34.337  24.503  23.894  1.00  0.00     0.133 A 
ATOM     12  C   UNL A   1      33.373  24.574  24.898  1.00  0.00     0.047 A 
ATOM     13  C   UNL A   1      35.593  23.943  24.133  1.00  0.00     0.056 A 
ATOM     14  C   UNL A   1      33.661  24.060  26.158  1.00  0.00     0.004 A 
ATOM     15  C   UNL A   1      34.918  23.504  26.409  1.00  0.00     0.009 A 
BRANCH  11  16
ATOM     16  O   UNL A   1      34.027  25.150  22.686  1.00  0.00    -0.410 OA
BRANCH  16  17
ATOM     17  C   UNL A   1      33.123  24.557  21.817  1.00  0.00     0.412 C 
ATOM     18  N   UNL A   1      32.015  25.328  21.591  1.00  0.00    -0.321 N 
ATOM     19  H   UNL A   1      31.348  24.966  20.965  1.00  0.00     0.167 HD
ATOM     20  O   UNL A   1      33.242  23.458  21.291  1.00  0.00    -0.224 OA
BRANCH  18  21
ATOM     21  C   UNL A   1      31.720  26.621  22.176  1.00  0.00     0.119 C 
BRANCH  21  22
ATOM     22  C   UNL A   1      30.553  26.557  23.162  1.00  0.00     0.021 C 
BRANCH  22  23
ATOM     23  C   UNL A   1      30.511  27.695  24.190  1.00  0.00     0.002 C 
BRANCH  23  24
ATOM     24  C   UNL A   1      31.491  27.566  25.362  1.00  0.00    -0.000 C 
BRANCH  24  25
ATOM     25  C   UNL A   1      32.825  28.296  25.191  1.00  0.00    -0.003 C 
ATOM     26  C   UNL A   1      33.845  27.949  26.265  1.00  0.00     0.004 C 
ENDBRANCH  24  25
ENDBRANCH  23  24
ENDBRANCH  22  23
ENDBRANCH  21  22
ENDBRANCH  18  21
ENDBRANCH  16  17
ENDBRANCH  11  16
ENDBRANCH   4  10
ENDBRANCH   1   3
BRANCH   1  27
ATOM     27  C   UNL A   1      41.411  19.872  26.533  1.00  0.00     0.313 C 
ATOM     28  O   UNL A   1      40.796  19.174  25.732  1.00  0.00    -0.252 OA
BRANCH  27  29
ATOM     29  O   UNL A   1      42.312  19.395  27.428  1.00  0.00    -0.462 OA
BRANCH  29  30
ATOM     30  C   UNL A   1      43.089  18.250  27.030  1.00  0.00     0.274 C 
BRANCH  30  31
ATOM     31  C   UNL A   1      43.386  18.282  25.529  1.00  0.00     0.275 C 
BRANCH  31  32
ATOM     32  O   UNL A   1      44.673  18.872  25.275  1.00  0.00    -0.458 OA
BRANCH  32  33
ATOM     33  C   UNL A   1      44.716  19.742  24.240  1.00  0.00     0.338 C 
ATOM     34  O   UNL A   1      44.663  19.495  23.051  1.00  0.00    -0.246 OA
BRANCH  33  35
ATOM     35  C   UNL A   1      44.744  21.111  24.769  1.00  0.00     0.060 A 
ATOM     36  C   UNL A   1      44.414  22.160  23.909  1.00  0.00     0.016 A 
ATOM     37  C   UNL A   1      45.169  21.363  26.073  1.00  0.00     0.016 A 
ATOM     38  C   UNL A   1      44.515  23.477  24.346  1.00  0.00     0.010 A 
ATOM     39  C   UNL A   1      45.258  22.684  26.515  1.00  0.00     0.010 A 
ATOM     40  C   UNL A   1      44.944  23.749  25.651  1.00  0.00    -0.014 A 
BRANCH  40  41
ATOM     41  C   UNL A   1      45.096  25.151  26.100  1.00  0.00     0.031 A 
ATOM     42  C   UNL A   1      46.439  25.816  26.033  1.00  0.00     0.074 A 
ATOM     43  C   UNL A   1      44.025  25.827  26.553  1.00  0.00     0.049 A 
ATOM     44  N   UNL A   1      46.790  27.008  26.446  1.00  0.00    -0.248 NA
ATOM     45  C   UNL A   1      47.528  25.042  25.421  1.00  0.00     0.031 C 
ATOM     46  C   UNL A   1      42.659  25.307  26.613  1.00  0.00     0.029 A 
ATOM     47  N   UNL A   1      43.924  27.102  27.048  1.00  0.00    -0.354 N 
ATOM     48  C   UNL A   1      48.147  27.116  26.168  1.00  0.00     0.074 A 
ATOM     49  C   UNL A   1      48.555  25.866  25.561  1.00  0.00     0.031 C 
ATOM     50  C   UNL A   1      41.851  26.262  27.105  1.00  0.00     0.029 A 
ATOM     51  C   UNL A   1      42.651  27.435  27.440  1.00  0.00     0.049 A 
ATOM     52  H   UNL A   1      44.688  27.719  27.114  1.00  0.00     0.167 HD
ATOM     53  C   UNL A   1      48.976  28.161  26.402  1.00  0.00     0.031 A 
ATOM     54  C   UNL A   1      42.188  28.551  28.032  1.00  0.00     0.031 A 
ATOM     55  C   UNL A   1      48.568  29.401  27.006  1.00  0.00     0.049 A 
ATOM     56  C   UNL A   1      43.144  29.662  28.359  1.00  0.00     0.074 A 
ATOM     57  C   UNL A   1      49.329  30.529  27.263  1.00  0.00     0.029 A 
ATOM     58  N   UNL A   1      47.285  29.673  27.455  1.00  0.00    -0.354 N 
ATOM     59  N   UNL A   1      44.425  29.752  28.097  1.00  0.00    -0.248 NA
ATOM     60  C   UNL A   1      42.590  30.819  29.076  1.00  0.00     0.031 C 
ATOM     61  C   UNL A   1      48.516  31.464  27.914  1.00  0.00     0.029 A 
ATOM     62  C   UNL A   1      47.239  30.937  28.019  1.00  0.00     0.049 A 
ATOM     63  H   UNL A   1      46.519  29.059  27.383  1.00  0.00     0.167 HD
ATOM     64  C   UNL A   1      44.830  30.978  28.605  1.00  0.00     0.074 A 
ATOM     65  C   UNL A   1      43.655  31.603  29.178  1.00  0.00     0.031 C 
ATOM     66  C   UNL A   1      46.065  31.536  28.599  1.00  0.00     0.031 A 
BRANCH  53  67
ATOM     67  C   UNL A   1      50.423  27.978  26.045  1.00  0.00    -0.014 A 
ATOM     68  C   UNL A   1      51.348  27.469  26.970  1.00  0.00     0.009 A 
ATOM     69  C   UNL A   1      50.865  28.316  24.756  1.00  0.00     0.009 A 
ATOM     70  C   UNL A   1      52.694  27.337  26.621  1.00  0.00     0.001 A 
ATOM     71  C   UNL A   1      52.206  28.162  24.404  1.00  0.00     0.001 A 
ATOM     72  C   UNL A   1      53.121  27.682  25.340  1.00  0.00     0.000 A 
ENDBRANCH  53  67
BRANCH  54  73
ATOM     73  C   UNL A   1      40.749  28.657  28.381  1.00  0.00    -0.014 A 
ATOM     74  C   UNL A   1      40.285  28.209  29.626  1.00  0.00     0.009 A 
ATOM     75  C   UNL A   1      39.837  29.223  27.477  1.00  0.00     0.009 A 
ATOM     76  C   UNL A   1      38.931  28.317  29.954  1.00  0.00     0.001 A 
ATOM     77  C   UNL A   1      38.489  29.350  27.817  1.00  0.00     0.001 A 
ATOM     78  C   UNL A   1      38.037  28.892  29.053  1.00  0.00     0.000 A 
ENDBRANCH  54  73
BRANCH  66  79
ATOM     79  C   UNL A   1      46.201  32.895  29.222  1.00  0.00    -0.014 A 
ATOM     80  C   UNL A   1      45.988  34.059  28.467  1.00  0.00     0.009 A 
ATOM     81  C   UNL A   1      46.515  33.012  30.584  1.00  0.00     0.009 A 
ATOM     82  C   UNL A   1      46.116  35.316  29.060  1.00  0.00     0.001 A 
ATOM     83  C   UNL A   1      46.619  34.270  31.180  1.00  0.00     0.001 A 
ATOM     84  C   UNL A   1      46.428  35.420  30.416  1.00  0.00     0.000 A 
ENDBRANCH  66  79
ENDBRANCH  40  41
ENDBRANCH  33  35
ENDBRANCH  32  33
ENDBRANCH  31  32
ENDBRANCH  30  31
ENDBRANCH  29  30
ENDBRANCH  27  29
ENDBRANCH   1  27
TORSDOF 20
ENDMDL
