MODEL 1
REMARK VINA RESULT:     -11.3      0.000      0.000
REMARK SMILES CC[C@@H]1CC[C@](C[C@@H]2CCCc3ccccc32)(C(=O)OCCOC(=O)c2ccc(-c3c4nc(c(-c5ccccc5)c5ccc([nH]5)c(-c5ccccc5)c5nc(c(-c6ccccc6)c6ccc3[nH]6)C=C5)C=C4)cc2)C1
REMARK SMILES IDX 21 1 20 2 18 3 19 4 6 5 3 6 4 7 74 8 5 9 2 10 1 11 7 12 8 13
REMARK SMILES IDX 9 14 17 15 10 16 12 17 16 18 11 19 13 20 15 21 14 22 22 23
REMARK SMILES IDX 23 24 24 25 25 26 26 27 27 28 73 29 28 30 72 31 29 32 30 33
REMARK SMILES IDX 31 34 66 35 32 36 71 37 65 38 67 39 33 40 70 41 64 42 63 43
REMARK SMILES IDX 34 45 56 46 41 47 55 48 42 49 45 50 54 51 68 52 43 53 44 54
REMARK SMILES IDX 53 56 69 57 46 58 35 59 36 60 40 61 37 62 39 63 38 64 57 65
REMARK SMILES IDX 58 66 62 67 59 68 61 69 60 70 47 71 48 72 52 73 49 74 51 75
REMARK SMILES IDX 50 76
REMARK H PARENT 67 44 45 55
REMARK Flexibility Score: inf
ROOT
ATOM      1  C   UNL A   1      31.343  28.797  24.313  1.00  0.00     0.274 C 
ENDROOT
BRANCH   1   2
ATOM      2  O   UNL A   1      32.486  27.941  24.527  1.00  0.00    -0.462 OA
BRANCH   2   3
ATOM      3  C   UNL A   1      32.868  27.181  23.463  1.00  0.00     0.312 C 
ATOM      4  O   UNL A   1      32.952  27.619  22.321  1.00  0.00    -0.252 OA
BRANCH   3   5
ATOM      5  C   UNL A   1      33.169  25.700  23.838  1.00  0.00     0.069 C 
ATOM      6  C   UNL A   1      32.127  24.568  25.759  1.00  0.00    -0.010 C 
ATOM      7  C   UNL A   1      33.046  25.659  26.284  1.00  0.00     0.005 C 
ATOM      8  C   UNL A   1      31.865  25.010  24.310  1.00  0.00     0.022 C 
ATOM      9  C   UNL A   1      34.036  25.799  25.126  1.00  0.00     0.019 C 
BRANCH   6  10
ATOM     10  C   UNL A   1      30.909  24.290  26.635  1.00  0.00     0.000 C 
ATOM     11  C   UNL A   1      30.352  22.883  26.481  1.00  0.00     0.004 C 
ENDBRANCH   6  10
BRANCH   5  12
ATOM     12  C   UNL A   1      33.822  24.996  22.605  1.00  0.00     0.027 C 
BRANCH  12  13
ATOM     13  C   UNL A   1      34.086  23.468  22.452  1.00  0.00     0.020 C 
ATOM     14  C   UNL A   1      32.907  22.589  22.002  1.00  0.00     0.009 C 
ATOM     15  C   UNL A   1      34.902  22.862  23.563  1.00  0.00    -0.042 A 
ATOM     16  C   UNL A   1      32.147  21.875  23.107  1.00  0.00     0.005 C 
ATOM     17  C   UNL A   1      34.367  21.894  24.425  1.00  0.00    -0.045 A 
ATOM     18  C   UNL A   1      36.215  23.328  23.774  1.00  0.00     0.004 A 
ATOM     19  C   UNL A   1      33.022  21.258  24.195  1.00  0.00     0.036 C 
ATOM     20  C   UNL A   1      35.130  21.472  25.528  1.00  0.00     0.004 A 
ATOM     21  C   UNL A   1      36.963  22.891  24.863  1.00  0.00     0.000 A 
ATOM     22  C   UNL A   1      36.412  21.977  25.751  1.00  0.00     0.000 A 
ENDBRANCH  12  13
ENDBRANCH   5  12
ENDBRANCH   3   5
ENDBRANCH   2   3
ENDBRANCH   1   2
BRANCH   1  23
ATOM     23  C   UNL A   1      31.422  30.046  25.185  1.00  0.00     0.275 C 
BRANCH  23  24
ATOM     24  O   UNL A   1      32.334  29.812  26.269  1.00  0.00    -0.458 OA
BRANCH  24  25
ATOM     25  C   UNL A   1      32.813  30.913  26.889  1.00  0.00     0.338 C 
ATOM     26  O   UNL A   1      32.210  31.945  27.128  1.00  0.00    -0.246 OA
BRANCH  25  27
ATOM     27  C   UNL A   1      34.215  30.695  27.305  1.00  0.00     0.060 A 
ATOM     28  C   UNL A   1      34.727  29.407  27.419  1.00  0.00     0.016 A 
ATOM     29  C   UNL A   1      34.984  31.776  27.732  1.00  0.00     0.016 A 
ATOM     30  C   UNL A   1      35.929  29.191  28.089  1.00  0.00     0.010 A 
ATOM     31  C   UNL A   1      36.242  31.558  28.310  1.00  0.00     0.010 A 
ATOM     32  C   UNL A   1      36.703  30.256  28.569  1.00  0.00    -0.014 A 
BRANCH  32  33
ATOM     33  C   UNL A   1      37.915  30.013  29.418  1.00  0.00     0.031 A 
ATOM     34  C   UNL A   1      39.106  29.275  28.844  1.00  0.00     0.074 A 
ATOM     35  C   UNL A   1      38.010  30.474  30.683  1.00  0.00     0.049 A 
ATOM     36  N   UNL A   1      40.120  28.727  29.468  1.00  0.00    -0.248 NA
ATOM     37  C   UNL A   1      39.148  29.108  27.383  1.00  0.00     0.031 C 
ATOM     38  C   UNL A   1      37.003  31.266  31.390  1.00  0.00     0.029 A 
ATOM     39  N   UNL A   1      39.032  30.356  31.599  1.00  0.00    -0.354 N 
ATOM     40  C   UNL A   1      40.847  28.053  28.493  1.00  0.00     0.074 A 
ATOM     41  C   UNL A   1      40.179  28.287  27.232  1.00  0.00     0.031 C 
ATOM     42  C   UNL A   1      37.487  31.634  32.584  1.00  0.00     0.029 A 
ATOM     43  C   UNL A   1      38.782  30.997  32.788  1.00  0.00     0.049 A 
ATOM     44  H   UNL A   1      39.862  29.859  31.418  1.00  0.00     0.167 HD
ATOM     45  C   UNL A   1      41.960  27.293  28.637  1.00  0.00     0.031 A 
ATOM     46  C   UNL A   1      39.479  31.032  33.939  1.00  0.00     0.031 A 
ATOM     47  C   UNL A   1      42.695  27.147  29.866  1.00  0.00     0.049 A 
ATOM     48  C   UNL A   1      40.732  30.217  34.075  1.00  0.00     0.074 A 
ATOM     49  C   UNL A   1      43.837  26.403  30.107  1.00  0.00     0.029 A 
ATOM     50  N   UNL A   1      42.385  27.797  31.049  1.00  0.00    -0.354 N 
ATOM     51  N   UNL A   1      41.323  29.462  33.183  1.00  0.00    -0.248 NA
ATOM     52  C   UNL A   1      41.389  30.231  35.390  1.00  0.00     0.031 C 
ATOM     53  C   UNL A   1      44.209  26.589  31.444  1.00  0.00     0.029 A 
ATOM     54  C   UNL A   1      43.317  27.476  32.021  1.00  0.00     0.049 A 
ATOM     55  H   UNL A   1      41.616  28.398  31.179  1.00  0.00     0.167 HD
ATOM     56  C   UNL A   1      42.412  28.896  33.834  1.00  0.00     0.074 A 
ATOM     57  C   UNL A   1      42.421  29.426  35.182  1.00  0.00     0.031 C 
ATOM     58  C   UNL A   1      43.311  28.001  33.360  1.00  0.00     0.031 A 
BRANCH  45  59
ATOM     59  C   UNL A   1      42.423  26.506  27.443  1.00  0.00    -0.014 A 
ATOM     60  C   UNL A   1      41.948  25.215  27.170  1.00  0.00     0.009 A 
ATOM     61  C   UNL A   1      43.331  27.099  26.550  1.00  0.00     0.009 A 
ATOM     62  C   UNL A   1      42.401  24.522  26.043  1.00  0.00     0.001 A 
ATOM     63  C   UNL A   1      43.760  26.416  25.412  1.00  0.00     0.001 A 
ATOM     64  C   UNL A   1      43.301  25.124  25.164  1.00  0.00     0.000 A 
ENDBRANCH  45  59
BRANCH  46  65
ATOM     65  C   UNL A   1      38.955  31.810  35.091  1.00  0.00    -0.014 A 
ATOM     66  C   UNL A   1      38.154  31.194  36.064  1.00  0.00     0.009 A 
ATOM     67  C   UNL A   1      39.275  33.171  35.235  1.00  0.00     0.009 A 
ATOM     68  C   UNL A   1      37.683  31.926  37.155  1.00  0.00     0.001 A 
ATOM     69  C   UNL A   1      38.827  33.891  36.343  1.00  0.00     0.001 A 
ATOM     70  C   UNL A   1      38.028  33.269  37.299  1.00  0.00     0.000 A 
ENDBRANCH  46  65
BRANCH  58  71
ATOM     71  C   UNL A   1      44.383  27.549  34.308  1.00  0.00    -0.014 A 
ATOM     72  C   UNL A   1      45.602  28.237  34.394  1.00  0.00     0.009 A 
ATOM     73  C   UNL A   1      44.164  26.435  35.132  1.00  0.00     0.009 A 
ATOM     74  C   UNL A   1      46.599  27.797  35.266  1.00  0.00     0.001 A 
ATOM     75  C   UNL A   1      45.155  26.009  36.017  1.00  0.00     0.001 A 
ATOM     76  C   UNL A   1      46.374  26.684  36.078  1.00  0.00     0.000 A 
ENDBRANCH  58  71
ENDBRANCH  32  33
ENDBRANCH  25  27
ENDBRANCH  24  25
ENDBRANCH  23  24
ENDBRANCH   1  23
TORSDOF 14
ENDMDL
MODEL 2
REMARK VINA RESULT:     -11.3      3.725      8.590
REMARK SMILES CC[C@@H]1CC[C@](C[C@@H]2CCCc3ccccc32)(C(=O)OCCOC(=O)c2ccc(-c3c4nc(c(-c5ccccc5)c5ccc([nH]5)c(-c5ccccc5)c5nc(c(-c6ccccc6)c6ccc3[nH]6)C=C5)C=C4)cc2)C1
REMARK SMILES IDX 21 1 20 2 18 3 19 4 6 5 3 6 4 7 74 8 5 9 2 10 1 11 7 12 8 13
REMARK SMILES IDX 9 14 17 15 10 16 12 17 16 18 11 19 13 20 15 21 14 22 22 23
REMARK SMILES IDX 23 24 24 25 25 26 26 27 27 28 73 29 28 30 72 31 29 32 30 33
REMARK SMILES IDX 31 34 66 35 32 36 71 37 65 38 67 39 33 40 70 41 64 42 63 43
REMARK SMILES IDX 34 45 56 46 41 47 55 48 42 49 45 50 54 51 68 52 43 53 44 54
REMARK SMILES IDX 53 56 69 57 46 58 35 59 36 60 40 61 37 62 39 63 38 64 57 65
REMARK SMILES IDX 58 66 62 67 59 68 61 69 60 70 47 71 48 72 52 73 49 74 51 75
REMARK SMILES IDX 50 76
REMARK H PARENT 67 44 45 55
REMARK Flexibility Score: inf
ROOT
ATOM      1  C   UNL A   1      34.535  21.110  25.317  1.00  0.00     0.274 C 
ENDROOT
BRANCH   1   2
ATOM      2  O   UNL A   1      34.440  22.509  24.973  1.00  0.00    -0.462 OA
BRANCH   2   3
ATOM      3  C   UNL A   1      33.974  23.334  25.951  1.00  0.00     0.312 C 
ATOM      4  O   UNL A   1      34.247  23.188  27.138  1.00  0.00    -0.252 OA
BRANCH   3   5
ATOM      5  C   UNL A   1      33.048  24.466  25.417  1.00  0.00     0.069 C 
ATOM      6  C   UNL A   1      32.931  25.087  23.038  1.00  0.00    -0.010 C 
ATOM      7  C   UNL A   1      34.309  25.454  23.564  1.00  0.00     0.005 C 
ATOM      8  C   UNL A   1      32.444  24.042  24.055  1.00  0.00     0.022 C 
ATOM      9  C   UNL A   1      34.024  25.623  25.058  1.00  0.00     0.019 C 
BRANCH   6  10
ATOM     10  C   UNL A   1      32.899  24.696  21.564  1.00  0.00     0.000 C 
ATOM     11  C   UNL A   1      32.391  25.799  20.648  1.00  0.00     0.004 C 
ENDBRANCH   6  10
BRANCH   5  12
ATOM     12  C   UNL A   1      31.962  24.774  26.497  1.00  0.00     0.027 C 
BRANCH  12  13
ATOM     13  C   UNL A   1      30.874  25.886  26.418  1.00  0.00     0.020 C 
ATOM     14  C   UNL A   1      29.605  25.576  25.607  1.00  0.00     0.009 C 
ATOM     15  C   UNL A   1      31.417  27.272  26.186  1.00  0.00    -0.042 A 
ATOM     16  C   UNL A   1      29.581  26.097  24.180  1.00  0.00     0.005 C 
ATOM     17  C   UNL A   1      31.127  27.989  25.015  1.00  0.00    -0.045 A 
ATOM     18  C   UNL A   1      32.284  27.832  27.144  1.00  0.00     0.004 A 
ATOM     19  C   UNL A   1      30.118  27.516  24.003  1.00  0.00     0.036 C 
ATOM     20  C   UNL A   1      31.777  29.216  24.794  1.00  0.00     0.004 A 
ATOM     21  C   UNL A   1      32.910  29.054  26.916  1.00  0.00     0.000 A 
ATOM     22  C   UNL A   1      32.671  29.737  25.730  1.00  0.00     0.000 A 
ENDBRANCH  12  13
ENDBRANCH   5  12
ENDBRANCH   3   5
ENDBRANCH   2   3
ENDBRANCH   1   2
BRANCH   1  23
ATOM     23  C   UNL A   1      35.902  20.545  24.944  1.00  0.00     0.275 C 
BRANCH  23  24
ATOM     24  O   UNL A   1      36.876  21.600  24.971  1.00  0.00    -0.458 OA
BRANCH  24  25
ATOM     25  C   UNL A   1      38.106  21.259  25.413  1.00  0.00     0.338 C 
ATOM     26  O   UNL A   1      38.688  20.203  25.232  1.00  0.00    -0.246 OA
BRANCH  25  27
ATOM     27  C   UNL A   1      38.717  22.390  26.144  1.00  0.00     0.060 A 
ATOM     28  C   UNL A   1      38.152  23.659  26.084  1.00  0.00     0.016 A 
ATOM     29  C   UNL A   1      39.948  22.219  26.775  1.00  0.00     0.016 A 
ATOM     30  C   UNL A   1      38.879  24.767  26.514  1.00  0.00     0.010 A 
ATOM     31  C   UNL A   1      40.627  23.326  27.301  1.00  0.00     0.010 A 
ATOM     32  C   UNL A   1      40.139  24.631  27.111  1.00  0.00    -0.014 A 
BRANCH  32  33
ATOM     33  C   UNL A   1      40.978  25.831  27.434  1.00  0.00     0.031 A 
ATOM     34  C   UNL A   1      40.489  26.847  28.444  1.00  0.00     0.074 A 
ATOM     35  C   UNL A   1      42.196  26.025  26.885  1.00  0.00     0.049 A 
ATOM     36  N   UNL A   1      40.914  28.068  28.663  1.00  0.00    -0.248 NA
ATOM     37  C   UNL A   1      39.360  26.450  29.300  1.00  0.00     0.031 C 
ATOM     38  C   UNL A   1      42.872  25.126  25.949  1.00  0.00     0.029 A 
ATOM     39  N   UNL A   1      43.100  27.048  27.064  1.00  0.00    -0.354 N 
ATOM     40  C   UNL A   1      40.032  28.618  29.587  1.00  0.00     0.074 A 
ATOM     41  C   UNL A   1      39.069  27.589  29.914  1.00  0.00     0.031 C 
ATOM     42  C   UNL A   1      44.106  25.589  25.704  1.00  0.00     0.029 A 
ATOM     43  C   UNL A   1      44.266  26.882  26.358  1.00  0.00     0.049 A 
ATOM     44  H   UNL A   1      42.926  27.825  27.643  1.00  0.00     0.167 HD
ATOM     45  C   UNL A   1      40.014  29.870  30.104  1.00  0.00     0.031 A 
ATOM     46  C   UNL A   1      45.329  27.693  26.198  1.00  0.00     0.031 A 
ATOM     47  C   UNL A   1      41.031  30.862  29.873  1.00  0.00     0.049 A 
ATOM     48  C   UNL A   1      45.316  29.063  26.807  1.00  0.00     0.074 A 
ATOM     49  C   UNL A   1      41.102  32.157  30.358  1.00  0.00     0.029 A 
ATOM     50  N   UNL A   1      42.179  30.651  29.128  1.00  0.00    -0.354 N 
ATOM     51  N   UNL A   1      44.399  29.623  27.557  1.00  0.00    -0.248 NA
ATOM     52  C   UNL A   1      46.470  29.927  26.515  1.00  0.00     0.031 C 
ATOM     53  C   UNL A   1      42.287  32.737  29.891  1.00  0.00     0.029 A 
ATOM     54  C   UNL A   1      42.967  31.789  29.146  1.00  0.00     0.049 A 
ATOM     55  H   UNL A   1      42.402  29.817  28.656  1.00  0.00     0.167 HD
ATOM     56  C   UNL A   1      44.855  30.910  27.809  1.00  0.00     0.074 A 
ATOM     57  C   UNL A   1      46.148  31.034  27.168  1.00  0.00     0.031 C 
ATOM     58  C   UNL A   1      44.246  31.906  28.496  1.00  0.00     0.031 A 
BRANCH  45  59
ATOM     59  C   UNL A   1      38.820  30.265  30.929  1.00  0.00    -0.014 A 
ATOM     60  C   UNL A   1      37.644  30.762  30.349  1.00  0.00     0.009 A 
ATOM     61  C   UNL A   1      38.872  30.092  32.323  1.00  0.00     0.009 A 
ATOM     62  C   UNL A   1      36.556  31.110  31.155  1.00  0.00     0.001 A 
ATOM     63  C   UNL A   1      37.775  30.415  33.121  1.00  0.00     0.001 A 
ATOM     64  C   UNL A   1      36.620  30.932  32.537  1.00  0.00     0.000 A 
ENDBRANCH  45  59
BRANCH  46  65
ATOM     65  C   UNL A   1      46.468  27.253  25.351  1.00  0.00    -0.014 A 
ATOM     66  C   UNL A   1      46.683  27.829  24.090  1.00  0.00     0.009 A 
ATOM     67  C   UNL A   1      47.358  26.269  25.811  1.00  0.00     0.009 A 
ATOM     68  C   UNL A   1      47.767  27.427  23.308  1.00  0.00     0.001 A 
ATOM     69  C   UNL A   1      48.457  25.891  25.039  1.00  0.00     0.001 A 
ATOM     70  C   UNL A   1      48.658  26.467  23.786  1.00  0.00     0.000 A 
ENDBRANCH  46  65
BRANCH  58  71
ATOM     71  C   UNL A   1      44.978  33.211  28.593  1.00  0.00    -0.014 A 
ATOM     72  C   UNL A   1      44.765  34.227  27.650  1.00  0.00     0.009 A 
ATOM     73  C   UNL A   1      45.878  33.432  29.647  1.00  0.00     0.009 A 
ATOM     74  C   UNL A   1      45.465  35.431  27.740  1.00  0.00     0.001 A 
ATOM     75  C   UNL A   1      46.563  34.644  29.745  1.00  0.00     0.001 A 
ATOM     76  C   UNL A   1      46.363  35.639  28.788  1.00  0.00     0.000 A 
ENDBRANCH  58  71
ENDBRANCH  32  33
ENDBRANCH  25  27
ENDBRANCH  24  25
ENDBRANCH  23  24
ENDBRANCH   1  23
TORSDOF 14
ENDMDL
MODEL 3
REMARK VINA RESULT:     -11.3      3.685      8.500
REMARK SMILES CC[C@@H]1CC[C@](C[C@@H]2CCCc3ccccc32)(C(=O)OCCOC(=O)c2ccc(-c3c4nc(c(-c5ccccc5)c5ccc([nH]5)c(-c5ccccc5)c5nc(c(-c6ccccc6)c6ccc3[nH]6)C=C5)C=C4)cc2)C1
REMARK SMILES IDX 21 1 20 2 18 3 19 4 6 5 3 6 4 7 74 8 5 9 2 10 1 11 7 12 8 13
REMARK SMILES IDX 9 14 17 15 10 16 12 17 16 18 11 19 13 20 15 21 14 22 22 23
REMARK SMILES IDX 23 24 24 25 25 26 26 27 27 28 73 29 28 30 72 31 29 32 30 33
REMARK SMILES IDX 31 34 66 35 32 36 71 37 65 38 67 39 33 40 70 41 64 42 63 43
REMARK SMILES IDX 34 45 56 46 41 47 55 48 42 49 45 50 54 51 68 52 43 53 44 54
REMARK SMILES IDX 53 56 69 57 46 58 35 59 36 60 40 61 37 62 39 63 38 64 57 65
REMARK SMILES IDX 58 66 62 67 59 68 61 69 60 70 47 71 48 72 52 73 49 74 51 75
REMARK SMILES IDX 50 76
REMARK H PARENT 67 44 45 55
REMARK Flexibility Score: inf
ROOT
ATOM      1  C   UNL A   1      34.759  21.265  24.629  1.00  0.00     0.274 C 
ENDROOT
BRANCH   1   2
ATOM      2  O   UNL A   1      34.936  22.693  24.739  1.00  0.00    -0.462 OA
BRANCH   2   3
ATOM      3  C   UNL A   1      34.338  23.288  25.808  1.00  0.00     0.312 C 
ATOM      4  O   UNL A   1      34.492  22.905  26.962  1.00  0.00    -0.252 OA
BRANCH   3   5
ATOM      5  C   UNL A   1      33.424  24.487  25.417  1.00  0.00     0.069 C 
ATOM      6  C   UNL A   1      31.009  24.539  25.887  1.00  0.00    -0.010 C 
ATOM      7  C   UNL A   1      31.276  23.453  24.857  1.00  0.00     0.005 C 
ATOM      8  C   UNL A   1      32.387  24.737  26.539  1.00  0.00     0.022 C 
ATOM      9  C   UNL A   1      32.578  23.952  24.226  1.00  0.00     0.019 C 
BRANCH   6  10
ATOM     10  C   UNL A   1      29.832  24.257  26.815  1.00  0.00     0.000 C 
ATOM     11  C   UNL A   1      29.577  22.775  27.049  1.00  0.00     0.004 C 
ENDBRANCH   6  10
BRANCH   5  12
ATOM     12  C   UNL A   1      34.328  25.730  25.132  1.00  0.00     0.027 C 
BRANCH  12  13
ATOM     13  C   UNL A   1      33.855  27.213  25.055  1.00  0.00     0.020 C 
ATOM     14  C   UNL A   1      33.918  28.042  26.348  1.00  0.00     0.009 C 
ATOM     15  C   UNL A   1      32.592  27.423  24.263  1.00  0.00    -0.042 A 
ATOM     16  C   UNL A   1      32.623  28.156  27.132  1.00  0.00     0.005 C 
ATOM     17  C   UNL A   1      31.415  27.893  24.866  1.00  0.00    -0.045 A 
ATOM     18  C   UNL A   1      32.580  27.081  22.897  1.00  0.00     0.004 A 
ATOM     19  C   UNL A   1      31.375  28.394  26.285  1.00  0.00     0.036 C 
ATOM     20  C   UNL A   1      30.233  27.933  24.106  1.00  0.00     0.004 A 
ATOM     21  C   UNL A   1      31.405  27.138  22.154  1.00  0.00     0.000 A 
ATOM     22  C   UNL A   1      30.226  27.546  22.765  1.00  0.00     0.000 A 
ENDBRANCH  12  13
ENDBRANCH   5  12
ENDBRANCH   3   5
ENDBRANCH   2   3
ENDBRANCH   1   2
BRANCH   1  23
ATOM     23  C   UNL A   1      36.035  20.522  25.013  1.00  0.00     0.275 C 
BRANCH  23  24
ATOM     24  O   UNL A   1      37.167  21.377  24.790  1.00  0.00    -0.458 OA
BRANCH  24  25
ATOM     25  C   UNL A   1      38.313  21.015  25.408  1.00  0.00     0.338 C 
ATOM     26  O   UNL A   1      38.867  19.930  25.359  1.00  0.00    -0.246 OA
BRANCH  25  27
ATOM     27  C   UNL A   1      38.871  22.161  26.157  1.00  0.00     0.060 A 
ATOM     28  C   UNL A   1      38.295  23.422  26.055  1.00  0.00     0.016 A 
ATOM     29  C   UNL A   1      40.071  22.013  26.852  1.00  0.00     0.016 A 
ATOM     30  C   UNL A   1      38.985  24.544  26.509  1.00  0.00     0.010 A 
ATOM     31  C   UNL A   1      40.708  23.134  27.400  1.00  0.00     0.010 A 
ATOM     32  C   UNL A   1      40.214  24.431  27.171  1.00  0.00    -0.014 A 
BRANCH  32  33
ATOM     33  C   UNL A   1      41.021  25.644  27.523  1.00  0.00     0.031 A 
ATOM     34  C   UNL A   1      40.483  26.646  28.523  1.00  0.00     0.074 A 
ATOM     35  C   UNL A   1      42.250  25.864  27.011  1.00  0.00     0.049 A 
ATOM     36  N   UNL A   1      40.878  27.874  28.760  1.00  0.00    -0.248 NA
ATOM     37  C   UNL A   1      39.337  26.224  29.344  1.00  0.00     0.031 C 
ATOM     38  C   UNL A   1      42.970  24.983  26.091  1.00  0.00     0.029 A 
ATOM     39  N   UNL A   1      43.129  26.903  27.220  1.00  0.00    -0.354 N 
ATOM     40  C   UNL A   1      39.959  28.403  29.660  1.00  0.00     0.074 A 
ATOM     41  C   UNL A   1      39.007  27.354  29.954  1.00  0.00     0.031 C 
ATOM     42  C   UNL A   1      44.202  25.470  25.884  1.00  0.00     0.029 A 
ATOM     43  C   UNL A   1      44.318  26.762  26.547  1.00  0.00     0.049 A 
ATOM     44  H   UNL A   1      42.923  27.674  27.797  1.00  0.00     0.167 HD
ATOM     45  C   UNL A   1      39.903  29.652  30.181  1.00  0.00     0.031 A 
ATOM     46  C   UNL A   1      45.369  27.594  26.423  1.00  0.00     0.031 A 
ATOM     47  C   UNL A   1      40.907  30.664  29.984  1.00  0.00     0.049 A 
ATOM     48  C   UNL A   1      45.313  28.961  27.037  1.00  0.00     0.074 A 
ATOM     49  C   UNL A   1      40.939  31.958  30.477  1.00  0.00     0.029 A 
ATOM     50  N   UNL A   1      42.080  30.479  29.272  1.00  0.00    -0.354 N 
ATOM     51  N   UNL A   1      44.364  29.500  27.761  1.00  0.00    -0.248 NA
ATOM     52  C   UNL A   1      46.458  29.848  26.782  1.00  0.00     0.031 C 
ATOM     53  C   UNL A   1      42.126  32.562  30.047  1.00  0.00     0.029 A 
ATOM     54  C   UNL A   1      42.846  31.631  29.317  1.00  0.00     0.049 A 
ATOM     55  H   UNL A   1      42.332  29.651  28.803  1.00  0.00     0.167 HD
ATOM     56  C   UNL A   1      44.788  30.794  28.033  1.00  0.00     0.074 A 
ATOM     57  C   UNL A   1      46.096  30.946  27.430  1.00  0.00     0.031 C 
ATOM     58  C   UNL A   1      44.140  31.775  28.706  1.00  0.00     0.031 A 
BRANCH  45  59
ATOM     59  C   UNL A   1      38.679  30.020  30.972  1.00  0.00    -0.014 A 
ATOM     60  C   UNL A   1      38.641  29.934  32.371  1.00  0.00     0.009 A 
ATOM     61  C   UNL A   1      37.549  30.504  30.289  1.00  0.00     0.009 A 
ATOM     62  C   UNL A   1      37.483  30.293  33.067  1.00  0.00     0.001 A 
ATOM     63  C   UNL A   1      36.405  30.887  30.989  1.00  0.00     0.001 A 
ATOM     64  C   UNL A   1      36.369  30.773  32.377  1.00  0.00     0.000 A 
ENDBRANCH  45  59
BRANCH  46  65
ATOM     65  C   UNL A   1      46.540  27.180  25.606  1.00  0.00    -0.014 A 
ATOM     66  C   UNL A   1      47.484  26.277  26.118  1.00  0.00     0.009 A 
ATOM     67  C   UNL A   1      46.705  27.670  24.300  1.00  0.00     0.009 A 
ATOM     68  C   UNL A   1      48.571  25.876  25.338  1.00  0.00     0.001 A 
ATOM     69  C   UNL A   1      47.776  27.243  23.513  1.00  0.00     0.001 A 
ATOM     70  C   UNL A   1      48.709  26.351  24.035  1.00  0.00     0.000 A 
ENDBRANCH  46  65
BRANCH  58  71
ATOM     71  C   UNL A   1      44.845  33.093  28.829  1.00  0.00    -0.014 A 
ATOM     72  C   UNL A   1      45.719  33.343  29.898  1.00  0.00     0.009 A 
ATOM     73  C   UNL A   1      44.645  34.088  27.861  1.00  0.00     0.009 A 
ATOM     74  C   UNL A   1      46.356  34.579  30.012  1.00  0.00     0.001 A 
ATOM     75  C   UNL A   1      45.298  35.316  27.968  1.00  0.00     0.001 A 
ATOM     76  C   UNL A   1      46.146  35.564  29.047  1.00  0.00     0.000 A 
ENDBRANCH  58  71
ENDBRANCH  32  33
ENDBRANCH  25  27
ENDBRANCH  24  25
ENDBRANCH  23  24
ENDBRANCH   1  23
TORSDOF 14
ENDMDL
