MODEL 1
REMARK VINA RESULT:     -10.4      0.000      0.000
REMARK SMILES CCc1ccc(NC(=O)c2c(C(=O)OCCOC(=O)c3ccc(-c4c5nc(c(-c6ccccc6)c6ccc([nH]6)c(-c6ccccc6)c6nc(c(-c7ccccc7)c7ccc4[nH]7)C=C6)C=C5)cc3)cnn2C)cc1
REMARK SMILES IDX 15 1 14 2 12 3 13 4 11 5 10 6 70 7 68 8 69 9 71 10 8 11 7 12
REMARK SMILES IDX 9 14 6 15 3 16 4 17 73 18 5 19 72 20 2 21 1 22 16 23 17 24
REMARK SMILES IDX 18 25 19 26 20 27 21 28 67 29 22 30 66 31 23 32 24 33 25 34
REMARK SMILES IDX 60 35 26 36 65 37 59 38 61 39 27 40 64 41 58 42 57 43 28 45
REMARK SMILES IDX 50 46 35 47 49 48 36 49 39 50 48 51 62 52 37 53 38 54 47 56
REMARK SMILES IDX 63 57 40 58 29 59 30 60 34 61 31 62 33 63 32 64 51 65 52 66
REMARK SMILES IDX 56 67 53 68 55 69 54 70 41 71 42 72 46 73 43 74 45 75 44 76
REMARK H PARENT 7 13 61 44 39 55
REMARK Flexibility Score: inf
ROOT
ATOM      1  C   UNL A   1      38.670  21.517  25.764  1.00  0.00     0.275 C 
ENDROOT
BRANCH   1   2
ATOM      2  O   UNL A   1      37.587  21.804  24.860  1.00  0.00    -0.458 OA
BRANCH   2   3
ATOM      3  C   UNL A   1      36.747  22.809  25.234  1.00  0.00     0.342 C 
ATOM      4  O   UNL A   1      37.084  23.976  25.361  1.00  0.00    -0.246 OA
BRANCH   3   5
ATOM      5  C   UNL A   1      35.364  22.393  25.407  1.00  0.00     0.111 A 
ATOM      6  C   UNL A   1      34.213  22.763  24.714  1.00  0.00     0.140 A 
ATOM      7  N   UNL A   1      33.208  21.998  25.267  1.00  0.00    -0.262 N 
ATOM      8  C   UNL A   1      34.917  21.470  26.376  1.00  0.00     0.151 A 
ATOM      9  N   UNL A   1      33.603  21.271  26.332  1.00  0.00    -0.180 NA
ATOM     10  C   UNL A   1      31.845  21.815  24.817  1.00  0.00     0.174 C 
BRANCH   6  11
ATOM     11  C   UNL A   1      34.105  23.619  23.556  1.00  0.00     0.274 C 
ATOM     12  N   UNL A   1      33.460  24.834  23.615  1.00  0.00    -0.321 N 
ATOM     13  H   UNL A   1      33.296  25.242  22.733  1.00  0.00     0.170 HD
ATOM     14  O   UNL A   1      34.500  23.251  22.448  1.00  0.00    -0.267 OA
BRANCH  12  15
ATOM     15  C   UNL A   1      32.989  25.602  24.691  1.00  0.00     0.041 A 
ATOM     16  C   UNL A   1      32.133  27.457  26.636  1.00  0.00    -0.048 A 
ATOM     17  C   UNL A   1      31.246  26.512  26.105  1.00  0.00     0.006 A 
ATOM     18  C   UNL A   1      33.475  27.406  26.240  1.00  0.00     0.006 A 
ATOM     19  C   UNL A   1      31.676  25.579  25.154  1.00  0.00     0.026 A 
ATOM     20  C   UNL A   1      33.903  26.474  25.291  1.00  0.00     0.026 A 
BRANCH  16  21
ATOM     21  C   UNL A   1      31.659  28.574  27.535  1.00  0.00     0.032 C 
ATOM     22  C   UNL A   1      32.023  29.974  27.065  1.00  0.00     0.009 C 
ENDBRANCH  16  21
ENDBRANCH  12  15
ENDBRANCH   6  11
ENDBRANCH   3   5
ENDBRANCH   2   3
ENDBRANCH   1   2
BRANCH   1  23
ATOM     23  C   UNL A   1      39.225  20.105  25.559  1.00  0.00     0.275 C 
BRANCH  23  24
ATOM     24  O   UNL A   1      40.245  19.784  26.524  1.00  0.00    -0.458 OA
BRANCH  24  25
ATOM     25  C   UNL A   1      41.515  19.961  26.094  1.00  0.00     0.338 C 
ATOM     26  O   UNL A   1      42.141  19.255  25.321  1.00  0.00    -0.246 OA
BRANCH  25  27
ATOM     27  C   UNL A   1      42.028  21.253  26.574  1.00  0.00     0.060 A 
ATOM     28  C   UNL A   1      42.009  21.475  27.951  1.00  0.00     0.016 A 
ATOM     29  C   UNL A   1      42.427  22.263  25.697  1.00  0.00     0.016 A 
ATOM     30  C   UNL A   1      42.385  22.711  28.467  1.00  0.00     0.010 A 
ATOM     31  C   UNL A   1      42.805  23.509  26.216  1.00  0.00     0.010 A 
ATOM     32  C   UNL A   1      42.773  23.743  27.604  1.00  0.00    -0.014 A 
BRANCH  32  33
ATOM     33  C   UNL A   1      43.077  25.081  28.168  1.00  0.00     0.031 A 
ATOM     34  C   UNL A   1      41.969  26.067  28.409  1.00  0.00     0.074 A 
ATOM     35  C   UNL A   1      44.339  25.397  28.510  1.00  0.00     0.049 A 
ATOM     36  N   UNL A   1      42.037  27.295  28.858  1.00  0.00    -0.248 NA
ATOM     37  C   UNL A   1      40.606  25.611  28.100  1.00  0.00     0.031 C 
ATOM     38  C   UNL A   1      45.499  24.517  28.368  1.00  0.00     0.029 A 
ATOM     39  N   UNL A   1      44.854  26.547  29.054  1.00  0.00    -0.354 N 
ATOM     40  C   UNL A   1      40.733  27.770  28.853  1.00  0.00     0.074 A 
ATOM     41  C   UNL A   1      39.895  26.702  28.351  1.00  0.00     0.031 C 
ATOM     42  C   UNL A   1      46.588  25.154  28.828  1.00  0.00     0.029 A 
ATOM     43  C   UNL A   1      46.212  26.500  29.252  1.00  0.00     0.049 A 
ATOM     44  H   UNL A   1      44.302  27.330  29.282  1.00  0.00     0.167 HD
ATOM     45  C   UNL A   1      40.274  28.989  29.229  1.00  0.00     0.031 A 
ATOM     46  C   UNL A   1      47.063  27.442  29.701  1.00  0.00     0.031 A 
ATOM     47  C   UNL A   1      41.100  30.046  29.748  1.00  0.00     0.049 A 
ATOM     48  C   UNL A   1      46.536  28.794  30.086  1.00  0.00     0.074 A 
ATOM     49  C   UNL A   1      40.721  31.304  30.183  1.00  0.00     0.029 A 
ATOM     50  N   UNL A   1      42.477  29.969  29.902  1.00  0.00    -0.354 N 
ATOM     51  N   UNL A   1      45.300  29.231  30.075  1.00  0.00    -0.248 NA
ATOM     52  C   UNL A   1      47.522  29.783  30.544  1.00  0.00     0.031 C 
ATOM     53  C   UNL A   1      41.872  32.005  30.558  1.00  0.00     0.029 A 
ATOM     54  C   UNL A   1      42.964  31.166  30.400  1.00  0.00     0.049 A 
ATOM     55  H   UNL A   1      43.025  29.180  29.689  1.00  0.00     0.167 HD
ATOM     56  C   UNL A   1      45.358  30.543  30.527  1.00  0.00     0.074 A 
ATOM     57  C   UNL A   1      46.749  30.823  30.826  1.00  0.00     0.031 C 
ATOM     58  C   UNL A   1      44.350  31.436  30.678  1.00  0.00     0.031 A 
BRANCH  45  59
ATOM     59  C   UNL A   1      38.808  29.256  29.042  1.00  0.00    -0.014 A 
ATOM     60  C   UNL A   1      38.284  29.651  27.802  1.00  0.00     0.009 A 
ATOM     61  C   UNL A   1      37.936  29.098  30.131  1.00  0.00     0.009 A 
ATOM     62  C   UNL A   1      36.919  29.918  27.667  1.00  0.00     0.001 A 
ATOM     63  C   UNL A   1      36.570  29.342  29.987  1.00  0.00     0.001 A 
ATOM     64  C   UNL A   1      36.064  29.761  28.757  1.00  0.00     0.000 A 
ENDBRANCH  45  59
BRANCH  46  65
ATOM     65  C   UNL A   1      48.515  27.140  29.772  1.00  0.00    -0.014 A 
ATOM     66  C   UNL A   1      49.078  26.587  30.931  1.00  0.00     0.009 A 
ATOM     67  C   UNL A   1      49.341  27.385  28.663  1.00  0.00     0.009 A 
ATOM     68  C   UNL A   1      50.443  26.294  30.979  1.00  0.00     0.001 A 
ATOM     69  C   UNL A   1      50.699  27.068  28.707  1.00  0.00     0.001 A 
ATOM     70  C   UNL A   1      51.250  26.527  29.866  1.00  0.00     0.000 A 
ENDBRANCH  46  65
BRANCH  58  71
ATOM     71  C   UNL A   1      44.715  32.797  31.197  1.00  0.00    -0.014 A 
ATOM     72  C   UNL A   1      45.026  33.847  30.319  1.00  0.00     0.009 A 
ATOM     73  C   UNL A   1      44.709  33.042  32.579  1.00  0.00     0.009 A 
ATOM     74  C   UNL A   1      45.354  35.109  30.818  1.00  0.00     0.001 A 
ATOM     75  C   UNL A   1      45.016  34.311  33.073  1.00  0.00     0.001 A 
ATOM     76  C   UNL A   1      45.346  35.341  32.193  1.00  0.00     0.000 A 
ENDBRANCH  58  71
ENDBRANCH  32  33
ENDBRANCH  25  27
ENDBRANCH  24  25
ENDBRANCH  23  24
ENDBRANCH   1  23
TORSDOF 14
ENDMDL
MODEL 2
REMARK VINA RESULT:     -10.4      0.425      6.007
REMARK SMILES CCc1ccc(NC(=O)c2c(C(=O)OCCOC(=O)c3ccc(-c4c5nc(c(-c6ccccc6)c6ccc([nH]6)c(-c6ccccc6)c6nc(c(-c7ccccc7)c7ccc4[nH]7)C=C6)C=C5)cc3)cnn2C)cc1
REMARK SMILES IDX 15 1 14 2 12 3 13 4 11 5 10 6 70 7 68 8 69 9 71 10 8 11 7 12
REMARK SMILES IDX 9 14 6 15 3 16 4 17 73 18 5 19 72 20 2 21 1 22 16 23 17 24
REMARK SMILES IDX 18 25 19 26 20 27 21 28 67 29 22 30 66 31 23 32 24 33 25 34
REMARK SMILES IDX 60 35 26 36 65 37 59 38 61 39 27 40 64 41 58 42 57 43 28 45
REMARK SMILES IDX 50 46 35 47 49 48 36 49 39 50 48 51 62 52 37 53 38 54 47 56
REMARK SMILES IDX 63 57 40 58 29 59 30 60 34 61 31 62 33 63 32 64 51 65 52 66
REMARK SMILES IDX 56 67 53 68 55 69 54 70 41 71 42 72 46 73 43 74 45 75 44 76
REMARK H PARENT 7 13 61 44 39 55
REMARK Flexibility Score: inf
ROOT
ATOM      1  C   UNL A   1      38.520  21.217  25.691  1.00  0.00     0.275 C 
ENDROOT
BRANCH   1   2
ATOM      2  O   UNL A   1      37.557  21.570  24.682  1.00  0.00    -0.458 OA
BRANCH   2   3
ATOM      3  C   UNL A   1      36.760  22.638  24.963  1.00  0.00     0.342 C 
ATOM      4  O   UNL A   1      37.137  23.800  24.951  1.00  0.00    -0.246 OA
BRANCH   3   5
ATOM      5  C   UNL A   1      35.371  22.292  25.216  1.00  0.00     0.111 A 
ATOM      6  C   UNL A   1      34.200  22.729  24.599  1.00  0.00     0.140 A 
ATOM      7  N   UNL A   1      33.192  22.010  25.205  1.00  0.00    -0.262 N 
ATOM      8  C   UNL A   1      34.935  21.382  26.203  1.00  0.00     0.151 A 
ATOM      9  N   UNL A   1      33.613  21.251  26.237  1.00  0.00    -0.180 NA
ATOM     10  C   UNL A   1      31.797  21.903  24.837  1.00  0.00     0.174 C 
BRANCH   6  11
ATOM     11  C   UNL A   1      34.067  23.603  23.457  1.00  0.00     0.274 C 
ATOM     12  N   UNL A   1      33.405  24.807  23.545  1.00  0.00    -0.321 N 
ATOM     13  H   UNL A   1      33.226  25.228  22.672  1.00  0.00     0.170 HD
ATOM     14  O   UNL A   1      34.454  23.260  22.338  1.00  0.00    -0.267 OA
BRANCH  12  15
ATOM     15  C   UNL A   1      32.937  25.550  24.639  1.00  0.00     0.041 A 
ATOM     16  C   UNL A   1      32.102  27.358  26.637  1.00  0.00    -0.048 A 
ATOM     17  C   UNL A   1      31.192  26.474  26.043  1.00  0.00     0.006 A 
ATOM     18  C   UNL A   1      33.451  27.267  26.275  1.00  0.00     0.006 A 
ATOM     19  C   UNL A   1      31.610  25.563  25.066  1.00  0.00     0.026 A 
ATOM     20  C   UNL A   1      33.868  26.357  25.299  1.00  0.00     0.026 A 
BRANCH  16  21
ATOM     21  C   UNL A   1      31.649  28.456  27.569  1.00  0.00     0.032 C 
ATOM     22  C   UNL A   1      31.817  29.868  27.028  1.00  0.00     0.009 C 
ENDBRANCH  16  21
ENDBRANCH  12  15
ENDBRANCH   6  11
ENDBRANCH   3   5
ENDBRANCH   2   3
ENDBRANCH   1   2
BRANCH   1  23
ATOM     23  C   UNL A   1      39.285  19.942  25.330  1.00  0.00     0.275 C 
BRANCH  23  24
ATOM     24  O   UNL A   1      40.205  19.555  26.369  1.00  0.00    -0.458 OA
BRANCH  24  25
ATOM     25  C   UNL A   1      41.512  19.731  26.070  1.00  0.00     0.338 C 
ATOM     26  O   UNL A   1      42.224  19.004  25.398  1.00  0.00    -0.246 OA
BRANCH  25  27
ATOM     27  C   UNL A   1      41.959  21.047  26.550  1.00  0.00     0.060 A 
ATOM     28  C   UNL A   1      41.999  21.243  27.931  1.00  0.00     0.016 A 
ATOM     29  C   UNL A   1      42.238  22.099  25.675  1.00  0.00     0.016 A 
ATOM     30  C   UNL A   1      42.316  22.493  28.452  1.00  0.00     0.010 A 
ATOM     31  C   UNL A   1      42.556  23.359  26.200  1.00  0.00     0.010 A 
ATOM     32  C   UNL A   1      42.583  23.566  27.593  1.00  0.00    -0.014 A 
BRANCH  32  33
ATOM     33  C   UNL A   1      42.824  24.911  28.168  1.00  0.00     0.031 A 
ATOM     34  C   UNL A   1      44.207  25.311  28.597  1.00  0.00     0.074 A 
ATOM     35  C   UNL A   1      41.813  25.794  28.264  1.00  0.00     0.049 A 
ATOM     36  N   UNL A   1      44.612  26.424  29.155  1.00  0.00    -0.248 NA
ATOM     37  C   UNL A   1      45.276  24.326  28.370  1.00  0.00     0.031 C 
ATOM     38  C   UNL A   1      40.434  25.548  27.845  1.00  0.00     0.029 A 
ATOM     39  N   UNL A   1      41.796  27.081  28.740  1.00  0.00    -0.354 N 
ATOM     40  C   UNL A   1      45.972  26.262  29.378  1.00  0.00     0.074 A 
ATOM     41  C   UNL A   1      46.324  24.941  28.902  1.00  0.00     0.031 C 
ATOM     42  C   UNL A   1      39.706  26.653  28.070  1.00  0.00     0.029 A 
ATOM     43  C   UNL A   1      40.555  27.667  28.689  1.00  0.00     0.049 A 
ATOM     44  H   UNL A   1      42.596  27.540  29.084  1.00  0.00     0.167 HD
ATOM     45  C   UNL A   1      46.849  27.132  29.934  1.00  0.00     0.031 A 
ATOM     46  C   UNL A   1      40.142  28.876  29.115  1.00  0.00     0.031 A 
ATOM     47  C   UNL A   1      46.508  28.454  30.390  1.00  0.00     0.049 A 
ATOM     48  C   UNL A   1      41.126  29.814  29.753  1.00  0.00     0.074 A 
ATOM     49  C   UNL A   1      47.336  29.417  30.939  1.00  0.00     0.029 A 
ATOM     50  N   UNL A   1      45.233  28.998  30.351  1.00  0.00    -0.354 N 
ATOM     51  N   UNL A   1      42.410  29.646  29.960  1.00  0.00    -0.248 NA
ATOM     52  C   UNL A   1      40.603  31.106  30.218  1.00  0.00     0.031 C 
ATOM     53  C   UNL A   1      46.553  30.529  31.274  1.00  0.00     0.029 A 
ATOM     54  C   UNL A   1      45.247  30.273  30.889  1.00  0.00     0.049 A 
ATOM     55  H   UNL A   1      44.436  28.544  29.992  1.00  0.00     0.167 HD
ATOM     56  C   UNL A   1      42.849  30.812  30.574  1.00  0.00     0.074 A 
ATOM     57  C   UNL A   1      41.699  31.687  30.686  1.00  0.00     0.031 C 
ATOM     58  C   UNL A   1      44.094  31.126  31.009  1.00  0.00     0.031 A 
BRANCH  45  59
ATOM     59  C   UNL A   1      48.261  26.655  30.123  1.00  0.00    -0.014 A 
ATOM     60  C   UNL A   1      49.255  26.895  29.163  1.00  0.00     0.009 A 
ATOM     61  C   UNL A   1      48.600  25.960  31.296  1.00  0.00     0.009 A 
ATOM     62  C   UNL A   1      50.553  26.416  29.357  1.00  0.00     0.001 A 
ATOM     63  C   UNL A   1      49.902  25.503  31.498  1.00  0.00     0.001 A 
ATOM     64  C   UNL A   1      50.876  25.723  30.524  1.00  0.00     0.000 A 
ENDBRANCH  45  59
BRANCH  46  65
ATOM     65  C   UNL A   1      38.711  29.247  28.982  1.00  0.00    -0.014 A 
ATOM     66  C   UNL A   1      38.201  29.720  27.764  1.00  0.00     0.009 A 
ATOM     67  C   UNL A   1      37.840  29.105  30.075  1.00  0.00     0.009 A 
ATOM     68  C   UNL A   1      36.849  30.051  27.647  1.00  0.00     0.001 A 
ATOM     69  C   UNL A   1      36.486  29.414  29.947  1.00  0.00     0.001 A 
ATOM     70  C   UNL A   1      35.992  29.891  28.735  1.00  0.00     0.000 A 
ENDBRANCH  46  65
BRANCH  58  71
ATOM     71  C   UNL A   1      44.276  32.477  31.639  1.00  0.00    -0.014 A 
ATOM     72  C   UNL A   1      44.142  32.654  33.024  1.00  0.00     0.009 A 
ATOM     73  C   UNL A   1      44.624  33.578  30.841  1.00  0.00     0.009 A 
ATOM     74  C   UNL A   1      44.324  33.916  33.595  1.00  0.00     0.001 A 
ATOM     75  C   UNL A   1      44.827  34.833  31.417  1.00  0.00     0.001 A 
ATOM     76  C   UNL A   1      44.669  35.002  32.793  1.00  0.00     0.000 A 
ENDBRANCH  58  71
ENDBRANCH  32  33
ENDBRANCH  25  27
ENDBRANCH  24  25
ENDBRANCH  23  24
ENDBRANCH   1  23
TORSDOF 14
ENDMDL
MODEL 3
REMARK VINA RESULT:     -10.4      3.369      8.488
REMARK SMILES CCc1ccc(NC(=O)c2c(C(=O)OCCOC(=O)c3ccc(-c4c5nc(c(-c6ccccc6)c6ccc([nH]6)c(-c6ccccc6)c6nc(c(-c7ccccc7)c7ccc4[nH]7)C=C6)C=C5)cc3)cnn2C)cc1
REMARK SMILES IDX 15 1 14 2 12 3 13 4 11 5 10 6 70 7 68 8 69 9 71 10 8 11 7 12
REMARK SMILES IDX 9 14 6 15 3 16 4 17 73 18 5 19 72 20 2 21 1 22 16 23 17 24
REMARK SMILES IDX 18 25 19 26 20 27 21 28 67 29 22 30 66 31 23 32 24 33 25 34
REMARK SMILES IDX 60 35 26 36 65 37 59 38 61 39 27 40 64 41 58 42 57 43 28 45
REMARK SMILES IDX 50 46 35 47 49 48 36 49 39 50 48 51 62 52 37 53 38 54 47 56
REMARK SMILES IDX 63 57 40 58 29 59 30 60 34 61 31 62 33 63 32 64 51 65 52 66
REMARK SMILES IDX 56 67 53 68 55 69 54 70 41 71 42 72 46 73 43 74 45 75 44 76
REMARK H PARENT 7 13 61 44 39 55
REMARK Flexibility Score: inf
ROOT
ATOM      1  C   UNL A   1      32.483  30.339  26.793  1.00  0.00     0.275 C 
ENDROOT
BRANCH   1   2
ATOM      2  O   UNL A   1      33.149  29.940  25.581  1.00  0.00    -0.458 OA
BRANCH   2   3
ATOM      3  C   UNL A   1      33.549  28.639  25.519  1.00  0.00     0.342 C 
ATOM      4  O   UNL A   1      33.820  27.955  26.495  1.00  0.00    -0.246 OA
BRANCH   3   5
ATOM      5  C   UNL A   1      33.561  28.085  24.175  1.00  0.00     0.111 A 
ATOM      6  C   UNL A   1      33.039  26.891  23.681  1.00  0.00     0.140 A 
ATOM      7  N   UNL A   1      33.286  26.932  22.325  1.00  0.00    -0.262 N 
ATOM      8  C   UNL A   1      34.145  28.710  23.053  1.00  0.00     0.151 A 
ATOM      9  N   UNL A   1      34.031  27.989  21.942  1.00  0.00    -0.180 NA
ATOM     10  C   UNL A   1      32.796  26.060  21.280  1.00  0.00     0.174 C 
BRANCH   6  11
ATOM     11  C   UNL A   1      32.252  25.904  24.383  1.00  0.00     0.274 C 
ATOM     12  N   UNL A   1      32.756  24.657  24.676  1.00  0.00    -0.321 N 
ATOM     13  H   UNL A   1      32.077  24.017  24.994  1.00  0.00     0.170 HD
ATOM     14  O   UNL A   1      31.068  26.106  24.659  1.00  0.00    -0.267 OA
BRANCH  12  15
ATOM     15  C   UNL A   1      34.051  24.122  24.609  1.00  0.00     0.041 A 
ATOM     16  C   UNL A   1      36.533  22.788  24.738  1.00  0.00    -0.048 A 
ATOM     17  C   UNL A   1      35.827  22.875  23.532  1.00  0.00     0.006 A 
ATOM     18  C   UNL A   1      36.019  23.450  25.859  1.00  0.00     0.006 A 
ATOM     19  C   UNL A   1      34.605  23.554  23.463  1.00  0.00     0.026 A 
ATOM     20  C   UNL A   1      34.799  24.128  25.790  1.00  0.00     0.026 A 
BRANCH  16  21
ATOM     21  C   UNL A   1      37.766  21.927  24.876  1.00  0.00     0.032 C 
ATOM     22  C   UNL A   1      37.502  20.429  24.906  1.00  0.00     0.009 C 
ENDBRANCH  16  21
ENDBRANCH  12  15
ENDBRANCH   6  11
ENDBRANCH   3   5
ENDBRANCH   2   3
ENDBRANCH   1   2
BRANCH   1  23
ATOM     23  C   UNL A   1      33.235  31.457  27.518  1.00  0.00     0.275 C 
BRANCH  23  24
ATOM     24  O   UNL A   1      32.648  32.748  27.269  1.00  0.00    -0.458 OA
BRANCH  24  25
ATOM     25  C   UNL A   1      33.062  33.733  28.100  1.00  0.00     0.338 C 
ATOM     26  O   UNL A   1      32.445  34.731  28.433  1.00  0.00    -0.246 OA
BRANCH  25  27
ATOM     27  C   UNL A   1      34.351  33.365  28.703  1.00  0.00     0.060 A 
ATOM     28  C   UNL A   1      35.499  33.581  27.940  1.00  0.00     0.016 A 
ATOM     29  C   UNL A   1      34.434  32.733  29.945  1.00  0.00     0.016 A 
ATOM     30  C   UNL A   1      36.741  33.165  28.408  1.00  0.00     0.010 A 
ATOM     31  C   UNL A   1      35.685  32.312  30.416  1.00  0.00     0.010 A 
ATOM     32  C   UNL A   1      36.844  32.514  29.644  1.00  0.00    -0.014 A 
BRANCH  32  33
ATOM     33  C   UNL A   1      38.163  31.994  30.079  1.00  0.00     0.031 A 
ATOM     34  C   UNL A   1      38.678  30.693  29.530  1.00  0.00     0.074 A 
ATOM     35  C   UNL A   1      38.922  32.708  30.929  1.00  0.00     0.049 A 
ATOM     36  N   UNL A   1      39.785  30.056  29.814  1.00  0.00    -0.248 NA
ATOM     37  C   UNL A   1      37.832  30.021  28.532  1.00  0.00     0.031 C 
ATOM     38  C   UNL A   1      38.559  34.004  31.501  1.00  0.00     0.029 A 
ATOM     39  N   UNL A   1      40.163  32.443  31.454  1.00  0.00    -0.354 N 
ATOM     40  C   UNL A   1      39.755  28.892  29.058  1.00  0.00     0.074 A 
ATOM     41  C   UNL A   1      38.517  28.907  28.308  1.00  0.00     0.031 C 
ATOM     42  C   UNL A   1      39.561  34.429  32.288  1.00  0.00     0.029 A 
ATOM     43  C   UNL A   1      40.614  33.417  32.310  1.00  0.00     0.049 A 
ATOM     44  H   UNL A   1      40.679  31.634  31.235  1.00  0.00     0.167 HD
ATOM     45  C   UNL A   1      40.672  27.897  28.997  1.00  0.00     0.031 A 
ATOM     46  C   UNL A   1      41.737  33.477  33.050  1.00  0.00     0.031 A 
ATOM     47  C   UNL A   1      41.913  27.887  29.725  1.00  0.00     0.049 A 
ATOM     48  C   UNL A   1      42.728  32.350  32.988  1.00  0.00     0.074 A 
ATOM     49  C   UNL A   1      42.919  26.936  29.704  1.00  0.00     0.029 A 
ATOM     50  N   UNL A   1      42.318  28.876  30.608  1.00  0.00    -0.354 N 
ATOM     51  N   UNL A   1      42.685  31.254  32.269  1.00  0.00    -0.248 NA
ATOM     52  C   UNL A   1      43.920  32.468  33.839  1.00  0.00     0.031 C 
ATOM     53  C   UNL A   1      43.913  27.328  30.609  1.00  0.00     0.029 A 
ATOM     54  C   UNL A   1      43.546  28.547  31.157  1.00  0.00     0.049 A 
ATOM     55  H   UNL A   1      41.808  29.693  30.814  1.00  0.00     0.167 HD
ATOM     56  C   UNL A   1      43.845  30.554  32.579  1.00  0.00     0.074 A 
ATOM     57  C   UNL A   1      44.581  31.360  33.532  1.00  0.00     0.031 C 
ATOM     58  C   UNL A   1      44.259  29.349  32.116  1.00  0.00     0.031 A 
BRANCH  45  59
ATOM     59  C   UNL A   1      40.338  26.707  28.143  1.00  0.00    -0.014 A 
ATOM     60  C   UNL A   1      39.539  25.658  28.622  1.00  0.00     0.009 A 
ATOM     61  C   UNL A   1      40.826  26.646  26.828  1.00  0.00     0.009 A 
ATOM     62  C   UNL A   1      39.267  24.553  27.811  1.00  0.00     0.001 A 
ATOM     63  C   UNL A   1      40.533  25.552  26.013  1.00  0.00     0.001 A 
ATOM     64  C   UNL A   1      39.762  24.502  26.509  1.00  0.00     0.000 A 
ENDBRANCH  45  59
BRANCH  46  65
ATOM     65  C   UNL A   1      41.961  34.640  33.945  1.00  0.00    -0.014 A 
ATOM     66  C   UNL A   1      41.567  34.598  35.290  1.00  0.00     0.009 A 
ATOM     67  C   UNL A   1      42.596  35.794  33.457  1.00  0.00     0.009 A 
ATOM     68  C   UNL A   1      41.797  35.694  36.126  1.00  0.00     0.001 A 
ATOM     69  C   UNL A   1      42.846  36.876  34.302  1.00  0.00     0.001 A 
ATOM     70  C   UNL A   1      42.443  36.827  35.634  1.00  0.00     0.000 A 
ENDBRANCH  46  65
BRANCH  58  71
ATOM     71  C   UNL A   1      45.574  28.836  32.629  1.00  0.00    -0.014 A 
ATOM     72  C   UNL A   1      46.779  29.176  31.997  1.00  0.00     0.009 A 
ATOM     73  C   UNL A   1      45.609  28.035  33.781  1.00  0.00     0.009 A 
ATOM     74  C   UNL A   1      47.994  28.697  32.492  1.00  0.00     0.001 A 
ATOM     75  C   UNL A   1      46.827  27.577  34.286  1.00  0.00     0.001 A 
ATOM     76  C   UNL A   1      48.018  27.902  33.637  1.00  0.00     0.000 A 
ENDBRANCH  58  71
ENDBRANCH  32  33
ENDBRANCH  25  27
ENDBRANCH  24  25
ENDBRANCH  23  24
ENDBRANCH   1  23
TORSDOF 14
ENDMDL
