MODEL 1
REMARK VINA RESULT:     -12.4      0.000      0.000
REMARK SMILES CS(=O)(=O)c1ccc(C2=NN(c3ccc(C(=O)OCCOC(=O)c4ccc(-c5c6nc(c(-c7ccccc7)c7ccc([nH]7)c(-c7ccccc7)c7nc(c(-c8ccccc8)c8ccc5[nH]8)C=C7)C=C6)cc4)cc3)[C@H](c3ccc(Cl)cc3)C2)cc1
REMARK SMILES IDX 19 1 18 2 16 3 17 4 15 5 12 6 13 7 73 8 14 9 72 10 11 11
REMARK SMILES IDX 9 12 10 13 82 14 74 15 8 16 5 17 6 18 84 19 7 20 83 21 2 22
REMARK SMILES IDX 1 23 3 24 4 25 75 26 76 27 81 28 77 29 80 30 78 31 79 32
REMARK SMILES IDX 20 33 21 34 22 35 23 36 24 37 25 38 71 39 26 40 70 41 27 42
REMARK SMILES IDX 28 43 29 44 64 45 30 46 69 47 63 48 65 49 31 50 68 51 62 52
REMARK SMILES IDX 61 53 32 55 54 56 39 57 53 58 40 59 43 60 52 61 66 62 41 63
REMARK SMILES IDX 42 64 51 66 67 67 44 68 33 69 34 70 38 71 35 72 37 73 36 74
REMARK SMILES IDX 55 75 56 76 60 77 57 78 59 79 58 80 45 81 46 82 50 83 47 84
REMARK SMILES IDX 49 85 48 86
REMARK H PARENT 65 54 43 65
REMARK Flexibility Score: inf
ROOT
ATOM      1  C   UNL A   1      40.386  20.159  26.625  1.00  0.00     0.275 C 
ENDROOT
BRANCH   1   2
ATOM      2  O   UNL A   1      39.460  20.864  25.775  1.00  0.00    -0.458 OA
BRANCH   2   3
ATOM      3  C   UNL A   1      39.155  22.129  26.153  1.00  0.00     0.338 C 
ATOM      4  O   UNL A   1      39.870  22.887  26.790  1.00  0.00    -0.246 OA
BRANCH   3   5
ATOM      5  C   UNL A   1      37.831  22.541  25.623  1.00  0.00     0.060 A 
ATOM      6  C   UNL A   1      35.268  23.338  24.790  1.00  0.00     0.060 A 
ATOM      7  C   UNL A   1      35.965  24.094  25.733  1.00  0.00     0.029 A 
ATOM      8  C   UNL A   1      35.890  22.213  24.228  1.00  0.00     0.029 A 
ATOM      9  C   UNL A   1      37.222  23.681  26.171  1.00  0.00     0.018 A 
ATOM     10  C   UNL A   1      37.166  21.815  24.635  1.00  0.00     0.018 A 
BRANCH   6  11
ATOM     11  N   UNL A   1      33.929  23.604  24.508  1.00  0.00    -0.257 N 
ATOM     12  C   UNL A   1      32.334  25.013  24.420  1.00  0.00     0.071 C 
ATOM     13  N   UNL A   1      33.571  24.834  24.070  1.00  0.00    -0.176 NA
ATOM     14  C   UNL A   1      31.735  23.929  25.274  1.00  0.00     0.091 C 
ATOM     15  C   UNL A   1      32.884  22.911  25.273  1.00  0.00     0.144 C 
BRANCH  12  16
ATOM     16  C   UNL A   1      31.566  26.203  24.003  1.00  0.00    -0.002 A 
ATOM     17  C   UNL A   1      30.011  28.376  23.214  1.00  0.00     0.067 A 
ATOM     18  C   UNL A   1      29.387  27.220  23.687  1.00  0.00     0.021 A 
ATOM     19  C   UNL A   1      31.406  28.451  23.120  1.00  0.00     0.021 A 
ATOM     20  C   UNL A   1      30.168  26.133  24.074  1.00  0.00     0.011 A 
ATOM     21  C   UNL A   1      32.188  27.364  23.531  1.00  0.00     0.011 A 
BRANCH  17  22
ATOM     22  S   UNL A   1      29.017  29.748  22.669  1.00  0.00     0.175 S 
ATOM     23  C   UNL A   1      27.350  29.169  22.835  1.00  0.00     0.163 C 
ATOM     24  O   UNL A   1      29.269  29.941  21.255  1.00  0.00    -0.224 OA
ATOM     25  O   UNL A   1      29.225  30.821  23.622  1.00  0.00    -0.224 OA
ENDBRANCH  17  22
ENDBRANCH  12  16
BRANCH  15  26
ATOM     26  C   UNL A   1      32.650  21.544  24.645  1.00  0.00    -0.023 A 
ATOM     27  C   UNL A   1      32.294  21.364  23.301  1.00  0.00     0.007 A 
ATOM     28  C   UNL A   1      32.952  20.398  25.411  1.00  0.00     0.007 A 
ATOM     29  C   UNL A   1      32.256  20.082  22.739  1.00  0.00     0.021 A 
ATOM     30  C   UNL A   1      32.946  19.123  24.844  1.00  0.00     0.021 A 
ATOM     31  C   UNL A   1      32.599  18.971  23.507  1.00  0.00     0.041 A 
ATOM     32  Cl  UNL A   1      32.628  17.409  22.788  1.00  0.00    -0.084 Cl
ENDBRANCH  15  26
ENDBRANCH   6  11
ENDBRANCH   3   5
ENDBRANCH   2   3
ENDBRANCH   1   2
BRANCH   1  33
ATOM     33  C   UNL A   1      41.438  19.423  25.797  1.00  0.00     0.275 C 
BRANCH  33  34
ATOM     34  O   UNL A   1      42.761  19.723  26.282  1.00  0.00    -0.458 OA
BRANCH  34  35
ATOM     35  C   UNL A   1      43.450  20.633  25.558  1.00  0.00     0.338 C 
ATOM     36  O   UNL A   1      44.131  20.439  24.566  1.00  0.00    -0.246 OA
BRANCH  35  37
ATOM     37  C   UNL A   1      43.225  21.977  26.109  1.00  0.00     0.060 A 
ATOM     38  C   UNL A   1      43.110  23.043  25.224  1.00  0.00     0.016 A 
ATOM     39  C   UNL A   1      43.291  22.210  27.480  1.00  0.00     0.016 A 
ATOM     40  C   UNL A   1      43.148  24.353  25.688  1.00  0.00     0.010 A 
ATOM     41  C   UNL A   1      43.236  23.528  27.955  1.00  0.00     0.010 A 
ATOM     42  C   UNL A   1      43.202  24.617  27.063  1.00  0.00    -0.014 A 
BRANCH  42  43
ATOM     43  C   UNL A   1      43.270  26.023  27.556  1.00  0.00     0.031 A 
ATOM     44  C   UNL A   1      44.607  26.691  27.763  1.00  0.00     0.074 A 
ATOM     45  C   UNL A   1      42.141  26.718  27.802  1.00  0.00     0.049 A 
ATOM     46  N   UNL A   1      44.878  27.840  28.331  1.00  0.00    -0.248 NA
ATOM     47  C   UNL A   1      45.792  25.967  27.278  1.00  0.00     0.031 C 
ATOM     48  C   UNL A   1      40.777  26.228  27.593  1.00  0.00     0.029 A 
ATOM     49  N   UNL A   1      41.962  27.995  28.275  1.00  0.00    -0.354 N 
ATOM     50  C   UNL A   1      46.265  27.944  28.329  1.00  0.00     0.074 A 
ATOM     51  C   UNL A   1      46.778  26.743  27.707  1.00  0.00     0.031 C 
ATOM     52  C   UNL A   1      39.907  27.205  27.890  1.00  0.00     0.029 A 
ATOM     53  C   UNL A   1      40.642  28.355  28.402  1.00  0.00     0.049 A 
ATOM     54  H   UNL A   1      42.709  28.595  28.501  1.00  0.00     0.167 HD
ATOM     55  C   UNL A   1      47.041  28.948  28.807  1.00  0.00     0.031 A 
ATOM     56  C   UNL A   1      40.077  29.465  28.914  1.00  0.00     0.031 A 
ATOM     57  C   UNL A   1      46.531  30.165  29.384  1.00  0.00     0.049 A 
ATOM     58  C   UNL A   1      40.957  30.539  29.485  1.00  0.00     0.074 A 
ATOM     59  C   UNL A   1      47.238  31.251  29.872  1.00  0.00     0.029 A 
ATOM     60  N   UNL A   1      45.187  30.462  29.538  1.00  0.00    -0.354 N 
ATOM     61  N   UNL A   1      42.265  30.605  29.518  1.00  0.00    -0.248 NA
ATOM     62  C   UNL A   1      40.278  31.686  30.106  1.00  0.00     0.031 C 
ATOM     63  C   UNL A   1      46.321  32.183  30.368  1.00  0.00     0.029 A 
ATOM     64  C   UNL A   1      45.043  31.704  30.135  1.00  0.00     0.049 A 
ATOM     65  H   UNL A   1      44.443  29.879  29.262  1.00  0.00     0.167 HD
ATOM     66  C   UNL A   1      42.568  31.805  30.146  1.00  0.00     0.074 A 
ATOM     67  C   UNL A   1      41.306  32.445  30.459  1.00  0.00     0.031 C 
ATOM     68  C   UNL A   1      43.782  32.329  30.441  1.00  0.00     0.031 A 
BRANCH  55  69
ATOM     69  C   UNL A   1      48.533  28.750  28.776  1.00  0.00    -0.014 A 
ATOM     70  C   UNL A   1      49.315  29.176  27.692  1.00  0.00     0.009 A 
ATOM     71  C   UNL A   1      49.169  28.150  29.876  1.00  0.00     0.009 A 
ATOM     72  C   UNL A   1      50.698  28.971  27.695  1.00  0.00     0.001 A 
ATOM     73  C   UNL A   1      50.553  27.974  29.889  1.00  0.00     0.001 A 
ATOM     74  C   UNL A   1      51.316  28.374  28.794  1.00  0.00     0.000 A 
ENDBRANCH  55  69
BRANCH  56  75
ATOM     75  C   UNL A   1      38.597  29.595  28.955  1.00  0.00    -0.014 A 
ATOM     76  C   UNL A   1      37.883  30.007  27.818  1.00  0.00     0.009 A 
ATOM     77  C   UNL A   1      37.886  29.310  30.133  1.00  0.00     0.009 A 
ATOM     78  C   UNL A   1      36.494  30.143  27.866  1.00  0.00     0.001 A 
ATOM     79  C   UNL A   1      36.495  29.415  30.168  1.00  0.00     0.001 A 
ATOM     80  C   UNL A   1      35.801  29.840  29.037  1.00  0.00     0.000 A 
ENDBRANCH  56  75
BRANCH  68  81
ATOM     81  C   UNL A   1      43.803  33.678  31.100  1.00  0.00    -0.014 A 
ATOM     82  C   UNL A   1      43.796  34.860  30.342  1.00  0.00     0.009 A 
ATOM     83  C   UNL A   1      43.806  33.767  32.501  1.00  0.00     0.009 A 
ATOM     84  C   UNL A   1      43.824  36.104  30.976  1.00  0.00     0.001 A 
ATOM     85  C   UNL A   1      43.806  35.011  33.132  1.00  0.00     0.001 A 
ATOM     86  C   UNL A   1      43.826  36.178  32.369  1.00  0.00     0.000 A 
ENDBRANCH  68  81
ENDBRANCH  42  43
ENDBRANCH  35  37
ENDBRANCH  34  35
ENDBRANCH  33  34
ENDBRANCH   1  33
TORSDOF 15
ENDMDL
MODEL 2
REMARK VINA RESULT:     -12.2      3.646      7.012
REMARK SMILES CS(=O)(=O)c1ccc(C2=NN(c3ccc(C(=O)OCCOC(=O)c4ccc(-c5c6nc(c(-c7ccccc7)c7ccc([nH]7)c(-c7ccccc7)c7nc(c(-c8ccccc8)c8ccc5[nH]8)C=C7)C=C6)cc4)cc3)[C@H](c3ccc(Cl)cc3)C2)cc1
REMARK SMILES IDX 19 1 18 2 16 3 17 4 15 5 12 6 13 7 73 8 14 9 72 10 11 11
REMARK SMILES IDX 9 12 10 13 82 14 74 15 8 16 5 17 6 18 84 19 7 20 83 21 2 22
REMARK SMILES IDX 1 23 3 24 4 25 75 26 76 27 81 28 77 29 80 30 78 31 79 32
REMARK SMILES IDX 20 33 21 34 22 35 23 36 24 37 25 38 71 39 26 40 70 41 27 42
REMARK SMILES IDX 28 43 29 44 64 45 30 46 69 47 63 48 65 49 31 50 68 51 62 52
REMARK SMILES IDX 61 53 32 55 54 56 39 57 53 58 40 59 43 60 52 61 66 62 41 63
REMARK SMILES IDX 42 64 51 66 67 67 44 68 33 69 34 70 38 71 35 72 37 73 36 74
REMARK SMILES IDX 55 75 56 76 60 77 57 78 59 79 58 80 45 81 46 82 50 83 47 84
REMARK SMILES IDX 49 85 48 86
REMARK H PARENT 65 54 43 65
REMARK Flexibility Score: inf
ROOT
ATOM      1  C   UNL A   1      41.451  22.584  27.060  1.00  0.00     0.275 C 
ENDROOT
BRANCH   1   2
ATOM      2  O   UNL A   1      40.065  22.815  26.742  1.00  0.00    -0.458 OA
BRANCH   2   3
ATOM      3  C   UNL A   1      39.423  21.797  26.119  1.00  0.00     0.338 C 
ATOM      4  O   UNL A   1      39.818  20.646  26.016  1.00  0.00    -0.246 OA
BRANCH   3   5
ATOM      5  C   UNL A   1      38.095  22.231  25.616  1.00  0.00     0.060 A 
ATOM      6  C   UNL A   1      35.527  23.065  24.836  1.00  0.00     0.060 A 
ATOM      7  C   UNL A   1      36.243  23.794  25.786  1.00  0.00     0.029 A 
ATOM      8  C   UNL A   1      36.133  21.948  24.241  1.00  0.00     0.029 A 
ATOM      9  C   UNL A   1      37.502  23.362  26.197  1.00  0.00     0.018 A 
ATOM     10  C   UNL A   1      37.411  21.531  24.622  1.00  0.00     0.018 A 
BRANCH   6  11
ATOM     11  N   UNL A   1      34.186  23.347  24.578  1.00  0.00    -0.257 N 
ATOM     12  C   UNL A   1      32.623  24.788  24.451  1.00  0.00     0.071 C 
ATOM     13  N   UNL A   1      33.844  24.558  24.077  1.00  0.00    -0.176 NA
ATOM     14  C   UNL A   1      32.025  23.772  25.387  1.00  0.00     0.091 C 
ATOM     15  C   UNL A   1      33.150  22.727  25.414  1.00  0.00     0.144 C 
BRANCH  12  16
ATOM     16  C   UNL A   1      31.871  25.969  23.986  1.00  0.00    -0.002 A 
ATOM     17  C   UNL A   1      30.411  28.219  23.229  1.00  0.00     0.067 A 
ATOM     18  C   UNL A   1      30.660  27.986  24.582  1.00  0.00     0.021 A 
ATOM     19  C   UNL A   1      30.875  27.331  22.250  1.00  0.00     0.021 A 
ATOM     20  C   UNL A   1      31.384  26.855  24.957  1.00  0.00     0.011 A 
ATOM     21  C   UNL A   1      31.622  26.209  22.630  1.00  0.00     0.011 A 
BRANCH  17  22
ATOM     22  S   UNL A   1      29.442  29.632  22.747  1.00  0.00     0.175 S 
ATOM     23  C   UNL A   1      27.770  29.047  22.796  1.00  0.00     0.163 C 
ATOM     24  O   UNL A   1      29.755  29.929  21.363  1.00  0.00    -0.224 OA
ATOM     25  O   UNL A   1      29.608  30.629  23.785  1.00  0.00    -0.224 OA
ENDBRANCH  17  22
ENDBRANCH  12  16
BRANCH  15  26
ATOM     26  C   UNL A   1      32.865  21.332  24.876  1.00  0.00    -0.023 A 
ATOM     27  C   UNL A   1      32.435  21.083  23.565  1.00  0.00     0.007 A 
ATOM     28  C   UNL A   1      33.193  20.225  25.688  1.00  0.00     0.007 A 
ATOM     29  C   UNL A   1      32.351  19.773  23.079  1.00  0.00     0.021 A 
ATOM     30  C   UNL A   1      33.140  18.920  25.194  1.00  0.00     0.021 A 
ATOM     31  C   UNL A   1      32.720  18.701  23.888  1.00  0.00     0.041 A 
ATOM     32  Cl  UNL A   1      32.691  17.101  23.258  1.00  0.00    -0.084 Cl
ENDBRANCH  15  26
ENDBRANCH   6  11
ENDBRANCH   3   5
ENDBRANCH   2   3
ENDBRANCH   1   2
BRANCH   1  33
ATOM     33  C   UNL A   1      42.367  23.234  26.022  1.00  0.00     0.275 C 
BRANCH  33  34
ATOM     34  O   UNL A   1      42.912  24.466  26.533  1.00  0.00    -0.458 OA
BRANCH  34  35
ATOM     35  C   UNL A   1      42.427  25.592  25.965  1.00  0.00     0.338 C 
ATOM     36  O   UNL A   1      42.387  25.876  24.781  1.00  0.00    -0.246 OA
BRANCH  35  37
ATOM     37  C   UNL A   1      41.866  26.468  27.005  1.00  0.00     0.060 A 
ATOM     38  C   UNL A   1      42.364  27.762  27.117  1.00  0.00     0.016 A 
ATOM     39  C   UNL A   1      40.984  25.972  27.960  1.00  0.00     0.016 A 
ATOM     40  C   UNL A   1      42.057  28.542  28.226  1.00  0.00     0.010 A 
ATOM     41  C   UNL A   1      40.601  26.793  29.030  1.00  0.00     0.010 A 
ATOM     42  C   UNL A   1      41.162  28.074  29.197  1.00  0.00    -0.014 A 
BRANCH  42  43
ATOM     43  C   UNL A   1      40.856  28.902  30.399  1.00  0.00     0.031 A 
ATOM     44  C   UNL A   1      39.685  29.852  30.388  1.00  0.00     0.074 A 
ATOM     45  C   UNL A   1      41.609  28.796  31.513  1.00  0.00     0.049 A 
ATOM     46  N   UNL A   1      39.352  30.766  31.266  1.00  0.00    -0.248 NA
ATOM     47  C   UNL A   1      38.776  29.772  29.234  1.00  0.00     0.031 C 
ATOM     48  C   UNL A   1      42.736  27.880  31.695  1.00  0.00     0.029 A 
ATOM     49  N   UNL A   1      41.531  29.462  32.712  1.00  0.00    -0.354 N 
ATOM     50  C   UNL A   1      38.237  31.409  30.739  1.00  0.00     0.074 A 
ATOM     51  C   UNL A   1      37.952  30.784  29.466  1.00  0.00     0.031 C 
ATOM     52  C   UNL A   1      43.212  28.008  32.943  1.00  0.00     0.029 A 
ATOM     53  C   UNL A   1      42.490  29.080  33.618  1.00  0.00     0.049 A 
ATOM     54  H   UNL A   1      40.851  30.148  32.904  1.00  0.00     0.167 HD
ATOM     55  C   UNL A   1      37.520  32.431  31.266  1.00  0.00     0.031 A 
ATOM     56  C   UNL A   1      42.792  29.564  34.838  1.00  0.00     0.031 A 
ATOM     57  C   UNL A   1      37.774  33.023  32.554  1.00  0.00     0.049 A 
ATOM     58  C   UNL A   1      42.016  30.730  35.377  1.00  0.00     0.074 A 
ATOM     59  C   UNL A   1      37.085  34.046  33.185  1.00  0.00     0.029 A 
ATOM     60  N   UNL A   1      38.789  32.636  33.414  1.00  0.00    -0.354 N 
ATOM     61  N   UNL A   1      40.994  31.358  34.849  1.00  0.00    -0.248 NA
ATOM     62  C   UNL A   1      42.450  31.266  36.675  1.00  0.00     0.031 C 
ATOM     63  C   UNL A   1      37.716  34.310  34.405  1.00  0.00     0.029 A 
ATOM     64  C   UNL A   1      38.761  33.415  34.560  1.00  0.00     0.049 A 
ATOM     65  H   UNL A   1      39.435  31.914  33.238  1.00  0.00     0.167 HD
ATOM     66  C   UNL A   1      40.651  32.351  35.756  1.00  0.00     0.074 A 
ATOM     67  C   UNL A   1      41.560  32.228  36.878  1.00  0.00     0.031 C 
ATOM     68  C   UNL A   1      39.671  33.283  35.667  1.00  0.00     0.031 A 
BRANCH  55  69
ATOM     69  C   UNL A   1      36.417  33.015  30.423  1.00  0.00    -0.014 A 
ATOM     70  C   UNL A   1      35.073  32.666  30.615  1.00  0.00     0.009 A 
ATOM     71  C   UNL A   1      36.737  33.962  29.436  1.00  0.00     0.009 A 
ATOM     72  C   UNL A   1      34.076  33.224  29.810  1.00  0.00     0.001 A 
ATOM     73  C   UNL A   1      35.737  34.541  28.654  1.00  0.00     0.001 A 
ATOM     74  C   UNL A   1      34.407  34.164  28.834  1.00  0.00     0.000 A 
ENDBRANCH  55  69
BRANCH  56  75
ATOM     75  C   UNL A   1      43.915  28.975  35.614  1.00  0.00    -0.014 A 
ATOM     76  C   UNL A   1      45.222  29.464  35.462  1.00  0.00     0.009 A 
ATOM     77  C   UNL A   1      43.688  27.919  36.511  1.00  0.00     0.009 A 
ATOM     78  C   UNL A   1      46.278  28.897  36.180  1.00  0.00     0.001 A 
ATOM     79  C   UNL A   1      44.739  27.377  37.252  1.00  0.00     0.001 A 
ATOM     80  C   UNL A   1      46.034  27.861  37.080  1.00  0.00     0.000 A 
ENDBRANCH  56  75
BRANCH  68  81
ATOM     81  C   UNL A   1      39.508  34.217  36.832  1.00  0.00    -0.014 A 
ATOM     82  C   UNL A   1      38.799  33.832  37.981  1.00  0.00     0.009 A 
ATOM     83  C   UNL A   1      40.094  35.491  36.788  1.00  0.00     0.009 A 
ATOM     84  C   UNL A   1      38.652  34.719  39.049  1.00  0.00     0.001 A 
ATOM     85  C   UNL A   1      39.969  36.366  37.868  1.00  0.00     0.001 A 
ATOM     86  C   UNL A   1      39.240  35.983  38.993  1.00  0.00     0.000 A 
ENDBRANCH  68  81
ENDBRANCH  42  43
ENDBRANCH  35  37
ENDBRANCH  34  35
ENDBRANCH  33  34
ENDBRANCH   1  33
TORSDOF 15
ENDMDL
MODEL 3
REMARK VINA RESULT:     -12.2      3.609      8.754
REMARK SMILES CS(=O)(=O)c1ccc(C2=NN(c3ccc(C(=O)OCCOC(=O)c4ccc(-c5c6nc(c(-c7ccccc7)c7ccc([nH]7)c(-c7ccccc7)c7nc(c(-c8ccccc8)c8ccc5[nH]8)C=C7)C=C6)cc4)cc3)[C@H](c3ccc(Cl)cc3)C2)cc1
REMARK SMILES IDX 19 1 18 2 16 3 17 4 15 5 12 6 13 7 73 8 14 9 72 10 11 11
REMARK SMILES IDX 9 12 10 13 82 14 74 15 8 16 5 17 6 18 84 19 7 20 83 21 2 22
REMARK SMILES IDX 1 23 3 24 4 25 75 26 76 27 81 28 77 29 80 30 78 31 79 32
REMARK SMILES IDX 20 33 21 34 22 35 23 36 24 37 25 38 71 39 26 40 70 41 27 42
REMARK SMILES IDX 28 43 29 44 64 45 30 46 69 47 63 48 65 49 31 50 68 51 62 52
REMARK SMILES IDX 61 53 32 55 54 56 39 57 53 58 40 59 43 60 52 61 66 62 41 63
REMARK SMILES IDX 42 64 51 66 67 67 44 68 33 69 34 70 38 71 35 72 37 73 36 74
REMARK SMILES IDX 55 75 56 76 60 77 57 78 59 79 58 80 45 81 46 82 50 83 47 84
REMARK SMILES IDX 49 85 48 86
REMARK H PARENT 65 54 43 65
REMARK Flexibility Score: inf
ROOT
ATOM      1  C   UNL A   1      34.065  33.669  29.367  1.00  0.00     0.275 C 
ENDROOT
BRANCH   1   2
ATOM      2  O   UNL A   1      33.803  32.324  28.919  1.00  0.00    -0.458 OA
BRANCH   2   3
ATOM      3  C   UNL A   1      34.590  31.871  27.913  1.00  0.00     0.338 C 
ATOM      4  O   UNL A   1      35.654  32.351  27.553  1.00  0.00    -0.246 OA
BRANCH   3   5
ATOM      5  C   UNL A   1      34.033  30.630  27.317  1.00  0.00     0.060 A 
ATOM      6  C   UNL A   1      33.103  28.297  26.058  1.00  0.00     0.060 A 
ATOM      7  C   UNL A   1      34.461  28.449  26.337  1.00  0.00     0.029 A 
ATOM      8  C   UNL A   1      32.210  29.299  26.465  1.00  0.00     0.029 A 
ATOM      9  C   UNL A   1      34.927  29.620  26.932  1.00  0.00     0.018 A 
ATOM     10  C   UNL A   1      32.666  30.460  27.096  1.00  0.00     0.018 A 
BRANCH   6  11
ATOM     11  N   UNL A   1      32.649  27.242  25.266  1.00  0.00    -0.257 N 
ATOM     12  C   UNL A   1      32.873  25.225  24.622  1.00  0.00     0.071 C 
ATOM     13  N   UNL A   1      32.831  25.968  25.685  1.00  0.00    -0.176 NA
ATOM     14  C   UNL A   1      32.845  25.962  23.310  1.00  0.00     0.091 C 
ATOM     15  C   UNL A   1      32.630  27.399  23.806  1.00  0.00     0.144 C 
BRANCH  12  16
ATOM     16  C   UNL A   1      32.940  23.752  24.697  1.00  0.00    -0.002 A 
ATOM     17  C   UNL A   1      33.120  20.972  24.722  1.00  0.00     0.067 A 
ATOM     18  C   UNL A   1      33.822  21.697  23.758  1.00  0.00     0.021 A 
ATOM     19  C   UNL A   1      32.318  21.624  25.667  1.00  0.00     0.021 A 
ATOM     20  C   UNL A   1      33.724  23.087  23.744  1.00  0.00     0.011 A 
ATOM     21  C   UNL A   1      32.240  23.022  25.664  1.00  0.00     0.011 A 
BRANCH  17  22
ATOM     22  S   UNL A   1      33.199  19.194  24.712  1.00  0.00     0.175 S 
ATOM     23  C   UNL A   1      32.354  18.731  23.225  1.00  0.00     0.163 C 
ATOM     24  O   UNL A   1      32.408  18.711  25.827  1.00  0.00    -0.224 OA
ATOM     25  O   UNL A   1      34.597  18.837  24.573  1.00  0.00    -0.224 OA
ENDBRANCH  17  22
ENDBRANCH  12  16
BRANCH  15  26
ATOM     26  C   UNL A   1      31.350  28.125  23.413  1.00  0.00    -0.023 A 
ATOM     27  C   UNL A   1      31.333  29.289  22.633  1.00  0.00     0.007 A 
ATOM     28  C   UNL A   1      30.116  27.514  23.723  1.00  0.00     0.007 A 
ATOM     29  C   UNL A   1      30.123  29.815  22.166  1.00  0.00     0.021 A 
ATOM     30  C   UNL A   1      28.912  28.020  23.231  1.00  0.00     0.021 A 
ATOM     31  C   UNL A   1      28.922  29.169  22.451  1.00  0.00     0.041 A 
ATOM     32  Cl  UNL A   1      27.448  29.777  21.806  1.00  0.00    -0.084 Cl
ENDBRANCH  15  26
ENDBRANCH   6  11
ENDBRANCH   3   5
ENDBRANCH   2   3
ENDBRANCH   1   2
BRANCH   1  33
ATOM     33  C   UNL A   1      34.746  33.668  30.735  1.00  0.00     0.275 C 
BRANCH  33  34
ATOM     34  O   UNL A   1      34.605  32.381  31.366  1.00  0.00    -0.458 OA
BRANCH  34  35
ATOM     35  C   UNL A   1      35.504  32.111  32.339  1.00  0.00     0.338 C 
ATOM     36  O   UNL A   1      35.424  32.373  33.526  1.00  0.00    -0.246 OA
BRANCH  35  37
ATOM     37  C   UNL A   1      36.639  31.370  31.771  1.00  0.00     0.060 A 
ATOM     38  C   UNL A   1      37.854  31.401  32.448  1.00  0.00     0.016 A 
ATOM     39  C   UNL A   1      36.556  30.788  30.509  1.00  0.00     0.016 A 
ATOM     40  C   UNL A   1      39.013  30.934  31.838  1.00  0.00     0.010 A 
ATOM     41  C   UNL A   1      37.707  30.234  29.933  1.00  0.00     0.010 A 
ATOM     42  C   UNL A   1      38.957  30.334  30.574  1.00  0.00    -0.014 A 
BRANCH  42  43
ATOM     43  C   UNL A   1      40.206  29.859  29.912  1.00  0.00     0.031 A 
ATOM     44  C   UNL A   1      41.381  30.791  29.747  1.00  0.00     0.074 A 
ATOM     45  C   UNL A   1      40.308  28.588  29.473  1.00  0.00     0.049 A 
ATOM     46  N   UNL A   1      42.485  30.619  29.063  1.00  0.00    -0.248 NA
ATOM     47  C   UNL A   1      41.295  32.092  30.430  1.00  0.00     0.031 C 
ATOM     48  C   UNL A   1      39.281  27.553  29.615  1.00  0.00     0.029 A 
ATOM     49  N   UNL A   1      41.334  27.945  28.824  1.00  0.00    -0.354 N 
ATOM     50  C   UNL A   1      43.193  31.810  29.182  1.00  0.00     0.074 A 
ATOM     51  C   UNL A   1      42.393  32.697  29.999  1.00  0.00     0.031 C 
ATOM     52  C   UNL A   1      39.746  26.399  29.113  1.00  0.00     0.029 A 
ATOM     53  C   UNL A   1      41.061  26.631  28.528  1.00  0.00     0.049 A 
ATOM     54  H   UNL A   1      42.185  28.384  28.594  1.00  0.00     0.167 HD
ATOM     55  C   UNL A   1      44.398  32.137  28.653  1.00  0.00     0.031 A 
ATOM     56  C   UNL A   1      41.764  25.722  27.826  1.00  0.00     0.031 A 
ATOM     57  C   UNL A   1      45.215  31.240  27.879  1.00  0.00     0.049 A 
ATOM     58  C   UNL A   1      43.071  26.124  27.207  1.00  0.00     0.074 A 
ATOM     59  C   UNL A   1      46.462  31.472  27.322  1.00  0.00     0.029 A 
ATOM     60  N   UNL A   1      44.874  29.935  27.562  1.00  0.00    -0.354 N 
ATOM     61  N   UNL A   1      43.707  27.266  27.289  1.00  0.00    -0.248 NA
ATOM     62  C   UNL A   1      43.748  25.113  26.382  1.00  0.00     0.031 C 
ATOM     63  C   UNL A   1      46.851  30.322  26.627  1.00  0.00     0.029 A 
ATOM     64  C   UNL A   1      45.874  29.356  26.798  1.00  0.00     0.049 A 
ATOM     65  H   UNL A   1      44.043  29.485  27.839  1.00  0.00     0.167 HD
ATOM     66  C   UNL A   1      44.866  27.108  26.541  1.00  0.00     0.074 A 
ATOM     67  C   UNL A   1      44.855  25.752  26.032  1.00  0.00     0.031 C 
ATOM     68  C   UNL A   1      45.850  28.007  26.297  1.00  0.00     0.031 A 
BRANCH  55  69
ATOM     69  C   UNL A   1      44.884  33.548  28.850  1.00  0.00    -0.014 A 
ATOM     70  C   UNL A   1      44.549  34.579  27.960  1.00  0.00     0.009 A 
ATOM     71  C   UNL A   1      45.670  33.852  29.974  1.00  0.00     0.009 A 
ATOM     72  C   UNL A   1      45.024  35.877  28.172  1.00  0.00     0.001 A 
ATOM     73  C   UNL A   1      46.117  35.154  30.200  1.00  0.00     0.001 A 
ATOM     74  C   UNL A   1      45.803  36.165  29.293  1.00  0.00     0.000 A 
ENDBRANCH  55  69
BRANCH  56  75
ATOM     75  C   UNL A   1      41.220  24.352  27.630  1.00  0.00    -0.014 A 
ATOM     76  C   UNL A   1      40.152  24.127  26.748  1.00  0.00     0.009 A 
ATOM     77  C   UNL A   1      41.765  23.260  28.325  1.00  0.00     0.009 A 
ATOM     78  C   UNL A   1      39.633  22.841  26.578  1.00  0.00     0.001 A 
ATOM     79  C   UNL A   1      41.266  21.971  28.128  1.00  0.00     0.001 A 
ATOM     80  C   UNL A   1      40.195  21.764  27.262  1.00  0.00     0.000 A 
ENDBRANCH  56  75
BRANCH  68  81
ATOM     81  C   UNL A   1      47.016  27.537  25.474  1.00  0.00    -0.014 A 
ATOM     82  C   UNL A   1      48.090  26.848  26.058  1.00  0.00     0.009 A 
ATOM     83  C   UNL A   1      47.026  27.768  24.090  1.00  0.00     0.009 A 
ATOM     84  C   UNL A   1      49.168  26.428  25.275  1.00  0.00     0.001 A 
ATOM     85  C   UNL A   1      48.091  27.323  23.305  1.00  0.00     0.001 A 
ATOM     86  C   UNL A   1      49.165  26.663  23.900  1.00  0.00     0.000 A 
ENDBRANCH  68  81
ENDBRANCH  42  43
ENDBRANCH  35  37
ENDBRANCH  34  35
ENDBRANCH  33  34
ENDBRANCH   1  33
TORSDOF 15
ENDMDL
