MODEL 1
REMARK VINA RESULT:     -10.2      0.000      0.000
REMARK SMILES C[C@H](O)[C@H](NC(=O)N1CC[N@@H+]2CCC[C@@H]2C1)C(=O)OCCOC(=O)c1ccc(-c2c3nc(c(-c4ccccc4)c4ccc([nH]4)c(-c4ccccc4)c4nc(c(-c5ccccc5)c5ccc2[nH]5)C=C4)C=C3)cc1
REMARK SMILES IDX 20 1 19 2 17 3 18 4 4 5 2 6 1 7 3 8 5 10 6 11 7 13 8 14 9 15
REMARK SMILES IDX 16 16 10 17 15 18 11 19 14 20 12 21 13 23 21 24 22 25 23 26
REMARK SMILES IDX 24 27 25 28 26 29 72 30 27 31 71 32 28 33 29 34 30 35 65 36
REMARK SMILES IDX 31 37 70 38 64 39 66 40 32 41 69 42 63 43 62 44 33 46 55 47
REMARK SMILES IDX 40 48 54 49 41 50 44 51 53 52 67 53 42 54 43 55 52 57 68 58
REMARK SMILES IDX 45 59 34 60 35 61 39 62 36 63 38 64 37 65 56 66 57 67 61 68
REMARK SMILES IDX 58 69 60 70 59 71 46 72 47 73 51 74 48 75 50 76 49 77
REMARK H PARENT 3 9 5 12 11 22 66 45 44 56
REMARK Flexibility Score: inf
ROOT
ATOM      1  C   UNL A   1      35.776  20.086  24.995  1.00  0.00     0.274 C 
ENDROOT
BRANCH   1   2
ATOM      2  O   UNL A   1      34.745  21.057  24.741  1.00  0.00    -0.460 OA
BRANCH   2   3
ATOM      3  C   UNL A   1      33.874  21.331  25.762  1.00  0.00     0.331 C 
ATOM      4  O   UNL A   1      33.415  20.492  26.527  1.00  0.00    -0.250 OA
BRANCH   3   5
ATOM      5  C   UNL A   1      33.483  22.825  25.776  1.00  0.00     0.222 C 
BRANCH   5   6
ATOM      6  C   UNL A   1      34.738  23.640  26.165  1.00  0.00     0.145 C 
ATOM      7  C   UNL A   1      35.429  24.177  24.908  1.00  0.00     0.041 C 
BRANCH   6   8
ATOM      8  O   UNL A   1      35.682  22.894  26.933  1.00  0.00    -0.391 OA
ATOM      9  H   UNL A   1      36.212  22.336  26.342  1.00  0.00     0.211 HD
ENDBRANCH   6   8
ENDBRANCH   5   6
BRANCH   5  10
ATOM     10  N   UNL A   1      32.259  22.993  26.576  1.00  0.00    -0.322 N 
ATOM     11  C   UNL A   1      31.196  23.821  26.499  1.00  0.00     0.318 C 
ATOM     12  H   UNL A   1      32.204  22.364  27.332  1.00  0.00     0.166 HD
ATOM     13  O   UNL A   1      30.217  23.609  27.209  1.00  0.00    -0.249 OA
BRANCH  11  14
ATOM     14  N   UNL A   1      31.344  24.965  25.778  1.00  0.00    -0.313 N 
ATOM     15  C   UNL A   1      30.522  25.244  24.599  1.00  0.00     0.183 C 
ATOM     16  C   UNL A   1      31.881  26.118  26.489  1.00  0.00     0.186 C 
ATOM     17  C   UNL A   1      31.011  26.508  23.866  1.00  0.00     0.284 C 
ATOM     18  C   UNL A   1      31.198  27.452  26.147  1.00  0.00     0.204 C 
ATOM     19  N   UNL A   1      30.931  27.704  24.714  1.00  0.00    -0.330 N 
ATOM     20  C   UNL A   1      32.038  28.638  26.627  1.00  0.00     0.073 C 
ATOM     21  C   UNL A   1      31.792  28.800  24.274  1.00  0.00     0.262 C 
ATOM     22  H   UNL A   1      29.956  27.982  24.608  1.00  0.00     0.348 HD
ATOM     23  C   UNL A   1      31.901  29.664  25.518  1.00  0.00     0.068 C 
ENDBRANCH  11  14
ENDBRANCH   5  10
ENDBRANCH   3   5
ENDBRANCH   2   3
ENDBRANCH   1   2
BRANCH   1  24
ATOM     24  C   UNL A   1      37.166  20.638  24.657  1.00  0.00     0.275 C 
BRANCH  24  25
ATOM     25  O   UNL A   1      37.673  21.492  25.699  1.00  0.00    -0.458 OA
BRANCH  25  26
ATOM     26  C   UNL A   1      38.927  21.201  26.120  1.00  0.00     0.338 C 
ATOM     27  O   UNL A   1      39.513  20.137  26.006  1.00  0.00    -0.246 OA
BRANCH  26  28
ATOM     28  C   UNL A   1      39.593  22.436  26.572  1.00  0.00     0.060 A 
ATOM     29  C   UNL A   1      39.077  23.653  26.111  1.00  0.00     0.016 A 
ATOM     30  C   UNL A   1      40.712  22.412  27.404  1.00  0.00     0.016 A 
ATOM     31  C   UNL A   1      39.668  24.852  26.484  1.00  0.00     0.010 A 
ATOM     32  C   UNL A   1      41.317  23.618  27.767  1.00  0.00     0.010 A 
ATOM     33  C   UNL A   1      40.801  24.841  27.302  1.00  0.00    -0.014 A 
BRANCH  33  34
ATOM     34  C   UNL A   1      41.493  26.112  27.604  1.00  0.00     0.031 A 
ATOM     35  C   UNL A   1      40.826  27.116  28.496  1.00  0.00     0.074 A 
ATOM     36  C   UNL A   1      42.718  26.348  27.103  1.00  0.00     0.049 A 
ATOM     37  N   UNL A   1      41.211  28.325  28.812  1.00  0.00    -0.248 NA
ATOM     38  C   UNL A   1      39.558  26.701  29.118  1.00  0.00     0.031 C 
ATOM     39  C   UNL A   1      43.493  25.415  26.285  1.00  0.00     0.029 A 
ATOM     40  N   UNL A   1      43.524  27.452  27.211  1.00  0.00    -0.354 N 
ATOM     41  C   UNL A   1      40.222  28.825  29.649  1.00  0.00     0.074 A 
ATOM     42  C   UNL A   1      39.215  27.794  29.783  1.00  0.00     0.031 C 
ATOM     43  C   UNL A   1      44.662  25.989  25.959  1.00  0.00     0.029 A 
ATOM     44  C   UNL A   1      44.695  27.344  26.501  1.00  0.00     0.049 A 
ATOM     45  H   UNL A   1      43.287  28.244  27.745  1.00  0.00     0.167 HD
ATOM     46  C   UNL A   1      40.160  30.037  30.247  1.00  0.00     0.031 A 
ATOM     47  C   UNL A   1      45.665  28.253  26.286  1.00  0.00     0.031 A 
ATOM     48  C   UNL A   1      41.163  31.058  30.102  1.00  0.00     0.049 A 
ATOM     49  C   UNL A   1      45.528  29.624  26.889  1.00  0.00     0.074 A 
ATOM     50  C   UNL A   1      41.193  32.324  30.664  1.00  0.00     0.029 A 
ATOM     51  N   UNL A   1      42.312  30.930  29.337  1.00  0.00    -0.354 N 
ATOM     52  N   UNL A   1      44.583  30.095  27.666  1.00  0.00    -0.248 NA
ATOM     53  C   UNL A   1      46.592  30.591  26.579  1.00  0.00     0.031 C 
ATOM     54  C   UNL A   1      42.338  32.978  30.198  1.00  0.00     0.029 A 
ATOM     55  C   UNL A   1      43.048  32.102  29.392  1.00  0.00     0.049 A 
ATOM     56  H   UNL A   1      42.567  30.125  28.831  1.00  0.00     0.167 HD
ATOM     57  C   UNL A   1      44.948  31.403  27.959  1.00  0.00     0.074 A 
ATOM     58  C   UNL A   1      46.208  31.646  27.286  1.00  0.00     0.031 C 
ATOM     59  C   UNL A   1      44.299  32.320  28.716  1.00  0.00     0.031 A 
BRANCH  46  60
ATOM     60  C   UNL A   1      38.940  30.339  31.068  1.00  0.00    -0.014 A 
ATOM     61  C   UNL A   1      37.815  30.963  30.508  1.00  0.00     0.009 A 
ATOM     62  C   UNL A   1      38.908  29.970  32.422  1.00  0.00     0.009 A 
ATOM     63  C   UNL A   1      36.696  31.242  31.295  1.00  0.00     0.001 A 
ATOM     64  C   UNL A   1      37.780  30.227  33.201  1.00  0.00     0.001 A 
ATOM     65  C   UNL A   1      36.678  30.870  32.640  1.00  0.00     0.000 A 
ENDBRANCH  46  60
BRANCH  47  66
ATOM     66  C   UNL A   1      46.827  27.912  25.425  1.00  0.00    -0.014 A 
ATOM     67  C   UNL A   1      46.747  28.036  24.031  1.00  0.00     0.009 A 
ATOM     68  C   UNL A   1      48.022  27.446  25.998  1.00  0.00     0.009 A 
ATOM     69  C   UNL A   1      47.834  27.683  23.226  1.00  0.00     0.001 A 
ATOM     70  C   UNL A   1      49.115  27.122  25.194  1.00  0.00     0.001 A 
ATOM     71  C   UNL A   1      49.018  27.231  23.808  1.00  0.00     0.000 A 
ENDBRANCH  47  66
BRANCH  59  72
ATOM     72  C   UNL A   1      44.960  33.658  28.887  1.00  0.00    -0.014 A 
ATOM     73  C   UNL A   1      44.678  34.726  28.022  1.00  0.00     0.009 A 
ATOM     74  C   UNL A   1      45.842  33.863  29.960  1.00  0.00     0.009 A 
ATOM     75  C   UNL A   1      45.289  35.968  28.214  1.00  0.00     0.001 A 
ATOM     76  C   UNL A   1      46.429  35.111  30.165  1.00  0.00     0.001 A 
ATOM     77  C   UNL A   1      46.159  36.160  29.287  1.00  0.00     0.000 A 
ENDBRANCH  59  72
ENDBRANCH  33  34
ENDBRANCH  26  28
ENDBRANCH  25  26
ENDBRANCH  24  25
ENDBRANCH   1  24
TORSDOF 15
ENDMDL
MODEL 2
REMARK VINA RESULT:     -10.0      3.364      6.948
REMARK SMILES C[C@H](O)[C@H](NC(=O)N1CC[N@@H+]2CCC[C@@H]2C1)C(=O)OCCOC(=O)c1ccc(-c2c3nc(c(-c4ccccc4)c4ccc([nH]4)c(-c4ccccc4)c4nc(c(-c5ccccc5)c5ccc2[nH]5)C=C4)C=C3)cc1
REMARK SMILES IDX 20 1 19 2 17 3 18 4 4 5 2 6 1 7 3 8 5 10 6 11 7 13 8 14 9 15
REMARK SMILES IDX 16 16 10 17 15 18 11 19 14 20 12 21 13 23 21 24 22 25 23 26
REMARK SMILES IDX 24 27 25 28 26 29 72 30 27 31 71 32 28 33 29 34 30 35 65 36
REMARK SMILES IDX 31 37 70 38 64 39 66 40 32 41 69 42 63 43 62 44 33 46 55 47
REMARK SMILES IDX 40 48 54 49 41 50 44 51 53 52 67 53 42 54 43 55 52 57 68 58
REMARK SMILES IDX 45 59 34 60 35 61 39 62 36 63 38 64 37 65 56 66 57 67 61 68
REMARK SMILES IDX 58 69 60 70 59 71 46 72 47 73 51 74 48 75 50 76 49 77
REMARK H PARENT 3 9 5 12 11 22 66 45 44 56
REMARK Flexibility Score: inf
ROOT
ATOM      1  C   UNL A   1      31.953  30.015  25.753  1.00  0.00     0.274 C 
ENDROOT
BRANCH   1   2
ATOM      2  O   UNL A   1      32.212  29.257  24.558  1.00  0.00    -0.460 OA
BRANCH   2   3
ATOM      3  C   UNL A   1      31.171  28.539  24.031  1.00  0.00     0.331 C 
ATOM      4  O   UNL A   1      30.096  29.020  23.695  1.00  0.00    -0.250 OA
BRANCH   3   5
ATOM      5  C   UNL A   1      31.498  27.030  23.990  1.00  0.00     0.222 C 
BRANCH   5   6
ATOM      6  C   UNL A   1      31.461  26.578  22.512  1.00  0.00     0.145 C 
ATOM      7  C   UNL A   1      32.795  25.932  22.123  1.00  0.00     0.041 C 
BRANCH   6   8
ATOM      8  O   UNL A   1      31.176  27.640  21.601  1.00  0.00    -0.391 OA
ATOM      9  H   UNL A   1      31.238  27.311  20.690  1.00  0.00     0.211 HD
ENDBRANCH   6   8
ENDBRANCH   5   6
BRANCH   5  10
ATOM     10  N   UNL A   1      30.646  26.328  24.962  1.00  0.00    -0.322 N 
ATOM     11  C   UNL A   1      30.836  25.274  25.785  1.00  0.00     0.318 C 
ATOM     12  H   UNL A   1      29.740  26.708  25.026  1.00  0.00     0.166 HD
ATOM     13  O   UNL A   1      29.988  25.015  26.634  1.00  0.00    -0.249 OA
BRANCH  11  14
ATOM     14  N   UNL A   1      31.868  24.436  25.501  1.00  0.00    -0.313 N 
ATOM     15  C   UNL A   1      33.172  24.571  26.151  1.00  0.00     0.183 C 
ATOM     16  C   UNL A   1      31.513  23.107  25.017  1.00  0.00     0.186 C 
ATOM     17  C   UNL A   1      34.210  23.619  25.522  1.00  0.00     0.284 C 
ATOM     18  C   UNL A   1      32.366  21.969  25.598  1.00  0.00     0.204 C 
ATOM     19  N   UNL A   1      33.824  22.210  25.666  1.00  0.00    -0.330 N 
ATOM     20  C   UNL A   1      32.197  20.684  24.783  1.00  0.00     0.073 C 
ATOM     21  C   UNL A   1      34.480  21.317  24.714  1.00  0.00     0.262 C 
ATOM     22  H   UNL A   1      34.147  21.990  26.608  1.00  0.00     0.348 HD
ATOM     23  C   UNL A   1      33.590  20.087  24.735  1.00  0.00     0.068 C 
ENDBRANCH  11  14
ENDBRANCH   5  10
ENDBRANCH   3   5
ENDBRANCH   2   3
ENDBRANCH   1   2
BRANCH   1  24
ATOM     24  C   UNL A   1      32.594  29.363  26.984  1.00  0.00     0.275 C 
BRANCH  24  25
ATOM     25  O   UNL A   1      34.029  29.465  26.961  1.00  0.00    -0.458 OA
BRANCH  25  26
ATOM     26  C   UNL A   1      34.549  30.429  27.757  1.00  0.00     0.338 C 
ATOM     27  O   UNL A   1      33.969  31.405  28.206  1.00  0.00    -0.246 OA
BRANCH  26  28
ATOM     28  C   UNL A   1      35.899  30.032  28.194  1.00  0.00     0.060 A 
ATOM     29  C   UNL A   1      36.929  30.099  27.249  1.00  0.00     0.016 A 
ATOM     30  C   UNL A   1      36.155  29.576  29.487  1.00  0.00     0.016 A 
ATOM     31  C   UNL A   1      38.221  29.722  27.589  1.00  0.00     0.010 A 
ATOM     32  C   UNL A   1      37.452  29.181  29.826  1.00  0.00     0.010 A 
ATOM     33  C   UNL A   1      38.487  29.247  28.876  1.00  0.00    -0.014 A 
BRANCH  33  34
ATOM     34  C   UNL A   1      39.837  28.740  29.199  1.00  0.00     0.031 A 
ATOM     35  C   UNL A   1      40.789  29.620  29.952  1.00  0.00     0.074 A 
ATOM     36  C   UNL A   1      40.193  27.493  28.845  1.00  0.00     0.049 A 
ATOM     37  N   UNL A   1      42.044  29.412  30.255  1.00  0.00    -0.248 NA
ATOM     38  C   UNL A   1      40.255  30.907  30.430  1.00  0.00     0.031 C 
ATOM     39  C   UNL A   1      39.326  26.523  28.176  1.00  0.00     0.029 A 
ATOM     40  N   UNL A   1      41.384  26.832  28.999  1.00  0.00    -0.354 N 
ATOM     41  C   UNL A   1      42.458  30.550  30.936  1.00  0.00     0.074 A 
ATOM     42  C   UNL A   1      41.325  31.449  30.994  1.00  0.00     0.031 C 
ATOM     43  C   UNL A   1      40.017  25.390  27.971  1.00  0.00     0.029 A 
ATOM     44  C   UNL A   1      41.385  25.574  28.447  1.00  0.00     0.049 A 
ATOM     45  H   UNL A   1      42.163  27.220  29.460  1.00  0.00     0.167 HD
ATOM     46  C   UNL A   1      43.676  30.818  31.462  1.00  0.00     0.031 A 
ATOM     47  C   UNL A   1      42.390  24.688  28.310  1.00  0.00     0.031 A 
ATOM     48  C   UNL A   1      44.798  29.921  31.395  1.00  0.00     0.049 A 
ATOM     49  C   UNL A   1      43.756  25.048  28.825  1.00  0.00     0.074 A 
ATOM     50  C   UNL A   1      46.077  30.100  31.894  1.00  0.00     0.029 A 
ATOM     51  N   UNL A   1      44.774  28.676  30.786  1.00  0.00    -0.354 N 
ATOM     52  N   UNL A   1      44.144  26.130  29.454  1.00  0.00    -0.248 NA
ATOM     53  C   UNL A   1      44.826  24.064  28.604  1.00  0.00     0.031 C 
ATOM     54  C   UNL A   1      46.840  28.982  31.544  1.00  0.00     0.029 A 
ATOM     55  C   UNL A   1      46.022  28.083  30.876  1.00  0.00     0.049 A 
ATOM     56  H   UNL A   1      43.986  28.272  30.355  1.00  0.00     0.167 HD
ATOM     57  C   UNL A   1      45.494  25.949  29.726  1.00  0.00     0.074 A 
ATOM     58  C   UNL A   1      45.854  24.647  29.205  1.00  0.00     0.031 C 
ATOM     59  C   UNL A   1      46.358  26.786  30.351  1.00  0.00     0.031 A 
BRANCH  46  60
ATOM     60  C   UNL A   1      43.865  32.160  32.109  1.00  0.00    -0.014 A 
ATOM     61  C   UNL A   1      44.233  33.289  31.361  1.00  0.00     0.009 A 
ATOM     62  C   UNL A   1      43.649  32.300  33.489  1.00  0.00     0.009 A 
ATOM     63  C   UNL A   1      44.413  34.523  31.988  1.00  0.00     0.001 A 
ATOM     64  C   UNL A   1      43.805  33.540  34.110  1.00  0.00     0.001 A 
ATOM     65  C   UNL A   1      44.195  34.649  33.361  1.00  0.00     0.000 A 
ENDBRANCH  46  60
BRANCH  47  66
ATOM     66  C   UNL A   1      42.152  23.394  27.619  1.00  0.00    -0.014 A 
ATOM     67  C   UNL A   1      42.509  23.224  26.274  1.00  0.00     0.009 A 
ATOM     68  C   UNL A   1      41.554  22.323  28.303  1.00  0.00     0.009 A 
ATOM     69  C   UNL A   1      42.253  22.015  25.622  1.00  0.00     0.001 A 
ATOM     70  C   UNL A   1      41.327  21.107  27.658  1.00  0.00     0.001 A 
ATOM     71  C   UNL A   1      41.668  20.956  26.316  1.00  0.00     0.000 A 
ENDBRANCH  47  66
BRANCH  59  72
ATOM     72  C   UNL A   1      47.767  26.301  30.539  1.00  0.00    -0.014 A 
ATOM     73  C   UNL A   1      48.724  26.431  29.521  1.00  0.00     0.009 A 
ATOM     74  C   UNL A   1      48.151  25.748  31.771  1.00  0.00     0.009 A 
ATOM     75  C   UNL A   1      50.034  25.991  29.726  1.00  0.00     0.001 A 
ATOM     76  C   UNL A   1      49.466  25.335  31.982  1.00  0.00     0.001 A 
ATOM     77  C   UNL A   1      50.404  25.450  30.957  1.00  0.00     0.000 A 
ENDBRANCH  59  72
ENDBRANCH  33  34
ENDBRANCH  26  28
ENDBRANCH  25  26
ENDBRANCH  24  25
ENDBRANCH   1  24
TORSDOF 15
ENDMDL
MODEL 3
REMARK VINA RESULT:     -10.0      2.933      6.522
REMARK SMILES C[C@H](O)[C@H](NC(=O)N1CC[N@@H+]2CCC[C@@H]2C1)C(=O)OCCOC(=O)c1ccc(-c2c3nc(c(-c4ccccc4)c4ccc([nH]4)c(-c4ccccc4)c4nc(c(-c5ccccc5)c5ccc2[nH]5)C=C4)C=C3)cc1
REMARK SMILES IDX 20 1 19 2 17 3 18 4 4 5 2 6 1 7 3 8 5 10 6 11 7 13 8 14 9 15
REMARK SMILES IDX 16 16 10 17 15 18 11 19 14 20 12 21 13 23 21 24 22 25 23 26
REMARK SMILES IDX 24 27 25 28 26 29 72 30 27 31 71 32 28 33 29 34 30 35 65 36
REMARK SMILES IDX 31 37 70 38 64 39 66 40 32 41 69 42 63 43 62 44 33 46 55 47
REMARK SMILES IDX 40 48 54 49 41 50 44 51 53 52 67 53 42 54 43 55 52 57 68 58
REMARK SMILES IDX 45 59 34 60 35 61 39 62 36 63 38 64 37 65 56 66 57 67 61 68
REMARK SMILES IDX 58 69 60 70 59 71 46 72 47 73 51 74 48 75 50 76 49 77
REMARK H PARENT 3 9 5 12 11 22 66 45 44 56
REMARK Flexibility Score: inf
ROOT
ATOM      1  C   UNL A   1      35.932  21.350  25.282  1.00  0.00     0.274 C 
ENDROOT
BRANCH   1   2
ATOM      2  O   UNL A   1      34.643  21.809  24.837  1.00  0.00    -0.460 OA
BRANCH   2   3
ATOM      3  C   UNL A   1      33.869  22.484  25.743  1.00  0.00     0.331 C 
ATOM      4  O   UNL A   1      34.077  22.510  26.950  1.00  0.00    -0.250 OA
BRANCH   3   5
ATOM      5  C   UNL A   1      32.654  23.145  25.057  1.00  0.00     0.222 C 
BRANCH   5   6
ATOM      6  C   UNL A   1      31.408  22.281  25.363  1.00  0.00     0.145 C 
ATOM      7  C   UNL A   1      30.583  22.923  26.482  1.00  0.00     0.041 C 
BRANCH   6   8
ATOM      8  O   UNL A   1      31.727  20.939  25.731  1.00  0.00    -0.391 OA
ATOM      9  H   UNL A   1      31.265  20.710  26.553  1.00  0.00     0.211 HD
ENDBRANCH   6   8
ENDBRANCH   5   6
BRANCH   5  10
ATOM     10  N   UNL A   1      32.989  23.423  23.651  1.00  0.00    -0.322 N 
ATOM     11  C   UNL A   1      33.230  24.552  22.951  1.00  0.00     0.318 C 
ATOM     12  H   UNL A   1      33.050  22.608  23.101  1.00  0.00     0.166 HD
ATOM     13  O   UNL A   1      33.672  24.467  21.808  1.00  0.00    -0.249 OA
BRANCH  11  14
ATOM     14  N   UNL A   1      32.786  25.724  23.480  1.00  0.00    -0.313 N 
ATOM     15  C   UNL A   1      33.708  26.727  24.014  1.00  0.00     0.183 C 
ATOM     16  C   UNL A   1      31.500  26.210  22.996  1.00  0.00     0.186 C 
ATOM     17  C   UNL A   1      32.945  27.870  24.712  1.00  0.00     0.284 C 
ATOM     18  C   UNL A   1      31.443  27.725  22.749  1.00  0.00     0.204 C 
ATOM     19  N   UNL A   1      32.054  28.583  23.788  1.00  0.00    -0.330 N 
ATOM     20  C   UNL A   1      29.997  28.207  22.613  1.00  0.00     0.073 C 
ATOM     21  C   UNL A   1      30.987  29.327  24.453  1.00  0.00     0.262 C 
ATOM     22  H   UNL A   1      32.689  29.240  23.336  1.00  0.00     0.348 HD
ATOM     23  C   UNL A   1      29.978  29.539  23.338  1.00  0.00     0.068 C 
ENDBRANCH  11  14
ENDBRANCH   5  10
ENDBRANCH   3   5
ENDBRANCH   2   3
ENDBRANCH   1   2
BRANCH   1  24
ATOM     24  C   UNL A   1      37.046  22.325  24.885  1.00  0.00     0.275 C 
BRANCH  24  25
ATOM     25  O   UNL A   1      37.515  23.093  26.008  1.00  0.00    -0.458 OA
BRANCH  25  26
ATOM     26  C   UNL A   1      38.838  22.972  26.273  1.00  0.00     0.338 C 
ATOM     27  O   UNL A   1      39.575  22.058  25.942  1.00  0.00    -0.246 OA
BRANCH  26  28
ATOM     28  C   UNL A   1      39.337  24.228  26.864  1.00  0.00     0.060 A 
ATOM     29  C   UNL A   1      38.982  24.503  28.189  1.00  0.00     0.016 A 
ATOM     30  C   UNL A   1      40.111  25.131  26.136  1.00  0.00     0.016 A 
ATOM     31  C   UNL A   1      39.403  25.677  28.799  1.00  0.00     0.010 A 
ATOM     32  C   UNL A   1      40.522  26.320  26.745  1.00  0.00     0.010 A 
ATOM     33  C   UNL A   1      40.164  26.599  28.076  1.00  0.00    -0.014 A 
BRANCH  33  34
ATOM     34  C   UNL A   1      40.514  27.896  28.692  1.00  0.00     0.031 A 
ATOM     35  C   UNL A   1      41.900  28.103  29.226  1.00  0.00     0.074 A 
ATOM     36  C   UNL A   1      39.605  28.885  28.746  1.00  0.00     0.049 A 
ATOM     37  N   UNL A   1      42.388  29.121  29.886  1.00  0.00    -0.248 NA
ATOM     38  C   UNL A   1      42.866  27.019  28.982  1.00  0.00     0.031 C 
ATOM     39  C   UNL A   1      38.252  28.822  28.193  1.00  0.00     0.029 A 
ATOM     40  N   UNL A   1      39.687  30.138  29.296  1.00  0.00    -0.354 N 
ATOM     41  C   UNL A   1      43.709  28.792  30.157  1.00  0.00     0.074 A 
ATOM     42  C   UNL A   1      43.944  27.476  29.601  1.00  0.00     0.031 C 
ATOM     43  C   UNL A   1      37.627  29.985  28.439  1.00  0.00     0.029 A 
ATOM     44  C   UNL A   1      38.516  30.851  29.208  1.00  0.00     0.049 A 
ATOM     45  H   UNL A   1      40.505  30.492  29.715  1.00  0.00     0.167 HD
ATOM     46  C   UNL A   1      44.640  29.522  30.815  1.00  0.00     0.031 A 
ATOM     47  C   UNL A   1      38.192  32.052  29.723  1.00  0.00     0.031 A 
ATOM     48  C   UNL A   1      44.395  30.826  31.370  1.00  0.00     0.049 A 
ATOM     49  C   UNL A   1      39.216  32.803  30.526  1.00  0.00     0.074 A 
ATOM     50  C   UNL A   1      45.270  31.649  32.059  1.00  0.00     0.029 A 
ATOM     51  N   UNL A   1      43.184  31.496  31.302  1.00  0.00    -0.354 N 
ATOM     52  N   UNL A   1      40.459  32.480  30.792  1.00  0.00    -0.248 NA
ATOM     53  C   UNL A   1      38.791  34.086  31.106  1.00  0.00     0.031 C 
ATOM     54  C   UNL A   1      44.572  32.796  32.448  1.00  0.00     0.029 A 
ATOM     55  C   UNL A   1      43.279  32.712  31.956  1.00  0.00     0.049 A 
ATOM     56  H   UNL A   1      42.375  31.158  30.853  1.00  0.00     0.167 HD
ATOM     57  C   UNL A   1      40.971  33.526  31.548  1.00  0.00     0.074 A 
ATOM     58  C   UNL A   1      39.909  34.501  31.687  1.00  0.00     0.031 C 
ATOM     59  C   UNL A   1      42.210  33.667  32.080  1.00  0.00     0.031 A 
BRANCH  46  60
ATOM     60  C   UNL A   1      45.991  28.898  31.014  1.00  0.00    -0.014 A 
ATOM     61  C   UNL A   1      47.029  29.087  30.088  1.00  0.00     0.009 A 
ATOM     62  C   UNL A   1      46.235  28.125  32.160  1.00  0.00     0.009 A 
ATOM     63  C   UNL A   1      48.273  28.488  30.290  1.00  0.00     0.001 A 
ATOM     64  C   UNL A   1      47.487  27.547  32.372  1.00  0.00     0.001 A 
ATOM     65  C   UNL A   1      48.503  27.721  31.434  1.00  0.00     0.000 A 
ENDBRANCH  46  60
BRANCH  47  66
ATOM     66  C   UNL A   1      36.823  32.597  29.532  1.00  0.00    -0.014 A 
ATOM     67  C   UNL A   1      36.491  33.313  28.373  1.00  0.00     0.009 A 
ATOM     68  C   UNL A   1      35.841  32.412  30.519  1.00  0.00     0.009 A 
ATOM     69  C   UNL A   1      35.211  33.850  28.215  1.00  0.00     0.001 A 
ATOM     70  C   UNL A   1      34.555  32.925  30.346  1.00  0.00     0.001 A 
ATOM     71  C   UNL A   1      34.242  33.651  29.199  1.00  0.00     0.000 A 
ENDBRANCH  47  66
BRANCH  59  72
ATOM     72  C   UNL A   1      42.493  34.939  32.828  1.00  0.00    -0.014 A 
ATOM     73  C   UNL A   1      42.056  35.120  34.149  1.00  0.00     0.009 A 
ATOM     74  C   UNL A   1      43.250  35.949  32.214  1.00  0.00     0.009 A 
ATOM     75  C   UNL A   1      42.350  36.303  34.831  1.00  0.00     0.001 A 
ATOM     76  C   UNL A   1      43.565  37.118  32.908  1.00  0.00     0.001 A 
ATOM     77  C   UNL A   1      43.107  37.296  34.212  1.00  0.00     0.000 A 
ENDBRANCH  59  72
ENDBRANCH  33  34
ENDBRANCH  26  28
ENDBRANCH  25  26
ENDBRANCH  24  25
ENDBRANCH   1  24
TORSDOF 15
ENDMDL
