MODEL 1
REMARK VINA RESULT:      -8.5      0.000      0.000
REMARK SMILES O=C(COc1ccnc(NCc2ccc(Br)cc2)n1)OCCOC(=O)c1ccc(-c2c3nc(c(-c4ccccc4)c4ccc([nH]4)c(-c4ccccc4)c4nc(c(-c5ccccc5)c5ccc2[nH]5)C=C4)C=C3)cc1
REMARK SMILES IDX 20 1 2 2 1 3 3 4 4 5 5 6 6 7 19 8 7 9 9 10 8 11 10 12 11 14
REMARK SMILES IDX 12 15 13 16 18 17 14 18 17 19 15 20 16 21 21 22 22 23 23 24
REMARK SMILES IDX 24 25 25 26 26 27 27 28 73 29 28 30 72 31 29 32 30 33 31 34
REMARK SMILES IDX 66 35 32 36 71 37 65 38 67 39 33 40 70 41 64 42 63 43 34 45
REMARK SMILES IDX 56 46 41 47 55 48 42 49 45 50 54 51 68 52 43 53 44 54 53 56
REMARK SMILES IDX 69 57 46 58 35 59 36 60 40 61 37 62 39 63 38 64 57 65 58 66
REMARK SMILES IDX 62 67 59 68 61 69 60 70 47 71 48 72 52 73 49 74 51 75 50 76
REMARK H PARENT 10 13 67 44 45 55
REMARK Flexibility Score: inf
ROOT
ATOM      1  O   UNL A   1      42.656  19.904  25.436  1.00  0.00    -0.460 OA
ENDROOT
BRANCH   1   2
ATOM      2  C   UNL A   1      43.868  19.502  24.983  1.00  0.00     0.344 C 
ATOM      3  O   UNL A   1      44.080  18.318  24.726  1.00  0.00    -0.248 OA
BRANCH   2   4
ATOM      4  C   UNL A   1      44.921  20.561  24.718  1.00  0.00     0.353 C 
BRANCH   4   5
ATOM      5  O   UNL A   1      44.917  21.503  25.787  1.00  0.00    -0.466 OA
BRANCH   5   6
ATOM      6  C   UNL A   1      45.478  22.670  25.339  1.00  0.00     0.218 A 
ATOM      7  C   UNL A   1      46.458  22.634  24.380  1.00  0.00     0.088 A 
ATOM      8  N   UNL A   1      45.019  23.782  25.922  1.00  0.00    -0.177 NA
ATOM      9  C   UNL A   1      46.987  23.856  24.068  1.00  0.00     0.121 A 
ATOM     10  C   UNL A   1      45.597  24.926  25.546  1.00  0.00     0.226 A 
ATOM     11  N   UNL A   1      46.575  25.007  24.634  1.00  0.00    -0.221 NA
BRANCH  10  12
ATOM     12  N   UNL A   1      45.222  26.098  26.132  1.00  0.00    -0.350 N 
ATOM     13  H   UNL A   1      45.739  26.442  26.896  1.00  0.00     0.164 HD
BRANCH  12  14
ATOM     14  C   UNL A   1      44.092  26.842  25.658  1.00  0.00     0.152 C 
BRANCH  14  15
ATOM     15  C   UNL A   1      44.107  28.214  26.285  1.00  0.00    -0.029 A 
ATOM     16  C   UNL A   1      45.277  28.710  26.879  1.00  0.00     0.007 A 
ATOM     17  C   UNL A   1      42.940  28.993  26.317  1.00  0.00     0.007 A 
ATOM     18  C   UNL A   1      45.288  29.973  27.468  1.00  0.00     0.016 A 
ATOM     19  C   UNL A   1      42.954  30.260  26.901  1.00  0.00     0.016 A 
ATOM     20  C   UNL A   1      44.130  30.747  27.466  1.00  0.00     0.017 A 
ATOM     21  Br  UNL A   1      44.187  32.478  28.221  1.00  0.00    -0.051 Br
ENDBRANCH  14  15
ENDBRANCH  12  14
ENDBRANCH  10  12
ENDBRANCH   5   6
ENDBRANCH   4   5
ENDBRANCH   2   4
ENDBRANCH   1   2
BRANCH   1  22
ATOM     22  C   UNL A   1      42.073  19.444  26.674  1.00  0.00     0.274 C 
BRANCH  22  23
ATOM     23  C   UNL A   1      40.881  20.318  27.066  1.00  0.00     0.275 C 
BRANCH  23  24
ATOM     24  O   UNL A   1      40.987  21.614  26.443  1.00  0.00    -0.458 OA
BRANCH  24  25
ATOM     25  C   UNL A   1      39.812  22.248  26.202  1.00  0.00     0.338 C 
ATOM     26  O   UNL A   1      38.801  21.760  25.727  1.00  0.00    -0.246 OA
BRANCH  25  27
ATOM     27  C   UNL A   1      39.871  23.612  26.771  1.00  0.00     0.060 A 
ATOM     28  C   UNL A   1      40.697  24.557  26.149  1.00  0.00     0.016 A 
ATOM     29  C   UNL A   1      39.144  23.958  27.913  1.00  0.00     0.016 A 
ATOM     30  C   UNL A   1      40.825  25.838  26.690  1.00  0.00     0.010 A 
ATOM     31  C   UNL A   1      39.279  25.238  28.457  1.00  0.00     0.010 A 
ATOM     32  C   UNL A   1      40.143  26.178  27.867  1.00  0.00    -0.014 A 
BRANCH  32  33
ATOM     33  C   UNL A   1      40.449  27.452  28.564  1.00  0.00     0.031 A 
ATOM     34  C   UNL A   1      41.796  27.623  29.217  1.00  0.00     0.074 A 
ATOM     35  C   UNL A   1      39.555  28.455  28.620  1.00  0.00     0.049 A 
ATOM     36  N   UNL A   1      42.268  28.641  29.893  1.00  0.00    -0.248 NA
ATOM     37  C   UNL A   1      42.731  26.492  29.097  1.00  0.00     0.031 C 
ATOM     38  C   UNL A   1      38.214  28.450  28.034  1.00  0.00     0.029 A 
ATOM     39  N   UNL A   1      39.654  29.685  29.222  1.00  0.00    -0.354 N 
ATOM     40  C   UNL A   1      43.555  28.277  30.273  1.00  0.00     0.074 A 
ATOM     41  C   UNL A   1      43.774  26.931  29.786  1.00  0.00     0.031 C 
ATOM     42  C   UNL A   1      37.609  29.617  28.323  1.00  0.00     0.029 A 
ATOM     43  C   UNL A   1      38.515  30.443  29.118  1.00  0.00     0.049 A 
ATOM     44  H   UNL A   1      40.466  29.994  29.686  1.00  0.00     0.167 HD
ATOM     45  C   UNL A   1      44.479  28.994  30.955  1.00  0.00     0.031 A 
ATOM     46  C   UNL A   1      38.235  31.656  29.624  1.00  0.00     0.031 A 
ATOM     47  C   UNL A   1      44.280  30.323  31.467  1.00  0.00     0.049 A 
ATOM     48  C   UNL A   1      39.256  32.403  30.440  1.00  0.00     0.074 A 
ATOM     49  C   UNL A   1      45.180  31.132  32.141  1.00  0.00     0.029 A 
ATOM     50  N   UNL A   1      43.096  31.034  31.375  1.00  0.00    -0.354 N 
ATOM     51  N   UNL A   1      40.470  32.054  30.776  1.00  0.00    -0.248 NA
ATOM     52  C   UNL A   1      38.849  33.727  30.944  1.00  0.00     0.031 C 
ATOM     53  C   UNL A   1      44.524  32.314  32.503  1.00  0.00     0.029 A 
ATOM     54  C   UNL A   1      43.234  32.260  32.005  1.00  0.00     0.049 A 
ATOM     55  H   UNL A   1      42.279  30.715  30.928  1.00  0.00     0.167 HD
ATOM     56  C   UNL A   1      40.976  33.117  31.516  1.00  0.00     0.074 A 
ATOM     57  C   UNL A   1      39.943  34.128  31.572  1.00  0.00     0.031 C 
ATOM     58  C   UNL A   1      42.194  33.247  32.091  1.00  0.00     0.031 A 
BRANCH  45  59
ATOM     59  C   UNL A   1      45.804  28.337  31.210  1.00  0.00    -0.014 A 
ATOM     60  C   UNL A   1      46.888  28.535  30.339  1.00  0.00     0.009 A 
ATOM     61  C   UNL A   1      45.983  27.548  32.356  1.00  0.00     0.009 A 
ATOM     62  C   UNL A   1      48.119  27.929  30.599  1.00  0.00     0.001 A 
ATOM     63  C   UNL A   1      47.221  26.965  32.625  1.00  0.00     0.001 A 
ATOM     64  C   UNL A   1      48.284  27.149  31.743  1.00  0.00     0.000 A 
ENDBRANCH  45  59
BRANCH  46  65
ATOM     65  C   UNL A   1      36.901  32.272  29.447  1.00  0.00    -0.014 A 
ATOM     66  C   UNL A   1      36.659  33.148  28.379  1.00  0.00     0.009 A 
ATOM     67  C   UNL A   1      35.940  32.126  30.457  1.00  0.00     0.009 A 
ATOM     68  C   UNL A   1      35.491  33.912  28.355  1.00  0.00     0.001 A 
ATOM     69  C   UNL A   1      34.776  32.892  30.427  1.00  0.00     0.001 A 
ATOM     70  C   UNL A   1      34.561  33.793  29.385  1.00  0.00     0.000 A 
ENDBRANCH  46  65
BRANCH  58  71
ATOM     71  C   UNL A   1      42.478  34.534  32.812  1.00  0.00    -0.014 A 
ATOM     72  C   UNL A   1      43.124  35.602  32.171  1.00  0.00     0.009 A 
ATOM     73  C   UNL A   1      42.088  34.679  34.153  1.00  0.00     0.009 A 
ATOM     74  C   UNL A   1      43.404  36.779  32.870  1.00  0.00     0.001 A 
ATOM     75  C   UNL A   1      42.346  35.865  34.841  1.00  0.00     0.001 A 
ATOM     76  C   UNL A   1      43.012  36.910  34.202  1.00  0.00     0.000 A 
ENDBRANCH  58  71
ENDBRANCH  32  33
ENDBRANCH  25  27
ENDBRANCH  24  25
ENDBRANCH  23  24
ENDBRANCH  22  23
ENDBRANCH   1  22
TORSDOF 16
ENDMDL
MODEL 2
REMARK VINA RESULT:      -8.5      6.092     10.787
REMARK SMILES O=C(COc1ccnc(NCc2ccc(Br)cc2)n1)OCCOC(=O)c1ccc(-c2c3nc(c(-c4ccccc4)c4ccc([nH]4)c(-c4ccccc4)c4nc(c(-c5ccccc5)c5ccc2[nH]5)C=C4)C=C3)cc1
REMARK SMILES IDX 20 1 2 2 1 3 3 4 4 5 5 6 6 7 19 8 7 9 9 10 8 11 10 12 11 14
REMARK SMILES IDX 12 15 13 16 18 17 14 18 17 19 15 20 16 21 21 22 22 23 23 24
REMARK SMILES IDX 24 25 25 26 26 27 27 28 73 29 28 30 72 31 29 32 30 33 31 34
REMARK SMILES IDX 66 35 32 36 71 37 65 38 67 39 33 40 70 41 64 42 63 43 34 45
REMARK SMILES IDX 56 46 41 47 55 48 42 49 45 50 54 51 68 52 43 53 44 54 53 56
REMARK SMILES IDX 69 57 46 58 35 59 36 60 40 61 37 62 39 63 38 64 57 65 58 66
REMARK SMILES IDX 62 67 59 68 61 69 60 70 47 71 48 72 52 73 49 74 51 75 50 76
REMARK H PARENT 10 13 67 44 45 55
REMARK Flexibility Score: inf
ROOT
ATOM      1  O   UNL A   1      32.343  30.992  27.205  1.00  0.00    -0.460 OA
ENDROOT
BRANCH   1   2
ATOM      2  C   UNL A   1      32.580  29.847  26.521  1.00  0.00     0.344 C 
ATOM      3  O   UNL A   1      33.128  29.877  25.421  1.00  0.00    -0.248 OA
BRANCH   2   4
ATOM      4  C   UNL A   1      32.233  28.529  27.187  1.00  0.00     0.353 C 
BRANCH   4   5
ATOM      5  O   UNL A   1      33.129  27.521  26.727  1.00  0.00    -0.466 OA
BRANCH   5   6
ATOM      6  C   UNL A   1      32.391  26.468  26.255  1.00  0.00     0.218 A 
ATOM      7  C   UNL A   1      32.965  25.228  26.139  1.00  0.00     0.088 A 
ATOM      8  N   UNL A   1      31.134  26.764  25.909  1.00  0.00    -0.177 NA
ATOM      9  C   UNL A   1      32.148  24.278  25.590  1.00  0.00     0.121 A 
ATOM     10  C   UNL A   1      30.415  25.767  25.387  1.00  0.00     0.226 A 
ATOM     11  N   UNL A   1      30.880  24.523  25.210  1.00  0.00    -0.221 NA
BRANCH  10  12
ATOM     12  N   UNL A   1      29.142  26.000  24.961  1.00  0.00    -0.350 N 
ATOM     13  H   UNL A   1      28.413  26.039  25.622  1.00  0.00     0.164 HD
BRANCH  12  14
ATOM     14  C   UNL A   1      28.842  26.190  23.573  1.00  0.00     0.152 C 
BRANCH  14  15
ATOM     15  C   UNL A   1      28.759  27.670  23.285  1.00  0.00    -0.029 A 
ATOM     16  C   UNL A   1      27.526  28.336  23.349  1.00  0.00     0.007 A 
ATOM     17  C   UNL A   1      29.906  28.386  22.911  1.00  0.00     0.007 A 
ATOM     18  C   UNL A   1      27.448  29.700  23.073  1.00  0.00     0.016 A 
ATOM     19  C   UNL A   1      29.827  29.753  22.641  1.00  0.00     0.016 A 
ATOM     20  C   UNL A   1      28.600  30.405  22.733  1.00  0.00     0.017 A 
ATOM     21  Br  UNL A   1      28.475  32.264  22.418  1.00  0.00    -0.051 Br
ENDBRANCH  14  15
ENDBRANCH  12  14
ENDBRANCH  10  12
ENDBRANCH   5   6
ENDBRANCH   4   5
ENDBRANCH   2   4
ENDBRANCH   1   2
BRANCH   1  22
ATOM     22  C   UNL A   1      31.446  32.026  26.746  1.00  0.00     0.274 C 
BRANCH  22  23
ATOM     23  C   UNL A   1      32.118  33.398  26.827  1.00  0.00     0.275 C 
BRANCH  23  24
ATOM     24  O   UNL A   1      32.187  33.838  28.198  1.00  0.00    -0.458 OA
BRANCH  24  25
ATOM     25  C   UNL A   1      33.188  34.707  28.486  1.00  0.00     0.338 C 
ATOM     26  O   UNL A   1      33.114  35.923  28.526  1.00  0.00    -0.246 OA
BRANCH  25  27
ATOM     27  C   UNL A   1      34.378  33.947  28.927  1.00  0.00     0.060 A 
ATOM     28  C   UNL A   1      34.180  32.756  29.638  1.00  0.00     0.016 A 
ATOM     29  C   UNL A   1      35.673  34.404  28.668  1.00  0.00     0.016 A 
ATOM     30  C   UNL A   1      35.277  32.040  30.123  1.00  0.00     0.010 A 
ATOM     31  C   UNL A   1      36.770  33.689  29.160  1.00  0.00     0.010 A 
ATOM     32  C   UNL A   1      36.579  32.519  29.916  1.00  0.00    -0.014 A 
BRANCH  32  33
ATOM     33  C   UNL A   1      37.725  31.887  30.616  1.00  0.00     0.031 A 
ATOM     34  C   UNL A   1      38.501  30.801  29.916  1.00  0.00     0.074 A 
ATOM     35  C   UNL A   1      38.087  32.265  31.855  1.00  0.00     0.049 A 
ATOM     36  N   UNL A   1      39.522  30.102  30.345  1.00  0.00    -0.248 NA
ATOM     37  C   UNL A   1      38.060  30.455  28.555  1.00  0.00     0.031 C 
ATOM     38  C   UNL A   1      37.445  33.302  32.663  1.00  0.00     0.029 A 
ATOM     39  N   UNL A   1      39.098  31.792  32.655  1.00  0.00    -0.354 N 
ATOM     40  C   UNL A   1      39.850  29.238  29.307  1.00  0.00     0.074 A 
ATOM     41  C   UNL A   1      38.896  29.475  28.243  1.00  0.00     0.031 C 
ATOM     42  C   UNL A   1      38.069  33.374  33.853  1.00  0.00     0.029 A 
ATOM     43  C   UNL A   1      39.144  32.385  33.891  1.00  0.00     0.049 A 
ATOM     44  H   UNL A   1      39.730  31.094  32.369  1.00  0.00     0.167 HD
ATOM     45  C   UNL A   1      40.858  28.337  29.232  1.00  0.00     0.031 A 
ATOM     46  C   UNL A   1      39.952  32.141  34.938  1.00  0.00     0.031 A 
ATOM     47  C   UNL A   1      41.805  28.068  30.280  1.00  0.00     0.049 A 
ATOM     48  C   UNL A   1      41.019  31.082  34.854  1.00  0.00     0.074 A 
ATOM     49  C   UNL A   1      42.878  27.192  30.270  1.00  0.00     0.029 A 
ATOM     50  N   UNL A   1      41.787  28.661  31.530  1.00  0.00    -0.354 N 
ATOM     51  N   UNL A   1      41.327  30.288  33.862  1.00  0.00    -0.248 NA
ATOM     52  C   UNL A   1      41.853  30.898  36.054  1.00  0.00     0.031 C 
ATOM     53  C   UNL A   1      43.479  27.216  31.533  1.00  0.00     0.029 A 
ATOM     54  C   UNL A   1      42.811  28.148  32.309  1.00  0.00     0.049 A 
ATOM     55  H   UNL A   1      41.142  29.346  31.821  1.00  0.00     0.167 HD
ATOM     56  C   UNL A   1      42.396  29.521  34.313  1.00  0.00     0.074 A 
ATOM     57  C   UNL A   1      42.691  29.951  35.662  1.00  0.00     0.031 C 
ATOM     58  C   UNL A   1      43.080  28.552  33.661  1.00  0.00     0.031 A 
BRANCH  45  59
ATOM     59  C   UNL A   1      40.976  27.546  27.962  1.00  0.00    -0.014 A 
ATOM     60  C   UNL A   1      41.830  27.963  26.927  1.00  0.00     0.009 A 
ATOM     61  C   UNL A   1      40.261  26.347  27.817  1.00  0.00     0.009 A 
ATOM     62  C   UNL A   1      41.939  27.208  25.759  1.00  0.00     0.001 A 
ATOM     63  C   UNL A   1      40.392  25.583  26.657  1.00  0.00     0.001 A 
ATOM     64  C   UNL A   1      41.225  26.017  25.627  1.00  0.00     0.000 A 
ENDBRANCH  45  59
BRANCH  46  65
ATOM     65  C   UNL A   1      39.785  32.859  36.221  1.00  0.00    -0.014 A 
ATOM     66  C   UNL A   1      38.884  32.389  37.186  1.00  0.00     0.009 A 
ATOM     67  C   UNL A   1      40.389  34.113  36.388  1.00  0.00     0.009 A 
ATOM     68  C   UNL A   1      38.548  33.192  38.277  1.00  0.00     0.001 A 
ATOM     69  C   UNL A   1      40.050  34.910  37.478  1.00  0.00     0.001 A 
ATOM     70  C   UNL A   1      39.119  34.455  38.412  1.00  0.00     0.000 A 
ENDBRANCH  46  65
BRANCH  58  71
ATOM     71  C   UNL A   1      44.221  27.907  34.393  1.00  0.00    -0.014 A 
ATOM     72  C   UNL A   1      45.533  28.390  34.269  1.00  0.00     0.009 A 
ATOM     73  C   UNL A   1      43.977  26.802  35.224  1.00  0.00     0.009 A 
ATOM     74  C   UNL A   1      46.584  27.756  34.937  1.00  0.00     0.001 A 
ATOM     75  C   UNL A   1      45.026  26.187  35.910  1.00  0.00     0.001 A 
ATOM     76  C   UNL A   1      46.329  26.658  35.758  1.00  0.00     0.000 A 
ENDBRANCH  58  71
ENDBRANCH  32  33
ENDBRANCH  25  27
ENDBRANCH  24  25
ENDBRANCH  23  24
ENDBRANCH  22  23
ENDBRANCH   1  22
TORSDOF 16
ENDMDL
MODEL 3
REMARK VINA RESULT:      -8.5      6.131     11.188
REMARK SMILES O=C(COc1ccnc(NCc2ccc(Br)cc2)n1)OCCOC(=O)c1ccc(-c2c3nc(c(-c4ccccc4)c4ccc([nH]4)c(-c4ccccc4)c4nc(c(-c5ccccc5)c5ccc2[nH]5)C=C4)C=C3)cc1
REMARK SMILES IDX 20 1 2 2 1 3 3 4 4 5 5 6 6 7 19 8 7 9 9 10 8 11 10 12 11 14
REMARK SMILES IDX 12 15 13 16 18 17 14 18 17 19 15 20 16 21 21 22 22 23 23 24
REMARK SMILES IDX 24 25 25 26 26 27 27 28 73 29 28 30 72 31 29 32 30 33 31 34
REMARK SMILES IDX 66 35 32 36 71 37 65 38 67 39 33 40 70 41 64 42 63 43 34 45
REMARK SMILES IDX 56 46 41 47 55 48 42 49 45 50 54 51 68 52 43 53 44 54 53 56
REMARK SMILES IDX 69 57 46 58 35 59 36 60 40 61 37 62 39 63 38 64 57 65 58 66
REMARK SMILES IDX 62 67 59 68 61 69 60 70 47 71 48 72 52 73 49 74 51 75 50 76
REMARK H PARENT 10 13 67 44 45 55
REMARK Flexibility Score: inf
ROOT
ATOM      1  O   UNL A   1      32.266  31.137  27.186  1.00  0.00    -0.460 OA
ENDROOT
BRANCH   1   2
ATOM      2  C   UNL A   1      32.356  29.966  26.509  1.00  0.00     0.344 C 
ATOM      3  O   UNL A   1      32.871  29.927  25.394  1.00  0.00    -0.248 OA
BRANCH   2   4
ATOM      4  C   UNL A   1      31.888  28.701  27.201  1.00  0.00     0.353 C 
BRANCH   4   5
ATOM      5  O   UNL A   1      32.847  27.669  26.989  1.00  0.00    -0.466 OA
BRANCH   5   6
ATOM      6  C   UNL A   1      32.224  26.618  26.368  1.00  0.00     0.218 A 
ATOM      7  C   UNL A   1      32.911  25.455  26.135  1.00  0.00     0.088 A 
ATOM      8  N   UNL A   1      30.955  26.843  26.007  1.00  0.00    -0.177 NA
ATOM      9  C   UNL A   1      32.202  24.509  25.447  1.00  0.00     0.121 A 
ATOM     10  C   UNL A   1      30.348  25.855  25.345  1.00  0.00     0.226 A 
ATOM     11  N   UNL A   1      30.929  24.686  25.045  1.00  0.00    -0.221 NA
BRANCH  10  12
ATOM     12  N   UNL A   1      29.072  26.026  24.897  1.00  0.00    -0.350 N 
ATOM     13  H   UNL A   1      28.329  26.014  25.543  1.00  0.00     0.164 HD
BRANCH  12  14
ATOM     14  C   UNL A   1      28.790  26.221  23.505  1.00  0.00     0.152 C 
BRANCH  14  15
ATOM     15  C   UNL A   1      28.717  27.702  23.220  1.00  0.00    -0.029 A 
ATOM     16  C   UNL A   1      29.874  28.414  22.869  1.00  0.00     0.007 A 
ATOM     17  C   UNL A   1      27.500  28.390  23.342  1.00  0.00     0.007 A 
ATOM     18  C   UNL A   1      29.809  29.783  22.616  1.00  0.00     0.016 A 
ATOM     19  C   UNL A   1      27.435  29.759  23.082  1.00  0.00     0.016 A 
ATOM     20  C   UNL A   1      28.589  30.447  22.712  1.00  0.00     0.017 A 
ATOM     21  Br  UNL A   1      28.518  32.292  22.309  1.00  0.00    -0.051 Br
ENDBRANCH  14  15
ENDBRANCH  12  14
ENDBRANCH  10  12
ENDBRANCH   5   6
ENDBRANCH   4   5
ENDBRANCH   2   4
ENDBRANCH   1   2
BRANCH   1  22
ATOM     22  C   UNL A   1      31.430  32.238  26.769  1.00  0.00     0.274 C 
BRANCH  22  23
ATOM     23  C   UNL A   1      32.201  33.557  26.842  1.00  0.00     0.275 C 
BRANCH  23  24
ATOM     24  O   UNL A   1      32.244  34.036  28.201  1.00  0.00    -0.458 OA
BRANCH  24  25
ATOM     25  C   UNL A   1      33.329  34.781  28.528  1.00  0.00     0.338 C 
ATOM     26  O   UNL A   1      33.365  35.987  28.698  1.00  0.00    -0.246 OA
BRANCH  25  27
ATOM     27  C   UNL A   1      34.464  33.880  28.828  1.00  0.00     0.060 A 
ATOM     28  C   UNL A   1      34.195  32.663  29.466  1.00  0.00     0.016 A 
ATOM     29  C   UNL A   1      35.778  34.232  28.508  1.00  0.00     0.016 A 
ATOM     30  C   UNL A   1      35.245  31.812  29.818  1.00  0.00     0.010 A 
ATOM     31  C   UNL A   1      36.828  33.382  28.868  1.00  0.00     0.010 A 
ATOM     32  C   UNL A   1      36.571  32.180  29.552  1.00  0.00    -0.014 A 
BRANCH  32  33
ATOM     33  C   UNL A   1      37.692  31.391  30.122  1.00  0.00     0.031 A 
ATOM     34  C   UNL A   1      38.076  31.602  31.563  1.00  0.00     0.074 A 
ATOM     35  C   UNL A   1      38.366  30.492  29.382  1.00  0.00     0.049 A 
ATOM     36  N   UNL A   1      39.032  31.037  32.260  1.00  0.00    -0.248 NA
ATOM     37  C   UNL A   1      37.282  32.586  32.316  1.00  0.00     0.031 C 
ATOM     38  C   UNL A   1      38.114  30.166  27.978  1.00  0.00     0.029 A 
ATOM     39  N   UNL A   1      39.425  29.689  29.729  1.00  0.00    -0.354 N 
ATOM     40  C   UNL A   1      38.950  31.591  33.532  1.00  0.00     0.074 A 
ATOM     41  C   UNL A   1      37.877  32.564  33.500  1.00  0.00     0.031 C 
ATOM     42  C   UNL A   1      39.008  29.243  27.579  1.00  0.00     0.029 A 
ATOM     43  C   UNL A   1      39.896  28.922  28.694  1.00  0.00     0.049 A 
ATOM     44  H   UNL A   1      39.810  29.667  30.635  1.00  0.00     0.167 HD
ATOM     45  C   UNL A   1      39.686  31.314  34.633  1.00  0.00     0.031 A 
ATOM     46  C   UNL A   1      40.938  28.072  28.652  1.00  0.00     0.031 A 
ATOM     47  C   UNL A   1      40.769  30.369  34.686  1.00  0.00     0.049 A 
ATOM     48  C   UNL A   1      41.786  27.836  29.873  1.00  0.00     0.074 A 
ATOM     49  C   UNL A   1      41.545  30.006  35.775  1.00  0.00     0.029 A 
ATOM     50  N   UNL A   1      41.239  29.647  33.604  1.00  0.00    -0.354 N 
ATOM     51  N   UNL A   1      41.686  28.354  31.069  1.00  0.00    -0.248 NA
ATOM     52  C   UNL A   1      42.899  26.883  29.720  1.00  0.00     0.031 C 
ATOM     53  C   UNL A   1      42.520  29.101  35.339  1.00  0.00     0.029 A 
ATOM     54  C   UNL A   1      42.312  28.862  33.991  1.00  0.00     0.049 A 
ATOM     55  H   UNL A   1      40.864  29.685  32.693  1.00  0.00     0.167 HD
ATOM     56  C   UNL A   1      42.711  27.780  31.814  1.00  0.00     0.074 A 
ATOM     57  C   UNL A   1      43.415  26.868  30.939  1.00  0.00     0.031 C 
ATOM     58  C   UNL A   1      43.033  27.984  33.112  1.00  0.00     0.031 A 
BRANCH  45  59
ATOM     59  C   UNL A   1      39.355  32.070  35.887  1.00  0.00    -0.014 A 
ATOM     60  C   UNL A   1      40.041  33.249  36.223  1.00  0.00     0.009 A 
ATOM     61  C   UNL A   1      38.316  31.623  36.717  1.00  0.00     0.009 A 
ATOM     62  C   UNL A   1      39.710  33.948  37.385  1.00  0.00     0.001 A 
ATOM     63  C   UNL A   1      37.972  32.338  37.864  1.00  0.00     0.001 A 
ATOM     64  C   UNL A   1      38.674  33.495  38.201  1.00  0.00     0.000 A 
ENDBRANCH  45  59
BRANCH  46  65
ATOM     65  C   UNL A   1      41.320  27.388  27.397  1.00  0.00    -0.014 A 
ATOM     66  C   UNL A   1      40.887  26.079  27.140  1.00  0.00     0.009 A 
ATOM     67  C   UNL A   1      42.270  27.982  26.555  1.00  0.00     0.009 A 
ATOM     68  C   UNL A   1      41.443  25.354  26.086  1.00  0.00     0.001 A 
ATOM     69  C   UNL A   1      42.823  27.253  25.505  1.00  0.00     0.001 A 
ATOM     70  C   UNL A   1      42.420  25.936  25.281  1.00  0.00     0.000 A 
ENDBRANCH  46  65
BRANCH  58  71
ATOM     71  C   UNL A   1      44.185  27.195  33.665  1.00  0.00    -0.014 A 
ATOM     72  C   UNL A   1      45.496  27.696  33.630  1.00  0.00     0.009 A 
ATOM     73  C   UNL A   1      43.953  25.933  34.234  1.00  0.00     0.009 A 
ATOM     74  C   UNL A   1      46.556  26.933  34.123  1.00  0.00     0.001 A 
ATOM     75  C   UNL A   1      45.011  25.184  34.750  1.00  0.00     0.001 A 
ATOM     76  C   UNL A   1      46.312  25.680  34.685  1.00  0.00     0.000 A 
ENDBRANCH  58  71
ENDBRANCH  32  33
ENDBRANCH  25  27
ENDBRANCH  24  25
ENDBRANCH  23  24
ENDBRANCH  22  23
ENDBRANCH   1  22
TORSDOF 16
ENDMDL
