MODEL 1
REMARK VINA RESULT:      -9.2      0.000      0.000
REMARK SMILES CCCN(CC)S(=O)(=O)c1ccc(C(=O)OCCOC(=O)c2ccc(-c3c4nc(c(-c5ccccc5)c5ccc([nH]5)c(-c5ccccc5)c5nc(c(-c6ccccc6)c6ccc3[nH]6)C=C5)C=C4)cc2)o1
REMARK SMILES IDX 17 1 16 2 14 3 15 4 13 5 10 6 11 7 70 8 12 9 7 10 8 11 9 12
REMARK SMILES IDX 4 13 3 14 2 15 1 16 5 17 6 18 18 19 19 20 20 21 21 22 22 23
REMARK SMILES IDX 23 24 69 25 24 26 68 27 25 28 26 29 27 30 62 31 28 32 67 33
REMARK SMILES IDX 61 34 63 35 29 36 66 37 60 38 59 39 30 41 52 42 37 43 51 44
REMARK SMILES IDX 38 45 41 46 50 47 64 48 39 49 40 50 49 52 65 53 42 54 31 55
REMARK SMILES IDX 32 56 36 57 33 58 35 59 34 60 53 61 54 62 58 63 55 64 57 65
REMARK SMILES IDX 56 66 43 67 44 68 48 69 45 70 47 71 46 72
REMARK H PARENT 63 40 41 51
REMARK Flexibility Score: inf
ROOT
ATOM      1  C   UNL A   1      40.994  19.740  26.550  1.00  0.00     0.275 C 
ENDROOT
BRANCH   1   2
ATOM      2  O   UNL A   1      41.734  19.021  25.546  1.00  0.00    -0.456 OA
BRANCH   2   3
ATOM      3  C   UNL A   1      42.960  18.544  25.913  1.00  0.00     0.374 C 
ATOM      4  O   UNL A   1      43.144  17.502  26.531  1.00  0.00    -0.242 OA
BRANCH   3   5
ATOM      5  C   UNL A   1      43.998  19.406  25.391  1.00  0.00     0.213 A 
ATOM      6  C   UNL A   1      44.900  21.391  24.901  1.00  0.00     0.234 A 
ATOM      7  C   UNL A   1      45.867  20.413  24.689  1.00  0.00     0.065 A 
ATOM      8  O   UNL A   1      43.741  20.749  25.284  1.00  0.00    -0.436 OA
ATOM      9  C   UNL A   1      45.300  19.160  25.005  1.00  0.00     0.060 A 
BRANCH   6  10
ATOM     10  S   UNL A   1      45.067  23.179  24.750  1.00  0.00     0.276 S 
ATOM     11  O   UNL A   1      43.794  23.619  24.221  1.00  0.00    -0.204 OA
ATOM     12  O   UNL A   1      46.276  23.304  23.962  1.00  0.00    -0.204 OA
BRANCH  10  13
ATOM     13  N   UNL A   1      45.335  23.965  26.247  1.00  0.00    -0.195 NA
BRANCH  13  14
ATOM     14  C   UNL A   1      44.740  23.265  27.441  1.00  0.00     0.102 C 
BRANCH  14  15
ATOM     15  C   UNL A   1      43.242  23.491  27.649  1.00  0.00     0.013 C 
ATOM     16  C   UNL A   1      42.771  23.300  29.089  1.00  0.00     0.005 C 
ENDBRANCH  14  15
ENDBRANCH  13  14
BRANCH  13  17
ATOM     17  C   UNL A   1      46.728  24.426  26.545  1.00  0.00     0.099 C 
ATOM     18  C   UNL A   1      46.920  25.007  27.934  1.00  0.00     0.022 C 
ENDBRANCH  13  17
ENDBRANCH  10  13
ENDBRANCH   6  10
ENDBRANCH   3   5
ENDBRANCH   2   3
ENDBRANCH   1   2
BRANCH   1  19
ATOM     19  C   UNL A   1      40.071  20.796  25.927  1.00  0.00     0.275 C 
BRANCH  19  20
ATOM     20  O   UNL A   1      39.706  21.817  26.876  1.00  0.00    -0.458 OA
BRANCH  20  21
ATOM     21  C   UNL A   1      38.992  22.848  26.365  1.00  0.00     0.338 C 
ATOM     22  O   UNL A   1      37.964  22.768  25.712  1.00  0.00    -0.246 OA
BRANCH  21  23
ATOM     23  C   UNL A   1      39.533  24.131  26.853  1.00  0.00     0.060 A 
ATOM     24  C   UNL A   1      39.269  24.473  28.182  1.00  0.00     0.016 A 
ATOM     25  C   UNL A   1      40.243  25.009  26.030  1.00  0.00     0.016 A 
ATOM     26  C   UNL A   1      39.725  25.679  28.701  1.00  0.00     0.010 A 
ATOM     27  C   UNL A   1      40.699  26.228  26.552  1.00  0.00     0.010 A 
ATOM     28  C   UNL A   1      40.443  26.567  27.892  1.00  0.00    -0.014 A 
BRANCH  28  29
ATOM     29  C   UNL A   1      40.862  27.867  28.465  1.00  0.00     0.031 A 
ATOM     30  C   UNL A   1      39.847  28.950  28.679  1.00  0.00     0.074 A 
ATOM     31  C   UNL A   1      42.133  28.044  28.873  1.00  0.00     0.049 A 
ATOM     32  N   UNL A   1      40.005  30.138  29.206  1.00  0.00    -0.248 NA
ATOM     33  C   UNL A   1      38.471  28.655  28.251  1.00  0.00     0.031 C 
ATOM     34  C   UNL A   1      43.198  27.046  28.776  1.00  0.00     0.029 A 
ATOM     35  N   UNL A   1      42.736  29.124  29.465  1.00  0.00    -0.354 N 
ATOM     36  C   UNL A   1      38.752  30.734  29.172  1.00  0.00     0.074 A 
ATOM     37  C   UNL A   1      37.849  29.787  28.552  1.00  0.00     0.031 C 
ATOM     38  C   UNL A   1      44.324  27.560  29.300  1.00  0.00     0.029 A 
ATOM     39  C   UNL A   1      44.068  28.929  29.737  1.00  0.00     0.049 A 
ATOM     40  H   UNL A   1      42.260  29.960  29.674  1.00  0.00     0.167 HD
ATOM     41  C   UNL A   1      38.384  31.957  29.621  1.00  0.00     0.031 A 
ATOM     42  C   UNL A   1      44.981  29.767  30.264  1.00  0.00     0.031 A 
ATOM     43  C   UNL A   1      39.281  32.908  30.224  1.00  0.00     0.049 A 
ATOM     44  C   UNL A   1      44.565  31.153  30.675  1.00  0.00     0.074 A 
ATOM     45  C   UNL A   1      38.997  34.175  30.705  1.00  0.00     0.029 A 
ATOM     46  N   UNL A   1      40.636  32.698  30.423  1.00  0.00    -0.354 N 
ATOM     47  N   UNL A   1      43.374  31.701  30.647  1.00  0.00    -0.248 NA
ATOM     48  C   UNL A   1      45.621  32.035  31.195  1.00  0.00     0.031 C 
ATOM     49  C   UNL A   1      40.193  34.751  31.149  1.00  0.00     0.029 A 
ATOM     50  C   UNL A   1      41.209  33.821  30.996  1.00  0.00     0.049 A 
ATOM     51  H   UNL A   1      41.120  31.872  30.191  1.00  0.00     0.167 HD
ATOM     52  C   UNL A   1      43.533  32.980  31.166  1.00  0.00     0.074 A 
ATOM     53  C   UNL A   1      44.931  33.121  31.517  1.00  0.00     0.031 C 
ATOM     54  C   UNL A   1      42.601  33.949  31.339  1.00  0.00     0.031 A 
BRANCH  41  55
ATOM     55  C   UNL A   1      36.948  32.354  29.433  1.00  0.00    -0.014 A 
ATOM     56  C   UNL A   1      35.992  32.128  30.434  1.00  0.00     0.009 A 
ATOM     57  C   UNL A   1      36.552  32.984  28.242  1.00  0.00     0.009 A 
ATOM     58  C   UNL A   1      34.659  32.496  30.234  1.00  0.00     0.001 A 
ATOM     59  C   UNL A   1      35.225  33.373  28.055  1.00  0.00     0.001 A 
ATOM     60  C   UNL A   1      34.278  33.121  29.046  1.00  0.00     0.000 A 
ENDBRANCH  41  55
BRANCH  42  61
ATOM     61  C   UNL A   1      46.394  29.329  30.416  1.00  0.00    -0.014 A 
ATOM     62  C   UNL A   1      47.315  29.495  29.371  1.00  0.00     0.009 A 
ATOM     63  C   UNL A   1      46.820  28.717  31.605  1.00  0.00     0.009 A 
ATOM     64  C   UNL A   1      48.628  29.039  29.506  1.00  0.00     0.001 A 
ATOM     65  C   UNL A   1      48.140  28.286  31.748  1.00  0.00     0.001 A 
ATOM     66  C   UNL A   1      49.041  28.440  30.696  1.00  0.00     0.000 A 
ENDBRANCH  42  61
BRANCH  54  67
ATOM     67  C   UNL A   1      43.056  35.237  31.967  1.00  0.00    -0.014 A 
ATOM     68  C   UNL A   1      42.982  35.439  33.353  1.00  0.00     0.009 A 
ATOM     69  C   UNL A   1      43.606  36.247  31.160  1.00  0.00     0.009 A 
ATOM     70  C   UNL A   1      43.420  36.640  33.915  1.00  0.00     0.001 A 
ATOM     71  C   UNL A   1      44.068  37.435  31.727  1.00  0.00     0.001 A 
ATOM     72  C   UNL A   1      43.967  37.634  33.103  1.00  0.00     0.000 A 
ENDBRANCH  54  67
ENDBRANCH  28  29
ENDBRANCH  21  23
ENDBRANCH  20  21
ENDBRANCH  19  20
ENDBRANCH   1  19
TORSDOF 16
ENDMDL
MODEL 2
REMARK VINA RESULT:      -9.2      1.060      6.185
REMARK SMILES CCCN(CC)S(=O)(=O)c1ccc(C(=O)OCCOC(=O)c2ccc(-c3c4nc(c(-c5ccccc5)c5ccc([nH]5)c(-c5ccccc5)c5nc(c(-c6ccccc6)c6ccc3[nH]6)C=C5)C=C4)cc2)o1
REMARK SMILES IDX 17 1 16 2 14 3 15 4 13 5 10 6 11 7 70 8 12 9 7 10 8 11 9 12
REMARK SMILES IDX 4 13 3 14 2 15 1 16 5 17 6 18 18 19 19 20 20 21 21 22 22 23
REMARK SMILES IDX 23 24 69 25 24 26 68 27 25 28 26 29 27 30 62 31 28 32 67 33
REMARK SMILES IDX 61 34 63 35 29 36 66 37 60 38 59 39 30 41 52 42 37 43 51 44
REMARK SMILES IDX 38 45 41 46 50 47 64 48 39 49 40 50 49 52 65 53 42 54 31 55
REMARK SMILES IDX 32 56 36 57 33 58 35 59 34 60 53 61 54 62 58 63 55 64 57 65
REMARK SMILES IDX 56 66 43 67 44 68 48 69 45 70 47 71 46 72
REMARK H PARENT 63 40 41 51
REMARK Flexibility Score: inf
ROOT
ATOM      1  C   UNL A   1      40.848  19.912  26.515  1.00  0.00     0.275 C 
ENDROOT
BRANCH   1   2
ATOM      2  O   UNL A   1      41.647  19.524  25.382  1.00  0.00    -0.456 OA
BRANCH   2   3
ATOM      3  C   UNL A   1      42.777  18.804  25.647  1.00  0.00     0.374 C 
ATOM      4  O   UNL A   1      42.789  17.626  25.983  1.00  0.00    -0.242 OA
BRANCH   3   5
ATOM      5  C   UNL A   1      43.946  19.616  25.388  1.00  0.00     0.213 A 
ATOM      6  C   UNL A   1      45.103  21.529  25.392  1.00  0.00     0.234 A 
ATOM      7  C   UNL A   1      45.970  20.500  25.038  1.00  0.00     0.065 A 
ATOM      8  O   UNL A   1      43.850  20.974  25.554  1.00  0.00    -0.436 OA
ATOM      9  C   UNL A   1      45.242  19.291  25.042  1.00  0.00     0.060 A 
BRANCH   6  10
ATOM     10  S   UNL A   1      45.478  23.274  25.637  1.00  0.00     0.276 S 
ATOM     11  O   UNL A   1      45.224  23.884  24.351  1.00  0.00    -0.204 OA
ATOM     12  O   UNL A   1      46.821  23.220  26.176  1.00  0.00    -0.204 OA
BRANCH  10  13
ATOM     13  N   UNL A   1      44.477  24.026  26.805  1.00  0.00    -0.195 NA
BRANCH  13  14
ATOM     14  C   UNL A   1      44.888  23.788  28.234  1.00  0.00     0.102 C 
BRANCH  14  15
ATOM     15  C   UNL A   1      43.837  23.104  29.109  1.00  0.00     0.013 C 
ATOM     16  C   UNL A   1      42.498  22.864  28.413  1.00  0.00     0.005 C 
ENDBRANCH  14  15
ENDBRANCH  13  14
BRANCH  13  17
ATOM     17  C   UNL A   1      44.126  25.465  26.588  1.00  0.00     0.099 C 
ATOM     18  C   UNL A   1      45.253  26.443  26.870  1.00  0.00     0.022 C 
ENDBRANCH  13  17
ENDBRANCH  10  13
ENDBRANCH   6  10
ENDBRANCH   3   5
ENDBRANCH   2   3
ENDBRANCH   1   2
BRANCH   1  19
ATOM     19  C   UNL A   1      39.699  20.842  26.107  1.00  0.00     0.275 C 
BRANCH  19  20
ATOM     20  O   UNL A   1      40.104  22.225  26.097  1.00  0.00    -0.458 OA
BRANCH  20  21
ATOM     21  C   UNL A   1      39.090  23.122  26.102  1.00  0.00     0.338 C 
ATOM     22  O   UNL A   1      37.949  22.933  25.714  1.00  0.00    -0.246 OA
BRANCH  21  23
ATOM     23  C   UNL A   1      39.500  24.348  26.815  1.00  0.00     0.060 A 
ATOM     24  C   UNL A   1      39.048  24.506  28.127  1.00  0.00     0.016 A 
ATOM     25  C   UNL A   1      40.269  25.347  26.212  1.00  0.00     0.016 A 
ATOM     26  C   UNL A   1      39.373  25.648  28.849  1.00  0.00     0.010 A 
ATOM     27  C   UNL A   1      40.594  26.501  26.938  1.00  0.00     0.010 A 
ATOM     28  C   UNL A   1      40.148  26.656  28.262  1.00  0.00    -0.014 A 
BRANCH  28  29
ATOM     29  C   UNL A   1      40.425  27.883  29.044  1.00  0.00     0.031 A 
ATOM     30  C   UNL A   1      41.753  28.053  29.720  1.00  0.00     0.074 A 
ATOM     31  C   UNL A   1      39.520  28.879  29.075  1.00  0.00     0.049 A 
ATOM     32  N   UNL A   1      42.203  29.069  30.412  1.00  0.00    -0.248 NA
ATOM     33  C   UNL A   1      42.702  26.937  29.594  1.00  0.00     0.031 C 
ATOM     34  C   UNL A   1      38.218  28.860  28.408  1.00  0.00     0.029 A 
ATOM     35  N   UNL A   1      39.568  30.108  29.684  1.00  0.00    -0.354 N 
ATOM     36  C   UNL A   1      43.486  28.715  30.806  1.00  0.00     0.074 A 
ATOM     37  C   UNL A   1      43.734  27.383  30.296  1.00  0.00     0.031 C 
ATOM     38  C   UNL A   1      37.595  30.028  28.637  1.00  0.00     0.029 A 
ATOM     39  C   UNL A   1      38.436  30.861  29.492  1.00  0.00     0.049 A 
ATOM     40  H   UNL A   1      40.341  30.420  30.209  1.00  0.00     0.167 HD
ATOM     41  C   UNL A   1      44.380  29.436  31.525  1.00  0.00     0.031 A 
ATOM     42  C   UNL A   1      38.109  32.079  29.967  1.00  0.00     0.031 A 
ATOM     43  C   UNL A   1      44.132  30.754  32.047  1.00  0.00     0.049 A 
ATOM     44  C   UNL A   1      39.087  32.822  30.835  1.00  0.00     0.074 A 
ATOM     45  C   UNL A   1      44.978  31.559  32.790  1.00  0.00     0.029 A 
ATOM     46  N   UNL A   1      42.949  31.457  31.887  1.00  0.00    -0.354 N 
ATOM     47  N   UNL A   1      40.301  32.481  31.191  1.00  0.00    -0.248 NA
ATOM     48  C   UNL A   1      38.648  34.123  31.361  1.00  0.00     0.031 C 
ATOM     49  C   UNL A   1      44.287  32.730  33.122  1.00  0.00     0.029 A 
ATOM     50  C   UNL A   1      43.032  32.677  32.538  1.00  0.00     0.049 A 
ATOM     51  H   UNL A   1      42.165  31.137  31.383  1.00  0.00     0.167 HD
ATOM     52  C   UNL A   1      40.779  33.533  31.963  1.00  0.00     0.074 A 
ATOM     53  C   UNL A   1      39.731  34.531  32.009  1.00  0.00     0.031 C 
ATOM     54  C   UNL A   1      41.982  33.660  32.577  1.00  0.00     0.031 A 
BRANCH  41  55
ATOM     55  C   UNL A   1      45.701  28.788  31.825  1.00  0.00    -0.014 A 
ATOM     56  C   UNL A   1      46.802  28.945  30.969  1.00  0.00     0.009 A 
ATOM     57  C   UNL A   1      45.851  28.027  32.995  1.00  0.00     0.009 A 
ATOM     58  C   UNL A   1      48.018  28.325  31.264  1.00  0.00     0.001 A 
ATOM     59  C   UNL A   1      47.074  27.429  33.299  1.00  0.00     0.001 A 
ATOM     60  C   UNL A   1      48.154  27.571  32.429  1.00  0.00     0.000 A 
ENDBRANCH  41  55
BRANCH  42  61
ATOM     61  C   UNL A   1      36.782  32.668  29.650  1.00  0.00    -0.014 A 
ATOM     62  C   UNL A   1      36.574  33.373  28.454  1.00  0.00     0.009 A 
ATOM     63  C   UNL A   1      35.720  32.547  30.559  1.00  0.00     0.009 A 
ATOM     64  C   UNL A   1      35.336  33.961  28.186  1.00  0.00     0.001 A 
ATOM     65  C   UNL A   1      34.475  33.113  30.277  1.00  0.00     0.001 A 
ATOM     66  C   UNL A   1      34.287  33.827  29.095  1.00  0.00     0.000 A 
ENDBRANCH  42  61
BRANCH  54  67
ATOM     67  C   UNL A   1      42.242  34.939  33.322  1.00  0.00    -0.014 A 
ATOM     68  C   UNL A   1      41.762  35.136  34.625  1.00  0.00     0.009 A 
ATOM     69  C   UNL A   1      43.017  35.946  32.723  1.00  0.00     0.009 A 
ATOM     70  C   UNL A   1      42.026  36.328  35.302  1.00  0.00     0.001 A 
ATOM     71  C   UNL A   1      43.302  37.126  33.411  1.00  0.00     0.001 A 
ATOM     72  C   UNL A   1      42.799  37.320  34.697  1.00  0.00     0.000 A 
ENDBRANCH  54  67
ENDBRANCH  28  29
ENDBRANCH  21  23
ENDBRANCH  20  21
ENDBRANCH  19  20
ENDBRANCH   1  19
TORSDOF 16
ENDMDL
MODEL 3
REMARK VINA RESULT:      -8.8      5.057     11.272
REMARK SMILES CCCN(CC)S(=O)(=O)c1ccc(C(=O)OCCOC(=O)c2ccc(-c3c4nc(c(-c5ccccc5)c5ccc([nH]5)c(-c5ccccc5)c5nc(c(-c6ccccc6)c6ccc3[nH]6)C=C5)C=C4)cc2)o1
REMARK SMILES IDX 17 1 16 2 14 3 15 4 13 5 10 6 11 7 70 8 12 9 7 10 8 11 9 12
REMARK SMILES IDX 4 13 3 14 2 15 1 16 5 17 6 18 18 19 19 20 20 21 21 22 22 23
REMARK SMILES IDX 23 24 69 25 24 26 68 27 25 28 26 29 27 30 62 31 28 32 67 33
REMARK SMILES IDX 61 34 63 35 29 36 66 37 60 38 59 39 30 41 52 42 37 43 51 44
REMARK SMILES IDX 38 45 41 46 50 47 64 48 39 49 40 50 49 52 65 53 42 54 31 55
REMARK SMILES IDX 32 56 36 57 33 58 35 59 34 60 53 61 54 62 58 63 55 64 57 65
REMARK SMILES IDX 56 66 43 67 44 68 48 69 45 70 47 71 46 72
REMARK H PARENT 63 40 41 51
REMARK Flexibility Score: inf
ROOT
ATOM      1  C   UNL A   1      33.308  33.904  27.991  1.00  0.00     0.275 C 
ENDROOT
BRANCH   1   2
ATOM      2  O   UNL A   1      33.170  34.137  29.405  1.00  0.00    -0.456 OA
BRANCH   2   3
ATOM      3  C   UNL A   1      33.026  35.437  29.801  1.00  0.00     0.374 C 
ATOM      4  O   UNL A   1      32.442  36.300  29.156  1.00  0.00    -0.242 OA
BRANCH   3   5
ATOM      5  C   UNL A   1      33.590  35.612  31.121  1.00  0.00     0.213 A 
ATOM      6  C   UNL A   1      34.915  35.043  32.830  1.00  0.00     0.234 A 
ATOM      7  C   UNL A   1      34.384  36.302  33.095  1.00  0.00     0.065 A 
ATOM      8  O   UNL A   1      34.377  34.612  31.636  1.00  0.00    -0.436 OA
ATOM      9  C   UNL A   1      33.553  36.664  32.014  1.00  0.00     0.060 A 
BRANCH   6  10
ATOM     10  S   UNL A   1      36.107  34.105  33.803  1.00  0.00     0.276 S 
ATOM     11  O   UNL A   1      35.419  33.821  35.043  1.00  0.00    -0.204 OA
ATOM     12  O   UNL A   1      37.264  34.976  33.782  1.00  0.00    -0.204 OA
BRANCH  10  13
ATOM     13  N   UNL A   1      36.557  32.621  33.077  1.00  0.00    -0.195 NA
BRANCH  13  14
ATOM     14  C   UNL A   1      36.245  32.518  31.607  1.00  0.00     0.102 C 
BRANCH  14  15
ATOM     15  C   UNL A   1      37.449  32.656  30.675  1.00  0.00     0.013 C 
ATOM     16  C   UNL A   1      37.621  34.047  30.069  1.00  0.00     0.005 C 
ENDBRANCH  14  15
ENDBRANCH  13  14
BRANCH  13  17
ATOM     17  C   UNL A   1      37.931  32.101  33.364  1.00  0.00     0.099 C 
ATOM     18  C   UNL A   1      38.044  31.272  34.631  1.00  0.00     0.022 C 
ENDBRANCH  13  17
ENDBRANCH  10  13
ENDBRANCH   6  10
ENDBRANCH   3   5
ENDBRANCH   2   3
ENDBRANCH   1   2
BRANCH   1  19
ATOM     19  C   UNL A   1      33.383  32.406  27.668  1.00  0.00     0.275 C 
BRANCH  19  20
ATOM     20  O   UNL A   1      34.440  31.752  28.397  1.00  0.00    -0.458 OA
BRANCH  20  21
ATOM     21  C   UNL A   1      34.618  30.442  28.100  1.00  0.00     0.338 C 
ATOM     22  O   UNL A   1      33.828  29.713  27.523  1.00  0.00    -0.246 OA
BRANCH  21  23
ATOM     23  C   UNL A   1      35.999  30.032  28.423  1.00  0.00     0.060 A 
ATOM     24  C   UNL A   1      36.965  30.205  27.430  1.00  0.00     0.016 A 
ATOM     25  C   UNL A   1      36.344  29.449  29.645  1.00  0.00     0.016 A 
ATOM     26  C   UNL A   1      38.280  29.816  27.654  1.00  0.00     0.010 A 
ATOM     27  C   UNL A   1      37.669  29.052  29.871  1.00  0.00     0.010 A 
ATOM     28  C   UNL A   1      38.644  29.236  28.875  1.00  0.00    -0.014 A 
BRANCH  28  29
ATOM     29  C   UNL A   1      40.043  28.782  29.055  1.00  0.00     0.031 A 
ATOM     30  C   UNL A   1      41.037  29.677  29.733  1.00  0.00     0.074 A 
ATOM     31  C   UNL A   1      40.398  27.537  28.687  1.00  0.00     0.049 A 
ATOM     32  N   UNL A   1      42.293  29.447  30.023  1.00  0.00    -0.248 NA
ATOM     33  C   UNL A   1      40.552  31.003  30.148  1.00  0.00     0.031 C 
ATOM     34  C   UNL A   1      39.510  26.550  28.073  1.00  0.00     0.029 A 
ATOM     35  N   UNL A   1      41.602  26.886  28.792  1.00  0.00    -0.354 N 
ATOM     36  C   UNL A   1      42.749  30.597  30.652  1.00  0.00     0.074 A 
ATOM     37  C   UNL A   1      41.644  31.532  30.680  1.00  0.00     0.031 C 
ATOM     38  C   UNL A   1      40.198  25.415  27.865  1.00  0.00     0.029 A 
ATOM     39  C   UNL A   1      41.579  25.605  28.298  1.00  0.00     0.049 A 
ATOM     40  H   UNL A   1      42.406  27.299  29.184  1.00  0.00     0.167 HD
ATOM     41  C   UNL A   1      43.977  30.852  31.164  1.00  0.00     0.031 A 
ATOM     42  C   UNL A   1      42.566  24.695  28.191  1.00  0.00     0.031 A 
ATOM     43  C   UNL A   1      45.083  29.932  31.124  1.00  0.00     0.049 A 
ATOM     44  C   UNL A   1      43.944  25.035  28.690  1.00  0.00     0.074 A 
ATOM     45  C   UNL A   1      46.366  30.105  31.614  1.00  0.00     0.029 A 
ATOM     46  N   UNL A   1      45.039  28.669  30.556  1.00  0.00    -0.354 N 
ATOM     47  N   UNL A   1      44.360  26.123  29.291  1.00  0.00    -0.248 NA
ATOM     48  C   UNL A   1      44.988  24.016  28.497  1.00  0.00     0.031 C 
ATOM     49  C   UNL A   1      47.113  28.964  31.297  1.00  0.00     0.029 A 
ATOM     50  C   UNL A   1      46.279  28.060  30.660  1.00  0.00     0.049 A 
ATOM     51  H   UNL A   1      44.243  28.264  30.141  1.00  0.00     0.167 HD
ATOM     52  C   UNL A   1      45.705  25.910  29.570  1.00  0.00     0.074 A 
ATOM     53  C   UNL A   1      46.031  24.585  29.087  1.00  0.00     0.031 C 
ATOM     54  C   UNL A   1      46.590  26.741  30.175  1.00  0.00     0.031 A 
BRANCH  41  55
ATOM     55  C   UNL A   1      44.199  32.205  31.775  1.00  0.00    -0.014 A 
ATOM     56  C   UNL A   1      43.982  32.433  33.142  1.00  0.00     0.009 A 
ATOM     57  C   UNL A   1      44.654  33.264  30.972  1.00  0.00     0.009 A 
ATOM     58  C   UNL A   1      44.185  33.702  33.688  1.00  0.00     0.001 A 
ATOM     59  C   UNL A   1      44.880  34.525  31.525  1.00  0.00     0.001 A 
ATOM     60  C   UNL A   1      44.637  34.746  32.879  1.00  0.00     0.000 A 
ENDBRANCH  41  55
BRANCH  42  61
ATOM     61  C   UNL A   1      42.296  23.374  27.565  1.00  0.00    -0.014 A 
ATOM     62  C   UNL A   1      41.801  22.304  28.326  1.00  0.00     0.009 A 
ATOM     63  C   UNL A   1      42.555  23.173  26.200  1.00  0.00     0.009 A 
ATOM     64  C   UNL A   1      41.592  21.055  27.738  1.00  0.00     0.001 A 
ATOM     65  C   UNL A   1      42.320  21.930  25.609  1.00  0.00     0.001 A 
ATOM     66  C   UNL A   1      41.847  20.870  26.380  1.00  0.00     0.000 A 
ENDBRANCH  42  61
BRANCH  54  67
ATOM     67  C   UNL A   1      47.987  26.227  30.381  1.00  0.00    -0.014 A 
ATOM     68  C   UNL A   1      48.398  25.705  31.617  1.00  0.00     0.009 A 
ATOM     69  C   UNL A   1      48.892  26.227  29.307  1.00  0.00     0.009 A 
ATOM     70  C   UNL A   1      49.699  25.223  31.781  1.00  0.00     0.001 A 
ATOM     71  C   UNL A   1      50.182  25.720  29.466  1.00  0.00     0.001 A 
ATOM     72  C   UNL A   1      50.587  25.226  30.706  1.00  0.00     0.000 A 
ENDBRANCH  54  67
ENDBRANCH  28  29
ENDBRANCH  21  23
ENDBRANCH  20  21
ENDBRANCH  19  20
ENDBRANCH   1  19
TORSDOF 16
ENDMDL
