MODEL 1
REMARK VINA RESULT:     -11.3      0.000      0.000
REMARK SMILES O=C(CC1(NC(=O)c2ccc3cc[nH]c3c2)CCC1)OCCOC(=O)c1ccc(-c2c3nc(c(-c4ccccc4)c4ccc([nH]4)c(-c4ccccc4)c4nc(c(-c5ccccc5)c5ccc2[nH]5)C=C4)C=C3)cc1
REMARK SMILES IDX 21 1 20 2 2 3 1 4 3 5 4 6 17 7 19 8 18 9 5 10 6 11 7 13 8 14
REMARK SMILES IDX 9 15 16 16 10 17 15 18 11 19 14 20 12 21 13 22 22 24 23 25
REMARK SMILES IDX 24 26 25 27 26 28 27 29 73 30 28 31 72 32 29 33 30 34 31 35
REMARK SMILES IDX 66 36 32 37 71 38 65 39 67 40 33 41 70 42 64 43 63 44 34 46
REMARK SMILES IDX 56 47 41 48 55 49 42 50 45 51 54 52 68 53 43 54 44 55 53 57
REMARK SMILES IDX 69 58 46 59 35 60 36 61 40 62 37 63 39 64 38 65 57 66 58 67
REMARK SMILES IDX 62 68 59 69 61 70 60 71 47 72 48 73 52 74 49 75 51 76 50 77
REMARK H PARENT 5 12 14 23 67 45 45 56
REMARK Flexibility Score: inf
ROOT
ATOM      1  C   UNL A   1      31.607  31.989  26.828  1.00  0.00     0.274 C 
ENDROOT
BRANCH   1   2
ATOM      2  O   UNL A   1      31.840  30.576  26.813  1.00  0.00    -0.462 OA
BRANCH   2   3
ATOM      3  C   UNL A   1      32.111  30.023  25.620  1.00  0.00     0.308 C 
ATOM      4  O   UNL A   1      33.261  29.714  25.320  1.00  0.00    -0.252 OA
BRANCH   3   5
ATOM      5  C   UNL A   1      30.960  29.786  24.677  1.00  0.00     0.151 C 
BRANCH   5   6
ATOM      6  C   UNL A   1      31.059  28.946  23.409  1.00  0.00     0.051 C 
ATOM      7  C   UNL A   1      30.080  27.722  23.546  1.00  0.00     0.029 C 
ATOM      8  C   UNL A   1      30.081  29.469  22.296  1.00  0.00     0.029 C 
ATOM      9  C   UNL A   1      28.983  28.554  22.855  1.00  0.00     0.005 C 
BRANCH   6  10
ATOM     10  N   UNL A   1      32.350  28.483  22.763  1.00  0.00    -0.346 N 
ATOM     11  C   UNL A   1      33.294  27.482  22.616  1.00  0.00     0.251 C 
ATOM     12  H   UNL A   1      32.652  29.227  22.194  1.00  0.00     0.164 HD
ATOM     13  O   UNL A   1      34.028  27.592  21.626  1.00  0.00    -0.269 OA
BRANCH  11  14
ATOM     14  C   UNL A   1      33.642  26.363  23.505  1.00  0.00     0.041 A 
ATOM     15  C   UNL A   1      33.662  26.511  24.895  1.00  0.00     0.014 A 
ATOM     16  C   UNL A   1      33.644  25.067  22.964  1.00  0.00     0.040 A 
ATOM     17  C   UNL A   1      34.025  25.430  25.729  1.00  0.00     0.011 A 
ATOM     18  C   UNL A   1      34.043  24.005  23.795  1.00  0.00     0.046 A 
ATOM     19  C   UNL A   1      34.315  24.179  25.150  1.00  0.00    -0.001 A 
ATOM     20  N   UNL A   1      34.289  22.680  23.503  1.00  0.00    -0.361 N 
ATOM     21  C   UNL A   1      34.893  22.965  25.617  1.00  0.00     0.028 A 
ATOM     22  C   UNL A   1      34.911  22.077  24.564  1.00  0.00     0.083 A 
ATOM     23  H   UNL A   1      34.052  22.233  22.657  1.00  0.00     0.166 HD
ENDBRANCH  11  14
ENDBRANCH   6  10
ENDBRANCH   5   6
ENDBRANCH   3   5
ENDBRANCH   2   3
ENDBRANCH   1   2
BRANCH   1  24
ATOM     24  C   UNL A   1      32.656  32.798  27.614  1.00  0.00     0.275 C 
BRANCH  24  25
ATOM     25  O   UNL A   1      32.274  34.194  27.666  1.00  0.00    -0.458 OA
BRANCH  25  26
ATOM     26  C   UNL A   1      32.900  34.983  28.587  1.00  0.00     0.338 C 
ATOM     27  O   UNL A   1      32.504  36.065  28.960  1.00  0.00    -0.246 OA
BRANCH  26  28
ATOM     28  C   UNL A   1      34.108  34.294  29.175  1.00  0.00     0.060 A 
ATOM     29  C   UNL A   1      35.352  34.453  28.569  1.00  0.00     0.016 A 
ATOM     30  C   UNL A   1      34.060  33.527  30.340  1.00  0.00     0.016 A 
ATOM     31  C   UNL A   1      36.500  33.844  29.115  1.00  0.00     0.010 A 
ATOM     32  C   UNL A   1      35.179  32.889  30.880  1.00  0.00     0.010 A 
ATOM     33  C   UNL A   1      36.417  33.043  30.267  1.00  0.00    -0.014 A 
BRANCH  33  34
ATOM     34  C   UNL A   1      37.598  32.349  30.833  1.00  0.00     0.031 A 
ATOM     35  C   UNL A   1      38.251  32.876  32.079  1.00  0.00     0.074 A 
ATOM     36  C   UNL A   1      38.157  31.311  30.180  1.00  0.00     0.049 A 
ATOM     37  N   UNL A   1      39.205  32.343  32.799  1.00  0.00    -0.248 NA
ATOM     38  C   UNL A   1      37.788  34.186  32.565  1.00  0.00     0.031 C 
ATOM     39  C   UNL A   1      37.701  30.769  28.899  1.00  0.00     0.029 A 
ATOM     40  N   UNL A   1      39.253  30.545  30.495  1.00  0.00    -0.354 N 
ATOM     41  C   UNL A   1      39.428  33.228  33.846  1.00  0.00     0.074 A 
ATOM     42  C   UNL A   1      38.550  34.359  33.638  1.00  0.00     0.031 C 
ATOM     43  C   UNL A   1      38.527  29.776  28.526  1.00  0.00     0.029 A 
ATOM     44  C   UNL A   1      39.550  29.592  29.552  1.00  0.00     0.049 A 
ATOM     45  H   UNL A   1      39.776  30.668  31.320  1.00  0.00     0.167 HD
ATOM     46  C   UNL A   1      40.278  33.097  34.892  1.00  0.00     0.031 A 
ATOM     47  C   UNL A   1      40.525  28.663  29.526  1.00  0.00     0.031 A 
ATOM     48  C   UNL A   1      41.182  31.990  35.067  1.00  0.00     0.049 A 
ATOM     49  C   UNL A   1      41.448  28.526  30.705  1.00  0.00     0.074 A 
ATOM     50  C   UNL A   1      41.991  31.700  36.153  1.00  0.00     0.029 A 
ATOM     51  N   UNL A   1      41.425  31.015  34.115  1.00  0.00    -0.354 N 
ATOM     52  N   UNL A   1      41.495  29.239  31.804  1.00  0.00    -0.248 NA
ATOM     53  C   UNL A   1      42.430  27.431  30.658  1.00  0.00     0.031 C 
ATOM     54  C   UNL A   1      42.770  30.583  35.831  1.00  0.00     0.029 A 
ATOM     55  C   UNL A   1      42.407  30.150  34.565  1.00  0.00     0.049 A 
ATOM     56  H   UNL A   1      40.968  30.947  33.245  1.00  0.00     0.167 HD
ATOM     57  C   UNL A   1      42.487  28.663  32.589  1.00  0.00     0.074 A 
ATOM     58  C   UNL A   1      43.007  27.534  31.847  1.00  0.00     0.031 C 
ATOM     59  C   UNL A   1      42.925  29.036  33.815  1.00  0.00     0.031 A 
BRANCH  46  60
ATOM     60  C   UNL A   1      40.267  34.165  35.949  1.00  0.00    -0.014 A 
ATOM     61  C   UNL A   1      41.080  35.304  35.826  1.00  0.00     0.009 A 
ATOM     62  C   UNL A   1      39.366  34.086  37.023  1.00  0.00     0.009 A 
ATOM     63  C   UNL A   1      41.003  36.332  36.766  1.00  0.00     0.001 A 
ATOM     64  C   UNL A   1      39.277  35.128  37.950  1.00  0.00     0.001 A 
ATOM     65  C   UNL A   1      40.098  36.247  37.822  1.00  0.00     0.000 A 
ENDBRANCH  46  60
BRANCH  47  66
ATOM     66  C   UNL A   1      40.659  27.755  28.357  1.00  0.00    -0.014 A 
ATOM     67  C   UNL A   1      41.428  28.127  27.245  1.00  0.00     0.009 A 
ATOM     68  C   UNL A   1      39.999  26.516  28.343  1.00  0.00     0.009 A 
ATOM     69  C   UNL A   1      41.507  27.292  26.128  1.00  0.00     0.001 A 
ATOM     70  C   UNL A   1      40.100  25.672  27.235  1.00  0.00     0.001 A 
ATOM     71  C   UNL A   1      40.846  26.064  26.125  1.00  0.00     0.000 A 
ENDBRANCH  47  66
BRANCH  59  72
ATOM     72  C   UNL A   1      44.015  28.213  34.437  1.00  0.00    -0.014 A 
ATOM     73  C   UNL A   1      43.713  27.090  35.224  1.00  0.00     0.009 A 
ATOM     74  C   UNL A   1      45.359  28.537  34.199  1.00  0.00     0.009 A 
ATOM     75  C   UNL A   1      44.738  26.324  35.783  1.00  0.00     0.001 A 
ATOM     76  C   UNL A   1      46.381  27.754  34.738  1.00  0.00     0.001 A 
ATOM     77  C   UNL A   1      46.070  26.653  35.535  1.00  0.00     0.000 A 
ENDBRANCH  59  72
ENDBRANCH  33  34
ENDBRANCH  26  28
ENDBRANCH  25  26
ENDBRANCH  24  25
ENDBRANCH   1  24
TORSDOF 14
ENDMDL
MODEL 2
REMARK VINA RESULT:     -11.3      1.866      3.844
REMARK SMILES O=C(CC1(NC(=O)c2ccc3cc[nH]c3c2)CCC1)OCCOC(=O)c1ccc(-c2c3nc(c(-c4ccccc4)c4ccc([nH]4)c(-c4ccccc4)c4nc(c(-c5ccccc5)c5ccc2[nH]5)C=C4)C=C3)cc1
REMARK SMILES IDX 21 1 20 2 2 3 1 4 3 5 4 6 17 7 19 8 18 9 5 10 6 11 7 13 8 14
REMARK SMILES IDX 9 15 16 16 10 17 15 18 11 19 14 20 12 21 13 22 22 24 23 25
REMARK SMILES IDX 24 26 25 27 26 28 27 29 73 30 28 31 72 32 29 33 30 34 31 35
REMARK SMILES IDX 66 36 32 37 71 38 65 39 67 40 33 41 70 42 64 43 63 44 34 46
REMARK SMILES IDX 56 47 41 48 55 49 42 50 45 51 54 52 68 53 43 54 44 55 53 57
REMARK SMILES IDX 69 58 46 59 35 60 36 61 40 62 37 63 39 64 38 65 57 66 58 67
REMARK SMILES IDX 62 68 59 69 61 70 60 71 47 72 48 73 52 74 49 75 51 76 50 77
REMARK H PARENT 5 12 14 23 67 45 45 56
REMARK Flexibility Score: inf
ROOT
ATOM      1  C   UNL A   1      31.791  30.854  26.727  1.00  0.00     0.274 C 
ENDROOT
BRANCH   1   2
ATOM      2  O   UNL A   1      31.765  29.538  27.291  1.00  0.00    -0.462 OA
BRANCH   2   3
ATOM      3  C   UNL A   1      32.110  28.527  26.476  1.00  0.00     0.308 C 
ATOM      4  O   UNL A   1      32.957  28.689  25.602  1.00  0.00    -0.252 OA
BRANCH   3   5
ATOM      5  C   UNL A   1      31.435  27.197  26.683  1.00  0.00     0.151 C 
BRANCH   5   6
ATOM      6  C   UNL A   1      31.408  26.085  25.639  1.00  0.00     0.051 C 
ATOM      7  C   UNL A   1      32.640  25.139  25.888  1.00  0.00     0.029 C 
ATOM      8  C   UNL A   1      30.518  24.879  26.109  1.00  0.00     0.029 C 
ATOM      9  C   UNL A   1      31.748  24.258  26.785  1.00  0.00     0.005 C 
BRANCH   6  10
ATOM     10  N   UNL A   1      31.228  26.289  24.148  1.00  0.00    -0.346 N 
ATOM     11  C   UNL A   1      30.806  27.114  23.120  1.00  0.00     0.251 C 
ATOM     12  H   UNL A   1      31.560  25.468  23.719  1.00  0.00     0.164 HD
ATOM     13  O   UNL A   1      31.236  26.819  21.998  1.00  0.00    -0.269 OA
BRANCH  11  14
ATOM     14  C   UNL A   1      29.840  28.224  23.125  1.00  0.00     0.041 A 
ATOM     15  C   UNL A   1      28.465  27.998  23.016  1.00  0.00     0.014 A 
ATOM     16  C   UNL A   1      30.285  29.484  23.558  1.00  0.00     0.040 A 
ATOM     17  C   UNL A   1      27.557  29.081  22.996  1.00  0.00     0.011 A 
ATOM     18  C   UNL A   1      29.383  30.560  23.498  1.00  0.00     0.046 A 
ATOM     19  C   UNL A   1      28.046  30.393  23.143  1.00  0.00    -0.001 A 
ATOM     20  N   UNL A   1      29.579  31.910  23.702  1.00  0.00    -0.361 N 
ATOM     21  C   UNL A   1      27.496  31.696  22.973  1.00  0.00     0.028 A 
ATOM     22  C   UNL A   1      28.482  32.609  23.275  1.00  0.00     0.083 A 
ATOM     23  H   UNL A   1      30.389  32.311  24.096  1.00  0.00     0.166 HD
ENDBRANCH  11  14
ENDBRANCH   6  10
ENDBRANCH   5   6
ENDBRANCH   3   5
ENDBRANCH   2   3
ENDBRANCH   1   2
BRANCH   1  24
ATOM     24  C   UNL A   1      32.858  31.785  27.334  1.00  0.00     0.275 C 
BRANCH  24  25
ATOM     25  O   UNL A   1      32.348  33.139  27.422  1.00  0.00    -0.458 OA
BRANCH  25  26
ATOM     26  C   UNL A   1      32.999  34.003  28.253  1.00  0.00     0.338 C 
ATOM     27  O   UNL A   1      32.547  35.050  28.660  1.00  0.00    -0.246 OA
BRANCH  26  28
ATOM     28  C   UNL A   1      34.328  33.444  28.700  1.00  0.00     0.060 A 
ATOM     29  C   UNL A   1      35.454  33.625  27.900  1.00  0.00     0.016 A 
ATOM     30  C   UNL A   1      34.510  32.781  29.915  1.00  0.00     0.016 A 
ATOM     31  C   UNL A   1      36.712  33.138  28.309  1.00  0.00     0.010 A 
ATOM     32  C   UNL A   1      35.741  32.263  30.324  1.00  0.00     0.010 A 
ATOM     33  C   UNL A   1      36.860  32.438  29.518  1.00  0.00    -0.014 A 
BRANCH  33  34
ATOM     34  C   UNL A   1      38.160  31.870  29.949  1.00  0.00     0.031 A 
ATOM     35  C   UNL A   1      39.074  32.675  30.828  1.00  0.00     0.074 A 
ATOM     36  C   UNL A   1      38.577  30.682  29.469  1.00  0.00     0.049 A 
ATOM     37  N   UNL A   1      40.186  32.309  31.415  1.00  0.00    -0.248 NA
ATOM     38  C   UNL A   1      38.703  34.080  31.058  1.00  0.00     0.031 C 
ATOM     39  C   UNL A   1      37.846  29.847  28.514  1.00  0.00     0.029 A 
ATOM     40  N   UNL A   1      39.737  29.983  29.702  1.00  0.00    -0.354 N 
ATOM     41  C   UNL A   1      40.626  33.423  32.118  1.00  0.00     0.074 A 
ATOM     42  C   UNL A   1      39.693  34.494  31.840  1.00  0.00     0.031 C 
ATOM     43  C   UNL A   1      38.587  28.764  28.223  1.00  0.00     0.029 A 
ATOM     44  C   UNL A   1      39.828  28.812  28.991  1.00  0.00     0.049 A 
ATOM     45  H   UNL A   1      40.437  30.294  30.322  1.00  0.00     0.167 HD
ATOM     46  C   UNL A   1      41.702  33.534  32.932  1.00  0.00     0.031 A 
ATOM     47  C   UNL A   1      40.795  27.874  28.974  1.00  0.00     0.031 A 
ATOM     48  C   UNL A   1      42.652  32.477  33.166  1.00  0.00     0.049 A 
ATOM     49  C   UNL A   1      41.974  28.009  29.898  1.00  0.00     0.074 A 
ATOM     50  C   UNL A   1      43.702  32.445  34.068  1.00  0.00     0.029 A 
ATOM     51  N   UNL A   1      42.689  31.284  32.465  1.00  0.00    -0.354 N 
ATOM     52  N   UNL A   1      42.259  28.977  30.736  1.00  0.00    -0.248 NA
ATOM     53  C   UNL A   1      42.947  26.905  29.902  1.00  0.00     0.031 C 
ATOM     54  C   UNL A   1      44.413  31.256  33.868  1.00  0.00     0.029 A 
ATOM     55  C   UNL A   1      43.773  30.529  32.877  1.00  0.00     0.049 A 
ATOM     56  H   UNL A   1      42.042  31.012  31.775  1.00  0.00     0.167 HD
ATOM     57  C   UNL A   1      43.424  28.586  31.385  1.00  0.00     0.074 A 
ATOM     58  C   UNL A   1      43.785  27.287  30.855  1.00  0.00     0.031 C 
ATOM     59  C   UNL A   1      44.130  29.243  32.336  1.00  0.00     0.031 A 
BRANCH  46  60
ATOM     60  C   UNL A   1      41.912  34.835  33.653  1.00  0.00    -0.014 A 
ATOM     61  C   UNL A   1      41.348  35.051  34.921  1.00  0.00     0.009 A 
ATOM     62  C   UNL A   1      42.761  35.814  33.112  1.00  0.00     0.009 A 
ATOM     63  C   UNL A   1      41.616  36.227  35.624  1.00  0.00     0.001 A 
ATOM     64  C   UNL A   1      43.044  36.979  33.828  1.00  0.00     0.001 A 
ATOM     65  C   UNL A   1      42.468  37.186  35.080  1.00  0.00     0.000 A 
ENDBRANCH  46  60
BRANCH  47  66
ATOM     66  C   UNL A   1      40.673  26.694  28.079  1.00  0.00    -0.014 A 
ATOM     67  C   UNL A   1      41.162  26.739  26.765  1.00  0.00     0.009 A 
ATOM     68  C   UNL A   1      40.049  25.522  28.533  1.00  0.00     0.009 A 
ATOM     69  C   UNL A   1      40.997  25.645  25.912  1.00  0.00     0.001 A 
ATOM     70  C   UNL A   1      39.908  24.420  27.685  1.00  0.00     0.001 A 
ATOM     71  C   UNL A   1      40.374  24.486  26.374  1.00  0.00     0.000 A 
ENDBRANCH  47  66
BRANCH  59  72
ATOM     72  C   UNL A   1      45.358  28.568  32.874  1.00  0.00    -0.014 A 
ATOM     73  C   UNL A   1      46.628  28.854  32.350  1.00  0.00     0.009 A 
ATOM     74  C   UNL A   1      45.249  27.668  33.945  1.00  0.00     0.009 A 
ATOM     75  C   UNL A   1      47.763  28.230  32.871  1.00  0.00     0.001 A 
ATOM     76  C   UNL A   1      46.389  27.066  34.480  1.00  0.00     0.001 A 
ATOM     77  C   UNL A   1      47.643  27.342  33.938  1.00  0.00     0.000 A 
ENDBRANCH  59  72
ENDBRANCH  33  34
ENDBRANCH  26  28
ENDBRANCH  25  26
ENDBRANCH  24  25
ENDBRANCH   1  24
TORSDOF 14
ENDMDL
MODEL 3
REMARK VINA RESULT:     -11.1      1.874      6.962
REMARK SMILES O=C(CC1(NC(=O)c2ccc3cc[nH]c3c2)CCC1)OCCOC(=O)c1ccc(-c2c3nc(c(-c4ccccc4)c4ccc([nH]4)c(-c4ccccc4)c4nc(c(-c5ccccc5)c5ccc2[nH]5)C=C4)C=C3)cc1
REMARK SMILES IDX 21 1 20 2 2 3 1 4 3 5 4 6 17 7 19 8 18 9 5 10 6 11 7 13 8 14
REMARK SMILES IDX 9 15 16 16 10 17 15 18 11 19 14 20 12 21 13 22 22 24 23 25
REMARK SMILES IDX 24 26 25 27 26 28 27 29 73 30 28 31 72 32 29 33 30 34 31 35
REMARK SMILES IDX 66 36 32 37 71 38 65 39 67 40 33 41 70 42 64 43 63 44 34 46
REMARK SMILES IDX 56 47 41 48 55 49 42 50 45 51 54 52 68 53 43 54 44 55 53 57
REMARK SMILES IDX 69 58 46 59 35 60 36 61 40 62 37 63 39 64 38 65 57 66 58 67
REMARK SMILES IDX 62 68 59 69 61 70 60 71 47 72 48 73 52 74 49 75 51 76 50 77
REMARK H PARENT 5 12 14 23 67 45 45 56
REMARK Flexibility Score: inf
ROOT
ATOM      1  C   UNL A   1      31.785  30.828  26.641  1.00  0.00     0.274 C 
ENDROOT
BRANCH   1   2
ATOM      2  O   UNL A   1      31.740  29.486  27.139  1.00  0.00    -0.462 OA
BRANCH   2   3
ATOM      3  C   UNL A   1      32.006  28.508  26.259  1.00  0.00     0.308 C 
ATOM      4  O   UNL A   1      32.761  28.707  25.311  1.00  0.00    -0.252 OA
BRANCH   3   5
ATOM      5  C   UNL A   1      31.360  27.166  26.483  1.00  0.00     0.151 C 
BRANCH   5   6
ATOM      6  C   UNL A   1      31.452  26.003  25.501  1.00  0.00     0.051 C 
ATOM      7  C   UNL A   1      32.722  25.147  25.861  1.00  0.00     0.029 C 
ATOM      8  C   UNL A   1      30.611  24.770  25.992  1.00  0.00     0.029 C 
ATOM      9  C   UNL A   1      31.838  24.260  26.759  1.00  0.00     0.005 C 
BRANCH   6  10
ATOM     10  N   UNL A   1      31.338  26.119  23.994  1.00  0.00    -0.346 N 
ATOM     11  C   UNL A   1      30.950  26.876  22.902  1.00  0.00     0.251 C 
ATOM     12  H   UNL A   1      31.705  25.283  23.628  1.00  0.00     0.164 HD
ATOM     13  O   UNL A   1      31.437  26.527  21.820  1.00  0.00    -0.269 OA
BRANCH  11  14
ATOM     14  C   UNL A   1      29.964  27.963  22.800  1.00  0.00     0.041 A 
ATOM     15  C   UNL A   1      28.647  27.801  23.240  1.00  0.00     0.014 A 
ATOM     16  C   UNL A   1      30.438  29.262  22.550  1.00  0.00     0.040 A 
ATOM     17  C   UNL A   1      27.710  28.851  23.107  1.00  0.00     0.011 A 
ATOM     18  C   UNL A   1      29.493  30.289  22.383  1.00  0.00     0.046 A 
ATOM     19  C   UNL A   1      28.129  30.086  22.576  1.00  0.00    -0.001 A 
ATOM     20  N   UNL A   1      29.652  31.599  21.982  1.00  0.00    -0.361 N 
ATOM     21  C   UNL A   1      27.465  31.258  22.113  1.00  0.00     0.028 A 
ATOM     22  C   UNL A   1      28.430  32.152  21.705  1.00  0.00     0.083 A 
ATOM     23  H   UNL A   1      30.516  32.067  21.906  1.00  0.00     0.166 HD
ENDBRANCH  11  14
ENDBRANCH   6  10
ENDBRANCH   5   6
ENDBRANCH   3   5
ENDBRANCH   2   3
ENDBRANCH   1   2
BRANCH   1  24
ATOM     24  C   UNL A   1      32.825  31.729  27.333  1.00  0.00     0.275 C 
BRANCH  24  25
ATOM     25  O   UNL A   1      32.403  33.114  27.276  1.00  0.00    -0.458 OA
BRANCH  25  26
ATOM     26  C   UNL A   1      32.965  33.980  28.170  1.00  0.00     0.338 C 
ATOM     27  O   UNL A   1      32.437  34.985  28.590  1.00  0.00    -0.246 OA
BRANCH  26  28
ATOM     28  C   UNL A   1      34.299  33.475  28.663  1.00  0.00     0.060 A 
ATOM     29  C   UNL A   1      35.442  33.690  27.895  1.00  0.00     0.016 A 
ATOM     30  C   UNL A   1      34.468  32.833  29.891  1.00  0.00     0.016 A 
ATOM     31  C   UNL A   1      36.704  33.256  28.348  1.00  0.00     0.010 A 
ATOM     32  C   UNL A   1      35.704  32.366  30.343  1.00  0.00     0.010 A 
ATOM     33  C   UNL A   1      36.840  32.574  29.569  1.00  0.00    -0.014 A 
BRANCH  33  34
ATOM     34  C   UNL A   1      38.147  32.060  30.046  1.00  0.00     0.031 A 
ATOM     35  C   UNL A   1      38.651  30.732  29.559  1.00  0.00     0.074 A 
ATOM     36  C   UNL A   1      38.835  32.724  30.996  1.00  0.00     0.049 A 
ATOM     37  N   UNL A   1      39.818  30.172  29.754  1.00  0.00    -0.248 NA
ATOM     38  C   UNL A   1      37.714  29.917  28.771  1.00  0.00     0.031 C 
ATOM     39  C   UNL A   1      38.406  33.964  31.645  1.00  0.00     0.029 A 
ATOM     40  N   UNL A   1      40.033  32.428  31.600  1.00  0.00    -0.354 N 
ATOM     41  C   UNL A   1      39.773  28.959  29.079  1.00  0.00     0.074 A 
ATOM     42  C   UNL A   1      38.445  28.838  28.516  1.00  0.00     0.031 C 
ATOM     43  C   UNL A   1      39.314  34.307  32.575  1.00  0.00     0.029 A 
ATOM     44  C   UNL A   1      40.401  33.330  32.567  1.00  0.00     0.049 A 
ATOM     45  H   UNL A   1      40.576  31.642  31.361  1.00  0.00     0.167 HD
ATOM     46  C   UNL A   1      40.756  28.040  28.931  1.00  0.00     0.031 A 
ATOM     47  C   UNL A   1      41.498  33.376  33.347  1.00  0.00     0.031 A 
ATOM     48  C   UNL A   1      42.060  28.146  29.534  1.00  0.00     0.049 A 
ATOM     49  C   UNL A   1      42.586  32.354  33.155  1.00  0.00     0.074 A 
ATOM     50  C   UNL A   1      43.166  27.335  29.344  1.00  0.00     0.029 A 
ATOM     51  N   UNL A   1      42.417  29.099  30.472  1.00  0.00    -0.354 N 
ATOM     52  N   UNL A   1      42.621  31.331  32.336  1.00  0.00    -0.248 NA
ATOM     53  C   UNL A   1      43.800  32.514  33.970  1.00  0.00     0.031 C 
ATOM     54  C   UNL A   1      44.174  27.761  30.217  1.00  0.00     0.029 A 
ATOM     55  C   UNL A   1      43.710  28.868  30.910  1.00  0.00     0.049 A 
ATOM     56  H   UNL A   1      41.838  29.831  30.784  1.00  0.00     0.167 HD
ATOM     57  C   UNL A   1      43.868  30.745  32.515  1.00  0.00     0.074 A 
ATOM     58  C   UNL A   1      44.565  31.534  33.509  1.00  0.00     0.031 C 
ATOM     59  C   UNL A   1      44.389  29.652  31.907  1.00  0.00     0.031 A 
BRANCH  46  60
ATOM     60  C   UNL A   1      40.479  26.841  28.070  1.00  0.00    -0.014 A 
ATOM     61  C   UNL A   1      40.851  26.829  26.715  1.00  0.00     0.009 A 
ATOM     62  C   UNL A   1      39.936  25.676  28.634  1.00  0.00     0.009 A 
ATOM     63  C   UNL A   1      40.670  25.682  25.941  1.00  0.00     0.001 A 
ATOM     64  C   UNL A   1      39.776  24.523  27.862  1.00  0.00     0.001 A 
ATOM     65  C   UNL A   1      40.139  24.529  26.516  1.00  0.00     0.000 A 
ENDBRANCH  46  60
BRANCH  47  66
ATOM     66  C   UNL A   1      41.651  34.454  34.358  1.00  0.00    -0.014 A 
ATOM     67  C   UNL A   1      41.191  34.274  35.672  1.00  0.00     0.009 A 
ATOM     68  C   UNL A   1      42.241  35.677  34.006  1.00  0.00     0.009 A 
ATOM     69  C   UNL A   1      41.290  35.310  36.603  1.00  0.00     0.001 A 
ATOM     70  C   UNL A   1      42.361  36.703  34.948  1.00  0.00     0.001 A 
ATOM     71  C   UNL A   1      41.877  36.522  36.242  1.00  0.00     0.000 A 
ENDBRANCH  47  66
BRANCH  59  72
ATOM     72  C   UNL A   1      45.783  29.248  32.293  1.00  0.00    -0.014 A 
ATOM     73  C   UNL A   1      46.009  28.330  33.330  1.00  0.00     0.009 A 
ATOM     74  C   UNL A   1      46.881  29.757  31.582  1.00  0.00     0.009 A 
ATOM     75  C   UNL A   1      47.310  27.952  33.667  1.00  0.00     0.001 A 
ATOM     76  C   UNL A   1      48.178  29.357  31.904  1.00  0.00     0.001 A 
ATOM     77  C   UNL A   1      48.392  28.460  32.950  1.00  0.00     0.000 A 
ENDBRANCH  59  72
ENDBRANCH  33  34
ENDBRANCH  26  28
ENDBRANCH  25  26
ENDBRANCH  24  25
ENDBRANCH   1  24
TORSDOF 14
ENDMDL
