MODEL 1
REMARK VINA RESULT:      -8.6      0.000      0.000
REMARK SMILES C[C@@H](C(=O)OCCOC(=O)c1ccc(-c2c3nc(c(-c4ccccc4)c4ccc([nH]4)c(-c4ccccc4)c4nc(c(-c5ccccc5)c5ccc2[nH]5)C=C4)C=C3)cc1)c1ccc2c(c1)[nH]c1ccc(Cl)cc12
REMARK SMILES IDX 7 1 6 2 5 3 3 4 4 5 2 6 1 7 59 8 60 9 64 10 61 11 63 12
REMARK SMILES IDX 62 13 65 14 72 15 66 16 71 18 67 19 69 20 68 21 70 22 8 23
REMARK SMILES IDX 9 24 10 25 11 26 12 27 58 28 13 29 57 30 14 31 15 32 16 33
REMARK SMILES IDX 51 34 17 35 56 36 50 37 52 38 18 39 55 40 49 41 48 42 19 44
REMARK SMILES IDX 41 45 26 46 40 47 27 48 30 49 39 50 53 51 28 52 29 53 38 55
REMARK SMILES IDX 54 56 31 57 20 58 21 59 25 60 22 61 24 62 23 63 42 64 43 65
REMARK SMILES IDX 47 66 44 67 46 68 45 69 32 70 33 71 37 72 34 73 36 74 35 75
REMARK H PARENT 65 17 52 43 30 54
REMARK Flexibility Score: inf
ROOT
ATOM      1  C   UNL A   1      33.157  35.924  30.459  1.00  0.00     0.275 C 
ENDROOT
BRANCH   1   2
ATOM      2  C   UNL A   1      33.653  36.038  31.898  1.00  0.00     0.274 C 
BRANCH   2   3
ATOM      3  O   UNL A   1      34.191  34.771  32.339  1.00  0.00    -0.462 OA
BRANCH   3   4
ATOM      4  C   UNL A   1      35.423  34.774  32.924  1.00  0.00     0.313 C 
ATOM      5  O   UNL A   1      36.385  35.377  32.459  1.00  0.00    -0.252 OA
BRANCH   4   6
ATOM      6  C   UNL A   1      35.484  33.874  34.182  1.00  0.00     0.126 C 
ATOM      7  C   UNL A   1      35.094  34.667  35.444  1.00  0.00     0.025 C 
BRANCH   6   8
ATOM      8  C   UNL A   1      36.798  33.075  34.334  1.00  0.00    -0.032 A 
ATOM      9  C   UNL A   1      37.865  33.594  35.089  1.00  0.00     0.005 A 
ATOM     10  C   UNL A   1      37.001  31.843  33.676  1.00  0.00     0.031 A 
ATOM     11  C   UNL A   1      39.058  32.879  35.295  1.00  0.00     0.011 A 
ATOM     12  C   UNL A   1      38.215  31.159  33.855  1.00  0.00     0.047 A 
ATOM     13  C   UNL A   1      39.228  31.621  34.688  1.00  0.00     0.007 A 
ATOM     14  N   UNL A   1      38.662  29.983  33.296  1.00  0.00    -0.355 N 
ATOM     15  C   UNL A   1      40.244  30.612  34.731  1.00  0.00     0.009 A 
ATOM     16  C   UNL A   1      39.892  29.633  33.801  1.00  0.00     0.047 A 
ATOM     17  H   UNL A   1      38.167  29.462  32.624  1.00  0.00     0.167 HD
ATOM     18  C   UNL A   1      41.435  30.444  35.468  1.00  0.00     0.031 A 
ATOM     19  C   UNL A   1      40.705  28.529  33.513  1.00  0.00     0.028 A 
ATOM     20  C   UNL A   1      42.237  29.326  35.217  1.00  0.00     0.041 A 
ATOM     21  C   UNL A   1      41.891  28.395  34.240  1.00  0.00     0.022 A 
ATOM     22  Cl  UNL A   1      43.682  29.100  36.128  1.00  0.00    -0.084 Cl
ENDBRANCH   6   8
ENDBRANCH   4   6
ENDBRANCH   3   4
ENDBRANCH   2   3
ENDBRANCH   1   2
BRANCH   1  23
ATOM     23  O   UNL A   1      32.897  34.539  30.177  1.00  0.00    -0.458 OA
BRANCH  23  24
ATOM     24  C   UNL A   1      33.307  34.080  28.979  1.00  0.00     0.338 C 
ATOM     25  O   UNL A   1      32.744  34.177  27.896  1.00  0.00    -0.246 OA
BRANCH  24  26
ATOM     26  C   UNL A   1      34.644  33.506  29.156  1.00  0.00     0.060 A 
ATOM     27  C   UNL A   1      34.793  32.492  30.098  1.00  0.00     0.016 A 
ATOM     28  C   UNL A   1      35.748  33.992  28.456  1.00  0.00     0.016 A 
ATOM     29  C   UNL A   1      36.053  31.970  30.361  1.00  0.00     0.010 A 
ATOM     30  C   UNL A   1      37.011  33.436  28.698  1.00  0.00     0.010 A 
ATOM     31  C   UNL A   1      37.174  32.428  29.665  1.00  0.00    -0.014 A 
BRANCH  31  32
ATOM     32  C   UNL A   1      38.511  31.909  30.049  1.00  0.00     0.031 A 
ATOM     33  C   UNL A   1      38.994  30.611  29.468  1.00  0.00     0.074 A 
ATOM     34  C   UNL A   1      39.340  32.636  30.824  1.00  0.00     0.049 A 
ATOM     35  N   UNL A   1      40.069  29.925  29.757  1.00  0.00    -0.248 NA
ATOM     36  C   UNL A   1      38.155  30.009  28.420  1.00  0.00     0.031 C 
ATOM     37  C   UNL A   1      39.059  33.971  31.353  1.00  0.00     0.029 A 
ATOM     38  N   UNL A   1      40.605  32.356  31.280  1.00  0.00    -0.354 N 
ATOM     39  C   UNL A   1      40.016  28.791  28.957  1.00  0.00     0.074 A 
ATOM     40  C   UNL A   1      38.806  28.883  28.169  1.00  0.00     0.031 C 
ATOM     41  C   UNL A   1      40.132  34.404  32.037  1.00  0.00     0.029 A 
ATOM     42  C   UNL A   1      41.143  33.352  32.058  1.00  0.00     0.049 A 
ATOM     43  H   UNL A   1      41.081  31.520  31.069  1.00  0.00     0.167 HD
ATOM     44  C   UNL A   1      40.890  27.759  28.894  1.00  0.00     0.031 A 
ATOM     45  C   UNL A   1      42.302  33.395  32.743  1.00  0.00     0.031 A 
ATOM     46  C   UNL A   1      42.106  27.675  29.657  1.00  0.00     0.049 A 
ATOM     47  C   UNL A   1      43.208  32.196  32.736  1.00  0.00     0.074 A 
ATOM     48  C   UNL A   1      43.029  26.644  29.698  1.00  0.00     0.029 A 
ATOM     49  N   UNL A   1      42.575  28.669  30.498  1.00  0.00    -0.354 N 
ATOM     50  N   UNL A   1      43.095  31.077  32.062  1.00  0.00    -0.248 NA
ATOM     51  C   UNL A   1      44.390  32.254  33.610  1.00  0.00     0.031 C 
ATOM     52  C   UNL A   1      44.038  26.999  30.600  1.00  0.00     0.029 A 
ATOM     53  C   UNL A   1      43.764  28.267  31.084  1.00  0.00     0.049 A 
ATOM     54  H   UNL A   1      42.131  29.533  30.656  1.00  0.00     0.167 HD
ATOM     55  C   UNL A   1      44.194  30.307  32.419  1.00  0.00     0.074 A 
ATOM     56  C   UNL A   1      44.972  31.090  33.356  1.00  0.00     0.031 C 
ATOM     57  C   UNL A   1      44.524  29.056  32.015  1.00  0.00     0.031 A 
BRANCH  44  58
ATOM     58  C   UNL A   1      40.519  26.602  28.014  1.00  0.00    -0.014 A 
ATOM     59  C   UNL A   1      39.670  25.581  28.463  1.00  0.00     0.009 A 
ATOM     60  C   UNL A   1      41.023  26.549  26.706  1.00  0.00     0.009 A 
ATOM     61  C   UNL A   1      39.354  24.511  27.623  1.00  0.00     0.001 A 
ATOM     62  C   UNL A   1      40.688  25.490  25.861  1.00  0.00     0.001 A 
ATOM     63  C   UNL A   1      39.861  24.468  26.323  1.00  0.00     0.000 A 
ENDBRANCH  44  58
BRANCH  45  64
ATOM     64  C   UNL A   1      42.648  34.589  33.558  1.00  0.00    -0.014 A 
ATOM     65  C   UNL A   1      42.268  34.667  34.907  1.00  0.00     0.009 A 
ATOM     66  C   UNL A   1      43.326  35.674  32.980  1.00  0.00     0.009 A 
ATOM     67  C   UNL A   1      42.545  35.816  35.653  1.00  0.00     0.001 A 
ATOM     68  C   UNL A   1      43.627  36.808  33.736  1.00  0.00     0.001 A 
ATOM     69  C   UNL A   1      43.227  36.883  35.068  1.00  0.00     0.000 A 
ENDBRANCH  45  64
BRANCH  57  70
ATOM     70  C   UNL A   1      45.789  28.467  32.570  1.00  0.00    -0.014 A 
ATOM     71  C   UNL A   1      45.762  27.615  33.683  1.00  0.00     0.009 A 
ATOM     72  C   UNL A   1      47.016  28.737  31.945  1.00  0.00     0.009 A 
ATOM     73  C   UNL A   1      46.945  27.064  34.177  1.00  0.00     0.001 A 
ATOM     74  C   UNL A   1      48.194  28.167  32.428  1.00  0.00     0.001 A 
ATOM     75  C   UNL A   1      48.159  27.337  33.548  1.00  0.00     0.000 A 
ENDBRANCH  57  70
ENDBRANCH  31  32
ENDBRANCH  24  26
ENDBRANCH  23  24
ENDBRANCH   1  23
TORSDOF 12
ENDMDL
MODEL 2
REMARK VINA RESULT:      -8.5      5.426     10.744
REMARK SMILES C[C@@H](C(=O)OCCOC(=O)c1ccc(-c2c3nc(c(-c4ccccc4)c4ccc([nH]4)c(-c4ccccc4)c4nc(c(-c5ccccc5)c5ccc2[nH]5)C=C4)C=C3)cc1)c1ccc2c(c1)[nH]c1ccc(Cl)cc12
REMARK SMILES IDX 7 1 6 2 5 3 3 4 4 5 2 6 1 7 59 8 60 9 64 10 61 11 63 12
REMARK SMILES IDX 62 13 65 14 72 15 66 16 71 18 67 19 69 20 68 21 70 22 8 23
REMARK SMILES IDX 9 24 10 25 11 26 12 27 58 28 13 29 57 30 14 31 15 32 16 33
REMARK SMILES IDX 51 34 17 35 56 36 50 37 52 38 18 39 55 40 49 41 48 42 19 44
REMARK SMILES IDX 41 45 26 46 40 47 27 48 30 49 39 50 53 51 28 52 29 53 38 55
REMARK SMILES IDX 54 56 31 57 20 58 21 59 25 60 22 61 24 62 23 63 42 64 43 65
REMARK SMILES IDX 47 66 44 67 46 68 45 69 32 70 33 71 37 72 34 73 36 74 35 75
REMARK H PARENT 65 17 52 43 30 54
REMARK Flexibility Score: inf
ROOT
ATOM      1  C   UNL A   1      43.262  18.911  25.219  1.00  0.00     0.275 C 
ENDROOT
BRANCH   1   2
ATOM      2  C   UNL A   1      44.562  19.709  25.288  1.00  0.00     0.274 C 
BRANCH   2   3
ATOM      3  O   UNL A   1      44.351  21.045  24.780  1.00  0.00    -0.462 OA
BRANCH   3   4
ATOM      4  C   UNL A   1      44.976  22.075  25.421  1.00  0.00     0.313 C 
ATOM      5  O   UNL A   1      45.004  22.186  26.643  1.00  0.00    -0.252 OA
BRANCH   4   6
ATOM      6  C   UNL A   1      45.568  23.114  24.438  1.00  0.00     0.126 C 
ATOM      7  C   UNL A   1      46.918  22.631  23.876  1.00  0.00     0.025 C 
BRANCH   6   8
ATOM      8  C   UNL A   1      45.605  24.559  24.981  1.00  0.00    -0.032 A 
ATOM      9  C   UNL A   1      46.810  25.117  25.446  1.00  0.00     0.005 A 
ATOM     10  C   UNL A   1      44.436  25.343  25.095  1.00  0.00     0.031 A 
ATOM     11  C   UNL A   1      46.899  26.444  25.901  1.00  0.00     0.011 A 
ATOM     12  C   UNL A   1      44.531  26.654  25.592  1.00  0.00     0.047 A 
ATOM     13  C   UNL A   1      45.740  27.241  25.950  1.00  0.00     0.007 A 
ATOM     14  N   UNL A   1      43.548  27.585  25.835  1.00  0.00    -0.355 N 
ATOM     15  C   UNL A   1      45.473  28.610  26.278  1.00  0.00     0.009 A 
ATOM     16  C   UNL A   1      44.088  28.776  26.260  1.00  0.00     0.047 A 
ATOM     17  H   UNL A   1      42.584  27.421  25.719  1.00  0.00     0.167 HD
ATOM     18  C   UNL A   1      46.282  29.721  26.597  1.00  0.00     0.031 A 
ATOM     19  C   UNL A   1      43.460  29.975  26.617  1.00  0.00     0.028 A 
ATOM     20  C   UNL A   1      45.667  30.937  26.918  1.00  0.00     0.041 A 
ATOM     21  C   UNL A   1      44.280  31.057  26.950  1.00  0.00     0.022 A 
ATOM     22  Cl  UNL A   1      46.645  32.306  27.287  1.00  0.00    -0.084 Cl
ENDBRANCH   6   8
ENDBRANCH   4   6
ENDBRANCH   3   4
ENDBRANCH   2   3
ENDBRANCH   1   2
BRANCH   1  23
ATOM     23  O   UNL A   1      42.480  19.215  26.385  1.00  0.00    -0.458 OA
BRANCH  23  24
ATOM     24  C   UNL A   1      41.362  19.941  26.190  1.00  0.00     0.338 C 
ATOM     25  O   UNL A   1      40.314  19.594  25.661  1.00  0.00    -0.246 OA
BRANCH  24  26
ATOM     26  C   UNL A   1      41.562  21.245  26.829  1.00  0.00     0.060 A 
ATOM     27  C   UNL A   1      41.497  22.377  26.022  1.00  0.00     0.016 A 
ATOM     28  C   UNL A   1      41.870  21.357  28.185  1.00  0.00     0.016 A 
ATOM     29  C   UNL A   1      41.758  23.630  26.562  1.00  0.00     0.010 A 
ATOM     30  C   UNL A   1      42.096  22.627  28.733  1.00  0.00     0.010 A 
ATOM     31  C   UNL A   1      42.055  23.774  27.919  1.00  0.00    -0.014 A 
BRANCH  31  32
ATOM     32  C   UNL A   1      42.422  25.118  28.430  1.00  0.00     0.031 A 
ATOM     33  C   UNL A   1      41.345  26.142  28.653  1.00  0.00     0.074 A 
ATOM     34  C   UNL A   1      43.688  25.399  28.798  1.00  0.00     0.049 A 
ATOM     35  N   UNL A   1      41.459  27.404  28.978  1.00  0.00    -0.248 NA
ATOM     36  C   UNL A   1      39.958  25.681  28.492  1.00  0.00     0.031 C 
ATOM     37  C   UNL A   1      44.812  24.463  28.761  1.00  0.00     0.029 A 
ATOM     38  N   UNL A   1      44.233  26.555  29.300  1.00  0.00    -0.354 N 
ATOM     39  C   UNL A   1      40.162  27.898  29.020  1.00  0.00     0.074 A 
ATOM     40  C   UNL A   1      39.278  26.800  28.692  1.00  0.00     0.031 C 
ATOM     41  C   UNL A   1      45.905  25.074  29.248  1.00  0.00     0.029 A 
ATOM     42  C   UNL A   1      45.578  26.462  29.560  1.00  0.00     0.049 A 
ATOM     43  H   UNL A   1      43.708  27.373  29.458  1.00  0.00     0.167 HD
ATOM     44  C   UNL A   1      39.745  29.156  29.295  1.00  0.00     0.031 A 
ATOM     45  C   UNL A   1      46.457  27.400  29.965  1.00  0.00     0.031 A 
ATOM     46  C   UNL A   1      40.618  30.244  29.646  1.00  0.00     0.049 A 
ATOM     47  C   UNL A   1      45.985  28.813  30.167  1.00  0.00     0.074 A 
ATOM     48  C   UNL A   1      40.291  31.567  29.891  1.00  0.00     0.029 A 
ATOM     49  N   UNL A   1      41.986  30.128  29.818  1.00  0.00    -0.354 N 
ATOM     50  N   UNL A   1      44.770  29.298  30.096  1.00  0.00    -0.248 NA
ATOM     51  C   UNL A   1      47.016  29.816  30.477  1.00  0.00     0.031 C 
ATOM     52  C   UNL A   1      41.473  32.262  30.171  1.00  0.00     0.029 A 
ATOM     53  C   UNL A   1      42.525  31.362  30.143  1.00  0.00     0.049 A 
ATOM     54  H   UNL A   1      42.500  29.294  29.725  1.00  0.00     0.167 HD
ATOM     55  C   UNL A   1      44.888  30.655  30.364  1.00  0.00     0.074 A 
ATOM     56  C   UNL A   1      46.289  30.915  30.617  1.00  0.00     0.031 C 
ATOM     57  C   UNL A   1      43.922  31.605  30.389  1.00  0.00     0.031 A 
BRANCH  44  58
ATOM     58  C   UNL A   1      38.278  29.435  29.155  1.00  0.00    -0.014 A 
ATOM     59  C   UNL A   1      37.421  29.435  30.264  1.00  0.00     0.009 A 
ATOM     60  C   UNL A   1      37.754  29.716  27.884  1.00  0.00     0.009 A 
ATOM     61  C   UNL A   1      36.057  29.685  30.097  1.00  0.00     0.001 A 
ATOM     62  C   UNL A   1      36.395  29.987  27.723  1.00  0.00     0.001 A 
ATOM     63  C   UNL A   1      35.546  29.964  28.828  1.00  0.00     0.000 A 
ENDBRANCH  44  58
BRANCH  45  64
ATOM     64  C   UNL A   1      47.892  27.057  30.140  1.00  0.00    -0.014 A 
ATOM     65  C   UNL A   1      48.798  27.217  29.080  1.00  0.00     0.009 A 
ATOM     66  C   UNL A   1      48.356  26.532  31.357  1.00  0.00     0.009 A 
ATOM     67  C   UNL A   1      50.136  26.839  29.232  1.00  0.00     0.001 A 
ATOM     68  C   UNL A   1      49.699  26.183  31.514  1.00  0.00     0.001 A 
ATOM     69  C   UNL A   1      50.585  26.327  30.449  1.00  0.00     0.000 A 
ENDBRANCH  45  64
BRANCH  57  70
ATOM     70  C   UNL A   1      44.345  33.007  30.718  1.00  0.00    -0.014 A 
ATOM     71  C   UNL A   1      44.433  33.442  32.048  1.00  0.00     0.009 A 
ATOM     72  C   UNL A   1      44.698  33.889  29.685  1.00  0.00     0.009 A 
ATOM     73  C   UNL A   1      44.842  34.744  32.338  1.00  0.00     0.001 A 
ATOM     74  C   UNL A   1      45.128  35.183  29.979  1.00  0.00     0.001 A 
ATOM     75  C   UNL A   1      45.193  35.612  31.305  1.00  0.00     0.000 A 
ENDBRANCH  57  70
ENDBRANCH  31  32
ENDBRANCH  24  26
ENDBRANCH  23  24
ENDBRANCH   1  23
TORSDOF 12
ENDMDL
MODEL 3
REMARK VINA RESULT:      -8.5      5.339     10.808
REMARK SMILES C[C@@H](C(=O)OCCOC(=O)c1ccc(-c2c3nc(c(-c4ccccc4)c4ccc([nH]4)c(-c4ccccc4)c4nc(c(-c5ccccc5)c5ccc2[nH]5)C=C4)C=C3)cc1)c1ccc2c(c1)[nH]c1ccc(Cl)cc12
REMARK SMILES IDX 7 1 6 2 5 3 3 4 4 5 2 6 1 7 59 8 60 9 64 10 61 11 63 12
REMARK SMILES IDX 62 13 65 14 72 15 66 16 71 18 67 19 69 20 68 21 70 22 8 23
REMARK SMILES IDX 9 24 10 25 11 26 12 27 58 28 13 29 57 30 14 31 15 32 16 33
REMARK SMILES IDX 51 34 17 35 56 36 50 37 52 38 18 39 55 40 49 41 48 42 19 44
REMARK SMILES IDX 41 45 26 46 40 47 27 48 30 49 39 50 53 51 28 52 29 53 38 55
REMARK SMILES IDX 54 56 31 57 20 58 21 59 25 60 22 61 24 62 23 63 42 64 43 65
REMARK SMILES IDX 47 66 44 67 46 68 45 69 32 70 33 71 37 72 34 73 36 74 35 75
REMARK H PARENT 65 17 52 43 30 54
REMARK Flexibility Score: inf
ROOT
ATOM      1  C   UNL A   1      43.627  18.968  24.954  1.00  0.00     0.275 C 
ENDROOT
BRANCH   1   2
ATOM      2  C   UNL A   1      44.902  19.806  24.918  1.00  0.00     0.274 C 
BRANCH   2   3
ATOM      3  O   UNL A   1      44.591  21.164  24.536  1.00  0.00    -0.462 OA
BRANCH   3   4
ATOM      4  C   UNL A   1      45.139  22.173  25.274  1.00  0.00     0.313 C 
ATOM      5  O   UNL A   1      45.150  22.177  26.500  1.00  0.00    -0.252 OA
BRANCH   4   6
ATOM      6  C   UNL A   1      45.666  23.332  24.394  1.00  0.00     0.126 C 
ATOM      7  C   UNL A   1      47.043  22.987  23.797  1.00  0.00     0.025 C 
BRANCH   6   8
ATOM      8  C   UNL A   1      45.616  24.721  25.069  1.00  0.00    -0.032 A 
ATOM      9  C   UNL A   1      46.767  25.267  25.666  1.00  0.00     0.005 A 
ATOM     10  C   UNL A   1      44.415  25.456  25.173  1.00  0.00     0.031 A 
ATOM     11  C   UNL A   1      46.778  26.548  26.247  1.00  0.00     0.011 A 
ATOM     12  C   UNL A   1      44.430  26.716  25.794  1.00  0.00     0.047 A 
ATOM     13  C   UNL A   1      45.591  27.302  26.288  1.00  0.00     0.007 A 
ATOM     14  N   UNL A   1      43.400  27.592  26.052  1.00  0.00    -0.355 N 
ATOM     15  C   UNL A   1      45.254  28.626  26.721  1.00  0.00     0.009 A 
ATOM     16  C   UNL A   1      43.869  28.752  26.621  1.00  0.00     0.047 A 
ATOM     17  H   UNL A   1      42.453  27.411  25.854  1.00  0.00     0.167 HD
ATOM     18  C   UNL A   1      45.999  29.726  27.196  1.00  0.00     0.031 A 
ATOM     19  C   UNL A   1      43.176  29.894  27.042  1.00  0.00     0.028 A 
ATOM     20  C   UNL A   1      45.322  30.887  27.584  1.00  0.00     0.041 A 
ATOM     21  C   UNL A   1      43.932  30.963  27.530  1.00  0.00     0.022 A 
ATOM     22  Cl  UNL A   1      46.224  32.243  28.144  1.00  0.00    -0.084 Cl
ENDBRANCH   6   8
ENDBRANCH   4   6
ENDBRANCH   3   4
ENDBRANCH   2   3
ENDBRANCH   1   2
BRANCH   1  23
ATOM     23  O   UNL A   1      42.986  19.170  26.224  1.00  0.00    -0.458 OA
BRANCH  23  24
ATOM     24  C   UNL A   1      41.748  19.700  26.198  1.00  0.00     0.338 C 
ATOM     25  O   UNL A   1      40.711  19.188  25.798  1.00  0.00    -0.246 OA
BRANCH  24  26
ATOM     26  C   UNL A   1      41.813  21.013  26.846  1.00  0.00     0.060 A 
ATOM     27  C   UNL A   1      41.684  22.140  26.040  1.00  0.00     0.016 A 
ATOM     28  C   UNL A   1      42.059  21.143  28.213  1.00  0.00     0.016 A 
ATOM     29  C   UNL A   1      41.818  23.408  26.592  1.00  0.00     0.010 A 
ATOM     30  C   UNL A   1      42.156  22.425  28.772  1.00  0.00     0.010 A 
ATOM     31  C   UNL A   1      42.050  23.569  27.960  1.00  0.00    -0.014 A 
BRANCH  31  32
ATOM     32  C   UNL A   1      42.283  24.936  28.487  1.00  0.00     0.031 A 
ATOM     33  C   UNL A   1      43.669  25.343  28.899  1.00  0.00     0.074 A 
ATOM     34  C   UNL A   1      41.293  25.851  28.504  1.00  0.00     0.049 A 
ATOM     35  N   UNL A   1      44.068  26.440  29.490  1.00  0.00    -0.248 NA
ATOM     36  C   UNL A   1      44.748  24.390  28.599  1.00  0.00     0.031 C 
ATOM     37  C   UNL A   1      39.930  25.639  28.015  1.00  0.00     0.029 A 
ATOM     38  N   UNL A   1      41.295  27.156  28.930  1.00  0.00    -0.354 N 
ATOM     39  C   UNL A   1      45.436  26.291  29.670  1.00  0.00     0.074 A 
ATOM     40  C   UNL A   1      45.800  25.001  29.123  1.00  0.00     0.031 C 
ATOM     41  C   UNL A   1      39.238  26.784  28.142  1.00  0.00     0.029 A 
ATOM     42  C   UNL A   1      40.081  27.784  28.789  1.00  0.00     0.049 A 
ATOM     43  H   UNL A   1      42.091  27.600  29.301  1.00  0.00     0.167 HD
ATOM     44  C   UNL A   1      46.310  27.146  30.252  1.00  0.00     0.031 A 
ATOM     45  C   UNL A   1      39.682  29.012  29.173  1.00  0.00     0.031 A 
ATOM     46  C   UNL A   1      45.959  28.438  30.775  1.00  0.00     0.049 A 
ATOM     47  C   UNL A   1      40.646  29.904  29.906  1.00  0.00     0.074 A 
ATOM     48  C   UNL A   1      46.766  29.353  31.429  1.00  0.00     0.029 A 
ATOM     49  N   UNL A   1      44.698  29.004  30.687  1.00  0.00    -0.354 N 
ATOM     50  N   UNL A   1      41.914  29.709  30.174  1.00  0.00    -0.248 NA
ATOM     51  C   UNL A   1      40.112  31.175  30.418  1.00  0.00     0.031 C 
ATOM     52  C   UNL A   1      45.980  30.458  31.775  1.00  0.00     0.029 A 
ATOM     53  C   UNL A   1      44.698  30.247  31.296  1.00  0.00     0.049 A 
ATOM     54  H   UNL A   1      43.919  28.586  30.255  1.00  0.00     0.167 HD
ATOM     55  C   UNL A   1      42.331  30.835  30.870  1.00  0.00     0.074 A 
ATOM     56  C   UNL A   1      41.187  31.717  30.970  1.00  0.00     0.031 C 
ATOM     57  C   UNL A   1      43.551  31.111  31.390  1.00  0.00     0.031 A 
BRANCH  44  58
ATOM     58  C   UNL A   1      47.724  26.671  30.414  1.00  0.00    -0.014 A 
ATOM     59  C   UNL A   1      48.112  25.874  31.500  1.00  0.00     0.009 A 
ATOM     60  C   UNL A   1      48.679  27.024  29.448  1.00  0.00     0.009 A 
ATOM     61  C   UNL A   1      49.439  25.460  31.628  1.00  0.00     0.001 A 
ATOM     62  C   UNL A   1      49.999  26.591  29.567  1.00  0.00     0.001 A 
ATOM     63  C   UNL A   1      50.381  25.816  30.661  1.00  0.00     0.000 A 
ENDBRANCH  44  58
BRANCH  45  64
ATOM     64  C   UNL A   1      38.282  29.453  28.941  1.00  0.00    -0.014 A 
ATOM     65  C   UNL A   1      37.319  29.335  29.954  1.00  0.00     0.009 A 
ATOM     66  C   UNL A   1      37.894  29.960  27.690  1.00  0.00     0.009 A 
ATOM     67  C   UNL A   1      35.991  29.698  29.712  1.00  0.00     0.001 A 
ATOM     68  C   UNL A   1      36.573  30.349  27.460  1.00  0.00     0.001 A 
ATOM     69  C   UNL A   1      35.621  30.208  28.467  1.00  0.00     0.000 A 
ENDBRANCH  45  64
BRANCH  57  70
ATOM     70  C   UNL A   1      43.716  32.425  32.097  1.00  0.00    -0.014 A 
ATOM     71  C   UNL A   1      44.080  33.583  31.394  1.00  0.00     0.009 A 
ATOM     72  C   UNL A   1      43.465  32.512  33.475  1.00  0.00     0.009 A 
ATOM     73  C   UNL A   1      44.214  34.800  32.064  1.00  0.00     0.001 A 
ATOM     74  C   UNL A   1      43.579  33.735  34.137  1.00  0.00     0.001 A 
ATOM     75  C   UNL A   1      43.960  34.876  33.433  1.00  0.00     0.000 A 
ENDBRANCH  57  70
ENDBRANCH  31  32
ENDBRANCH  24  26
ENDBRANCH  23  24
ENDBRANCH   1  23
TORSDOF 12
ENDMDL
