MODEL 1
REMARK VINA RESULT:     -12.1      0.000      0.000
REMARK SMILES O=C(OCCOC(=O)c1cccc(N2NC(=O)[C@H]3CC=CC[C@H]3C2=O)c1)c1ccc(-c2c3nc(c(-c4ccccc4)c4ccc([nH]4)c(-c4ccccc4)c4nc(c(-c5ccccc5)c5ccc2[nH]5)C=C4)C=C3)cc1
REMARK SMILES IDX 4 1 3 2 2 3 1 4 27 5 28 6 74 7 29 8 73 9 30 10 31 11 32 12
REMARK SMILES IDX 67 13 33 14 72 15 66 16 68 17 34 18 71 19 65 20 64 21 35 23
REMARK SMILES IDX 57 24 42 25 56 26 43 27 46 28 55 29 69 30 44 31 45 32 54 34
REMARK SMILES IDX 70 35 47 36 36 37 37 38 41 39 38 40 40 41 39 42 58 43 59 44
REMARK SMILES IDX 63 45 60 46 62 47 61 48 48 49 49 50 53 51 50 52 52 53 51 54
REMARK SMILES IDX 5 55 6 56 7 57 8 58 9 59 10 60 26 61 11 62 13 63 12 64 14 65
REMARK SMILES IDX 15 66 24 67 16 68 23 70 25 71 17 72 18 73 22 74 19 75 21 76
REMARK SMILES IDX 20 77
REMARK H PARENT 68 22 46 33 15 69
REMARK Flexibility Score: inf
ROOT
ATOM      1  C   UNL A   1      44.002  21.754  25.229  1.00  0.00     0.275 C 
ENDROOT
BRANCH   1   2
ATOM      2  O   UNL A   1      43.619  23.060  24.763  1.00  0.00    -0.458 OA
BRANCH   2   3
ATOM      3  C   UNL A   1      44.172  24.261  25.059  1.00  0.00     0.338 C 
ATOM      4  O   UNL A   1      45.292  24.528  24.626  1.00  0.00    -0.246 OA
BRANCH   3   5
ATOM      5  C   UNL A   1      43.567  25.213  26.039  1.00  0.00     0.060 A 
ATOM      6  C   UNL A   1      43.772  26.593  26.071  1.00  0.00     0.016 A 
ATOM      7  C   UNL A   1      42.763  24.642  27.042  1.00  0.00     0.016 A 
ATOM      8  C   UNL A   1      43.150  27.389  27.038  1.00  0.00     0.010 A 
ATOM      9  C   UNL A   1      42.125  25.431  28.003  1.00  0.00     0.010 A 
ATOM     10  C   UNL A   1      42.336  26.812  28.016  1.00  0.00    -0.014 A 
BRANCH  10  11
ATOM     11  C   UNL A   1      41.889  27.635  29.159  1.00  0.00     0.031 A 
ATOM     12  C   UNL A   1      40.606  28.405  29.018  1.00  0.00     0.074 A 
ATOM     13  C   UNL A   1      42.561  27.627  30.325  1.00  0.00     0.049 A 
ATOM     14  N   UNL A   1      39.944  29.083  29.920  1.00  0.00    -0.248 NA
ATOM     15  C   UNL A   1      39.960  28.375  27.694  1.00  0.00     0.031 C 
ATOM     16  C   UNL A   1      43.777  26.863  30.607  1.00  0.00     0.029 A 
ATOM     17  N   UNL A   1      42.304  28.288  31.498  1.00  0.00    -0.354 N 
ATOM     18  C   UNL A   1      38.788  29.518  29.284  1.00  0.00     0.074 A 
ATOM     19  C   UNL A   1      38.867  29.088  27.907  1.00  0.00     0.031 C 
ATOM     20  C   UNL A   1      44.177  27.124  31.865  1.00  0.00     0.029 A 
ATOM     21  C   UNL A   1      43.242  28.063  32.474  1.00  0.00     0.049 A 
ATOM     22  H   UNL A   1      41.520  28.868  31.628  1.00  0.00     0.167 HD
ATOM     23  C   UNL A   1      37.734  30.184  29.809  1.00  0.00     0.031 A 
ATOM     24  C   UNL A   1      43.326  28.568  33.717  1.00  0.00     0.031 A 
ATOM     25  C   UNL A   1      37.682  30.657  31.163  1.00  0.00     0.049 A 
ATOM     26  C   UNL A   1      42.238  29.476  34.214  1.00  0.00     0.074 A 
ATOM     27  C   UNL A   1      36.663  31.332  31.809  1.00  0.00     0.029 A 
ATOM     28  N   UNL A   1      38.719  30.524  32.075  1.00  0.00    -0.354 N 
ATOM     29  N   UNL A   1      41.139  29.857  33.612  1.00  0.00    -0.248 NA
ATOM     30  C   UNL A   1      42.397  29.997  35.579  1.00  0.00     0.031 C 
ATOM     31  C   UNL A   1      37.103  31.650  33.100  1.00  0.00     0.029 A 
ATOM     32  C   UNL A   1      38.376  31.128  33.270  1.00  0.00     0.049 A 
ATOM     33  H   UNL A   1      39.573  30.067  31.897  1.00  0.00     0.167 HD
ATOM     34  C   UNL A   1      40.445  30.614  34.543  1.00  0.00     0.074 A 
ATOM     35  C   UNL A   1      41.264  30.666  35.738  1.00  0.00     0.031 C 
ATOM     36  C   UNL A   1      39.218  31.181  34.435  1.00  0.00     0.031 A 
BRANCH  23  37
ATOM     37  C   UNL A   1      36.572  30.441  28.894  1.00  0.00    -0.014 A 
ATOM     38  C   UNL A   1      36.218  31.751  28.529  1.00  0.00     0.009 A 
ATOM     39  C   UNL A   1      35.808  29.370  28.409  1.00  0.00     0.009 A 
ATOM     40  C   UNL A   1      35.097  31.985  27.732  1.00  0.00     0.001 A 
ATOM     41  C   UNL A   1      34.700  29.605  27.593  1.00  0.00     0.001 A 
ATOM     42  C   UNL A   1      34.339  30.913  27.264  1.00  0.00     0.000 A 
ENDBRANCH  23  37
BRANCH  24  43
ATOM     43  C   UNL A   1      44.462  28.227  34.603  1.00  0.00    -0.014 A 
ATOM     44  C   UNL A   1      44.380  27.142  35.487  1.00  0.00     0.009 A 
ATOM     45  C   UNL A   1      45.608  29.032  34.616  1.00  0.00     0.009 A 
ATOM     46  C   UNL A   1      45.430  26.872  36.369  1.00  0.00     0.001 A 
ATOM     47  C   UNL A   1      46.660  28.752  35.491  1.00  0.00     0.001 A 
ATOM     48  C   UNL A   1      46.570  27.674  36.367  1.00  0.00     0.000 A 
ENDBRANCH  24  43
BRANCH  36  49
ATOM     49  C   UNL A   1      38.673  31.841  35.667  1.00  0.00    -0.014 A 
ATOM     50  C   UNL A   1      38.033  31.104  36.673  1.00  0.00     0.009 A 
ATOM     51  C   UNL A   1      38.814  33.229  35.815  1.00  0.00     0.009 A 
ATOM     52  C   UNL A   1      37.512  31.755  37.792  1.00  0.00     0.001 A 
ATOM     53  C   UNL A   1      38.315  33.873  36.946  1.00  0.00     0.001 A 
ATOM     54  C   UNL A   1      37.656  33.136  37.928  1.00  0.00     0.000 A 
ENDBRANCH  36  49
ENDBRANCH  10  11
ENDBRANCH   3   5
ENDBRANCH   2   3
ENDBRANCH   1   2
BRANCH   1  55
ATOM     55  C   UNL A   1      42.901  21.001  25.979  1.00  0.00     0.275 C 
BRANCH  55  56
ATOM     56  O   UNL A   1      41.579  21.375  25.561  1.00  0.00    -0.458 OA
BRANCH  56  57
ATOM     57  C   UNL A   1      40.589  20.975  26.399  1.00  0.00     0.338 C 
ATOM     58  O   UNL A   1      40.640  20.081  27.226  1.00  0.00    -0.246 OA
BRANCH  57  59
ATOM     59  C   UNL A   1      39.454  21.910  26.299  1.00  0.00     0.062 A 
ATOM     60  C   UNL A   1      39.573  23.124  26.986  1.00  0.00     0.016 A 
ATOM     61  C   UNL A   1      38.307  21.620  25.548  1.00  0.00     0.044 A 
ATOM     62  C   UNL A   1      38.581  24.089  26.860  1.00  0.00     0.003 A 
ATOM     63  C   UNL A   1      37.296  22.587  25.437  1.00  0.00     0.067 A 
ATOM     64  C   UNL A   1      37.461  23.829  26.072  1.00  0.00     0.028 A 
BRANCH  63  65
ATOM     65  N   UNL A   1      36.056  22.294  24.794  1.00  0.00    -0.221 N 
ATOM     66  N   UNL A   1      35.032  21.823  25.623  1.00  0.00    -0.260 N 
ATOM     67  C   UNL A   1      35.802  22.727  23.490  1.00  0.00     0.249 C 
ATOM     68  C   UNL A   1      33.707  21.828  25.294  1.00  0.00     0.243 C 
ATOM     69  H   UNL A   1      35.284  21.462  26.504  1.00  0.00     0.192 HD
ATOM     70  C   UNL A   1      34.350  22.945  23.125  1.00  0.00     0.097 C 
ATOM     71  O   UNL A   1      36.682  23.064  22.693  1.00  0.00    -0.272 OA
ATOM     72  O   UNL A   1      32.868  21.577  26.154  1.00  0.00    -0.273 OA
ATOM     73  C   UNL A   1      33.382  22.003  23.831  1.00  0.00     0.097 C 
ATOM     74  C   UNL A   1      34.076  24.435  23.386  1.00  0.00     0.041 C 
ATOM     75  C   UNL A   1      31.911  22.402  23.604  1.00  0.00     0.041 C 
ATOM     76  C   UNL A   1      32.630  24.792  23.482  1.00  0.00    -0.030 C 
ATOM     77  C   UNL A   1      31.656  23.879  23.576  1.00  0.00    -0.030 C 
ENDBRANCH  63  65
ENDBRANCH  57  59
ENDBRANCH  56  57
ENDBRANCH  55  56
ENDBRANCH   1  55
TORSDOF 12
ENDMDL
MODEL 2
REMARK VINA RESULT:     -12.0      4.792      9.838
REMARK SMILES O=C(OCCOC(=O)c1cccc(N2NC(=O)[C@H]3CC=CC[C@H]3C2=O)c1)c1ccc(-c2c3nc(c(-c4ccccc4)c4ccc([nH]4)c(-c4ccccc4)c4nc(c(-c5ccccc5)c5ccc2[nH]5)C=C4)C=C3)cc1
REMARK SMILES IDX 4 1 3 2 2 3 1 4 27 5 28 6 74 7 29 8 73 9 30 10 31 11 32 12
REMARK SMILES IDX 67 13 33 14 72 15 66 16 68 17 34 18 71 19 65 20 64 21 35 23
REMARK SMILES IDX 57 24 42 25 56 26 43 27 46 28 55 29 69 30 44 31 45 32 54 34
REMARK SMILES IDX 70 35 47 36 36 37 37 38 41 39 38 40 40 41 39 42 58 43 59 44
REMARK SMILES IDX 63 45 60 46 62 47 61 48 48 49 49 50 53 51 50 52 52 53 51 54
REMARK SMILES IDX 5 55 6 56 7 57 8 58 9 59 10 60 26 61 11 62 13 63 12 64 14 65
REMARK SMILES IDX 15 66 24 67 16 68 23 70 25 71 17 72 18 73 22 74 19 75 21 76
REMARK SMILES IDX 20 77
REMARK H PARENT 68 22 46 33 15 69
REMARK Flexibility Score: inf
ROOT
ATOM      1  C   UNL A   1      34.499  33.874  31.919  1.00  0.00     0.275 C 
ENDROOT
BRANCH   1   2
ATOM      2  O   UNL A   1      34.908  32.524  32.205  1.00  0.00    -0.458 OA
BRANCH   2   3
ATOM      3  C   UNL A   1      36.014  32.093  32.857  1.00  0.00     0.338 C 
ATOM      4  O   UNL A   1      36.170  32.398  34.039  1.00  0.00    -0.246 OA
BRANCH   3   5
ATOM      5  C   UNL A   1      37.151  31.414  32.165  1.00  0.00     0.060 A 
ATOM      6  C   UNL A   1      38.116  30.611  32.773  1.00  0.00     0.016 A 
ATOM      7  C   UNL A   1      37.272  31.661  30.785  1.00  0.00     0.016 A 
ATOM      8  C   UNL A   1      39.139  30.025  32.023  1.00  0.00     0.010 A 
ATOM      9  C   UNL A   1      38.282  31.066  30.024  1.00  0.00     0.010 A 
ATOM     10  C   UNL A   1      39.236  30.259  30.649  1.00  0.00    -0.014 A 
BRANCH  10  11
ATOM     11  C   UNL A   1      40.452  29.829  29.928  1.00  0.00     0.031 A 
ATOM     12  C   UNL A   1      40.461  28.457  29.311  1.00  0.00     0.074 A 
ATOM     13  C   UNL A   1      41.487  30.668  29.749  1.00  0.00     0.049 A 
ATOM     14  N   UNL A   1      41.349  27.910  28.522  1.00  0.00    -0.248 NA
ATOM     15  C   UNL A   1      39.293  27.602  29.588  1.00  0.00     0.031 C 
ATOM     16  C   UNL A   1      41.566  32.047  30.236  1.00  0.00     0.029 A 
ATOM     17  N   UNL A   1      42.679  30.478  29.098  1.00  0.00    -0.354 N 
ATOM     18  C   UNL A   1      40.825  26.672  28.175  1.00  0.00     0.074 A 
ATOM     19  C   UNL A   1      39.578  26.516  28.889  1.00  0.00     0.031 C 
ATOM     20  C   UNL A   1      42.758  32.567  29.891  1.00  0.00     0.029 A 
ATOM     21  C   UNL A   1      43.517  31.562  29.155  1.00  0.00     0.049 A 
ATOM     22  H   UNL A   1      42.910  29.642  28.632  1.00  0.00     0.167 HD
ATOM     23  C   UNL A   1      41.319  25.757  27.308  1.00  0.00     0.031 A 
ATOM     24  C   UNL A   1      44.760  31.713  28.665  1.00  0.00     0.031 A 
ATOM     25  C   UNL A   1      42.584  25.890  26.642  1.00  0.00     0.049 A 
ATOM     26  C   UNL A   1      45.375  30.598  27.870  1.00  0.00     0.074 A 
ATOM     27  C   UNL A   1      43.181  25.036  25.734  1.00  0.00     0.029 A 
ATOM     28  N   UNL A   1      43.462  26.945  26.841  1.00  0.00    -0.354 N 
ATOM     29  N   UNL A   1      44.859  29.444  27.529  1.00  0.00    -0.248 NA
ATOM     30  C   UNL A   1      46.738  30.828  27.371  1.00  0.00     0.031 C 
ATOM     31  C   UNL A   1      44.445  25.551  25.420  1.00  0.00     0.029 A 
ATOM     32  C   UNL A   1      44.609  26.751  26.094  1.00  0.00     0.049 A 
ATOM     33  H   UNL A   1      43.293  27.719  27.427  1.00  0.00     0.167 HD
ATOM     34  C   UNL A   1      45.809  28.832  26.724  1.00  0.00     0.074 A 
ATOM     35  C   UNL A   1      46.945  29.729  26.658  1.00  0.00     0.031 C 
ATOM     36  C   UNL A   1      45.731  27.651  26.063  1.00  0.00     0.031 A 
BRANCH  23  37
ATOM     37  C   UNL A   1      40.480  24.538  27.060  1.00  0.00    -0.014 A 
ATOM     38  C   UNL A   1      40.922  23.266  27.461  1.00  0.00     0.009 A 
ATOM     39  C   UNL A   1      39.250  24.654  26.399  1.00  0.00     0.009 A 
ATOM     40  C   UNL A   1      40.167  22.129  27.167  1.00  0.00     0.001 A 
ATOM     41  C   UNL A   1      38.485  23.517  26.126  1.00  0.00     0.001 A 
ATOM     42  C   UNL A   1      38.949  22.256  26.501  1.00  0.00     0.000 A 
ENDBRANCH  23  37
BRANCH  24  43
ATOM     43  C   UNL A   1      45.518  32.967  28.883  1.00  0.00    -0.014 A 
ATOM     44  C   UNL A   1      46.310  33.136  30.027  1.00  0.00     0.009 A 
ATOM     45  C   UNL A   1      45.393  34.028  27.978  1.00  0.00     0.009 A 
ATOM     46  C   UNL A   1      46.963  34.348  30.259  1.00  0.00     0.001 A 
ATOM     47  C   UNL A   1      46.057  35.235  28.206  1.00  0.00     0.001 A 
ATOM     48  C   UNL A   1      46.840  35.395  29.346  1.00  0.00     0.000 A 
ENDBRANCH  24  43
BRANCH  36  49
ATOM     49  C   UNL A   1      46.881  27.309  25.163  1.00  0.00    -0.014 A 
ATOM     50  C   UNL A   1      47.929  26.483  25.591  1.00  0.00     0.009 A 
ATOM     51  C   UNL A   1      46.903  27.828  23.859  1.00  0.00     0.009 A 
ATOM     52  C   UNL A   1      48.999  26.210  24.737  1.00  0.00     0.001 A 
ATOM     53  C   UNL A   1      47.960  27.532  23.000  1.00  0.00     0.001 A 
ATOM     54  C   UNL A   1      49.011  26.732  23.443  1.00  0.00     0.000 A 
ENDBRANCH  36  49
ENDBRANCH  10  11
ENDBRANCH   3   5
ENDBRANCH   2   3
ENDBRANCH   1   2
BRANCH   1  55
ATOM     55  C   UNL A   1      34.432  34.214  30.428  1.00  0.00     0.275 C 
BRANCH  55  56
ATOM     56  O   UNL A   1      33.876  33.153  29.635  1.00  0.00    -0.458 OA
BRANCH  56  57
ATOM     57  C   UNL A   1      34.274  33.153  28.337  1.00  0.00     0.338 C 
ATOM     58  O   UNL A   1      34.671  34.105  27.688  1.00  0.00    -0.246 OA
BRANCH  57  59
ATOM     59  C   UNL A   1      34.332  31.765  27.842  1.00  0.00     0.062 A 
ATOM     60  C   UNL A   1      35.552  31.094  27.986  1.00  0.00     0.016 A 
ATOM     61  C   UNL A   1      33.226  31.129  27.262  1.00  0.00     0.044 A 
ATOM     62  C   UNL A   1      35.649  29.755  27.626  1.00  0.00     0.003 A 
ATOM     63  C   UNL A   1      33.331  29.784  26.879  1.00  0.00     0.067 A 
ATOM     64  C   UNL A   1      34.539  29.100  27.097  1.00  0.00     0.028 A 
BRANCH  63  65
ATOM     65  N   UNL A   1      32.280  29.130  26.168  1.00  0.00    -0.221 N 
ATOM     66  N   UNL A   1      32.191  29.421  24.803  1.00  0.00    -0.260 N 
ATOM     67  C   UNL A   1      31.585  28.060  26.736  1.00  0.00     0.249 C 
ATOM     68  C   UNL A   1      31.518  28.657  23.892  1.00  0.00     0.243 C 
ATOM     69  H   UNL A   1      32.644  30.232  24.475  1.00  0.00     0.192 HD
ATOM     70  C   UNL A   1      30.982  27.062  25.771  1.00  0.00     0.097 C 
ATOM     71  O   UNL A   1      31.560  27.819  27.946  1.00  0.00    -0.272 OA
ATOM     72  O   UNL A   1      31.656  28.883  22.693  1.00  0.00    -0.273 OA
ATOM     73  C   UNL A   1      30.523  27.670  24.451  1.00  0.00     0.097 C 
ATOM     74  C   UNL A   1      32.031  25.948  25.616  1.00  0.00     0.041 C 
ATOM     75  C   UNL A   1      30.126  26.596  23.421  1.00  0.00     0.041 C 
ATOM     76  C   UNL A   1      31.834  25.074  24.423  1.00  0.00    -0.030 C 
ATOM     77  C   UNL A   1      30.975  25.361  23.439  1.00  0.00    -0.030 C 
ENDBRANCH  63  65
ENDBRANCH  57  59
ENDBRANCH  56  57
ENDBRANCH  55  56
ENDBRANCH   1  55
TORSDOF 12
ENDMDL
MODEL 3
REMARK VINA RESULT:     -11.9      3.985      8.097
REMARK SMILES O=C(OCCOC(=O)c1cccc(N2NC(=O)[C@H]3CC=CC[C@H]3C2=O)c1)c1ccc(-c2c3nc(c(-c4ccccc4)c4ccc([nH]4)c(-c4ccccc4)c4nc(c(-c5ccccc5)c5ccc2[nH]5)C=C4)C=C3)cc1
REMARK SMILES IDX 4 1 3 2 2 3 1 4 27 5 28 6 74 7 29 8 73 9 30 10 31 11 32 12
REMARK SMILES IDX 67 13 33 14 72 15 66 16 68 17 34 18 71 19 65 20 64 21 35 23
REMARK SMILES IDX 57 24 42 25 56 26 43 27 46 28 55 29 69 30 44 31 45 32 54 34
REMARK SMILES IDX 70 35 47 36 36 37 37 38 41 39 38 40 40 41 39 42 58 43 59 44
REMARK SMILES IDX 63 45 60 46 62 47 61 48 48 49 49 50 53 51 50 52 52 53 51 54
REMARK SMILES IDX 5 55 6 56 7 57 8 58 9 59 10 60 26 61 11 62 13 63 12 64 14 65
REMARK SMILES IDX 15 66 24 67 16 68 23 70 25 71 17 72 18 73 22 74 19 75 21 76
REMARK SMILES IDX 20 77
REMARK H PARENT 68 22 46 33 15 69
REMARK Flexibility Score: inf
ROOT
ATOM      1  C   UNL A   1      38.675  19.833  25.002  1.00  0.00     0.275 C 
ENDROOT
BRANCH   1   2
ATOM      2  O   UNL A   1      39.643  19.105  25.779  1.00  0.00    -0.458 OA
BRANCH   2   3
ATOM      3  C   UNL A   1      40.964  19.360  25.943  1.00  0.00     0.338 C 
ATOM      4  O   UNL A   1      41.777  18.457  25.751  1.00  0.00    -0.246 OA
BRANCH   3   5
ATOM      5  C   UNL A   1      41.477  20.638  26.525  1.00  0.00     0.060 A 
ATOM      6  C   UNL A   1      41.372  21.028  27.860  1.00  0.00     0.016 A 
ATOM      7  C   UNL A   1      42.072  21.535  25.619  1.00  0.00     0.016 A 
ATOM      8  C   UNL A   1      41.892  22.251  28.293  1.00  0.00     0.010 A 
ATOM      9  C   UNL A   1      42.609  22.753  26.046  1.00  0.00     0.010 A 
ATOM     10  C   UNL A   1      42.500  23.125  27.388  1.00  0.00    -0.014 A 
BRANCH  10  11
ATOM     11  C   UNL A   1      42.823  24.501  27.821  1.00  0.00     0.031 A 
ATOM     12  C   UNL A   1      44.271  24.900  27.890  1.00  0.00     0.074 A 
ATOM     13  C   UNL A   1      41.852  25.400  28.058  1.00  0.00     0.049 A 
ATOM     14  N   UNL A   1      44.796  26.077  28.108  1.00  0.00    -0.248 NA
ATOM     15  C   UNL A   1      45.261  23.836  27.641  1.00  0.00     0.031 C 
ATOM     16  C   UNL A   1      40.412  25.154  27.953  1.00  0.00     0.029 A 
ATOM     17  N   UNL A   1      41.936  26.715  28.437  1.00  0.00    -0.354 N 
ATOM     18  C   UNL A   1      46.168  25.903  27.977  1.00  0.00     0.074 A 
ATOM     19  C   UNL A   1      46.402  24.499  27.728  1.00  0.00     0.031 C 
ATOM     20  C   UNL A   1      39.749  26.275  28.290  1.00  0.00     0.029 A 
ATOM     21  C   UNL A   1      40.717  27.314  28.625  1.00  0.00     0.049 A 
ATOM     22  H   UNL A   1      42.792  27.185  28.562  1.00  0.00     0.167 HD
ATOM     23  C   UNL A   1      47.147  26.837  28.021  1.00  0.00     0.031 A 
ATOM     24  C   UNL A   1      40.426  28.564  29.027  1.00  0.00     0.031 A 
ATOM     25  C   UNL A   1      46.917  28.221  28.322  1.00  0.00     0.049 A 
ATOM     26  C   UNL A   1      41.546  29.534  29.269  1.00  0.00     0.074 A 
ATOM     27  C   UNL A   1      47.828  29.260  28.383  1.00  0.00     0.029 A 
ATOM     28  N   UNL A   1      45.677  28.753  28.643  1.00  0.00    -0.354 N 
ATOM     29  N   UNL A   1      42.836  29.364  29.116  1.00  0.00    -0.248 NA
ATOM     30  C   UNL A   1      41.158  30.880  29.711  1.00  0.00     0.031 C 
ATOM     31  C   UNL A   1      47.144  30.413  28.788  1.00  0.00     0.029 A 
ATOM     32  C   UNL A   1      45.801  30.100  28.929  1.00  0.00     0.049 A 
ATOM     33  H   UNL A   1      44.832  28.246  28.663  1.00  0.00     0.167 HD
ATOM     34  C   UNL A   1      43.411  30.596  29.385  1.00  0.00     0.074 A 
ATOM     35  C   UNL A   1      42.332  31.495  29.744  1.00  0.00     0.031 C 
ATOM     36  C   UNL A   1      44.713  30.964  29.302  1.00  0.00     0.031 A 
BRANCH  23  37
ATOM     37  C   UNL A   1      48.545  26.364  27.750  1.00  0.00    -0.014 A 
ATOM     38  C   UNL A   1      49.384  25.956  28.801  1.00  0.00     0.009 A 
ATOM     39  C   UNL A   1      49.040  26.347  26.439  1.00  0.00     0.009 A 
ATOM     40  C   UNL A   1      50.704  25.581  28.548  1.00  0.00     0.001 A 
ATOM     41  C   UNL A   1      50.355  25.949  26.185  1.00  0.00     0.001 A 
ATOM     42  C   UNL A   1      51.188  25.578  27.241  1.00  0.00     0.000 A 
ENDBRANCH  23  37
BRANCH  24  43
ATOM     43  C   UNL A   1      39.023  28.998  29.213  1.00  0.00    -0.014 A 
ATOM     44  C   UNL A   1      38.386  28.851  30.453  1.00  0.00     0.009 A 
ATOM     45  C   UNL A   1      38.293  29.496  28.127  1.00  0.00     0.009 A 
ATOM     46  C   UNL A   1      37.041  29.197  30.600  1.00  0.00     0.001 A 
ATOM     47  C   UNL A   1      36.951  29.852  28.279  1.00  0.00     0.001 A 
ATOM     48  C   UNL A   1      36.326  29.701  29.514  1.00  0.00     0.000 A 
ENDBRANCH  24  43
BRANCH  36  49
ATOM     49  C   UNL A   1      45.017  32.414  29.538  1.00  0.00    -0.014 A 
ATOM     50  C   UNL A   1      45.385  32.891  30.804  1.00  0.00     0.009 A 
ATOM     51  C   UNL A   1      44.934  33.311  28.462  1.00  0.00     0.009 A 
ATOM     52  C   UNL A   1      45.631  34.252  30.994  1.00  0.00     0.001 A 
ATOM     53  C   UNL A   1      45.206  34.665  28.650  1.00  0.00     0.001 A 
ATOM     54  C   UNL A   1      45.545  35.135  29.917  1.00  0.00     0.000 A 
ENDBRANCH  36  49
ENDBRANCH  10  11
ENDBRANCH   3   5
ENDBRANCH   2   3
ENDBRANCH   1   2
BRANCH   1  55
ATOM     55  C   UNL A   1      38.467  21.283  25.446  1.00  0.00     0.275 C 
BRANCH  55  56
ATOM     56  O   UNL A   1      37.084  21.670  25.470  1.00  0.00    -0.458 OA
BRANCH  56  57
ATOM     57  C   UNL A   1      36.871  22.984  25.737  1.00  0.00     0.338 C 
ATOM     58  O   UNL A   1      37.564  23.718  26.420  1.00  0.00    -0.246 OA
BRANCH  57  59
ATOM     59  C   UNL A   1      35.746  23.474  24.920  1.00  0.00     0.062 A 
ATOM     60  C   UNL A   1      35.455  22.760  23.751  1.00  0.00     0.016 A 
ATOM     61  C   UNL A   1      34.987  24.593  25.285  1.00  0.00     0.044 A 
ATOM     62  C   UNL A   1      34.351  23.112  22.984  1.00  0.00     0.003 A 
ATOM     63  C   UNL A   1      33.884  24.962  24.499  1.00  0.00     0.067 A 
ATOM     64  C   UNL A   1      33.559  24.192  23.369  1.00  0.00     0.028 A 
BRANCH  63  65
ATOM     65  N   UNL A   1      33.160  26.164  24.753  1.00  0.00    -0.221 N 
ATOM     66  N   UNL A   1      33.627  27.310  24.103  1.00  0.00    -0.260 N 
ATOM     67  C   UNL A   1      31.906  26.132  25.370  1.00  0.00     0.249 C 
ATOM     68  C   UNL A   1      32.895  28.448  23.920  1.00  0.00     0.243 C 
ATOM     69  H   UNL A   1      34.547  27.296  23.752  1.00  0.00     0.192 HD
ATOM     70  C   UNL A   1      30.968  27.273  25.047  1.00  0.00     0.097 C 
ATOM     71  O   UNL A   1      31.490  25.177  26.033  1.00  0.00    -0.272 OA
ATOM     72  O   UNL A   1      33.316  29.328  23.173  1.00  0.00    -0.273 OA
ATOM     73  C   UNL A   1      31.668  28.601  24.787  1.00  0.00     0.097 C 
ATOM     74  C   UNL A   1      30.104  26.781  23.874  1.00  0.00     0.041 C 
ATOM     75  C   UNL A   1      30.703  29.674  24.247  1.00  0.00     0.041 C 
ATOM     76  C   UNL A   1      29.393  27.863  23.131  1.00  0.00    -0.030 C 
ATOM     77  C   UNL A   1      29.659  29.163  23.301  1.00  0.00    -0.030 C 
ENDBRANCH  63  65
ENDBRANCH  57  59
ENDBRANCH  56  57
ENDBRANCH  55  56
ENDBRANCH   1  55
TORSDOF 12
ENDMDL
