MODEL 1
REMARK VINA RESULT:     -11.2      0.000      0.000
REMARK SMILES Cc1cc(F)cc(N[C@](C)(C(=O)OCCOC(=O)c2ccc(-c3c4nc(c(-c5ccccc5)c5ccc([nH]5)c(-c5ccccc5)c5nc(c(-c6ccccc6)c6ccc3[nH]6)C=C5)C=C4)cc2)c2cccc(F)c2)c1
REMARK SMILES IDX 14 1 13 2 11 3 12 4 9 5 10 6 8 7 7 9 1 10 2 11 3 12 74 13
REMARK SMILES IDX 4 14 5 15 6 16 67 17 68 18 73 19 69 20 71 21 70 22 72 23
REMARK SMILES IDX 15 24 16 25 17 26 18 27 19 28 20 29 66 30 21 31 65 32 22 33
REMARK SMILES IDX 23 34 24 35 59 36 25 37 64 38 58 39 60 40 26 41 63 42 57 43
REMARK SMILES IDX 56 44 27 46 49 47 34 48 48 49 35 50 38 51 47 52 61 53 36 54
REMARK SMILES IDX 37 55 46 57 62 58 39 59 28 60 29 61 33 62 30 63 32 64 31 65
REMARK SMILES IDX 50 66 51 67 55 68 52 69 54 70 53 71 40 72 41 73 45 74 42 75
REMARK SMILES IDX 44 76 43 77
REMARK H PARENT 8 8 60 45 38 56
REMARK Flexibility Score: inf
ROOT
ATOM      1  C   UNL A   1      36.086  20.276  24.877  1.00  0.00     0.274 C 
ENDROOT
BRANCH   1   2
ATOM      2  O   UNL A   1      35.782  21.676  24.708  1.00  0.00    -0.460 OA
BRANCH   2   3
ATOM      3  C   UNL A   1      34.752  22.158  25.472  1.00  0.00     0.336 C 
ATOM      4  O   UNL A   1      34.770  22.091  26.696  1.00  0.00    -0.249 OA
BRANCH   3   5
ATOM      5  C   UNL A   1      33.583  22.760  24.592  1.00  0.00     0.159 C 
ATOM      6  C   UNL A   1      34.081  23.044  23.158  1.00  0.00     0.053 C 
BRANCH   5   7
ATOM      7  N   UNL A   1      32.416  21.829  24.466  1.00  0.00    -0.366 N 
ATOM      8  H   UNL A   1      31.543  22.216  24.711  1.00  0.00     0.162 HD
BRANCH   7   9
ATOM      9  C   UNL A   1      32.379  20.506  24.055  1.00  0.00     0.038 A 
ATOM     10  C   UNL A   1      32.864  17.095  25.751  1.00  0.00     0.044 C 
ATOM     11  C   UNL A   1      32.659  18.134  24.689  1.00  0.00    -0.046 A 
ATOM     12  C   UNL A   1      32.544  17.758  23.352  1.00  0.00     0.042 A 
ATOM     13  C   UNL A   1      32.555  19.499  25.026  1.00  0.00     0.029 A 
ATOM     14  C   UNL A   1      32.358  18.736  22.387  1.00  0.00     0.125 A 
ATOM     15  F   UNL A   1      32.255  18.378  21.100  1.00  0.00    -0.207 F 
ATOM     16  C   UNL A   1      32.283  20.085  22.728  1.00  0.00     0.065 A 
ENDBRANCH   7   9
ENDBRANCH   5   7
BRANCH   5  17
ATOM     17  C   UNL A   1      33.093  24.090  25.250  1.00  0.00    -0.009 A 
ATOM     18  C   UNL A   1      33.954  25.184  25.479  1.00  0.00     0.007 A 
ATOM     19  C   UNL A   1      31.732  24.277  25.574  1.00  0.00     0.046 A 
ATOM     20  C   UNL A   1      33.484  26.391  26.015  1.00  0.00     0.003 A 
ATOM     21  C   UNL A   1      31.273  25.484  26.099  1.00  0.00     0.123 A 
ATOM     22  C   UNL A   1      32.137  26.542  26.327  1.00  0.00     0.039 A 
ATOM     23  F   UNL A   1      29.969  25.623  26.377  1.00  0.00    -0.207 F 
ENDBRANCH   5  17
ENDBRANCH   3   5
ENDBRANCH   2   3
ENDBRANCH   1   2
BRANCH   1  24
ATOM     24  C   UNL A   1      37.586  20.003  25.041  1.00  0.00     0.275 C 
BRANCH  24  25
ATOM     25  O   UNL A   1      38.314  21.190  25.414  1.00  0.00    -0.458 OA
BRANCH  25  26
ATOM     26  C   UNL A   1      39.411  20.981  26.177  1.00  0.00     0.338 C 
ATOM     27  O   UNL A   1      40.013  19.932  26.335  1.00  0.00    -0.246 OA
BRANCH  26  28
ATOM     28  C   UNL A   1      39.897  22.258  26.727  1.00  0.00     0.060 A 
ATOM     29  C   UNL A   1      39.372  23.432  26.184  1.00  0.00     0.016 A 
ATOM     30  C   UNL A   1      40.916  22.320  27.678  1.00  0.00     0.016 A 
ATOM     31  C   UNL A   1      39.865  24.671  26.572  1.00  0.00     0.010 A 
ATOM     32  C   UNL A   1      41.413  23.570  28.073  1.00  0.00     0.010 A 
ATOM     33  C   UNL A   1      40.898  24.751  27.510  1.00  0.00    -0.014 A 
BRANCH  33  34
ATOM     34  C   UNL A   1      41.458  26.083  27.830  1.00  0.00     0.031 A 
ATOM     35  C   UNL A   1      42.746  26.521  27.195  1.00  0.00     0.074 A 
ATOM     36  C   UNL A   1      40.762  26.939  28.601  1.00  0.00     0.049 A 
ATOM     37  N   UNL A   1      43.390  27.653  27.328  1.00  0.00    -0.248 NA
ATOM     38  C   UNL A   1      43.387  25.564  26.280  1.00  0.00     0.031 C 
ATOM     39  C   UNL A   1      39.453  26.666  29.196  1.00  0.00     0.029 A 
ATOM     40  N   UNL A   1      41.042  28.226  28.981  1.00  0.00    -0.354 N 
ATOM     41  C   UNL A   1      44.526  27.533  26.538  1.00  0.00     0.074 A 
ATOM     42  C   UNL A   1      44.478  26.224  25.921  1.00  0.00     0.031 C 
ATOM     43  C   UNL A   1      39.026  27.769  29.832  1.00  0.00     0.029 A 
ATOM     44  C   UNL A   1      40.045  28.809  29.723  1.00  0.00     0.049 A 
ATOM     45  H   UNL A   1      41.879  28.688  28.744  1.00  0.00     0.167 HD
ATOM     46  C   UNL A   1      45.528  28.426  26.358  1.00  0.00     0.031 A 
ATOM     47  C   UNL A   1      39.966  30.044  30.254  1.00  0.00     0.031 A 
ATOM     48  C   UNL A   1      45.587  29.721  26.980  1.00  0.00     0.049 A 
ATOM     49  C   UNL A   1      41.119  30.995  30.085  1.00  0.00     0.074 A 
ATOM     50  C   UNL A   1      46.590  30.672  26.906  1.00  0.00     0.029 A 
ATOM     51  N   UNL A   1      44.594  30.250  27.790  1.00  0.00    -0.354 N 
ATOM     52  N   UNL A   1      42.215  30.849  29.381  1.00  0.00    -0.248 NA
ATOM     53  C   UNL A   1      41.028  32.276  30.802  1.00  0.00     0.031 C 
ATOM     54  C   UNL A   1      46.222  31.760  27.705  1.00  0.00     0.029 A 
ATOM     55  C   UNL A   1      44.969  31.505  28.239  1.00  0.00     0.049 A 
ATOM     56  H   UNL A   1      43.747  29.799  28.014  1.00  0.00     0.167 HD
ATOM     57  C   UNL A   1      42.946  32.015  29.574  1.00  0.00     0.074 A 
ATOM     58  C   UNL A   1      42.151  32.873  30.428  1.00  0.00     0.031 C 
ATOM     59  C   UNL A   1      44.172  32.340  29.097  1.00  0.00     0.031 A 
BRANCH  46  60
ATOM     60  C   UNL A   1      46.683  27.989  25.505  1.00  0.00    -0.014 A 
ATOM     61  C   UNL A   1      46.651  28.117  24.108  1.00  0.00     0.009 A 
ATOM     62  C   UNL A   1      47.825  27.449  26.116  1.00  0.00     0.009 A 
ATOM     63  C   UNL A   1      47.733  27.682  23.338  1.00  0.00     0.001 A 
ATOM     64  C   UNL A   1      48.911  27.034  25.347  1.00  0.00     0.001 A 
ATOM     65  C   UNL A   1      48.861  27.143  23.958  1.00  0.00     0.000 A 
ENDBRANCH  46  60
BRANCH  47  66
ATOM     66  C   UNL A   1      38.756  30.460  31.009  1.00  0.00    -0.014 A 
ATOM     67  C   UNL A   1      37.706  31.121  30.354  1.00  0.00     0.009 A 
ATOM     68  C   UNL A   1      38.653  30.222  32.388  1.00  0.00     0.009 A 
ATOM     69  C   UNL A   1      36.587  31.553  31.068  1.00  0.00     0.001 A 
ATOM     70  C   UNL A   1      37.521  30.632  33.095  1.00  0.00     0.001 A 
ATOM     71  C   UNL A   1      36.494  31.304  32.436  1.00  0.00     0.000 A 
ENDBRANCH  47  66
BRANCH  59  72
ATOM     72  C   UNL A   1      44.730  33.676  29.495  1.00  0.00    -0.014 A 
ATOM     73  C   UNL A   1      44.487  34.817  28.716  1.00  0.00     0.009 A 
ATOM     74  C   UNL A   1      45.469  33.803  30.680  1.00  0.00     0.009 A 
ATOM     75  C   UNL A   1      44.997  36.058  29.102  1.00  0.00     0.001 A 
ATOM     76  C   UNL A   1      45.959  35.049  31.076  1.00  0.00     0.001 A 
ATOM     77  C   UNL A   1      45.730  36.174  30.283  1.00  0.00     0.000 A 
ENDBRANCH  59  72
ENDBRANCH  33  34
ENDBRANCH  26  28
ENDBRANCH  25  26
ENDBRANCH  24  25
ENDBRANCH   1  24
TORSDOF 14
ENDMDL
MODEL 2
REMARK VINA RESULT:     -11.0      2.264      6.867
REMARK SMILES Cc1cc(F)cc(N[C@](C)(C(=O)OCCOC(=O)c2ccc(-c3c4nc(c(-c5ccccc5)c5ccc([nH]5)c(-c5ccccc5)c5nc(c(-c6ccccc6)c6ccc3[nH]6)C=C5)C=C4)cc2)c2cccc(F)c2)c1
REMARK SMILES IDX 14 1 13 2 11 3 12 4 9 5 10 6 8 7 7 9 1 10 2 11 3 12 74 13
REMARK SMILES IDX 4 14 5 15 6 16 67 17 68 18 73 19 69 20 71 21 70 22 72 23
REMARK SMILES IDX 15 24 16 25 17 26 18 27 19 28 20 29 66 30 21 31 65 32 22 33
REMARK SMILES IDX 23 34 24 35 59 36 25 37 64 38 58 39 60 40 26 41 63 42 57 43
REMARK SMILES IDX 56 44 27 46 49 47 34 48 48 49 35 50 38 51 47 52 61 53 36 54
REMARK SMILES IDX 37 55 46 57 62 58 39 59 28 60 29 61 33 62 30 63 32 64 31 65
REMARK SMILES IDX 50 66 51 67 55 68 52 69 54 70 53 71 40 72 41 73 45 74 42 75
REMARK SMILES IDX 44 76 43 77
REMARK H PARENT 8 8 60 45 38 56
REMARK Flexibility Score: inf
ROOT
ATOM      1  C   UNL A   1      38.338  21.861  25.702  1.00  0.00     0.274 C 
ENDROOT
BRANCH   1   2
ATOM      2  O   UNL A   1      36.903  21.885  25.852  1.00  0.00    -0.460 OA
BRANCH   2   3
ATOM      3  C   UNL A   1      36.199  22.357  24.775  1.00  0.00     0.336 C 
ATOM      4  O   UNL A   1      36.744  22.596  23.703  1.00  0.00    -0.249 OA
BRANCH   3   5
ATOM      5  C   UNL A   1      34.666  22.561  25.105  1.00  0.00     0.159 C 
ATOM      6  C   UNL A   1      34.454  22.677  26.630  1.00  0.00     0.053 C 
BRANCH   5   7
ATOM      7  N   UNL A   1      34.104  23.810  24.496  1.00  0.00    -0.366 N 
ATOM      8  H   UNL A   1      34.334  23.954  23.549  1.00  0.00     0.162 HD
BRANCH   7   9
ATOM      9  C   UNL A   1      33.310  24.793  25.066  1.00  0.00     0.038 A 
ATOM     10  C   UNL A   1      33.923  28.239  26.644  1.00  0.00     0.044 C 
ATOM     11  C   UNL A   1      33.226  26.990  26.194  1.00  0.00    -0.046 A 
ATOM     12  C   UNL A   1      31.866  26.815  26.444  1.00  0.00     0.042 A 
ATOM     13  C   UNL A   1      33.926  25.987  25.491  1.00  0.00     0.029 A 
ATOM     14  C   UNL A   1      31.244  25.651  26.021  1.00  0.00     0.125 A 
ATOM     15  F   UNL A   1      29.938  25.476  26.268  1.00  0.00    -0.207 F 
ATOM     16  C   UNL A   1      31.951  24.654  25.351  1.00  0.00     0.065 A 
ENDBRANCH   7   9
ENDBRANCH   5   7
BRANCH   5  17
ATOM     17  C   UNL A   1      33.866  21.335  24.557  1.00  0.00    -0.009 A 
ATOM     18  C   UNL A   1      32.832  21.468  23.607  1.00  0.00     0.007 A 
ATOM     19  C   UNL A   1      34.208  20.020  24.940  1.00  0.00     0.046 A 
ATOM     20  C   UNL A   1      32.167  20.351  23.081  1.00  0.00     0.003 A 
ATOM     21  C   UNL A   1      33.546  18.916  24.406  1.00  0.00     0.123 A 
ATOM     22  C   UNL A   1      32.526  19.069  23.483  1.00  0.00     0.039 A 
ATOM     23  F   UNL A   1      33.915  17.685  24.787  1.00  0.00    -0.207 F 
ENDBRANCH   5  17
ENDBRANCH   3   5
ENDBRANCH   2   3
ENDBRANCH   1   2
BRANCH   1  24
ATOM     24  C   UNL A   1      38.882  20.472  25.346  1.00  0.00     0.275 C 
BRANCH  24  25
ATOM     25  O   UNL A   1      39.657  19.903  26.420  1.00  0.00    -0.458 OA
BRANCH  25  26
ATOM     26  C   UNL A   1      40.992  19.856  26.209  1.00  0.00     0.338 C 
ATOM     27  O   UNL A   1      41.622  18.970  25.656  1.00  0.00    -0.246 OA
BRANCH  26  28
ATOM     28  C   UNL A   1      41.618  21.120  26.633  1.00  0.00     0.060 A 
ATOM     29  C   UNL A   1      41.559  21.442  27.990  1.00  0.00     0.016 A 
ATOM     30  C   UNL A   1      42.160  22.025  25.721  1.00  0.00     0.016 A 
ATOM     31  C   UNL A   1      42.026  22.667  28.446  1.00  0.00     0.010 A 
ATOM     32  C   UNL A   1      42.635  23.262  26.180  1.00  0.00     0.010 A 
ATOM     33  C   UNL A   1      42.556  23.594  27.544  1.00  0.00    -0.014 A 
BRANCH  33  34
ATOM     34  C   UNL A   1      42.959  24.924  28.054  1.00  0.00     0.031 A 
ATOM     35  C   UNL A   1      41.909  25.952  28.362  1.00  0.00     0.074 A 
ATOM     36  C   UNL A   1      44.250  25.171  28.342  1.00  0.00     0.049 A 
ATOM     37  N   UNL A   1      42.054  27.164  28.834  1.00  0.00    -0.248 NA
ATOM     38  C   UNL A   1      40.513  25.559  28.119  1.00  0.00     0.031 C 
ATOM     39  C   UNL A   1      45.349  24.219  28.179  1.00  0.00     0.029 A 
ATOM     40  N   UNL A   1      44.847  26.286  28.871  1.00  0.00    -0.354 N 
ATOM     41  C   UNL A   1      40.771  27.690  28.916  1.00  0.00     0.074 A 
ATOM     42  C   UNL A   1      39.861  26.662  28.456  1.00  0.00     0.031 C 
ATOM     43  C   UNL A   1      46.481  24.779  28.638  1.00  0.00     0.029 A 
ATOM     44  C   UNL A   1      46.194  26.137  29.090  1.00  0.00     0.049 A 
ATOM     45  H   UNL A   1      44.356  27.116  29.075  1.00  0.00     0.167 HD
ATOM     46  C   UNL A   1      40.387  28.924  29.321  1.00  0.00     0.031 A 
ATOM     47  C   UNL A   1      47.093  27.002  29.597  1.00  0.00     0.031 A 
ATOM     48  C   UNL A   1      41.289  29.952  29.765  1.00  0.00     0.049 A 
ATOM     49  C   UNL A   1      46.648  28.385  29.986  1.00  0.00     0.074 A 
ATOM     50  C   UNL A   1      41.001  31.254  30.137  1.00  0.00     0.029 A 
ATOM     51  N   UNL A   1      42.660  29.792  29.900  1.00  0.00    -0.354 N 
ATOM     52  N   UNL A   1      45.439  28.890  30.006  1.00  0.00    -0.248 NA
ATOM     53  C   UNL A   1      47.701  29.323  30.404  1.00  0.00     0.031 C 
ATOM     54  C   UNL A   1      42.204  31.894  30.459  1.00  0.00     0.029 A 
ATOM     55  C   UNL A   1      43.233  30.976  30.331  1.00  0.00     0.049 A 
ATOM     56  H   UNL A   1      43.152  28.959  29.716  1.00  0.00     0.167 HD
ATOM     57  C   UNL A   1      45.585  30.204  30.433  1.00  0.00     0.074 A 
ATOM     58  C   UNL A   1      46.995  30.405  30.699  1.00  0.00     0.031 C 
ATOM     59  C   UNL A   1      44.638  31.162  30.580  1.00  0.00     0.031 A 
BRANCH  46  60
ATOM     60  C   UNL A   1      38.926  29.248  29.225  1.00  0.00    -0.014 A 
ATOM     61  C   UNL A   1      38.063  29.071  30.316  1.00  0.00     0.009 A 
ATOM     62  C   UNL A   1      38.409  29.747  28.019  1.00  0.00     0.009 A 
ATOM     63  C   UNL A   1      36.701  29.361  30.191  1.00  0.00     0.001 A 
ATOM     64  C   UNL A   1      37.054  30.054  27.903  1.00  0.00     0.001 A 
ATOM     65  C   UNL A   1      36.199  29.853  28.986  1.00  0.00     0.000 A 
ENDBRANCH  46  60
BRANCH  47  66
ATOM     66  C   UNL A   1      48.513  26.597  29.762  1.00  0.00    -0.014 A 
ATOM     67  C   UNL A   1      48.940  25.983  30.949  1.00  0.00     0.009 A 
ATOM     68  C   UNL A   1      49.452  26.843  28.749  1.00  0.00     0.009 A 
ATOM     69  C   UNL A   1      50.282  25.641  31.125  1.00  0.00     0.001 A 
ATOM     70  C   UNL A   1      50.789  26.477  28.917  1.00  0.00     0.001 A 
ATOM     71  C   UNL A   1      51.204  25.884  30.108  1.00  0.00     0.000 A 
ENDBRANCH  47  66
BRANCH  59  72
ATOM     72  C   UNL A   1      45.098  32.515  31.041  1.00  0.00    -0.014 A 
ATOM     73  C   UNL A   1      45.267  32.789  32.407  1.00  0.00     0.009 A 
ATOM     74  C   UNL A   1      45.405  33.510  30.102  1.00  0.00     0.009 A 
ATOM     75  C   UNL A   1      45.709  34.046  32.825  1.00  0.00     0.001 A 
ATOM     76  C   UNL A   1      45.868  34.758  30.522  1.00  0.00     0.001 A 
ATOM     77  C   UNL A   1      46.013  35.028  31.883  1.00  0.00     0.000 A 
ENDBRANCH  59  72
ENDBRANCH  33  34
ENDBRANCH  26  28
ENDBRANCH  25  26
ENDBRANCH  24  25
ENDBRANCH   1  24
TORSDOF 14
ENDMDL
MODEL 3
REMARK VINA RESULT:     -10.9      2.337      4.328
REMARK SMILES Cc1cc(F)cc(N[C@](C)(C(=O)OCCOC(=O)c2ccc(-c3c4nc(c(-c5ccccc5)c5ccc([nH]5)c(-c5ccccc5)c5nc(c(-c6ccccc6)c6ccc3[nH]6)C=C5)C=C4)cc2)c2cccc(F)c2)c1
REMARK SMILES IDX 14 1 13 2 11 3 12 4 9 5 10 6 8 7 7 9 1 10 2 11 3 12 74 13
REMARK SMILES IDX 4 14 5 15 6 16 67 17 68 18 73 19 69 20 71 21 70 22 72 23
REMARK SMILES IDX 15 24 16 25 17 26 18 27 19 28 20 29 66 30 21 31 65 32 22 33
REMARK SMILES IDX 23 34 24 35 59 36 25 37 64 38 58 39 60 40 26 41 63 42 57 43
REMARK SMILES IDX 56 44 27 46 49 47 34 48 48 49 35 50 38 51 47 52 61 53 36 54
REMARK SMILES IDX 37 55 46 57 62 58 39 59 28 60 29 61 33 62 30 63 32 64 31 65
REMARK SMILES IDX 50 66 51 67 55 68 52 69 54 70 53 71 40 72 41 73 45 74 42 75
REMARK SMILES IDX 44 76 43 77
REMARK H PARENT 8 8 60 45 38 56
REMARK Flexibility Score: inf
ROOT
ATOM      1  C   UNL A   1      37.800  20.974  25.127  1.00  0.00     0.274 C 
ENDROOT
BRANCH   1   2
ATOM      2  O   UNL A   1      36.935  22.045  25.561  1.00  0.00    -0.460 OA
BRANCH   2   3
ATOM      3  C   UNL A   1      36.181  22.635  24.581  1.00  0.00     0.336 C 
ATOM      4  O   UNL A   1      36.671  22.982  23.511  1.00  0.00    -0.249 OA
BRANCH   3   5
ATOM      5  C   UNL A   1      34.671  22.819  25.015  1.00  0.00     0.159 C 
ATOM      6  C   UNL A   1      34.563  22.930  26.551  1.00  0.00     0.053 C 
BRANCH   5   7
ATOM      7  N   UNL A   1      34.053  24.060  24.448  1.00  0.00    -0.366 N 
ATOM      8  H   UNL A   1      34.268  24.242  23.503  1.00  0.00     0.162 HD
BRANCH   7   9
ATOM      9  C   UNL A   1      33.223  24.992  25.053  1.00  0.00     0.038 A 
ATOM     10  C   UNL A   1      33.716  28.371  26.809  1.00  0.00     0.044 C 
ATOM     11  C   UNL A   1      33.061  27.127  26.286  1.00  0.00    -0.046 A 
ATOM     12  C   UNL A   1      31.703  26.903  26.505  1.00  0.00     0.042 A 
ATOM     13  C   UNL A   1      33.799  26.180  25.546  1.00  0.00     0.029 A 
ATOM     14  C   UNL A   1      31.121  25.745  26.015  1.00  0.00     0.125 A 
ATOM     15  F   UNL A   1      29.816  25.523  26.232  1.00  0.00    -0.207 F 
ATOM     16  C   UNL A   1      31.864  24.802  25.308  1.00  0.00     0.065 A 
ENDBRANCH   7   9
ENDBRANCH   5   7
BRANCH   5  17
ATOM     17  C   UNL A   1      33.853  21.582  24.520  1.00  0.00    -0.009 A 
ATOM     18  C   UNL A   1      32.880  21.676  23.502  1.00  0.00     0.007 A 
ATOM     19  C   UNL A   1      34.116  20.292  25.027  1.00  0.00     0.046 A 
ATOM     20  C   UNL A   1      32.199  20.545  23.029  1.00  0.00     0.003 A 
ATOM     21  C   UNL A   1      33.439  19.173  24.545  1.00  0.00     0.123 A 
ATOM     22  C   UNL A   1      32.480  19.288  23.553  1.00  0.00     0.039 A 
ATOM     23  F   UNL A   1      33.733  17.964  25.045  1.00  0.00    -0.207 F 
ENDBRANCH   5  17
ENDBRANCH   3   5
ENDBRANCH   2   3
ENDBRANCH   1   2
BRANCH   1  24
ATOM     24  C   UNL A   1      39.210  21.064  25.724  1.00  0.00     0.275 C 
BRANCH  24  25
ATOM     25  O   UNL A   1      39.794  19.762  25.930  1.00  0.00    -0.458 OA
BRANCH  25  26
ATOM     26  C   UNL A   1      41.145  19.737  25.997  1.00  0.00     0.338 C 
ATOM     27  O   UNL A   1      41.888  18.862  25.587  1.00  0.00    -0.246 OA
BRANCH  26  28
ATOM     28  C   UNL A   1      41.650  21.010  26.538  1.00  0.00     0.060 A 
ATOM     29  C   UNL A   1      41.502  21.230  27.908  1.00  0.00     0.016 A 
ATOM     30  C   UNL A   1      42.165  22.015  25.719  1.00  0.00     0.016 A 
ATOM     31  C   UNL A   1      41.850  22.451  28.469  1.00  0.00     0.010 A 
ATOM     32  C   UNL A   1      42.519  23.248  26.284  1.00  0.00     0.010 A 
ATOM     33  C   UNL A   1      42.350  23.476  27.661  1.00  0.00    -0.014 A 
BRANCH  33  34
ATOM     34  C   UNL A   1      42.625  24.792  28.279  1.00  0.00     0.031 A 
ATOM     35  C   UNL A   1      44.040  25.192  28.582  1.00  0.00     0.074 A 
ATOM     36  C   UNL A   1      41.622  25.669  28.467  1.00  0.00     0.049 A 
ATOM     37  N   UNL A   1      44.490  26.305  29.101  1.00  0.00    -0.248 NA
ATOM     38  C   UNL A   1      45.086  24.214  28.244  1.00  0.00     0.031 C 
ATOM     39  C   UNL A   1      40.219  25.434  28.122  1.00  0.00     0.029 A 
ATOM     40  N   UNL A   1      41.638  26.949  28.958  1.00  0.00    -0.354 N 
ATOM     41  C   UNL A   1      45.869  26.152  29.181  1.00  0.00     0.074 A 
ATOM     42  C   UNL A   1      46.181  24.843  28.647  1.00  0.00     0.031 C 
ATOM     43  C   UNL A   1      39.516  26.551  28.375  1.00  0.00     0.029 A 
ATOM     44  C   UNL A   1      40.409  27.562  28.935  1.00  0.00     0.049 A 
ATOM     45  H   UNL A   1      42.453  27.387  29.296  1.00  0.00     0.167 HD
ATOM     46  C   UNL A   1      46.788  27.016  29.672  1.00  0.00     0.031 A 
ATOM     47  C   UNL A   1      40.048  28.800  29.321  1.00  0.00     0.031 A 
ATOM     48  C   UNL A   1      46.481  28.311  30.217  1.00  0.00     0.049 A 
ATOM     49  C   UNL A   1      41.081  29.718  29.915  1.00  0.00     0.074 A 
ATOM     50  C   UNL A   1      47.337  29.233  30.793  1.00  0.00     0.029 A 
ATOM     51  N   UNL A   1      45.212  28.869  30.248  1.00  0.00    -0.354 N 
ATOM     52  N   UNL A   1      42.374  29.540  30.037  1.00  0.00    -0.248 NA
ATOM     53  C   UNL A   1      40.597  31.003  30.442  1.00  0.00     0.031 C 
ATOM     54  C   UNL A   1      46.580  30.334  31.210  1.00  0.00     0.029 A 
ATOM     55  C   UNL A   1      45.260  30.115  30.851  1.00  0.00     0.049 A 
ATOM     56  H   UNL A   1      44.398  28.443  29.894  1.00  0.00     0.167 HD
ATOM     57  C   UNL A   1      42.857  30.685  30.658  1.00  0.00     0.074 A 
ATOM     58  C   UNL A   1      41.725  31.568  30.851  1.00  0.00     0.031 C 
ATOM     59  C   UNL A   1      44.123  30.975  31.046  1.00  0.00     0.031 A 
BRANCH  46  60
ATOM     60  C   UNL A   1      48.212  26.545  29.708  1.00  0.00    -0.014 A 
ATOM     61  C   UNL A   1      49.104  26.826  28.663  1.00  0.00     0.009 A 
ATOM     62  C   UNL A   1      48.667  25.814  30.817  1.00  0.00     0.009 A 
ATOM     63  C   UNL A   1      50.419  26.356  28.715  1.00  0.00     0.001 A 
ATOM     64  C   UNL A   1      49.986  25.362  30.875  1.00  0.00     0.001 A 
ATOM     65  C   UNL A   1      50.858  25.626  29.820  1.00  0.00     0.000 A 
ENDBRANCH  46  60
BRANCH  47  66
ATOM     66  C   UNL A   1      38.641  29.252  29.174  1.00  0.00    -0.014 A 
ATOM     67  C   UNL A   1      38.196  29.793  27.958  1.00  0.00     0.009 A 
ATOM     68  C   UNL A   1      37.743  29.169  30.249  1.00  0.00     0.009 A 
ATOM     69  C   UNL A   1      36.886  30.260  27.829  1.00  0.00     0.001 A 
ATOM     70  C   UNL A   1      36.426  29.612  30.109  1.00  0.00     0.001 A 
ATOM     71  C   UNL A   1      36.002  30.164  28.902  1.00  0.00     0.000 A 
ENDBRANCH  47  66
BRANCH  59  72
ATOM     72  C   UNL A   1      44.346  32.296  31.723  1.00  0.00    -0.014 A 
ATOM     73  C   UNL A   1      44.641  33.446  30.976  1.00  0.00     0.009 A 
ATOM     74  C   UNL A   1      44.221  32.400  33.116  1.00  0.00     0.009 A 
ATOM     75  C   UNL A   1      44.833  34.673  31.614  1.00  0.00     0.001 A 
ATOM     76  C   UNL A   1      44.392  33.632  33.750  1.00  0.00     0.001 A 
ATOM     77  C   UNL A   1      44.705  34.766  32.999  1.00  0.00     0.000 A 
ENDBRANCH  59  72
ENDBRANCH  33  34
ENDBRANCH  26  28
ENDBRANCH  25  26
ENDBRANCH  24  25
ENDBRANCH   1  24
TORSDOF 14
ENDMDL
