MODEL 1
REMARK VINA RESULT:     -10.7      0.000      0.000
REMARK SMILES CC1(C)[C@H](C(=O)Nc2ccccc2C(N)=O)[C@@H]1C(=O)OCCOC(=O)c1ccc(-c2c3nc(c(-c4ccccc4)c4ccc([nH]4)c(-c4ccccc4)c4nc(c(-c5ccccc5)c5ccc2[nH]5)C=C4)C=C3)cc1
REMARK SMILES IDX 21 1 20 2 18 3 19 4 17 5 1 6 2 7 3 8 4 9 5 10 6 11 7 12 8 14
REMARK SMILES IDX 9 15 13 16 10 17 12 18 11 19 14 20 15 21 16 22 22 25 23 26
REMARK SMILES IDX 24 27 25 28 26 29 27 30 73 31 28 32 72 33 29 34 30 35 31 36
REMARK SMILES IDX 66 37 32 38 71 39 65 40 67 41 33 42 70 43 64 44 63 45 34 47
REMARK SMILES IDX 56 48 41 49 55 50 42 51 45 52 54 53 68 54 43 55 44 56 53 58
REMARK SMILES IDX 69 59 46 60 35 61 36 62 40 63 37 64 39 65 38 66 57 67 58 68
REMARK SMILES IDX 62 69 59 70 61 71 60 72 47 73 48 74 52 75 49 76 51 77 50 78
REMARK H PARENT 7 13 15 23 15 24 67 46 45 57
REMARK Flexibility Score: inf
ROOT
ATOM      1  C   UNL A   1      35.026  23.711  25.975  1.00  0.00     0.274 C 
ENDROOT
BRANCH   1   2
ATOM      2  O   UNL A   1      34.995  24.784  25.013  1.00  0.00    -0.462 OA
BRANCH   2   3
ATOM      3  C   UNL A   1      34.442  24.434  23.821  1.00  0.00     0.310 C 
ATOM      4  O   UNL A   1      35.065  23.929  22.901  1.00  0.00    -0.252 OA
BRANCH   3   5
ATOM      5  C   UNL A   1      32.953  24.603  23.789  1.00  0.00     0.118 C 
ATOM      6  C   UNL A   1      30.711  23.302  23.446  1.00  0.00     0.013 C 
ATOM      7  C   UNL A   1      32.097  23.685  22.926  1.00  0.00    -0.009 C 
ATOM      8  C   UNL A   1      32.727  22.488  22.272  1.00  0.00     0.013 C 
ATOM      9  C   UNL A   1      32.207  25.162  22.571  1.00  0.00     0.100 C 
BRANCH   9  10
ATOM     10  C   UNL A   1      32.958  26.228  21.857  1.00  0.00     0.228 C 
ATOM     11  O   UNL A   1      33.399  25.921  20.745  1.00  0.00    -0.274 OA
ATOM     12  N   UNL A   1      33.071  27.543  22.192  1.00  0.00    -0.325 N 
ATOM     13  H   UNL A   1      33.448  28.102  21.474  1.00  0.00     0.169 HD
BRANCH  12  14
ATOM     14  C   UNL A   1      32.759  28.253  23.345  1.00  0.00     0.053 A 
ATOM     15  C   UNL A   1      33.676  28.065  24.393  1.00  0.00     0.027 A 
ATOM     16  C   UNL A   1      31.659  29.107  23.514  1.00  0.00     0.063 A 
ATOM     17  C   UNL A   1      33.621  28.863  25.529  1.00  0.00     0.002 A 
ATOM     18  C   UNL A   1      31.605  29.892  24.682  1.00  0.00     0.016 A 
ATOM     19  C   UNL A   1      32.607  29.802  25.656  1.00  0.00     0.001 A 
BRANCH  16  20
ATOM     20  C   UNL A   1      30.539  29.140  22.523  1.00  0.00     0.250 C 
ATOM     21  N   UNL A   1      30.148  30.353  22.023  1.00  0.00    -0.366 N 
ATOM     22  O   UNL A   1      29.961  28.130  22.143  1.00  0.00    -0.269 OA
ATOM     23  H   UNL A   1      30.601  31.176  22.318  1.00  0.00     0.159 HD
ATOM     24  H   UNL A   1      29.414  30.403  21.369  1.00  0.00     0.159 HD
ENDBRANCH  16  20
ENDBRANCH  12  14
ENDBRANCH   9  10
ENDBRANCH   3   5
ENDBRANCH   2   3
ENDBRANCH   1   2
BRANCH   1  25
ATOM     25  C   UNL A   1      36.245  22.788  25.811  1.00  0.00     0.275 C 
BRANCH  25  26
ATOM     26  O   UNL A   1      37.464  23.495  25.491  1.00  0.00    -0.458 OA
BRANCH  26  27
ATOM     27  C   UNL A   1      38.559  23.088  26.180  1.00  0.00     0.338 C 
ATOM     28  O   UNL A   1      39.011  21.953  26.219  1.00  0.00    -0.246 OA
BRANCH  27  29
ATOM     29  C   UNL A   1      39.281  24.234  26.770  1.00  0.00     0.060 A 
ATOM     30  C   UNL A   1      39.031  24.523  28.116  1.00  0.00     0.016 A 
ATOM     31  C   UNL A   1      40.107  25.072  26.020  1.00  0.00     0.016 A 
ATOM     32  C   UNL A   1      39.603  25.635  28.726  1.00  0.00     0.010 A 
ATOM     33  C   UNL A   1      40.659  26.211  26.626  1.00  0.00     0.010 A 
ATOM     34  C   UNL A   1      40.397  26.506  27.977  1.00  0.00    -0.014 A 
BRANCH  34  35
ATOM     35  C   UNL A   1      40.823  27.786  28.591  1.00  0.00     0.031 A 
ATOM     36  C   UNL A   1      39.811  28.884  28.768  1.00  0.00     0.074 A 
ATOM     37  C   UNL A   1      42.074  27.943  29.058  1.00  0.00     0.049 A 
ATOM     38  N   UNL A   1      39.967  30.080  29.276  1.00  0.00    -0.248 NA
ATOM     39  C   UNL A   1      38.441  28.590  28.319  1.00  0.00     0.031 C 
ATOM     40  C   UNL A   1      43.126  26.927  29.022  1.00  0.00     0.029 A 
ATOM     41  N   UNL A   1      42.670  29.023  29.661  1.00  0.00    -0.354 N 
ATOM     42  C   UNL A   1      38.719  30.685  29.198  1.00  0.00     0.074 A 
ATOM     43  C   UNL A   1      37.824  29.734  28.573  1.00  0.00     0.031 C 
ATOM     44  C   UNL A   1      44.241  27.435  29.575  1.00  0.00     0.029 A 
ATOM     45  C   UNL A   1      43.994  28.822  29.967  1.00  0.00     0.049 A 
ATOM     46  H   UNL A   1      42.193  29.863  29.856  1.00  0.00     0.167 HD
ATOM     47  C   UNL A   1      38.349  31.921  29.610  1.00  0.00     0.031 A 
ATOM     48  C   UNL A   1      44.907  29.667  30.483  1.00  0.00     0.031 A 
ATOM     49  C   UNL A   1      39.242  32.875  30.215  1.00  0.00     0.049 A 
ATOM     50  C   UNL A   1      44.496  31.073  30.839  1.00  0.00     0.074 A 
ATOM     51  C   UNL A   1      38.963  34.155  30.661  1.00  0.00     0.029 A 
ATOM     52  N   UNL A   1      40.590  32.655  30.449  1.00  0.00    -0.354 N 
ATOM     53  N   UNL A   1      43.313  31.633  30.764  1.00  0.00    -0.248 NA
ATOM     54  C   UNL A   1      45.547  31.958  31.360  1.00  0.00     0.031 C 
ATOM     55  C   UNL A   1      40.156  34.733  31.107  1.00  0.00     0.029 A 
ATOM     56  C   UNL A   1      41.163  33.787  31.007  1.00  0.00     0.049 A 
ATOM     57  H   UNL A   1      41.070  31.820  30.249  1.00  0.00     0.167 HD
ATOM     58  C   UNL A   1      43.471  32.923  31.260  1.00  0.00     0.074 A 
ATOM     59  C   UNL A   1      44.860  33.054  31.647  1.00  0.00     0.031 C 
ATOM     60  C   UNL A   1      42.547  33.906  31.391  1.00  0.00     0.031 A 
BRANCH  47  61
ATOM     61  C   UNL A   1      36.923  32.332  29.369  1.00  0.00    -0.014 A 
ATOM     62  C   UNL A   1      36.520  32.913  28.157  1.00  0.00     0.009 A 
ATOM     63  C   UNL A   1      35.960  32.108  30.367  1.00  0.00     0.009 A 
ATOM     64  C   UNL A   1      35.190  33.295  27.963  1.00  0.00     0.001 A 
ATOM     65  C   UNL A   1      34.626  32.461  30.158  1.00  0.00     0.001 A 
ATOM     66  C   UNL A   1      34.244  33.065  28.962  1.00  0.00     0.000 A 
ENDBRANCH  47  61
BRANCH  48  67
ATOM     67  C   UNL A   1      46.315  29.225  30.668  1.00  0.00    -0.014 A 
ATOM     68  C   UNL A   1      47.253  29.353  29.631  1.00  0.00     0.009 A 
ATOM     69  C   UNL A   1      46.721  28.637  31.877  1.00  0.00     0.009 A 
ATOM     70  C   UNL A   1      48.557  28.876  29.793  1.00  0.00     0.001 A 
ATOM     71  C   UNL A   1      48.033  28.191  32.047  1.00  0.00     0.001 A 
ATOM     72  C   UNL A   1      48.946  28.300  31.001  1.00  0.00     0.000 A 
ENDBRANCH  48  67
BRANCH  60  73
ATOM     73  C   UNL A   1      42.993  35.197  32.025  1.00  0.00    -0.014 A 
ATOM     74  C   UNL A   1      42.881  35.419  33.406  1.00  0.00     0.009 A 
ATOM     75  C   UNL A   1      43.572  36.194  31.223  1.00  0.00     0.009 A 
ATOM     76  C   UNL A   1      43.302  36.629  33.964  1.00  0.00     0.001 A 
ATOM     77  C   UNL A   1      44.023  37.387  31.788  1.00  0.00     0.001 A 
ATOM     78  C   UNL A   1      43.877  37.609  33.156  1.00  0.00     0.000 A 
ENDBRANCH  60  73
ENDBRANCH  34  35
ENDBRANCH  27  29
ENDBRANCH  26  27
ENDBRANCH  25  26
ENDBRANCH   1  25
TORSDOF 14
ENDMDL
MODEL 2
REMARK VINA RESULT:     -10.6      2.659      7.165
REMARK SMILES CC1(C)[C@H](C(=O)Nc2ccccc2C(N)=O)[C@@H]1C(=O)OCCOC(=O)c1ccc(-c2c3nc(c(-c4ccccc4)c4ccc([nH]4)c(-c4ccccc4)c4nc(c(-c5ccccc5)c5ccc2[nH]5)C=C4)C=C3)cc1
REMARK SMILES IDX 21 1 20 2 18 3 19 4 17 5 1 6 2 7 3 8 4 9 5 10 6 11 7 12 8 14
REMARK SMILES IDX 9 15 13 16 10 17 12 18 11 19 14 20 15 21 16 22 22 25 23 26
REMARK SMILES IDX 24 27 25 28 26 29 27 30 73 31 28 32 72 33 29 34 30 35 31 36
REMARK SMILES IDX 66 37 32 38 71 39 65 40 67 41 33 42 70 43 64 44 63 45 34 47
REMARK SMILES IDX 56 48 41 49 55 50 42 51 45 52 54 53 68 54 43 55 44 56 53 58
REMARK SMILES IDX 69 59 46 60 35 61 36 62 40 63 37 64 39 65 38 66 57 67 58 68
REMARK SMILES IDX 62 69 59 70 61 71 60 72 47 73 48 74 52 75 49 76 51 77 50 78
REMARK H PARENT 7 13 15 23 15 24 67 46 45 57
REMARK Flexibility Score: inf
ROOT
ATOM      1  C   UNL A   1      38.053  21.174  25.442  1.00  0.00     0.274 C 
ENDROOT
BRANCH   1   2
ATOM      2  O   UNL A   1      36.850  21.150  24.648  1.00  0.00    -0.462 OA
BRANCH   2   3
ATOM      3  C   UNL A   1      35.793  21.773  25.236  1.00  0.00     0.310 C 
ATOM      4  O   UNL A   1      35.838  22.898  25.706  1.00  0.00    -0.252 OA
BRANCH   3   5
ATOM      5  C   UNL A   1      34.519  20.991  25.136  1.00  0.00     0.118 C 
ATOM      6  C   UNL A   1      32.607  20.318  23.483  1.00  0.00     0.013 C 
ATOM      7  C   UNL A   1      33.437  21.416  24.151  1.00  0.00    -0.009 C 
ATOM      8  C   UNL A   1      33.736  22.490  23.144  1.00  0.00     0.013 C 
ATOM      9  C   UNL A   1      33.174  21.526  25.647  1.00  0.00     0.100 C 
BRANCH   9  10
ATOM     10  C   UNL A   1      33.295  22.339  26.885  1.00  0.00     0.228 C 
ATOM     11  O   UNL A   1      33.649  21.726  27.897  1.00  0.00    -0.274 OA
ATOM     12  N   UNL A   1      33.237  23.694  27.010  1.00  0.00    -0.325 N 
ATOM     13  H   UNL A   1      33.539  24.024  27.887  1.00  0.00     0.169 HD
BRANCH  12  14
ATOM     14  C   UNL A   1      32.837  24.705  26.143  1.00  0.00     0.053 A 
ATOM     15  C   UNL A   1      33.903  25.423  25.578  1.00  0.00     0.027 A 
ATOM     16  C   UNL A   1      31.513  25.023  25.805  1.00  0.00     0.063 A 
ATOM     17  C   UNL A   1      33.679  26.317  24.538  1.00  0.00     0.002 A 
ATOM     18  C   UNL A   1      31.301  25.949  24.765  1.00  0.00     0.016 A 
ATOM     19  C   UNL A   1      32.380  26.551  24.107  1.00  0.00     0.001 A 
BRANCH  16  20
ATOM     20  C   UNL A   1      30.356  24.455  26.566  1.00  0.00     0.250 C 
ATOM     21  N   UNL A   1      29.140  25.073  26.457  1.00  0.00    -0.366 N 
ATOM     22  O   UNL A   1      30.454  23.464  27.278  1.00  0.00    -0.269 OA
ATOM     23  H   UNL A   1      29.043  25.872  25.889  1.00  0.00     0.159 HD
ATOM     24  H   UNL A   1      28.362  24.720  26.946  1.00  0.00     0.159 HD
ENDBRANCH  16  20
ENDBRANCH  12  14
ENDBRANCH   9  10
ENDBRANCH   3   5
ENDBRANCH   2   3
ENDBRANCH   1   2
BRANCH   1  25
ATOM     25  C   UNL A   1      39.004  20.006  25.133  1.00  0.00     0.275 C 
BRANCH  25  26
ATOM     26  O   UNL A   1      39.794  19.590  26.269  1.00  0.00    -0.458 OA
BRANCH  26  27
ATOM     27  C   UNL A   1      41.136  19.651  26.085  1.00  0.00     0.338 C 
ATOM     28  O   UNL A   1      41.824  18.841  25.482  1.00  0.00    -0.246 OA
BRANCH  27  29
ATOM     29  C   UNL A   1      41.687  20.936  26.563  1.00  0.00     0.060 A 
ATOM     30  C   UNL A   1      41.513  21.242  27.917  1.00  0.00     0.016 A 
ATOM     31  C   UNL A   1      42.274  21.869  25.709  1.00  0.00     0.016 A 
ATOM     32  C   UNL A   1      41.924  22.468  28.432  1.00  0.00     0.010 A 
ATOM     33  C   UNL A   1      42.660  23.118  26.219  1.00  0.00     0.010 A 
ATOM     34  C   UNL A   1      42.474  23.428  27.580  1.00  0.00    -0.014 A 
BRANCH  34  35
ATOM     35  C   UNL A   1      42.712  24.793  28.106  1.00  0.00     0.031 A 
ATOM     36  C   UNL A   1      44.112  25.199  28.476  1.00  0.00     0.074 A 
ATOM     37  C   UNL A   1      41.711  25.688  28.182  1.00  0.00     0.049 A 
ATOM     38  N   UNL A   1      44.545  26.337  28.956  1.00  0.00    -0.248 NA
ATOM     39  C   UNL A   1      45.163  24.191  28.269  1.00  0.00     0.031 C 
ATOM     40  C   UNL A   1      40.326  25.445  27.777  1.00  0.00     0.029 A 
ATOM     41  N   UNL A   1      41.710  26.988  28.622  1.00  0.00    -0.354 N 
ATOM     42  C   UNL A   1      45.916  26.178  29.119  1.00  0.00     0.074 A 
ATOM     43  C   UNL A   1      46.237  24.827  28.709  1.00  0.00     0.031 C 
ATOM     44  C   UNL A   1      39.608  26.560  27.994  1.00  0.00     0.029 A 
ATOM     45  C   UNL A   1      40.471  27.580  28.588  1.00  0.00     0.049 A 
ATOM     46  H   UNL A   1      42.521  27.452  28.933  1.00  0.00     0.167 HD
ATOM     47  C   UNL A   1      46.826  27.074  29.569  1.00  0.00     0.031 A 
ATOM     48  C   UNL A   1      40.075  28.797  29.008  1.00  0.00     0.031 A 
ATOM     49  C   UNL A   1      46.504  28.411  29.994  1.00  0.00     0.049 A 
ATOM     50  C   UNL A   1      41.089  29.741  29.600  1.00  0.00     0.074 A 
ATOM     51  C   UNL A   1      47.356  29.392  30.471  1.00  0.00     0.029 A 
ATOM     52  N   UNL A   1      45.228  28.951  30.004  1.00  0.00    -0.354 N 
ATOM     53  N   UNL A   1      42.383  29.581  29.747  1.00  0.00    -0.248 NA
ATOM     54  C   UNL A   1      40.588  31.038  30.076  1.00  0.00     0.031 C 
ATOM     55  C   UNL A   1      46.586  30.504  30.828  1.00  0.00     0.029 A 
ATOM     56  C   UNL A   1      45.265  30.243  30.505  1.00  0.00     0.049 A 
ATOM     57  H   UNL A   1      44.415  28.487  29.699  1.00  0.00     0.167 HD
ATOM     58  C   UNL A   1      42.853  30.768  30.298  1.00  0.00     0.074 A 
ATOM     59  C   UNL A   1      41.708  31.643  30.445  1.00  0.00     0.031 C 
ATOM     60  C   UNL A   1      44.120  31.106  30.644  1.00  0.00     0.031 A 
BRANCH  47  61
ATOM     61  C   UNL A   1      48.254  26.616  29.673  1.00  0.00    -0.014 A 
ATOM     62  C   UNL A   1      48.731  25.952  30.815  1.00  0.00     0.009 A 
ATOM     63  C   UNL A   1      49.130  26.829  28.597  1.00  0.00     0.009 A 
ATOM     64  C   UNL A   1      50.066  25.546  30.890  1.00  0.00     0.001 A 
ATOM     65  C   UNL A   1      50.454  26.393  28.662  1.00  0.00     0.001 A 
ATOM     66  C   UNL A   1      50.924  25.763  29.813  1.00  0.00     0.000 A 
ENDBRANCH  47  61
BRANCH  48  67
ATOM     67  C   UNL A   1      38.644  29.191  28.917  1.00  0.00    -0.014 A 
ATOM     68  C   UNL A   1      38.120  29.733  27.732  1.00  0.00     0.009 A 
ATOM     69  C   UNL A   1      37.799  29.059  30.030  1.00  0.00     0.009 A 
ATOM     70  C   UNL A   1      36.790  30.159  27.676  1.00  0.00     0.001 A 
ATOM     71  C   UNL A   1      36.462  29.456  29.962  1.00  0.00     0.001 A 
ATOM     72  C   UNL A   1      35.962  30.016  28.788  1.00  0.00     0.000 A 
ENDBRANCH  48  67
BRANCH  60  73
ATOM     73  C   UNL A   1      44.347  32.498  31.169  1.00  0.00    -0.014 A 
ATOM     74  C   UNL A   1      44.330  32.781  32.543  1.00  0.00     0.009 A 
ATOM     75  C   UNL A   1      44.621  33.538  30.266  1.00  0.00     0.009 A 
ATOM     76  C   UNL A   1      44.542  34.086  32.999  1.00  0.00     0.001 A 
ATOM     77  C   UNL A   1      44.867  34.833  30.726  1.00  0.00     0.001 A 
ATOM     78  C   UNL A   1      44.816  35.108  32.091  1.00  0.00     0.000 A 
ENDBRANCH  60  73
ENDBRANCH  34  35
ENDBRANCH  27  29
ENDBRANCH  26  27
ENDBRANCH  25  26
ENDBRANCH   1  25
TORSDOF 14
ENDMDL
MODEL 3
REMARK VINA RESULT:     -10.6      2.890      4.013
REMARK SMILES CC1(C)[C@H](C(=O)Nc2ccccc2C(N)=O)[C@@H]1C(=O)OCCOC(=O)c1ccc(-c2c3nc(c(-c4ccccc4)c4ccc([nH]4)c(-c4ccccc4)c4nc(c(-c5ccccc5)c5ccc2[nH]5)C=C4)C=C3)cc1
REMARK SMILES IDX 21 1 20 2 18 3 19 4 17 5 1 6 2 7 3 8 4 9 5 10 6 11 7 12 8 14
REMARK SMILES IDX 9 15 13 16 10 17 12 18 11 19 14 20 15 21 16 22 22 25 23 26
REMARK SMILES IDX 24 27 25 28 26 29 27 30 73 31 28 32 72 33 29 34 30 35 31 36
REMARK SMILES IDX 66 37 32 38 71 39 65 40 67 41 33 42 70 43 64 44 63 45 34 47
REMARK SMILES IDX 56 48 41 49 55 50 42 51 45 52 54 53 68 54 43 55 44 56 53 58
REMARK SMILES IDX 69 59 46 60 35 61 36 62 40 63 37 64 39 65 38 66 57 67 58 68
REMARK SMILES IDX 62 69 59 70 61 71 60 72 47 73 48 74 52 75 49 76 51 77 50 78
REMARK H PARENT 7 13 15 23 15 24 67 46 45 57
REMARK Flexibility Score: inf
ROOT
ATOM      1  C   UNL A   1      35.004  21.437  25.849  1.00  0.00     0.274 C 
ENDROOT
BRANCH   1   2
ATOM      2  O   UNL A   1      35.161  22.868  25.940  1.00  0.00    -0.462 OA
BRANCH   2   3
ATOM      3  C   UNL A   1      33.986  23.551  25.880  1.00  0.00     0.310 C 
ATOM      4  O   UNL A   1      33.857  24.718  26.210  1.00  0.00    -0.252 OA
BRANCH   3   5
ATOM      5  C   UNL A   1      32.881  22.768  25.239  1.00  0.00     0.118 C 
ATOM      6  C   UNL A   1      31.843  22.133  22.923  1.00  0.00     0.013 C 
ATOM      7  C   UNL A   1      32.303  23.215  23.902  1.00  0.00    -0.009 C 
ATOM      8  C   UNL A   1      32.979  24.317  23.137  1.00  0.00     0.013 C 
ATOM      9  C   UNL A   1      31.439  23.284  25.154  1.00  0.00     0.100 C 
BRANCH   9  10
ATOM     10  C   UNL A   1      31.020  24.065  26.348  1.00  0.00     0.228 C 
ATOM     11  O   UNL A   1      30.959  23.432  27.407  1.00  0.00    -0.274 OA
ATOM     12  N   UNL A   1      30.866  25.413  26.459  1.00  0.00    -0.325 N 
ATOM     13  H   UNL A   1      30.776  25.726  27.388  1.00  0.00     0.169 HD
BRANCH  12  14
ATOM     14  C   UNL A   1      30.812  26.437  25.519  1.00  0.00     0.053 A 
ATOM     15  C   UNL A   1      29.972  26.161  24.428  1.00  0.00     0.027 A 
ATOM     16  C   UNL A   1      31.492  27.661  25.596  1.00  0.00     0.063 A 
ATOM     17  C   UNL A   1      29.648  27.160  23.518  1.00  0.00     0.002 A 
ATOM     18  C   UNL A   1      31.170  28.656  24.652  1.00  0.00     0.016 A 
ATOM     19  C   UNL A   1      30.219  28.418  23.653  1.00  0.00     0.001 A 
BRANCH  16  20
ATOM     20  C   UNL A   1      32.576  27.889  26.602  1.00  0.00     0.250 C 
ATOM     21  N   UNL A   1      33.858  27.545  26.266  1.00  0.00    -0.366 N 
ATOM     22  O   UNL A   1      32.363  28.368  27.708  1.00  0.00    -0.269 OA
ATOM     23  H   UNL A   1      34.048  27.158  25.380  1.00  0.00     0.159 HD
ATOM     24  H   UNL A   1      34.589  27.686  26.909  1.00  0.00     0.159 HD
ENDBRANCH  16  20
ENDBRANCH  12  14
ENDBRANCH   9  10
ENDBRANCH   3   5
ENDBRANCH   2   3
ENDBRANCH   1   2
BRANCH   1  25
ATOM     25  C   UNL A   1      36.261  20.724  25.324  1.00  0.00     0.275 C 
BRANCH  25  26
ATOM     26  O   UNL A   1      37.377  21.615  25.099  1.00  0.00    -0.458 OA
BRANCH  26  27
ATOM     27  C   UNL A   1      38.526  21.261  25.728  1.00  0.00     0.338 C 
ATOM     28  O   UNL A   1      39.051  20.158  25.714  1.00  0.00    -0.246 OA
BRANCH  27  29
ATOM     29  C   UNL A   1      39.199  22.435  26.319  1.00  0.00     0.060 A 
ATOM     30  C   UNL A   1      38.654  23.693  26.040  1.00  0.00     0.016 A 
ATOM     31  C   UNL A   1      40.384  22.338  27.048  1.00  0.00     0.016 A 
ATOM     32  C   UNL A   1      39.274  24.857  26.485  1.00  0.00     0.010 A 
ATOM     33  C   UNL A   1      41.028  23.511  27.471  1.00  0.00     0.010 A 
ATOM     34  C   UNL A   1      40.483  24.776  27.179  1.00  0.00    -0.014 A 
BRANCH  34  35
ATOM     35  C   UNL A   1      41.226  26.027  27.462  1.00  0.00     0.031 A 
ATOM     36  C   UNL A   1      40.612  27.050  28.376  1.00  0.00     0.074 A 
ATOM     37  C   UNL A   1      42.465  26.217  26.975  1.00  0.00     0.049 A 
ATOM     38  N   UNL A   1      41.084  28.211  28.756  1.00  0.00    -0.248 NA
ATOM     39  C   UNL A   1      39.297  26.717  28.943  1.00  0.00     0.031 C 
ATOM     40  C   UNL A   1      43.205  25.267  26.145  1.00  0.00     0.029 A 
ATOM     41  N   UNL A   1      43.324  27.279  27.117  1.00  0.00    -0.354 N 
ATOM     42  C   UNL A   1      40.118  28.750  29.597  1.00  0.00     0.074 A 
ATOM     43  C   UNL A   1      39.026  27.802  29.652  1.00  0.00     0.031 C 
ATOM     44  C   UNL A   1      44.406  25.792  25.846  1.00  0.00     0.029 A 
ATOM     45  C   UNL A   1      44.503  27.129  26.430  1.00  0.00     0.049 A 
ATOM     46  H   UNL A   1      43.114  28.073  27.660  1.00  0.00     0.167 HD
ATOM     47  C   UNL A   1      40.138  29.929  30.263  1.00  0.00     0.031 A 
ATOM     48  C   UNL A   1      45.535  27.982  26.272  1.00  0.00     0.031 A 
ATOM     49  C   UNL A   1      41.215  30.881  30.194  1.00  0.00     0.049 A 
ATOM     50  C   UNL A   1      45.488  29.330  26.942  1.00  0.00     0.074 A 
ATOM     51  C   UNL A   1      41.324  32.106  30.829  1.00  0.00     0.029 A 
ATOM     52  N   UNL A   1      42.364  30.720  29.437  1.00  0.00    -0.354 N 
ATOM     53  N   UNL A   1      44.571  29.829  27.737  1.00  0.00    -0.248 NA
ATOM     54  C   UNL A   1      46.625  30.230  26.699  1.00  0.00     0.031 C 
ATOM     55  C   UNL A   1      42.511  32.713  30.406  1.00  0.00     0.029 A 
ATOM     56  C   UNL A   1      43.176  31.836  29.566  1.00  0.00     0.049 A 
ATOM     57  H   UNL A   1      42.573  29.929  28.889  1.00  0.00     0.167 HD
ATOM     58  C   UNL A   1      45.038  31.083  28.116  1.00  0.00     0.074 A 
ATOM     59  C   UNL A   1      46.324  31.262  27.475  1.00  0.00     0.031 C 
ATOM     60  C   UNL A   1      44.456  32.001  28.926  1.00  0.00     0.031 A 
BRANCH  47  61
ATOM     61  C   UNL A   1      38.928  30.277  31.087  1.00  0.00    -0.014 A 
ATOM     62  C   UNL A   1      38.841  29.935  32.446  1.00  0.00     0.009 A 
ATOM     63  C   UNL A   1      37.868  30.983  30.496  1.00  0.00     0.009 A 
ATOM     64  C   UNL A   1      37.701  30.261  33.185  1.00  0.00     0.001 A 
ATOM     65  C   UNL A   1      36.745  31.335  31.245  1.00  0.00     0.001 A 
ATOM     66  C   UNL A   1      36.657  30.964  32.585  1.00  0.00     0.000 A 
ENDBRANCH  47  61
BRANCH  48  67
ATOM     67  C   UNL A   1      46.693  27.605  25.418  1.00  0.00    -0.014 A 
ATOM     68  C   UNL A   1      46.733  27.962  24.061  1.00  0.00     0.009 A 
ATOM     69  C   UNL A   1      47.752  26.853  25.950  1.00  0.00     0.009 A 
ATOM     70  C   UNL A   1      47.794  27.549  23.251  1.00  0.00     0.001 A 
ATOM     71  C   UNL A   1      48.827  26.469  25.146  1.00  0.00     0.001 A 
ATOM     72  C   UNL A   1      48.841  26.807  23.795  1.00  0.00     0.000 A 
ENDBRANCH  48  67
BRANCH  60  73
ATOM     73  C   UNL A   1      45.227  33.262  29.211  1.00  0.00    -0.014 A 
ATOM     74  C   UNL A   1      45.069  34.417  28.429  1.00  0.00     0.009 A 
ATOM     75  C   UNL A   1      46.101  33.303  30.309  1.00  0.00     0.009 A 
ATOM     76  C   UNL A   1      45.802  35.572  28.716  1.00  0.00     0.001 A 
ATOM     77  C   UNL A   1      46.805  34.468  30.616  1.00  0.00     0.001 A 
ATOM     78  C   UNL A   1      46.664  35.598  29.813  1.00  0.00     0.000 A 
ENDBRANCH  60  73
ENDBRANCH  34  35
ENDBRANCH  27  29
ENDBRANCH  26  27
ENDBRANCH  25  26
ENDBRANCH   1  25
TORSDOF 14
ENDMDL
