MODEL 1
REMARK VINA RESULT:     -11.1      0.000      0.000
REMARK SMILES CCOc1ccc(NC(=O)[C@@H]2[C@@H](C(=O)OCCOC(=O)c3ccc(-c4c5nc(c(-c6ccccc6)c6ccc([nH]6)c(-c6ccccc6)c6nc(c(-c7ccccc7)c7ccc4[nH]7)C=C6)C=C5)cc3)[C@H]3C=C[C@@H]2C3)cc1
REMARK SMILES IDX 16 1 15 2 13 3 14 4 12 5 11 6 72 7 69 8 71 9 73 10 70 11
REMARK SMILES IDX 9 12 8 13 10 15 7 16 4 17 5 18 75 19 6 20 74 21 3 22 2 23
REMARK SMILES IDX 1 24 17 25 18 26 19 27 20 28 21 29 22 30 68 31 23 32 67 33
REMARK SMILES IDX 24 34 25 35 26 36 61 37 27 38 66 39 60 40 62 41 28 42 65 43
REMARK SMILES IDX 59 44 58 45 29 47 51 48 36 49 50 50 37 51 40 52 49 53 63 54
REMARK SMILES IDX 38 55 39 56 48 58 64 59 41 60 30 61 31 62 35 63 32 64 34 65
REMARK SMILES IDX 33 66 52 67 53 68 57 69 54 70 56 71 55 72 42 73 43 74 47 75
REMARK SMILES IDX 44 76 46 77 45 78
REMARK H PARENT 8 14 62 46 40 57
REMARK Flexibility Score: inf
ROOT
ATOM      1  C   UNL A   1      31.045  29.995  25.199  1.00  0.00     0.274 C 
ENDROOT
BRANCH   1   2
ATOM      2  O   UNL A   1      31.823  29.287  24.202  1.00  0.00    -0.462 OA
BRANCH   2   3
ATOM      3  C   UNL A   1      31.523  27.966  24.066  1.00  0.00     0.310 C 
ATOM      4  O   UNL A   1      30.367  27.562  24.083  1.00  0.00    -0.252 OA
BRANCH   3   5
ATOM      5  C   UNL A   1      32.771  27.067  23.963  1.00  0.00     0.119 C 
ATOM      6  C   UNL A   1      32.547  25.529  23.683  1.00  0.00     0.100 C 
ATOM      7  C   UNL A   1      33.101  24.883  25.007  1.00  0.00     0.025 C 
ATOM      8  C   UNL A   1      33.500  27.052  25.354  1.00  0.00     0.027 C 
ATOM      9  C   UNL A   1      32.294  25.290  26.210  1.00  0.00    -0.027 C 
ATOM     10  C   UNL A   1      34.331  25.776  25.260  1.00  0.00     0.017 C 
ATOM     11  C   UNL A   1      32.566  26.577  26.448  1.00  0.00    -0.027 C 
BRANCH   6  12
ATOM     12  C   UNL A   1      33.379  24.884  22.549  1.00  0.00     0.228 C 
ATOM     13  N   UNL A   1      33.622  23.561  22.411  1.00  0.00    -0.326 N 
ATOM     14  H   UNL A   1      34.025  23.330  21.543  1.00  0.00     0.169 HD
ATOM     15  O   UNL A   1      33.861  25.579  21.643  1.00  0.00    -0.274 OA
BRANCH  13  16
ATOM     16  C   UNL A   1      33.426  22.459  23.231  1.00  0.00     0.041 A 
ATOM     17  C   UNL A   1      33.329  20.092  24.685  1.00  0.00     0.119 A 
ATOM     18  C   UNL A   1      32.190  20.559  24.039  1.00  0.00     0.048 A 
ATOM     19  C   UNL A   1      34.468  20.885  24.735  1.00  0.00     0.048 A 
ATOM     20  C   UNL A   1      32.242  21.736  23.285  1.00  0.00     0.030 A 
ATOM     21  C   UNL A   1      34.500  22.092  24.047  1.00  0.00     0.030 A 
BRANCH  17  22
ATOM     22  O   UNL A   1      33.475  18.822  25.149  1.00  0.00    -0.494 OA
BRANCH  22  23
ATOM     23  C   UNL A   1      32.741  17.804  24.480  1.00  0.00     0.226 C 
ATOM     24  C   UNL A   1      33.650  17.283  23.384  1.00  0.00     0.049 C 
ENDBRANCH  22  23
ENDBRANCH  17  22
ENDBRANCH  13  16
ENDBRANCH   6  12
ENDBRANCH   3   5
ENDBRANCH   2   3
ENDBRANCH   1   2
BRANCH   1  25
ATOM     25  C   UNL A   1      31.760  30.176  26.546  1.00  0.00     0.275 C 
BRANCH  25  26
ATOM     26  O   UNL A   1      33.079  30.699  26.356  1.00  0.00    -0.458 OA
BRANCH  26  27
ATOM     27  C   UNL A   1      33.496  31.671  27.198  1.00  0.00     0.338 C 
ATOM     28  O   UNL A   1      32.943  32.732  27.446  1.00  0.00    -0.246 OA
BRANCH  27  29
ATOM     29  C   UNL A   1      34.778  31.246  27.789  1.00  0.00     0.060 A 
ATOM     30  C   UNL A   1      35.750  32.202  28.081  1.00  0.00     0.016 A 
ATOM     31  C   UNL A   1      35.023  29.900  28.063  1.00  0.00     0.016 A 
ATOM     32  C   UNL A   1      36.961  31.831  28.641  1.00  0.00     0.010 A 
ATOM     33  C   UNL A   1      36.208  29.538  28.713  1.00  0.00     0.010 A 
ATOM     34  C   UNL A   1      37.177  30.509  29.023  1.00  0.00    -0.014 A 
BRANCH  34  35
ATOM     35  C   UNL A   1      38.399  30.167  29.785  1.00  0.00     0.031 A 
ATOM     36  C   UNL A   1      39.464  29.335  29.147  1.00  0.00     0.074 A 
ATOM     37  C   UNL A   1      38.548  30.622  31.045  1.00  0.00     0.049 A 
ATOM     38  N   UNL A   1      40.500  28.758  29.696  1.00  0.00    -0.248 NA
ATOM     39  C   UNL A   1      39.349  29.128  27.694  1.00  0.00     0.031 C 
ATOM     40  C   UNL A   1      37.634  31.536  31.737  1.00  0.00     0.029 A 
ATOM     41  N   UNL A   1      39.528  30.375  31.972  1.00  0.00    -0.354 N 
ATOM     42  C   UNL A   1      41.139  28.081  28.666  1.00  0.00     0.074 A 
ATOM     43  C   UNL A   1      40.377  28.324  27.459  1.00  0.00     0.031 C 
ATOM     44  C   UNL A   1      38.097  31.774  32.973  1.00  0.00     0.029 A 
ATOM     45  C   UNL A   1      39.285  30.960  33.193  1.00  0.00     0.049 A 
ATOM     46  H   UNL A   1      40.327  29.832  31.784  1.00  0.00     0.167 HD
ATOM     47  C   UNL A   1      42.252  27.315  28.733  1.00  0.00     0.031 A 
ATOM     48  C   UNL A   1      39.913  30.806  34.373  1.00  0.00     0.031 A 
ATOM     49  C   UNL A   1      42.990  27.082  29.946  1.00  0.00     0.049 A 
ATOM     50  C   UNL A   1      41.074  29.855  34.448  1.00  0.00     0.074 A 
ATOM     51  C   UNL A   1      44.110  26.292  30.140  1.00  0.00     0.029 A 
ATOM     52  N   UNL A   1      42.678  27.644  31.176  1.00  0.00    -0.354 N 
ATOM     53  N   UNL A   1      41.636  29.160  33.488  1.00  0.00    -0.248 NA
ATOM     54  C   UNL A   1      41.677  29.653  35.772  1.00  0.00     0.031 C 
ATOM     55  C   UNL A   1      44.440  26.333  31.499  1.00  0.00     0.029 A 
ATOM     56  C   UNL A   1      43.568  27.200  32.139  1.00  0.00     0.049 A 
ATOM     57  H   UNL A   1      41.933  28.267  31.340  1.00  0.00     0.167 HD
ATOM     58  C   UNL A   1      42.673  28.458  34.085  1.00  0.00     0.074 A 
ATOM     59  C   UNL A   1      42.674  28.826  35.487  1.00  0.00     0.031 C 
ATOM     60  C   UNL A   1      43.549  27.587  33.526  1.00  0.00     0.031 A 
BRANCH  47  61
ATOM     61  C   UNL A   1      42.682  26.616  27.475  1.00  0.00    -0.014 A 
ATOM     62  C   UNL A   1      43.618  27.183  26.597  1.00  0.00     0.009 A 
ATOM     63  C   UNL A   1      42.134  25.361  27.165  1.00  0.00     0.009 A 
ATOM     64  C   UNL A   1      43.966  26.524  25.414  1.00  0.00     0.001 A 
ATOM     65  C   UNL A   1      42.505  24.691  25.999  1.00  0.00     0.001 A 
ATOM     66  C   UNL A   1      43.412  25.279  25.119  1.00  0.00     0.000 A 
ENDBRANCH  47  61
BRANCH  48  67
ATOM     67  C   UNL A   1      39.414  31.501  35.591  1.00  0.00    -0.014 A 
ATOM     68  C   UNL A   1      38.320  30.995  36.309  1.00  0.00     0.009 A 
ATOM     69  C   UNL A   1      40.017  32.692  36.031  1.00  0.00     0.009 A 
ATOM     70  C   UNL A   1      37.823  31.682  37.421  1.00  0.00     0.001 A 
ATOM     71  C   UNL A   1      39.541  33.358  37.162  1.00  0.00     0.001 A 
ATOM     72  C   UNL A   1      38.436  32.859  37.849  1.00  0.00     0.000 A 
ENDBRANCH  48  67
BRANCH  60  73
ATOM     73  C   UNL A   1      44.608  27.014  34.425  1.00  0.00    -0.014 A 
ATOM     74  C   UNL A   1      45.841  27.658  34.606  1.00  0.00     0.009 A 
ATOM     75  C   UNL A   1      44.344  25.831  35.132  1.00  0.00     0.009 A 
ATOM     76  C   UNL A   1      46.803  27.108  35.455  1.00  0.00     0.001 A 
ATOM     77  C   UNL A   1      45.296  25.301  36.004  1.00  0.00     0.001 A 
ATOM     78  C   UNL A   1      46.528  25.934  36.156  1.00  0.00     0.000 A 
ENDBRANCH  60  73
ENDBRANCH  34  35
ENDBRANCH  27  29
ENDBRANCH  26  27
ENDBRANCH  25  26
ENDBRANCH   1  25
TORSDOF 15
ENDMDL
MODEL 2
REMARK VINA RESULT:     -11.1      3.896      6.891
REMARK SMILES CCOc1ccc(NC(=O)[C@@H]2[C@@H](C(=O)OCCOC(=O)c3ccc(-c4c5nc(c(-c6ccccc6)c6ccc([nH]6)c(-c6ccccc6)c6nc(c(-c7ccccc7)c7ccc4[nH]7)C=C6)C=C5)cc3)[C@H]3C=C[C@@H]2C3)cc1
REMARK SMILES IDX 16 1 15 2 13 3 14 4 12 5 11 6 72 7 69 8 71 9 73 10 70 11
REMARK SMILES IDX 9 12 8 13 10 15 7 16 4 17 5 18 75 19 6 20 74 21 3 22 2 23
REMARK SMILES IDX 1 24 17 25 18 26 19 27 20 28 21 29 22 30 68 31 23 32 67 33
REMARK SMILES IDX 24 34 25 35 26 36 61 37 27 38 66 39 60 40 62 41 28 42 65 43
REMARK SMILES IDX 59 44 58 45 29 47 51 48 36 49 50 50 37 51 40 52 49 53 63 54
REMARK SMILES IDX 38 55 39 56 48 58 64 59 41 60 30 61 31 62 35 63 32 64 34 65
REMARK SMILES IDX 33 66 52 67 53 68 57 69 54 70 56 71 55 72 42 73 43 74 47 75
REMARK SMILES IDX 44 76 46 77 45 78
REMARK H PARENT 8 14 62 46 40 57
REMARK Flexibility Score: inf
ROOT
ATOM      1  C   UNL A   1      32.145  29.486  26.654  1.00  0.00     0.274 C 
ENDROOT
BRANCH   1   2
ATOM      2  O   UNL A   1      32.250  29.091  25.263  1.00  0.00    -0.462 OA
BRANCH   2   3
ATOM      3  C   UNL A   1      31.075  28.747  24.670  1.00  0.00     0.310 C 
ATOM      4  O   UNL A   1      30.337  29.584  24.164  1.00  0.00    -0.252 OA
BRANCH   3   5
ATOM      5  C   UNL A   1      30.762  27.240  24.770  1.00  0.00     0.119 C 
ATOM      6  C   UNL A   1      31.980  26.245  24.908  1.00  0.00     0.100 C 
ATOM      7  C   UNL A   1      31.871  25.425  23.569  1.00  0.00     0.025 C 
ATOM      8  C   UNL A   1      30.096  26.772  23.427  1.00  0.00     0.027 C 
ATOM      9  C   UNL A   1      32.078  26.295  22.360  1.00  0.00    -0.027 C 
ATOM     10  C   UNL A   1      30.342  25.266  23.462  1.00  0.00     0.017 C 
ATOM     11  C   UNL A   1      30.996  27.072  22.245  1.00  0.00    -0.027 C 
BRANCH   6  12
ATOM     12  C   UNL A   1      31.908  25.183  26.030  1.00  0.00     0.228 C 
ATOM     13  N   UNL A   1      32.827  24.217  26.255  1.00  0.00    -0.326 N 
ATOM     14  H   UNL A   1      32.692  23.746  27.110  1.00  0.00     0.169 HD
ATOM     15  O   UNL A   1      30.972  25.185  26.843  1.00  0.00    -0.274 OA
BRANCH  13  16
ATOM     16  C   UNL A   1      33.918  23.746  25.540  1.00  0.00     0.041 A 
ATOM     17  C   UNL A   1      36.117  22.516  24.367  1.00  0.00     0.119 A 
ATOM     18  C   UNL A   1      36.179  23.858  24.726  1.00  0.00     0.048 A 
ATOM     19  C   UNL A   1      34.910  21.835  24.448  1.00  0.00     0.048 A 
ATOM     20  C   UNL A   1      35.084  24.472  25.341  1.00  0.00     0.030 A 
ATOM     21  C   UNL A   1      33.796  22.466  24.991  1.00  0.00     0.030 A 
BRANCH  17  22
ATOM     22  O   UNL A   1      37.205  21.751  24.082  1.00  0.00    -0.494 OA
BRANCH  22  23
ATOM     23  C   UNL A   1      37.851  21.118  25.181  1.00  0.00     0.226 C 
ATOM     24  C   UNL A   1      37.771  19.628  24.910  1.00  0.00     0.049 C 
ENDBRANCH  22  23
ENDBRANCH  17  22
ENDBRANCH  13  16
ENDBRANCH   6  12
ENDBRANCH   3   5
ENDBRANCH   2   3
ENDBRANCH   1   2
BRANCH   1  25
ATOM     25  C   UNL A   1      33.186  30.525  27.095  1.00  0.00     0.275 C 
BRANCH  25  26
ATOM     26  O   UNL A   1      34.094  29.963  28.048  1.00  0.00    -0.458 OA
BRANCH  26  27
ATOM     27  C   UNL A   1      34.961  30.800  28.659  1.00  0.00     0.338 C 
ATOM     28  O   UNL A   1      34.742  31.926  29.081  1.00  0.00    -0.246 OA
BRANCH  27  29
ATOM     29  C   UNL A   1      36.273  30.129  28.732  1.00  0.00     0.060 A 
ATOM     30  C   UNL A   1      37.100  30.114  27.610  1.00  0.00     0.016 A 
ATOM     31  C   UNL A   1      36.693  29.517  29.912  1.00  0.00     0.016 A 
ATOM     32  C   UNL A   1      38.338  29.496  27.652  1.00  0.00     0.010 A 
ATOM     33  C   UNL A   1      37.980  28.973  29.981  1.00  0.00     0.010 A 
ATOM     34  C   UNL A   1      38.818  28.979  28.853  1.00  0.00    -0.014 A 
BRANCH  34  35
ATOM     35  C   UNL A   1      40.213  28.489  28.922  1.00  0.00     0.031 A 
ATOM     36  C   UNL A   1      41.315  29.432  29.287  1.00  0.00     0.074 A 
ATOM     37  C   UNL A   1      40.478  27.191  28.670  1.00  0.00     0.049 A 
ATOM     38  N   UNL A   1      42.608  29.261  29.204  1.00  0.00    -0.248 NA
ATOM     39  C   UNL A   1      40.906  30.741  29.819  1.00  0.00     0.031 C 
ATOM     40  C   UNL A   1      39.477  26.150  28.416  1.00  0.00     0.029 A 
ATOM     41  N   UNL A   1      41.673  26.525  28.584  1.00  0.00    -0.354 N 
ATOM     42  C   UNL A   1      43.170  30.456  29.632  1.00  0.00     0.074 A 
ATOM     43  C   UNL A   1      42.078  31.341  29.977  1.00  0.00     0.031 C 
ATOM     44  C   UNL A   1      40.099  24.980  28.207  1.00  0.00     0.029 A 
ATOM     45  C   UNL A   1      41.538  25.206  28.219  1.00  0.00     0.049 A 
ATOM     46  H   UNL A   1      42.543  26.948  28.764  1.00  0.00     0.167 HD
ATOM     47  C   UNL A   1      44.481  30.782  29.710  1.00  0.00     0.031 A 
ATOM     48  C   UNL A   1      42.469  24.298  27.871  1.00  0.00     0.031 A 
ATOM     49  C   UNL A   1      45.550  29.888  29.354  1.00  0.00     0.049 A 
ATOM     50  C   UNL A   1      43.910  24.723  27.850  1.00  0.00     0.074 A 
ATOM     51  C   UNL A   1      46.913  30.124  29.357  1.00  0.00     0.029 A 
ATOM     52  N   UNL A   1      45.371  28.578  28.932  1.00  0.00    -0.354 N 
ATOM     53  N   UNL A   1      44.437  25.875  28.187  1.00  0.00    -0.248 NA
ATOM     54  C   UNL A   1      44.884  23.727  27.384  1.00  0.00     0.031 C 
ATOM     55  C   UNL A   1      47.555  28.976  28.882  1.00  0.00     0.029 A 
ATOM     56  C   UNL A   1      46.597  28.001  28.647  1.00  0.00     0.049 A 
ATOM     57  H   UNL A   1      44.501  28.125  28.846  1.00  0.00     0.167 HD
ATOM     58  C   UNL A   1      45.805  25.737  27.999  1.00  0.00     0.074 A 
ATOM     59  C   UNL A   1      46.027  24.382  27.535  1.00  0.00     0.031 C 
ATOM     60  C   UNL A   1      46.790  26.648  28.192  1.00  0.00     0.031 A 
BRANCH  47  61
ATOM     61  C   UNL A   1      44.815  32.188  30.122  1.00  0.00    -0.014 A 
ATOM     62  C   UNL A   1      44.848  33.241  29.196  1.00  0.00     0.009 A 
ATOM     63  C   UNL A   1      45.103  32.458  31.469  1.00  0.00     0.009 A 
ATOM     64  C   UNL A   1      45.202  34.530  29.605  1.00  0.00     0.001 A 
ATOM     65  C   UNL A   1      45.427  33.752  31.880  1.00  0.00     0.001 A 
ATOM     66  C   UNL A   1      45.488  34.784  30.946  1.00  0.00     0.000 A 
ENDBRANCH  47  61
BRANCH  48  67
ATOM     67  C   UNL A   1      42.068  22.932  27.438  1.00  0.00    -0.014 A 
ATOM     68  C   UNL A   1      41.982  21.881  28.363  1.00  0.00     0.009 A 
ATOM     69  C   UNL A   1      41.789  22.665  26.086  1.00  0.00     0.009 A 
ATOM     70  C   UNL A   1      41.656  20.589  27.940  1.00  0.00     0.001 A 
ATOM     71  C   UNL A   1      41.430  21.381  25.671  1.00  0.00     0.001 A 
ATOM     72  C   UNL A   1      41.376  20.341  26.597  1.00  0.00     0.000 A 
ENDBRANCH  48  67
BRANCH  60  73
ATOM     73  C   UNL A   1      48.199  26.188  27.949  1.00  0.00    -0.014 A 
ATOM     74  C   UNL A   1      48.977  25.635  28.977  1.00  0.00     0.009 A 
ATOM     75  C   UNL A   1      48.738  26.275  26.656  1.00  0.00     0.009 A 
ATOM     76  C   UNL A   1      50.281  25.208  28.721  1.00  0.00     0.001 A 
ATOM     77  C   UNL A   1      50.031  25.818  26.396  1.00  0.00     0.001 A 
ATOM     78  C   UNL A   1      50.804  25.294  27.430  1.00  0.00     0.000 A 
ENDBRANCH  60  73
ENDBRANCH  34  35
ENDBRANCH  27  29
ENDBRANCH  26  27
ENDBRANCH  25  26
ENDBRANCH   1  25
TORSDOF 15
ENDMDL
MODEL 3
REMARK VINA RESULT:     -11.0      4.895      9.627
REMARK SMILES CCOc1ccc(NC(=O)[C@@H]2[C@@H](C(=O)OCCOC(=O)c3ccc(-c4c5nc(c(-c6ccccc6)c6ccc([nH]6)c(-c6ccccc6)c6nc(c(-c7ccccc7)c7ccc4[nH]7)C=C6)C=C5)cc3)[C@H]3C=C[C@@H]2C3)cc1
REMARK SMILES IDX 16 1 15 2 13 3 14 4 12 5 11 6 72 7 69 8 71 9 73 10 70 11
REMARK SMILES IDX 9 12 8 13 10 15 7 16 4 17 5 18 75 19 6 20 74 21 3 22 2 23
REMARK SMILES IDX 1 24 17 25 18 26 19 27 20 28 21 29 22 30 68 31 23 32 67 33
REMARK SMILES IDX 24 34 25 35 26 36 61 37 27 38 66 39 60 40 62 41 28 42 65 43
REMARK SMILES IDX 59 44 58 45 29 47 51 48 36 49 50 50 37 51 40 52 49 53 63 54
REMARK SMILES IDX 38 55 39 56 48 58 64 59 41 60 30 61 31 62 35 63 32 64 34 65
REMARK SMILES IDX 33 66 52 67 53 68 57 69 54 70 56 71 55 72 42 73 43 74 47 75
REMARK SMILES IDX 44 76 46 77 45 78
REMARK H PARENT 8 14 62 46 40 57
REMARK Flexibility Score: inf
ROOT
ATOM      1  C   UNL A   1      36.280  20.497  25.011  1.00  0.00     0.274 C 
ENDROOT
BRANCH   1   2
ATOM      2  O   UNL A   1      35.345  21.114  25.931  1.00  0.00    -0.462 OA
BRANCH   2   3
ATOM      3  C   UNL A   1      34.261  21.695  25.350  1.00  0.00     0.310 C 
ATOM      4  O   UNL A   1      33.682  21.178  24.401  1.00  0.00    -0.252 OA
BRANCH   3   5
ATOM      5  C   UNL A   1      33.904  23.065  25.961  1.00  0.00     0.119 C 
ATOM      6  C   UNL A   1      32.588  23.775  25.454  1.00  0.00     0.100 C 
ATOM      7  C   UNL A   1      33.172  25.065  24.764  1.00  0.00     0.025 C 
ATOM      8  C   UNL A   1      35.018  24.100  25.568  1.00  0.00     0.027 C 
ATOM      9  C   UNL A   1      34.038  24.725  23.582  1.00  0.00    -0.027 C 
ATOM     10  C   UNL A   1      34.293  25.429  25.756  1.00  0.00     0.017 C 
ATOM     11  C   UNL A   1      35.164  24.189  24.062  1.00  0.00    -0.027 C 
BRANCH   6  12
ATOM     12  C   UNL A   1      31.609  24.309  26.526  1.00  0.00     0.228 C 
ATOM     13  N   UNL A   1      30.738  25.329  26.353  1.00  0.00    -0.326 N 
ATOM     14  H   UNL A   1      30.088  25.411  27.088  1.00  0.00     0.169 HD
ATOM     15  O   UNL A   1      31.545  23.778  27.644  1.00  0.00    -0.274 OA
BRANCH  13  16
ATOM     16  C   UNL A   1      30.565  26.286  25.364  1.00  0.00     0.041 A 
ATOM     17  C   UNL A   1      30.072  28.425  23.660  1.00  0.00     0.119 A 
ATOM     18  C   UNL A   1      29.565  27.166  23.360  1.00  0.00     0.048 A 
ATOM     19  C   UNL A   1      30.953  28.580  24.722  1.00  0.00     0.048 A 
ATOM     20  C   UNL A   1      29.790  26.094  24.230  1.00  0.00     0.030 A 
ATOM     21  C   UNL A   1      31.238  27.498  25.547  1.00  0.00     0.030 A 
BRANCH  17  22
ATOM     22  O   UNL A   1      29.643  29.578  23.080  1.00  0.00    -0.494 OA
BRANCH  22  23
ATOM     23  C   UNL A   1      28.240  29.717  22.886  1.00  0.00     0.226 C 
ATOM     24  C   UNL A   1      27.872  31.075  23.450  1.00  0.00     0.049 C 
ENDBRANCH  22  23
ENDBRANCH  17  22
ENDBRANCH  13  16
ENDBRANCH   6  12
ENDBRANCH   3   5
ENDBRANCH   2   3
ENDBRANCH   1   2
BRANCH   1  25
ATOM     25  C   UNL A   1      37.523  21.346  24.710  1.00  0.00     0.275 C 
BRANCH  25  26
ATOM     26  O   UNL A   1      38.393  21.396  25.847  1.00  0.00    -0.458 OA
BRANCH  26  27
ATOM     27  C   UNL A   1      39.476  20.587  25.844  1.00  0.00     0.338 C 
ATOM     28  O   UNL A   1      39.512  19.388  25.614  1.00  0.00    -0.246 OA
BRANCH  27  29
ATOM     29  C   UNL A   1      40.657  21.402  26.188  1.00  0.00     0.060 A 
ATOM     30  C   UNL A   1      40.488  22.738  26.547  1.00  0.00     0.016 A 
ATOM     31  C   UNL A   1      41.935  20.846  26.161  1.00  0.00     0.016 A 
ATOM     32  C   UNL A   1      41.579  23.524  26.880  1.00  0.00     0.010 A 
ATOM     33  C   UNL A   1      43.025  21.614  26.585  1.00  0.00     0.010 A 
ATOM     34  C   UNL A   1      42.847  22.955  26.966  1.00  0.00    -0.014 A 
BRANCH  34  35
ATOM     35  C   UNL A   1      43.967  23.763  27.499  1.00  0.00     0.031 A 
ATOM     36  C   UNL A   1      44.162  23.879  28.977  1.00  0.00     0.074 A 
ATOM     37  C   UNL A   1      44.811  24.378  26.646  1.00  0.00     0.049 A 
ATOM     38  N   UNL A   1      44.939  24.690  29.645  1.00  0.00    -0.248 NA
ATOM     39  C   UNL A   1      43.380  22.956  29.814  1.00  0.00     0.031 C 
ATOM     40  C   UNL A   1      44.793  24.247  25.186  1.00  0.00     0.029 A 
ATOM     41  N   UNL A   1      45.851  25.239  26.886  1.00  0.00    -0.354 N 
ATOM     42  C   UNL A   1      44.710  24.407  30.984  1.00  0.00     0.074 A 
ATOM     43  C   UNL A   1      43.725  23.347  31.034  1.00  0.00     0.031 C 
ATOM     44  C   UNL A   1      45.776  24.996  24.663  1.00  0.00     0.029 A 
ATOM     45  C   UNL A   1      46.429  25.730  25.739  1.00  0.00     0.049 A 
ATOM     46  H   UNL A   1      46.154  25.483  27.790  1.00  0.00     0.167 HD
ATOM     47  C   UNL A   1      45.263  24.995  32.070  1.00  0.00     0.031 A 
ATOM     48  C   UNL A   1      47.339  26.707  25.571  1.00  0.00     0.031 A 
ATOM     49  C   UNL A   1      46.237  26.052  31.998  1.00  0.00     0.049 A 
ATOM     50  C   UNL A   1      47.848  27.427  26.788  1.00  0.00     0.074 A 
ATOM     51  C   UNL A   1      46.836  26.749  33.031  1.00  0.00     0.029 A 
ATOM     52  N   UNL A   1      46.754  26.564  30.816  1.00  0.00    -0.354 N 
ATOM     53  N   UNL A   1      47.578  27.208  28.052  1.00  0.00    -0.248 NA
ATOM     54  C   UNL A   1      48.776  28.543  26.554  1.00  0.00     0.031 C 
ATOM     55  C   UNL A   1      47.674  27.720  32.473  1.00  0.00     0.029 A 
ATOM     56  C   UNL A   1      47.647  27.585  31.093  1.00  0.00     0.049 A 
ATOM     57  H   UNL A   1      46.520  26.249  29.913  1.00  0.00     0.167 HD
ATOM     58  C   UNL A   1      48.319  28.138  28.766  1.00  0.00     0.074 A 
ATOM     59  C   UNL A   1      49.064  28.913  27.794  1.00  0.00     0.031 C 
ATOM     60  C   UNL A   1      48.380  28.336  30.106  1.00  0.00     0.031 A 
BRANCH  47  61
ATOM     61  C   UNL A   1      44.764  24.557  33.418  1.00  0.00    -0.014 A 
ATOM     62  C   UNL A   1      45.298  23.439  34.076  1.00  0.00     0.009 A 
ATOM     63  C   UNL A   1      43.736  25.284  34.038  1.00  0.00     0.009 A 
ATOM     64  C   UNL A   1      44.783  23.035  35.312  1.00  0.00     0.001 A 
ATOM     65  C   UNL A   1      43.244  24.896  35.285  1.00  0.00     0.001 A 
ATOM     66  C   UNL A   1      43.760  23.766  35.915  1.00  0.00     0.000 A 
ENDBRANCH  47  61
BRANCH  48  67
ATOM     67  C   UNL A   1      47.764  27.117  24.206  1.00  0.00    -0.014 A 
ATOM     68  C   UNL A   1      47.013  28.044  23.467  1.00  0.00     0.009 A 
ATOM     69  C   UNL A   1      48.917  26.564  23.621  1.00  0.00     0.009 A 
ATOM     70  C   UNL A   1      47.390  28.384  22.165  1.00  0.00     0.001 A 
ATOM     71  C   UNL A   1      49.310  26.931  22.332  1.00  0.00     0.001 A 
ATOM     72  C   UNL A   1      48.539  27.832  21.600  1.00  0.00     0.000 A 
ENDBRANCH  48  67
BRANCH  60  73
ATOM     73  C   UNL A   1      49.321  29.399  30.595  1.00  0.00    -0.014 A 
ATOM     74  C   UNL A   1      50.667  29.115  30.873  1.00  0.00     0.009 A 
ATOM     75  C   UNL A   1      48.857  30.715  30.741  1.00  0.00     0.009 A 
ATOM     76  C   UNL A   1      51.521  30.125  31.318  1.00  0.00     0.001 A 
ATOM     77  C   UNL A   1      49.721  31.729  31.156  1.00  0.00     0.001 A 
ATOM     78  C   UNL A   1      51.050  31.431  31.453  1.00  0.00     0.000 A 
ENDBRANCH  60  73
ENDBRANCH  34  35
ENDBRANCH  27  29
ENDBRANCH  26  27
ENDBRANCH  25  26
ENDBRANCH   1  25
TORSDOF 15
ENDMDL
