MODEL 1
REMARK VINA RESULT:      -8.8      0.000      0.000
REMARK SMILES CCCc1cc(OC(F)(F)F)cc2c1O[C@@H](C(F)(F)F)C(C(=O)OCCOC(=O)c1ccc(-c3c4nc(c(-c5ccccc5)c5ccc([nH]5)c(-c5ccccc5)c5nc(c(-c6ccccc6)c6ccc3[nH]6)C=C5)C=C4)cc1)=C2
REMARK SMILES IDX 25 1 24 2 22 3 23 4 21 5 4 6 5 7 14 8 6 9 13 10 15 11 12 12
REMARK SMILES IDX 78 13 16 14 3 15 2 16 1 17 7 18 8 19 9 20 10 21 11 22 17 23
REMARK SMILES IDX 18 24 19 25 20 26 26 27 27 28 28 29 29 30 30 31 31 32 77 33
REMARK SMILES IDX 32 34 76 35 33 36 34 37 35 38 70 39 36 40 75 41 69 42 71 43
REMARK SMILES IDX 37 44 74 45 68 46 67 47 38 49 60 50 45 51 59 52 46 53 49 54
REMARK SMILES IDX 58 55 72 56 47 57 48 58 57 60 73 61 50 62 39 63 40 64 44 65
REMARK SMILES IDX 41 66 43 67 42 68 61 69 62 70 66 71 63 72 65 73 64 74 51 75
REMARK SMILES IDX 52 76 56 77 53 78 55 79 54 80
REMARK H PARENT 71 48 49 59
REMARK Flexibility Score: inf
ROOT
ATOM      1  C   UNL A   1      33.404  34.244  29.148  1.00  0.00     0.275 C 
ENDROOT
BRANCH   1   2
ATOM      2  O   UNL A   1      34.469  34.614  30.051  1.00  0.00    -0.459 OA
BRANCH   2   3
ATOM      3  C   UNL A   1      34.812  33.678  30.975  1.00  0.00     0.338 C 
ATOM      4  O   UNL A   1      34.134  32.721  31.287  1.00  0.00    -0.246 OA
BRANCH   3   5
ATOM      5  C   UNL A   1      36.166  33.918  31.533  1.00  0.00     0.087 C 
ATOM      6  C   UNL A   1      39.857  34.627  33.364  1.00  0.00    -0.002 A 
ATOM      7  C   UNL A   1      41.036  34.539  32.611  1.00  0.00     0.054 A 
ATOM      8  C   UNL A   1      38.628  34.495  32.707  1.00  0.00     0.131 A 
ATOM      9  C   UNL A   1      40.983  34.334  31.230  1.00  0.00     0.130 A 
ATOM     10  C   UNL A   1      38.556  34.193  31.343  1.00  0.00     0.021 A 
ATOM     11  O   UNL A   1      37.501  34.776  33.426  1.00  0.00    -0.475 OA
ATOM     12  C   UNL A   1      39.743  34.119  30.608  1.00  0.00     0.058 A 
ATOM     13  C   UNL A   1      37.241  33.998  30.726  1.00  0.00     0.027 C 
ATOM     14  C   UNL A   1      36.313  34.044  33.040  1.00  0.00     0.316 C 
BRANCH   6  15
ATOM     15  C   UNL A   1      39.932  34.870  34.854  1.00  0.00     0.039 C 
BRANCH  15  16
ATOM     16  C   UNL A   1      39.355  33.732  35.696  1.00  0.00     0.001 C 
ATOM     17  C   UNL A   1      38.732  34.205  37.002  1.00  0.00     0.004 C 
ENDBRANCH  15  16
ENDBRANCH   6  15
BRANCH   9  18
ATOM     18  O   UNL A   1      42.064  34.316  30.392  1.00  0.00    -0.406 OA
BRANCH  18  19
ATOM     19  C   UNL A   1      42.695  33.059  30.185  1.00  0.00     0.573 C 
ATOM     20  F   UNL A   1      41.814  32.120  29.773  1.00  0.00    -0.132 F 
ATOM     21  F   UNL A   1      43.691  33.166  29.280  1.00  0.00    -0.132 F 
ATOM     22  F   UNL A   1      43.232  32.643  31.353  1.00  0.00    -0.132 F 
ENDBRANCH  18  19
ENDBRANCH   9  18
BRANCH  14  23
ATOM     23  C   UNL A   1      35.150  34.623  33.870  1.00  0.00     0.430 C 
ATOM     24  F   UNL A   1      34.113  33.762  33.973  1.00  0.00    -0.167 F 
ATOM     25  F   UNL A   1      35.559  34.843  35.150  1.00  0.00    -0.167 F 
ATOM     26  F   UNL A   1      34.701  35.803  33.394  1.00  0.00    -0.167 F 
ENDBRANCH  14  23
ENDBRANCH   3   5
ENDBRANCH   2   3
ENDBRANCH   1   2
BRANCH   1  27
ATOM     27  C   UNL A   1      33.933  33.866  27.760  1.00  0.00     0.275 C 
BRANCH  27  28
ATOM     28  O   UNL A   1      35.104  33.030  27.841  1.00  0.00    -0.458 OA
BRANCH  28  29
ATOM     29  C   UNL A   1      34.850  31.710  28.003  1.00  0.00     0.338 C 
ATOM     30  O   UNL A   1      33.887  31.091  27.578  1.00  0.00    -0.246 OA
BRANCH  29  31
ATOM     31  C   UNL A   1      36.012  31.039  28.616  1.00  0.00     0.060 A 
ATOM     32  C   UNL A   1      37.274  31.480  28.207  1.00  0.00     0.016 A 
ATOM     33  C   UNL A   1      35.903  29.997  29.539  1.00  0.00     0.016 A 
ATOM     34  C   UNL A   1      38.431  30.953  28.772  1.00  0.00     0.010 A 
ATOM     35  C   UNL A   1      37.068  29.415  30.058  1.00  0.00     0.010 A 
ATOM     36  C   UNL A   1      38.336  29.899  29.686  1.00  0.00    -0.014 A 
BRANCH  36  37
ATOM     37  C   UNL A   1      39.574  29.213  30.123  1.00  0.00     0.031 A 
ATOM     38  C   UNL A   1      40.294  29.729  31.335  1.00  0.00     0.074 A 
ATOM     39  C   UNL A   1      40.027  28.118  29.485  1.00  0.00     0.049 A 
ATOM     40  N   UNL A   1      41.415  29.321  31.871  1.00  0.00    -0.248 NA
ATOM     41  C   UNL A   1      39.653  30.847  32.047  1.00  0.00     0.031 C 
ATOM     42  C   UNL A   1      39.364  27.453  28.364  1.00  0.00     0.029 A 
ATOM     43  N   UNL A   1      41.160  27.373  29.699  1.00  0.00    -0.354 N 
ATOM     44  C   UNL A   1      41.616  30.133  32.979  1.00  0.00     0.074 A 
ATOM     45  C   UNL A   1      40.510  31.063  33.034  1.00  0.00     0.031 C 
ATOM     46  C   UNL A   1      40.116  26.409  27.974  1.00  0.00     0.029 A 
ATOM     47  C   UNL A   1      41.330  26.357  28.788  1.00  0.00     0.049 A 
ATOM     48  H   UNL A   1      41.792  27.548  30.433  1.00  0.00     0.167 HD
ATOM     49  C   UNL A   1      42.639  30.114  33.867  1.00  0.00     0.031 A 
ATOM     50  C   UNL A   1      42.362  25.508  28.616  1.00  0.00     0.031 A 
ATOM     51  C   UNL A   1      43.762  29.220  33.787  1.00  0.00     0.049 A 
ATOM     52  C   UNL A   1      43.554  25.597  29.536  1.00  0.00     0.074 A 
ATOM     53  C   UNL A   1      44.864  29.146  34.620  1.00  0.00     0.029 A 
ATOM     54  N   UNL A   1      43.932  28.253  32.809  1.00  0.00    -0.354 N 
ATOM     55  N   UNL A   1      43.743  26.374  30.575  1.00  0.00    -0.248 NA
ATOM     56  C   UNL A   1      44.678  24.688  29.258  1.00  0.00     0.031 C 
ATOM     57  C   UNL A   1      45.732  28.178  34.108  1.00  0.00     0.029 A 
ATOM     58  C   UNL A   1      45.135  27.597  33.000  1.00  0.00     0.049 A 
ATOM     59  H   UNL A   1      43.291  28.062  32.086  1.00  0.00     0.167 HD
ATOM     60  C   UNL A   1      44.982  26.019  31.097  1.00  0.00     0.074 A 
ATOM     61  C   UNL A   1      45.499  24.954  30.263  1.00  0.00     0.031 C 
ATOM     62  C   UNL A   1      45.630  26.526  32.174  1.00  0.00     0.031 A 
BRANCH  49  63
ATOM     63  C   UNL A   1      42.616  31.142  34.962  1.00  0.00    -0.014 A 
ATOM     64  C   UNL A   1      43.160  32.423  34.776  1.00  0.00     0.009 A 
ATOM     65  C   UNL A   1      42.024  30.824  36.194  1.00  0.00     0.009 A 
ATOM     66  C   UNL A   1      43.141  33.353  35.818  1.00  0.00     0.001 A 
ATOM     67  C   UNL A   1      41.981  31.766  37.222  1.00  0.00     0.001 A 
ATOM     68  C   UNL A   1      42.548  33.026  37.037  1.00  0.00     0.000 A 
ENDBRANCH  49  63
BRANCH  50  69
ATOM     69  C   UNL A   1      42.352  24.524  27.498  1.00  0.00    -0.014 A 
ATOM     70  C   UNL A   1      41.735  23.273  27.643  1.00  0.00     0.009 A 
ATOM     71  C   UNL A   1      43.013  24.815  26.292  1.00  0.00     0.009 A 
ATOM     72  C   UNL A   1      41.810  22.322  26.621  1.00  0.00     0.001 A 
ATOM     73  C   UNL A   1      43.057  23.875  25.260  1.00  0.00     0.001 A 
ATOM     74  C   UNL A   1      42.467  22.624  25.431  1.00  0.00     0.000 A 
ENDBRANCH  50  69
BRANCH  62  75
ATOM     75  C   UNL A   1      46.941  25.897  32.565  1.00  0.00    -0.014 A 
ATOM     76  C   UNL A   1      48.154  26.300  31.988  1.00  0.00     0.009 A 
ATOM     77  C   UNL A   1      46.961  24.932  33.585  1.00  0.00     0.009 A 
ATOM     78  C   UNL A   1      49.359  25.730  32.409  1.00  0.00     0.001 A 
ATOM     79  C   UNL A   1      48.168  24.388  34.026  1.00  0.00     0.001 A 
ATOM     80  C   UNL A   1      49.366  24.781  33.431  1.00  0.00     0.000 A 
ENDBRANCH  62  75
ENDBRANCH  36  37
ENDBRANCH  29  31
ENDBRANCH  28  29
ENDBRANCH  27  28
ENDBRANCH   1  27
TORSDOF 16
ENDMDL
MODEL 2
REMARK VINA RESULT:      -8.6      4.983     11.019
REMARK SMILES CCCc1cc(OC(F)(F)F)cc2c1O[C@@H](C(F)(F)F)C(C(=O)OCCOC(=O)c1ccc(-c3c4nc(c(-c5ccccc5)c5ccc([nH]5)c(-c5ccccc5)c5nc(c(-c6ccccc6)c6ccc3[nH]6)C=C5)C=C4)cc1)=C2
REMARK SMILES IDX 25 1 24 2 22 3 23 4 21 5 4 6 5 7 14 8 6 9 13 10 15 11 12 12
REMARK SMILES IDX 78 13 16 14 3 15 2 16 1 17 7 18 8 19 9 20 10 21 11 22 17 23
REMARK SMILES IDX 18 24 19 25 20 26 26 27 27 28 28 29 29 30 30 31 31 32 77 33
REMARK SMILES IDX 32 34 76 35 33 36 34 37 35 38 70 39 36 40 75 41 69 42 71 43
REMARK SMILES IDX 37 44 74 45 68 46 67 47 38 49 60 50 45 51 59 52 46 53 49 54
REMARK SMILES IDX 58 55 72 56 47 57 48 58 57 60 73 61 50 62 39 63 40 64 44 65
REMARK SMILES IDX 41 66 43 67 42 68 61 69 62 70 66 71 63 72 65 73 64 74 51 75
REMARK SMILES IDX 52 76 56 77 53 78 55 79 54 80
REMARK H PARENT 71 48 49 59
REMARK Flexibility Score: inf
ROOT
ATOM      1  C   UNL A   1      42.203  20.119  27.173  1.00  0.00     0.275 C 
ENDROOT
BRANCH   1   2
ATOM      2  O   UNL A   1      43.152  20.470  26.143  1.00  0.00    -0.459 OA
BRANCH   2   3
ATOM      3  C   UNL A   1      43.130  21.765  25.734  1.00  0.00     0.338 C 
ATOM      4  O   UNL A   1      42.395  22.216  24.879  1.00  0.00    -0.246 OA
BRANCH   3   5
ATOM      5  C   UNL A   1      44.078  22.608  26.503  1.00  0.00     0.087 C 
ATOM      6  C   UNL A   1      46.925  24.973  28.447  1.00  0.00    -0.002 A 
ATOM      7  C   UNL A   1      46.645  25.499  29.715  1.00  0.00     0.054 A 
ATOM      8  C   UNL A   1      46.003  24.095  27.864  1.00  0.00     0.131 A 
ATOM      9  C   UNL A   1      45.473  25.145  30.388  1.00  0.00     0.130 A 
ATOM     10  C   UNL A   1      44.781  23.804  28.477  1.00  0.00     0.021 A 
ATOM     11  O   UNL A   1      46.389  23.451  26.722  1.00  0.00    -0.475 OA
ATOM     12  C   UNL A   1      44.525  24.332  29.747  1.00  0.00     0.058 A 
ATOM     13  C   UNL A   1      43.827  22.932  27.786  1.00  0.00     0.027 C 
ATOM     14  C   UNL A   1      45.323  23.119  25.800  1.00  0.00     0.316 C 
BRANCH   6  15
ATOM     15  C   UNL A   1      48.208  25.351  27.742  1.00  0.00     0.039 C 
BRANCH  15  16
ATOM     16  C   UNL A   1      47.994  26.105  26.428  1.00  0.00     0.001 C 
ATOM     17  C   UNL A   1      49.158  25.966  25.457  1.00  0.00     0.004 C 
ENDBRANCH  15  16
ENDBRANCH   6  15
BRANCH   9  18
ATOM     18  O   UNL A   1      45.143  25.532  31.657  1.00  0.00    -0.406 OA
BRANCH  18  19
ATOM     19  C   UNL A   1      44.425  26.752  31.790  1.00  0.00     0.573 C 
ATOM     20  F   UNL A   1      44.052  26.975  33.069  1.00  0.00    -0.132 F 
ATOM     21  F   UNL A   1      45.164  27.794  31.351  1.00  0.00    -0.132 F 
ATOM     22  F   UNL A   1      43.307  26.684  31.035  1.00  0.00    -0.132 F 
ENDBRANCH  18  19
ENDBRANCH   9  18
BRANCH  14  23
ATOM     23  C   UNL A   1      45.960  22.278  24.676  1.00  0.00     0.430 C 
ATOM     24  F   UNL A   1      47.118  22.811  24.228  1.00  0.00    -0.167 F 
ATOM     25  F   UNL A   1      46.296  21.046  25.153  1.00  0.00    -0.167 F 
ATOM     26  F   UNL A   1      45.129  22.080  23.632  1.00  0.00    -0.167 F 
ENDBRANCH  14  23
ENDBRANCH   3   5
ENDBRANCH   2   3
ENDBRANCH   1   2
BRANCH   1  27
ATOM     27  C   UNL A   1      40.762  20.440  26.760  1.00  0.00     0.275 C 
BRANCH  27  28
ATOM     28  O   UNL A   1      40.255  21.604  27.442  1.00  0.00    -0.458 OA
BRANCH  28  29
ATOM     29  C   UNL A   1      39.615  22.494  26.649  1.00  0.00     0.338 C 
ATOM     30  O   UNL A   1      38.689  22.264  25.887  1.00  0.00    -0.246 OA
BRANCH  29  31
ATOM     31  C   UNL A   1      40.056  23.867  26.963  1.00  0.00     0.060 A 
ATOM     32  C   UNL A   1      40.349  24.136  28.303  1.00  0.00     0.016 A 
ATOM     33  C   UNL A   1      40.163  24.880  26.009  1.00  0.00     0.016 A 
ATOM     34  C   UNL A   1      40.832  25.382  28.691  1.00  0.00     0.010 A 
ATOM     35  C   UNL A   1      40.582  26.157  26.409  1.00  0.00     0.010 A 
ATOM     36  C   UNL A   1      40.930  26.410  27.749  1.00  0.00    -0.014 A 
BRANCH  36  37
ATOM     37  C   UNL A   1      41.248  27.781  28.210  1.00  0.00     0.031 A 
ATOM     38  C   UNL A   1      42.686  28.212  28.251  1.00  0.00     0.074 A 
ATOM     39  C   UNL A   1      40.275  28.649  28.542  1.00  0.00     0.049 A 
ATOM     40  N   UNL A   1      43.203  29.340  28.662  1.00  0.00    -0.248 NA
ATOM     41  C   UNL A   1      43.671  27.243  27.744  1.00  0.00     0.031 C 
ATOM     42  C   UNL A   1      38.839  28.391  28.443  1.00  0.00     0.029 A 
ATOM     43  N   UNL A   1      40.357  29.929  29.030  1.00  0.00    -0.354 N 
ATOM     44  C   UNL A   1      44.572  29.216  28.468  1.00  0.00     0.074 A 
ATOM     45  C   UNL A   1      44.807  27.902  27.912  1.00  0.00     0.031 C 
ATOM     46  C   UNL A   1      38.173  29.476  28.880  1.00  0.00     0.029 A 
ATOM     47  C   UNL A   1      39.134  30.484  29.326  1.00  0.00     0.049 A 
ATOM     48  H   UNL A   1      41.209  30.405  29.156  1.00  0.00     0.167 HD
ATOM     49  C   UNL A   1      45.549  30.115  28.739  1.00  0.00     0.031 A 
ATOM     50  C   UNL A   1      38.833  31.657  29.918  1.00  0.00     0.031 A 
ATOM     51  C   UNL A   1      45.320  31.404  29.332  1.00  0.00     0.049 A 
ATOM     52  C   UNL A   1      39.949  32.583  30.336  1.00  0.00     0.074 A 
ATOM     53  C   UNL A   1      46.248  32.370  29.676  1.00  0.00     0.029 A 
ATOM     54  N   UNL A   1      44.075  31.900  29.683  1.00  0.00    -0.354 N 
ATOM     55  N   UNL A   1      41.242  32.455  30.159  1.00  0.00    -0.248 NA
ATOM     56  C   UNL A   1      39.561  33.817  31.036  1.00  0.00     0.031 C 
ATOM     57  C   UNL A   1      45.570  33.424  30.294  1.00  0.00     0.029 A 
ATOM     58  C   UNL A   1      44.213  33.147  30.266  1.00  0.00     0.049 A 
ATOM     59  H   UNL A   1      43.219  31.434  29.539  1.00  0.00     0.167 HD
ATOM     60  C   UNL A   1      41.815  33.608  30.685  1.00  0.00     0.074 A 
ATOM     61  C   UNL A   1      40.729  34.425  31.185  1.00  0.00     0.031 C 
ATOM     62  C   UNL A   1      43.123  33.959  30.743  1.00  0.00     0.031 A 
BRANCH  49  63
ATOM     63  C   UNL A   1      46.963  29.696  28.454  1.00  0.00    -0.014 A 
ATOM     64  C   UNL A   1      47.574  29.966  27.220  1.00  0.00     0.009 A 
ATOM     65  C   UNL A   1      47.699  29.033  29.449  1.00  0.00     0.009 A 
ATOM     66  C   UNL A   1      48.884  29.549  26.977  1.00  0.00     0.001 A 
ATOM     67  C   UNL A   1      49.018  28.644  29.212  1.00  0.00     0.001 A 
ATOM     68  C   UNL A   1      49.606  28.893  27.973  1.00  0.00     0.000 A 
ENDBRANCH  49  63
BRANCH  50  69
ATOM     69  C   UNL A   1      37.417  32.016  30.205  1.00  0.00    -0.014 A 
ATOM     70  C   UNL A   1      36.801  31.626  31.404  1.00  0.00     0.009 A 
ATOM     71  C   UNL A   1      36.653  32.705  29.248  1.00  0.00     0.009 A 
ATOM     72  C   UNL A   1      35.446  31.887  31.624  1.00  0.00     0.001 A 
ATOM     73  C   UNL A   1      35.308  32.994  29.485  1.00  0.00     0.001 A 
ATOM     74  C   UNL A   1      34.702  32.573  30.666  1.00  0.00     0.000 A 
ENDBRANCH  50  69
BRANCH  62  75
ATOM     75  C   UNL A   1      43.460  35.314  31.305  1.00  0.00    -0.014 A 
ATOM     76  C   UNL A   1      43.659  35.515  32.679  1.00  0.00     0.009 A 
ATOM     77  C   UNL A   1      43.655  36.392  30.426  1.00  0.00     0.009 A 
ATOM     78  C   UNL A   1      44.020  36.775  33.163  1.00  0.00     0.001 A 
ATOM     79  C   UNL A   1      44.046  37.641  30.908  1.00  0.00     0.001 A 
ATOM     80  C   UNL A   1      44.221  37.835  32.277  1.00  0.00     0.000 A 
ENDBRANCH  62  75
ENDBRANCH  36  37
ENDBRANCH  29  31
ENDBRANCH  28  29
ENDBRANCH  27  28
ENDBRANCH   1  27
TORSDOF 16
ENDMDL
MODEL 3
REMARK VINA RESULT:      -8.5      5.593     10.642
REMARK SMILES CCCc1cc(OC(F)(F)F)cc2c1O[C@@H](C(F)(F)F)C(C(=O)OCCOC(=O)c1ccc(-c3c4nc(c(-c5ccccc5)c5ccc([nH]5)c(-c5ccccc5)c5nc(c(-c6ccccc6)c6ccc3[nH]6)C=C5)C=C4)cc1)=C2
REMARK SMILES IDX 25 1 24 2 22 3 23 4 21 5 4 6 5 7 14 8 6 9 13 10 15 11 12 12
REMARK SMILES IDX 78 13 16 14 3 15 2 16 1 17 7 18 8 19 9 20 10 21 11 22 17 23
REMARK SMILES IDX 18 24 19 25 20 26 26 27 27 28 28 29 29 30 30 31 31 32 77 33
REMARK SMILES IDX 32 34 76 35 33 36 34 37 35 38 70 39 36 40 75 41 69 42 71 43
REMARK SMILES IDX 37 44 74 45 68 46 67 47 38 49 60 50 45 51 59 52 46 53 49 54
REMARK SMILES IDX 58 55 72 56 47 57 48 58 57 60 73 61 50 62 39 63 40 64 44 65
REMARK SMILES IDX 41 66 43 67 42 68 61 69 62 70 66 71 63 72 65 73 64 74 51 75
REMARK SMILES IDX 52 76 56 77 53 78 55 79 54 80
REMARK H PARENT 71 48 49 59
REMARK Flexibility Score: inf
ROOT
ATOM      1  C   UNL A   1      36.783  21.188  24.768  1.00  0.00     0.275 C 
ENDROOT
BRANCH   1   2
ATOM      2  O   UNL A   1      35.469  21.710  24.471  1.00  0.00    -0.459 OA
BRANCH   2   3
ATOM      3  C   UNL A   1      35.440  22.868  23.761  1.00  0.00     0.338 C 
ATOM      4  O   UNL A   1      36.132  23.114  22.794  1.00  0.00    -0.246 OA
BRANCH   3   5
ATOM      5  C   UNL A   1      34.404  23.803  24.264  1.00  0.00     0.087 C 
ATOM      6  C   UNL A   1      31.287  26.271  25.558  1.00  0.00    -0.002 A 
ATOM      7  C   UNL A   1      31.567  27.380  26.368  1.00  0.00     0.054 A 
ATOM      8  C   UNL A   1      32.355  25.524  25.047  1.00  0.00     0.131 A 
ATOM      9  C   UNL A   1      32.888  27.738  26.649  1.00  0.00     0.130 A 
ATOM     10  C   UNL A   1      33.679  25.808  25.395  1.00  0.00     0.021 A 
ATOM     11  O   UNL A   1      32.062  24.573  24.111  1.00  0.00    -0.475 OA
ATOM     12  C   UNL A   1      33.938  26.924  26.197  1.00  0.00     0.058 A 
ATOM     13  C   UNL A   1      34.750  24.948  24.883  1.00  0.00     0.027 C 
ATOM     14  C   UNL A   1      32.943  23.425  24.087  1.00  0.00     0.316 C 
BRANCH   6  15
ATOM     15  C   UNL A   1      29.852  25.910  25.246  1.00  0.00     0.039 C 
BRANCH  15  16
ATOM     16  C   UNL A   1      29.362  26.432  23.895  1.00  0.00     0.001 C 
ATOM     17  C   UNL A   1      27.889  26.817  23.896  1.00  0.00     0.004 C 
ENDBRANCH  15  16
ENDBRANCH   6  15
BRANCH   9  18
ATOM     18  O   UNL A   1      33.272  28.844  27.355  1.00  0.00    -0.406 OA
BRANCH  18  19
ATOM     19  C   UNL A   1      33.131  30.102  26.706  1.00  0.00     0.573 C 
ATOM     20  F   UNL A   1      33.173  29.977  25.362  1.00  0.00    -0.132 F 
ATOM     21  F   UNL A   1      31.974  30.699  27.065  1.00  0.00    -0.132 F 
ATOM     22  F   UNL A   1      34.151  30.904  27.083  1.00  0.00    -0.132 F 
ENDBRANCH  18  19
ENDBRANCH   9  18
BRANCH  14  23
ATOM     23  C   UNL A   1      32.522  22.572  22.875  1.00  0.00     0.430 C 
ATOM     24  F   UNL A   1      32.777  21.256  23.058  1.00  0.00    -0.167 F 
ATOM     25  F   UNL A   1      31.174  22.651  22.697  1.00  0.00    -0.167 F 
ATOM     26  F   UNL A   1      33.093  22.978  21.722  1.00  0.00    -0.167 F 
ENDBRANCH  14  23
ENDBRANCH   3   5
ENDBRANCH   2   3
ENDBRANCH   1   2
BRANCH   1  27
ATOM     27  C   UNL A   1      37.437  21.914  25.950  1.00  0.00     0.275 C 
BRANCH  27  28
ATOM     28  O   UNL A   1      38.403  22.889  25.512  1.00  0.00    -0.458 OA
BRANCH  28  29
ATOM     29  C   UNL A   1      39.546  22.922  26.237  1.00  0.00     0.338 C 
ATOM     30  O   UNL A   1      40.450  22.102  26.217  1.00  0.00    -0.246 OA
BRANCH  29  31
ATOM     31  C   UNL A   1      39.666  24.214  26.941  1.00  0.00     0.060 A 
ATOM     32  C   UNL A   1      40.388  25.215  26.286  1.00  0.00     0.016 A 
ATOM     33  C   UNL A   1      39.126  24.456  28.205  1.00  0.00     0.016 A 
ATOM     34  C   UNL A   1      40.505  26.487  26.839  1.00  0.00     0.010 A 
ATOM     35  C   UNL A   1      39.303  25.715  28.796  1.00  0.00     0.010 A 
ATOM     36  C   UNL A   1      39.981  26.739  28.110  1.00  0.00    -0.014 A 
BRANCH  36  37
ATOM     37  C   UNL A   1      40.288  28.028  28.772  1.00  0.00     0.031 A 
ATOM     38  C   UNL A   1      41.639  28.212  29.401  1.00  0.00     0.074 A 
ATOM     39  C   UNL A   1      39.401  29.041  28.772  1.00  0.00     0.049 A 
ATOM     40  N   UNL A   1      42.111  29.229  30.073  1.00  0.00    -0.248 NA
ATOM     41  C   UNL A   1      42.591  27.101  29.236  1.00  0.00     0.031 C 
ATOM     42  C   UNL A   1      38.100  29.029  28.105  1.00  0.00     0.029 A 
ATOM     43  N   UNL A   1      39.471  30.280  29.359  1.00  0.00    -0.354 N 
ATOM     44  C   UNL A   1      43.411  28.882  30.414  1.00  0.00     0.074 A 
ATOM     45  C   UNL A   1      43.651  27.558  29.885  1.00  0.00     0.031 C 
ATOM     46  C   UNL A   1      37.483  30.202  28.339  1.00  0.00     0.029 A 
ATOM     47  C   UNL A   1      38.326  31.026  29.205  1.00  0.00     0.049 A 
ATOM     48  H   UNL A   1      40.263  30.604  29.844  1.00  0.00     0.167 HD
ATOM     49  C   UNL A   1      44.321  29.599  31.115  1.00  0.00     0.031 A 
ATOM     50  C   UNL A   1      37.991  32.221  29.730  1.00  0.00     0.031 A 
ATOM     51  C   UNL A   1      44.067  30.896  31.679  1.00  0.00     0.049 A 
ATOM     52  C   UNL A   1      38.973  32.939  30.622  1.00  0.00     0.074 A 
ATOM     53  C   UNL A   1      44.915  31.687  32.435  1.00  0.00     0.029 A 
ATOM     54  N   UNL A   1      42.872  31.587  31.561  1.00  0.00    -0.354 N 
ATOM     55  N   UNL A   1      40.197  32.600  30.949  1.00  0.00    -0.248 NA
ATOM     56  C   UNL A   1      38.525  34.207  31.218  1.00  0.00     0.031 C 
ATOM     57  C   UNL A   1      44.210  32.828  32.828  1.00  0.00     0.029 A 
ATOM     58  C   UNL A   1      42.950  32.782  32.255  1.00  0.00     0.049 A 
ATOM     59  H   UNL A   1      42.085  31.274  31.059  1.00  0.00     0.167 HD
ATOM     60  C   UNL A   1      40.677  33.630  31.750  1.00  0.00     0.074 A 
ATOM     61  C   UNL A   1      39.615  34.608  31.857  1.00  0.00     0.031 C 
ATOM     62  C   UNL A   1      41.891  33.756  32.339  1.00  0.00     0.031 A 
BRANCH  49  63
ATOM     63  C   UNL A   1      45.654  28.955  31.366  1.00  0.00    -0.014 A 
ATOM     64  C   UNL A   1      45.878  28.145  32.491  1.00  0.00     0.009 A 
ATOM     65  C   UNL A   1      46.699  29.151  30.449  1.00  0.00     0.009 A 
ATOM     66  C   UNL A   1      47.133  27.573  32.708  1.00  0.00     0.001 A 
ATOM     67  C   UNL A   1      47.943  28.554  30.655  1.00  0.00     0.001 A 
ATOM     68  C   UNL A   1      48.162  27.774  31.790  1.00  0.00     0.000 A 
ENDBRANCH  49  63
BRANCH  50  69
ATOM     69  C   UNL A   1      36.645  32.806  29.475  1.00  0.00    -0.014 A 
ATOM     70  C   UNL A   1      35.602  32.648  30.400  1.00  0.00     0.009 A 
ATOM     71  C   UNL A   1      36.383  33.481  28.271  1.00  0.00     0.009 A 
ATOM     72  C   UNL A   1      34.319  33.121  30.110  1.00  0.00     0.001 A 
ATOM     73  C   UNL A   1      35.108  33.983  28.000  1.00  0.00     0.001 A 
ATOM     74  C   UNL A   1      34.074  33.790  28.913  1.00  0.00     0.000 A 
ENDBRANCH  50  69
BRANCH  62  75
ATOM     75  C   UNL A   1      42.174  35.024  33.099  1.00  0.00    -0.014 A 
ATOM     76  C   UNL A   1      41.573  35.293  34.337  1.00  0.00     0.009 A 
ATOM     77  C   UNL A   1      43.119  35.931  32.592  1.00  0.00     0.009 A 
ATOM     78  C   UNL A   1      41.895  36.457  35.040  1.00  0.00     0.001 A 
ATOM     79  C   UNL A   1      43.463  37.077  33.310  1.00  0.00     0.001 A 
ATOM     80  C   UNL A   1      42.844  37.343  34.530  1.00  0.00     0.000 A 
ENDBRANCH  62  75
ENDBRANCH  36  37
ENDBRANCH  29  31
ENDBRANCH  28  29
ENDBRANCH  27  28
ENDBRANCH   1  27
TORSDOF 16
ENDMDL
