MODEL 1
REMARK VINA RESULT:     -11.9      0.000      0.000
REMARK SMILES CCc1ccc(S(=O)(=O)N2CCC3(CC2)NC(=O)C[C@H]3C(=O)OCCOC(=O)c2ccc(-c3c4nc(c(-c5ccccc5)c5ccc([nH]5)c(-c5ccccc5)c5nc(c(-c6ccccc6)c6ccc3[nH]6)C=C5)C=C4)cc2)s1
REMARK SMILES IDX 24 1 23 2 21 3 22 4 20 5 10 6 11 7 15 8 12 9 14 10 13 11
REMARK SMILES IDX 16 12 17 13 19 15 18 16 7 17 8 18 9 19 6 20 3 21 4 22 77 23
REMARK SMILES IDX 5 24 2 25 1 26 25 27 26 28 27 29 28 30 29 31 30 32 76 33
REMARK SMILES IDX 31 34 75 35 32 36 33 37 34 38 69 39 35 40 74 41 68 42 70 43
REMARK SMILES IDX 36 44 73 45 67 46 66 47 37 49 59 50 44 51 58 52 45 53 48 54
REMARK SMILES IDX 57 55 71 56 46 57 47 58 56 60 72 61 49 62 38 63 39 64 43 65
REMARK SMILES IDX 40 66 42 67 41 68 60 69 61 70 65 71 62 72 64 73 63 74 50 75
REMARK SMILES IDX 51 76 55 77 52 78 54 79 53 80
REMARK H PARENT 16 14 70 48 48 59
REMARK Flexibility Score: inf
ROOT
ATOM      1  C   UNL A   1      31.156  29.136  24.982  1.00  0.00     0.274 C 
ENDROOT
BRANCH   1   2
ATOM      2  O   UNL A   1      31.080  29.295  23.548  1.00  0.00    -0.462 OA
BRANCH   2   3
ATOM      3  C   UNL A   1      31.171  28.149  22.845  1.00  0.00     0.311 C 
ATOM      4  O   UNL A   1      30.414  27.848  21.924  1.00  0.00    -0.252 OA
BRANCH   3   5
ATOM      5  C   UNL A   1      32.284  27.201  23.246  1.00  0.00     0.134 C 
ATOM      6  N   UNL A   1      31.882  24.515  26.407  1.00  0.00    -0.197 NA
ATOM      7  C   UNL A   1      33.173  25.117  26.112  1.00  0.00     0.105 C 
ATOM      8  C   UNL A   1      30.748  25.279  25.898  1.00  0.00     0.105 C 
ATOM      9  C   UNL A   1      33.372  25.392  24.622  1.00  0.00     0.046 C 
ATOM     10  C   UNL A   1      30.781  25.287  24.383  1.00  0.00     0.046 C 
ATOM     11  C   UNL A   1      32.111  25.738  23.740  1.00  0.00     0.056 C 
ATOM     12  N   UNL A   1      32.245  25.026  22.469  1.00  0.00    -0.350 N 
ATOM     13  C   UNL A   1      32.890  25.730  21.483  1.00  0.00     0.221 C 
ATOM     14  H   UNL A   1      31.900  24.114  22.331  1.00  0.00     0.164 HD
ATOM     15  C   UNL A   1      33.214  27.091  22.019  1.00  0.00     0.117 C 
ATOM     16  O   UNL A   1      33.184  25.292  20.388  1.00  0.00    -0.275 OA
BRANCH   6  17
ATOM     17  S   UNL A   1      31.720  22.881  26.806  1.00  0.00     0.252 S 
ATOM     18  O   UNL A   1      30.408  22.446  26.371  1.00  0.00    -0.206 OA
ATOM     19  O   UNL A   1      32.166  22.708  28.170  1.00  0.00    -0.206 OA
BRANCH  17  20
ATOM     20  C   UNL A   1      32.913  21.965  25.841  1.00  0.00     0.135 A 
ATOM     21  C   UNL A   1      35.014  20.865  25.124  1.00  0.00     0.006 A 
ATOM     22  C   UNL A   1      33.992  20.679  24.218  1.00  0.00     0.017 A 
ATOM     23  S   UNL A   1      34.494  21.792  26.470  1.00  0.00    -0.127 S 
ATOM     24  C   UNL A   1      32.816  21.374  24.598  1.00  0.00     0.034 A 
BRANCH  21  25
ATOM     25  C   UNL A   1      36.434  20.402  25.002  1.00  0.00     0.043 C 
ATOM     26  C   UNL A   1      37.427  21.536  25.214  1.00  0.00     0.010 C 
ENDBRANCH  21  25
ENDBRANCH  17  20
ENDBRANCH   6  17
ENDBRANCH   3   5
ENDBRANCH   2   3
ENDBRANCH   1   2
BRANCH   1  27
ATOM     27  C   UNL A   1      31.604  30.433  25.662  1.00  0.00     0.275 C 
BRANCH  27  28
ATOM     28  O   UNL A   1      32.956  30.317  26.157  1.00  0.00    -0.458 OA
BRANCH  28  29
ATOM     29  C   UNL A   1      33.338  31.296  27.008  1.00  0.00     0.338 C 
ATOM     30  O   UNL A   1      32.724  32.316  27.274  1.00  0.00    -0.246 OA
BRANCH  29  31
ATOM     31  C   UNL A   1      34.608  30.972  27.682  1.00  0.00     0.060 A 
ATOM     32  C   UNL A   1      35.523  31.977  27.987  1.00  0.00     0.016 A 
ATOM     33  C   UNL A   1      34.966  29.635  27.855  1.00  0.00     0.016 A 
ATOM     34  C   UNL A   1      36.815  31.658  28.399  1.00  0.00     0.010 A 
ATOM     35  C   UNL A   1      36.218  29.317  28.392  1.00  0.00     0.010 A 
ATOM     36  C   UNL A   1      37.153  30.326  28.676  1.00  0.00    -0.014 A 
BRANCH  36  37
ATOM     37  C   UNL A   1      38.398  30.012  29.428  1.00  0.00     0.031 A 
ATOM     38  C   UNL A   1      39.473  29.136  28.855  1.00  0.00     0.074 A 
ATOM     39  C   UNL A   1      38.509  30.478  30.690  1.00  0.00     0.049 A 
ATOM     40  N   UNL A   1      40.513  28.614  29.457  1.00  0.00    -0.248 NA
ATOM     41  C   UNL A   1      39.372  28.796  27.428  1.00  0.00     0.031 C 
ATOM     42  C   UNL A   1      37.543  31.356  31.358  1.00  0.00     0.029 A 
ATOM     43  N   UNL A   1      39.473  30.268  31.643  1.00  0.00    -0.354 N 
ATOM     44  C   UNL A   1      41.174  27.859  28.496  1.00  0.00     0.074 A 
ATOM     45  C   UNL A   1      40.416  27.991  27.268  1.00  0.00     0.031 C 
ATOM     46  C   UNL A   1      37.972  31.627  32.597  1.00  0.00     0.029 A 
ATOM     47  C   UNL A   1      39.183  30.862  32.848  1.00  0.00     0.049 A 
ATOM     48  H   UNL A   1      40.291  29.744  31.481  1.00  0.00     0.167 HD
ATOM     49  C   UNL A   1      42.300  27.117  28.635  1.00  0.00     0.031 A 
ATOM     50  C   UNL A   1      39.776  30.757  34.050  1.00  0.00     0.031 A 
ATOM     51  C   UNL A   1      43.040  26.985  29.867  1.00  0.00     0.049 A 
ATOM     52  C   UNL A   1      40.962  29.858  34.196  1.00  0.00     0.074 A 
ATOM     53  C   UNL A   1      44.206  26.275  30.101  1.00  0.00     0.029 A 
ATOM     54  N   UNL A   1      42.681  27.567  31.073  1.00  0.00    -0.354 N 
ATOM     55  N   UNL A   1      41.571  29.145  33.281  1.00  0.00    -0.248 NA
ATOM     56  C   UNL A   1      41.532  29.734  35.544  1.00  0.00     0.031 C 
ATOM     57  C   UNL A   1      44.520  26.379  31.460  1.00  0.00     0.029 A 
ATOM     58  C   UNL A   1      43.582  27.202  32.062  1.00  0.00     0.049 A 
ATOM     59  H   UNL A   1      41.903  28.154  31.207  1.00  0.00     0.167 HD
ATOM     60  C   UNL A   1      42.601  28.491  33.938  1.00  0.00     0.074 A 
ATOM     61  C   UNL A   1      42.549  28.915  35.325  1.00  0.00     0.031 C 
ATOM     62  C   UNL A   1      43.504  27.613  33.440  1.00  0.00     0.031 A 
BRANCH  49  63
ATOM     63  C   UNL A   1      42.785  26.343  27.439  1.00  0.00    -0.014 A 
ATOM     64  C   UNL A   1      42.294  25.061  27.144  1.00  0.00     0.009 A 
ATOM     65  C   UNL A   1      43.701  26.937  26.554  1.00  0.00     0.009 A 
ATOM     66  C   UNL A   1      42.731  24.382  26.002  1.00  0.00     0.001 A 
ATOM     67  C   UNL A   1      44.116  26.266  25.402  1.00  0.00     0.001 A 
ATOM     68  C   UNL A   1      43.636  24.986  25.131  1.00  0.00     0.000 A 
ENDBRANCH  49  63
BRANCH  50  69
ATOM     69  C   UNL A   1      39.202  31.475  35.217  1.00  0.00    -0.014 A 
ATOM     70  C   UNL A   1      38.286  30.839  36.065  1.00  0.00     0.009 A 
ATOM     71  C   UNL A   1      39.596  32.793  35.506  1.00  0.00     0.009 A 
ATOM     72  C   UNL A   1      37.767  31.512  37.173  1.00  0.00     0.001 A 
ATOM     73  C   UNL A   1      39.102  33.450  36.633  1.00  0.00     0.001 A 
ATOM     74  C   UNL A   1      38.182  32.812  37.461  1.00  0.00     0.000 A 
ENDBRANCH  50  69
BRANCH  62  75
ATOM     75  C   UNL A   1      44.516  27.069  34.406  1.00  0.00    -0.014 A 
ATOM     76  C   UNL A   1      44.274  25.882  35.115  1.00  0.00     0.009 A 
ATOM     77  C   UNL A   1      45.727  27.749  34.606  1.00  0.00     0.009 A 
ATOM     78  C   UNL A   1      45.212  25.405  36.031  1.00  0.00     0.001 A 
ATOM     79  C   UNL A   1      46.675  27.255  35.502  1.00  0.00     0.001 A 
ATOM     80  C   UNL A   1      46.413  26.089  36.221  1.00  0.00     0.000 A 
ENDBRANCH  62  75
ENDBRANCH  36  37
ENDBRANCH  29  31
ENDBRANCH  28  29
ENDBRANCH  27  28
ENDBRANCH   1  27
TORSDOF 14
ENDMDL
MODEL 2
REMARK VINA RESULT:     -11.7      5.060      9.563
REMARK SMILES CCc1ccc(S(=O)(=O)N2CCC3(CC2)NC(=O)C[C@H]3C(=O)OCCOC(=O)c2ccc(-c3c4nc(c(-c5ccccc5)c5ccc([nH]5)c(-c5ccccc5)c5nc(c(-c6ccccc6)c6ccc3[nH]6)C=C5)C=C4)cc2)s1
REMARK SMILES IDX 24 1 23 2 21 3 22 4 20 5 10 6 11 7 15 8 12 9 14 10 13 11
REMARK SMILES IDX 16 12 17 13 19 15 18 16 7 17 8 18 9 19 6 20 3 21 4 22 77 23
REMARK SMILES IDX 5 24 2 25 1 26 25 27 26 28 27 29 28 30 29 31 30 32 76 33
REMARK SMILES IDX 31 34 75 35 32 36 33 37 34 38 69 39 35 40 74 41 68 42 70 43
REMARK SMILES IDX 36 44 73 45 67 46 66 47 37 49 59 50 44 51 58 52 45 53 48 54
REMARK SMILES IDX 57 55 71 56 46 57 47 58 56 60 72 61 49 62 38 63 39 64 43 65
REMARK SMILES IDX 40 66 42 67 41 68 60 69 61 70 65 71 62 72 64 73 63 74 50 75
REMARK SMILES IDX 51 76 55 77 52 78 54 79 53 80
REMARK H PARENT 16 14 70 48 48 59
REMARK Flexibility Score: inf
ROOT
ATOM      1  C   UNL A   1      34.490  34.346  28.079  1.00  0.00     0.274 C 
ENDROOT
BRANCH   1   2
ATOM      2  O   UNL A   1      33.351  34.349  28.968  1.00  0.00    -0.462 OA
BRANCH   2   3
ATOM      3  C   UNL A   1      33.206  35.472  29.699  1.00  0.00     0.311 C 
ATOM      4  O   UNL A   1      33.045  36.590  29.214  1.00  0.00    -0.252 OA
BRANCH   3   5
ATOM      5  C   UNL A   1      33.251  35.303  31.205  1.00  0.00     0.134 C 
ATOM      6  N   UNL A   1      35.956  32.741  33.072  1.00  0.00    -0.197 NA
ATOM      7  C   UNL A   1      34.629  32.944  33.632  1.00  0.00     0.105 C 
ATOM      8  C   UNL A   1      36.048  33.052  31.650  1.00  0.00     0.105 C 
ATOM      9  C   UNL A   1      34.091  34.353  33.383  1.00  0.00     0.046 C 
ATOM     10  C   UNL A   1      35.814  34.534  31.439  1.00  0.00     0.046 C 
ATOM     11  C   UNL A   1      34.527  35.110  32.070  1.00  0.00     0.056 C 
ATOM     12  N   UNL A   1      34.801  36.503  32.427  1.00  0.00    -0.350 N 
ATOM     13  C   UNL A   1      33.721  37.344  32.325  1.00  0.00     0.221 C 
ATOM     14  H   UNL A   1      35.690  36.812  32.717  1.00  0.00     0.164 HD
ATOM     15  C   UNL A   1      32.564  36.553  31.796  1.00  0.00     0.117 C 
ATOM     16  O   UNL A   1      33.710  38.513  32.657  1.00  0.00    -0.275 OA
BRANCH   6  17
ATOM     17  S   UNL A   1      37.341  32.676  34.038  1.00  0.00     0.252 S 
ATOM     18  O   UNL A   1      36.914  32.609  35.421  1.00  0.00    -0.206 OA
ATOM     19  O   UNL A   1      38.258  33.692  33.573  1.00  0.00    -0.206 OA
BRANCH  17  20
ATOM     20  C   UNL A   1      38.180  31.139  33.682  1.00  0.00     0.135 A 
ATOM     21  C   UNL A   1      39.906  29.363  33.603  1.00  0.00     0.006 A 
ATOM     22  C   UNL A   1      38.738  28.984  32.977  1.00  0.00     0.017 A 
ATOM     23  S   UNL A   1      39.783  30.947  34.250  1.00  0.00    -0.127 S 
ATOM     24  C   UNL A   1      37.783  30.031  32.961  1.00  0.00     0.034 A 
BRANCH  21  25
ATOM     25  C   UNL A   1      41.182  28.581  33.702  1.00  0.00     0.043 C 
ATOM     26  C   UNL A   1      42.355  29.451  34.130  1.00  0.00     0.010 C 
ENDBRANCH  21  25
ENDBRANCH  17  20
ENDBRANCH   6  17
ENDBRANCH   3   5
ENDBRANCH   2   3
ENDBRANCH   1   2
BRANCH   1  27
ATOM     27  C   UNL A   1      35.261  33.026  28.168  1.00  0.00     0.275 C 
BRANCH  27  28
ATOM     28  O   UNL A   1      34.733  32.055  27.239  1.00  0.00    -0.458 OA
BRANCH  28  29
ATOM     29  C   UNL A   1      34.692  30.785  27.703  1.00  0.00     0.338 C 
ATOM     30  O   UNL A   1      33.714  30.058  27.760  1.00  0.00    -0.246 OA
BRANCH  29  31
ATOM     31  C   UNL A   1      36.027  30.301  28.094  1.00  0.00     0.060 A 
ATOM     32  C   UNL A   1      37.084  30.332  27.186  1.00  0.00     0.016 A 
ATOM     33  C   UNL A   1      36.186  29.652  29.318  1.00  0.00     0.016 A 
ATOM     34  C   UNL A   1      38.275  29.663  27.462  1.00  0.00     0.010 A 
ATOM     35  C   UNL A   1      37.425  29.092  29.650  1.00  0.00     0.010 A 
ATOM     36  C   UNL A   1      38.484  29.098  28.728  1.00  0.00    -0.014 A 
BRANCH  36  37
ATOM     37  C   UNL A   1      39.851  28.687  29.145  1.00  0.00     0.031 A 
ATOM     38  C   UNL A   1      40.799  29.641  29.815  1.00  0.00     0.074 A 
ATOM     39  C   UNL A   1      40.258  27.438  28.838  1.00  0.00     0.049 A 
ATOM     40  N   UNL A   1      42.077  29.491  30.055  1.00  0.00    -0.248 NA
ATOM     41  C   UNL A   1      40.247  30.926  30.268  1.00  0.00     0.031 C 
ATOM     42  C   UNL A   1      39.428  26.407  28.205  1.00  0.00     0.029 A 
ATOM     43  N   UNL A   1      41.474  26.824  28.999  1.00  0.00    -0.354 N 
ATOM     44  C   UNL A   1      42.494  30.671  30.659  1.00  0.00     0.074 A 
ATOM     45  C   UNL A   1      41.329  31.529  30.748  1.00  0.00     0.031 C 
ATOM     46  C   UNL A   1      40.148  25.288  28.054  1.00  0.00     0.029 A 
ATOM     47  C   UNL A   1      41.513  25.552  28.478  1.00  0.00     0.049 A 
ATOM     48  H   UNL A   1      42.243  27.251  29.441  1.00  0.00     0.167 HD
ATOM     49  C   UNL A   1      43.737  31.007  31.084  1.00  0.00     0.031 A 
ATOM     50  C   UNL A   1      42.540  24.705  28.292  1.00  0.00     0.031 A 
ATOM     51  C   UNL A   1      44.891  30.148  30.981  1.00  0.00     0.049 A 
ATOM     52  C   UNL A   1      43.917  25.138  28.686  1.00  0.00     0.074 A 
ATOM     53  C   UNL A   1      46.188  30.389  31.406  1.00  0.00     0.029 A 
ATOM     54  N   UNL A   1      44.892  28.887  30.404  1.00  0.00    -0.354 N 
ATOM     55  N   UNL A   1      44.296  26.259  29.248  1.00  0.00    -0.248 NA
ATOM     56  C   UNL A   1      45.009  24.198  28.403  1.00  0.00     0.031 C 
ATOM     57  C   UNL A   1      46.984  29.301  31.033  1.00  0.00     0.029 A 
ATOM     58  C   UNL A   1      46.172  28.355  30.428  1.00  0.00     0.049 A 
ATOM     59  H   UNL A   1      44.100  28.435  30.033  1.00  0.00     0.167 HD
ATOM     60  C   UNL A   1      45.671  26.159  29.394  1.00  0.00     0.074 A 
ATOM     61  C   UNL A   1      46.053  24.855  28.885  1.00  0.00     0.031 C 
ATOM     62  C   UNL A   1      46.540  27.068  29.898  1.00  0.00     0.031 A 
BRANCH  49  63
ATOM     63  C   UNL A   1      43.936  32.383  31.662  1.00  0.00    -0.014 A 
ATOM     64  C   UNL A   1      43.845  32.621  33.042  1.00  0.00     0.009 A 
ATOM     65  C   UNL A   1      44.288  33.446  30.813  1.00  0.00     0.009 A 
ATOM     66  C   UNL A   1      44.076  33.901  33.556  1.00  0.00     0.001 A 
ATOM     67  C   UNL A   1      44.543  34.717  31.332  1.00  0.00     0.001 A 
ATOM     68  C   UNL A   1      44.430  34.945  32.702  1.00  0.00     0.000 A 
ENDBRANCH  49  63
BRANCH  50  69
ATOM     69  C   UNL A   1      42.301  23.394  27.636  1.00  0.00    -0.014 A 
ATOM     70  C   UNL A   1      41.829  22.302  28.377  1.00  0.00     0.009 A 
ATOM     71  C   UNL A   1      42.516  23.239  26.255  1.00  0.00     0.009 A 
ATOM     72  C   UNL A   1      41.585  21.078  27.749  1.00  0.00     0.001 A 
ATOM     73  C   UNL A   1      42.238  22.025  25.627  1.00  0.00     0.001 A 
ATOM     74  C   UNL A   1      41.781  20.943  26.375  1.00  0.00     0.000 A 
ENDBRANCH  50  69
BRANCH  62  75
ATOM     75  C   UNL A   1      47.986  26.667  29.933  1.00  0.00    -0.014 A 
ATOM     76  C   UNL A   1      48.865  27.039  28.903  1.00  0.00     0.009 A 
ATOM     77  C   UNL A   1      48.477  25.913  31.010  1.00  0.00     0.009 A 
ATOM     78  C   UNL A   1      50.200  26.634  28.936  1.00  0.00     0.001 A 
ATOM     79  C   UNL A   1      49.818  25.533  31.053  1.00  0.00     0.001 A 
ATOM     80  C   UNL A   1      50.676  25.885  30.012  1.00  0.00     0.000 A 
ENDBRANCH  62  75
ENDBRANCH  36  37
ENDBRANCH  29  31
ENDBRANCH  28  29
ENDBRANCH  27  28
ENDBRANCH   1  27
TORSDOF 14
ENDMDL
MODEL 3
REMARK VINA RESULT:     -11.6      3.391      6.332
REMARK SMILES CCc1ccc(S(=O)(=O)N2CCC3(CC2)NC(=O)C[C@H]3C(=O)OCCOC(=O)c2ccc(-c3c4nc(c(-c5ccccc5)c5ccc([nH]5)c(-c5ccccc5)c5nc(c(-c6ccccc6)c6ccc3[nH]6)C=C5)C=C4)cc2)s1
REMARK SMILES IDX 24 1 23 2 21 3 22 4 20 5 10 6 11 7 15 8 12 9 14 10 13 11
REMARK SMILES IDX 16 12 17 13 19 15 18 16 7 17 8 18 9 19 6 20 3 21 4 22 77 23
REMARK SMILES IDX 5 24 2 25 1 26 25 27 26 28 27 29 28 30 29 31 30 32 76 33
REMARK SMILES IDX 31 34 75 35 32 36 33 37 34 38 69 39 35 40 74 41 68 42 70 43
REMARK SMILES IDX 36 44 73 45 67 46 66 47 37 49 59 50 44 51 58 52 45 53 48 54
REMARK SMILES IDX 57 55 71 56 46 57 47 58 56 60 72 61 49 62 38 63 39 64 43 65
REMARK SMILES IDX 40 66 42 67 41 68 60 69 61 70 65 71 62 72 64 73 63 74 50 75
REMARK SMILES IDX 51 76 55 77 52 78 54 79 53 80
REMARK H PARENT 16 14 70 48 48 59
REMARK Flexibility Score: inf
ROOT
ATOM      1  C   UNL A   1      33.377  29.220  25.688  1.00  0.00     0.274 C 
ENDROOT
BRANCH   1   2
ATOM      2  O   UNL A   1      32.927  29.653  24.385  1.00  0.00    -0.462 OA
BRANCH   2   3
ATOM      3  C   UNL A   1      32.514  28.662  23.569  1.00  0.00     0.311 C 
ATOM      4  O   UNL A   1      31.538  28.747  22.827  1.00  0.00    -0.252 OA
BRANCH   3   5
ATOM      5  C   UNL A   1      33.329  27.383  23.600  1.00  0.00     0.134 C 
ATOM      6  N   UNL A   1      32.760  24.458  26.514  1.00  0.00    -0.197 NA
ATOM      7  C   UNL A   1      34.085  24.704  25.966  1.00  0.00     0.105 C 
ATOM      8  C   UNL A   1      31.846  25.586  26.368  1.00  0.00     0.105 C 
ATOM      9  C   UNL A   1      34.049  25.143  24.503  1.00  0.00     0.046 C 
ATOM     10  C   UNL A   1      31.567  25.825  24.898  1.00  0.00     0.046 C 
ATOM     11  C   UNL A   1      32.809  25.972  23.991  1.00  0.00     0.056 C 
ATOM     12  N   UNL A   1      32.446  25.464  22.667  1.00  0.00    -0.350 N 
ATOM     13  C   UNL A   1      33.063  26.101  21.620  1.00  0.00     0.221 C 
ATOM     14  H   UNL A   1      31.810  24.723  22.539  1.00  0.00     0.164 HD
ATOM     15  C   UNL A   1      33.902  27.208  22.178  1.00  0.00     0.117 C 
ATOM     16  O   UNL A   1      32.971  25.777  20.452  1.00  0.00    -0.275 OA
BRANCH   6  17
ATOM     17  S   UNL A   1      32.176  22.898  26.795  1.00  0.00     0.252 S 
ATOM     18  O   UNL A   1      30.840  22.817  26.239  1.00  0.00    -0.206 OA
ATOM     19  O   UNL A   1      32.449  22.560  28.174  1.00  0.00    -0.206 OA
BRANCH  17  20
ATOM     20  C   UNL A   1      33.192  21.761  25.862  1.00  0.00     0.135 A 
ATOM     21  C   UNL A   1      35.127  20.411  25.104  1.00  0.00     0.006 A 
ATOM     22  C   UNL A   1      33.996  20.172  24.352  1.00  0.00     0.017 A 
ATOM     23  S   UNL A   1      34.824  21.564  26.337  1.00  0.00    -0.127 S 
ATOM     24  C   UNL A   1      32.916  21.002  24.743  1.00  0.00     0.034 A 
BRANCH  21  25
ATOM     25  C   UNL A   1      36.493  19.829  24.904  1.00  0.00     0.043 C 
ATOM     26  C   UNL A   1      37.563  20.906  24.788  1.00  0.00     0.010 C 
ENDBRANCH  21  25
ENDBRANCH  17  20
ENDBRANCH   6  17
ENDBRANCH   3   5
ENDBRANCH   2   3
ENDBRANCH   1   2
BRANCH   1  27
ATOM     27  C   UNL A   1      33.307  30.360  26.707  1.00  0.00     0.275 C 
BRANCH  27  28
ATOM     28  O   UNL A   1      33.957  29.990  27.943  1.00  0.00    -0.458 OA
BRANCH  28  29
ATOM     29  C   UNL A   1      34.797  30.923  28.447  1.00  0.00     0.338 C 
ATOM     30  O   UNL A   1      34.509  32.056  28.795  1.00  0.00    -0.246 OA
BRANCH  29  31
ATOM     31  C   UNL A   1      36.163  30.396  28.615  1.00  0.00     0.060 A 
ATOM     32  C   UNL A   1      37.033  30.327  27.529  1.00  0.00     0.016 A 
ATOM     33  C   UNL A   1      36.522  29.806  29.826  1.00  0.00     0.016 A 
ATOM     34  C   UNL A   1      38.227  29.616  27.621  1.00  0.00     0.010 A 
ATOM     35  C   UNL A   1      37.779  29.205  29.959  1.00  0.00     0.010 A 
ATOM     36  C   UNL A   1      38.647  29.110  28.860  1.00  0.00    -0.014 A 
BRANCH  36  37
ATOM     37  C   UNL A   1      40.051  28.655  29.044  1.00  0.00     0.031 A 
ATOM     38  C   UNL A   1      41.148  29.601  29.440  1.00  0.00     0.074 A 
ATOM     39  C   UNL A   1      40.340  27.366  28.769  1.00  0.00     0.049 A 
ATOM     40  N   UNL A   1      42.442  29.399  29.446  1.00  0.00    -0.248 NA
ATOM     41  C   UNL A   1      40.747  30.945  29.881  1.00  0.00     0.031 C 
ATOM     42  C   UNL A   1      39.363  26.339  28.393  1.00  0.00     0.029 A 
ATOM     43  N   UNL A   1      41.539  26.699  28.747  1.00  0.00    -0.354 N 
ATOM     44  C   UNL A   1      43.015  30.595  29.860  1.00  0.00     0.074 A 
ATOM     45  C   UNL A   1      41.924  31.520  30.096  1.00  0.00     0.031 C 
ATOM     46  C   UNL A   1      39.993  25.174  28.201  1.00  0.00     0.029 A 
ATOM     47  C   UNL A   1      41.425  25.392  28.336  1.00  0.00     0.049 A 
ATOM     48  H   UNL A   1      42.395  27.114  28.999  1.00  0.00     0.167 HD
ATOM     49  C   UNL A   1      44.329  30.892  30.013  1.00  0.00     0.031 A 
ATOM     50  C   UNL A   1      42.361  24.478  28.030  1.00  0.00     0.031 A 
ATOM     51  C   UNL A   1      45.406  29.965  29.764  1.00  0.00     0.049 A 
ATOM     52  C   UNL A   1      43.805  24.861  28.119  1.00  0.00     0.074 A 
ATOM     53  C   UNL A   1      46.768  30.164  29.915  1.00  0.00     0.029 A 
ATOM     54  N   UNL A   1      45.244  28.667  29.304  1.00  0.00    -0.354 N 
ATOM     55  N   UNL A   1      44.330  25.998  28.504  1.00  0.00    -0.248 NA
ATOM     56  C   UNL A   1      44.782  23.844  27.713  1.00  0.00     0.031 C 
ATOM     57  C   UNL A   1      47.433  29.009  29.489  1.00  0.00     0.029 A 
ATOM     58  C   UNL A   1      46.482  28.068  29.130  1.00  0.00     0.049 A 
ATOM     59  H   UNL A   1      44.378  28.234  29.129  1.00  0.00     0.167 HD
ATOM     60  C   UNL A   1      45.702  25.832  28.395  1.00  0.00     0.074 A 
ATOM     61  C   UNL A   1      45.926  24.476  27.932  1.00  0.00     0.031 C 
ATOM     62  C   UNL A   1      46.688  26.726  28.648  1.00  0.00     0.031 A 
BRANCH  49  63
ATOM     63  C   UNL A   1      44.691  32.293  30.426  1.00  0.00    -0.014 A 
ATOM     64  C   UNL A   1      44.862  32.641  31.775  1.00  0.00     0.009 A 
ATOM     65  C   UNL A   1      44.932  33.265  29.441  1.00  0.00     0.009 A 
ATOM     66  C   UNL A   1      45.240  33.940  32.128  1.00  0.00     0.001 A 
ATOM     67  C   UNL A   1      45.334  34.555  29.796  1.00  0.00     0.001 A 
ATOM     68  C   UNL A   1      45.480  34.893  31.139  1.00  0.00     0.000 A 
ENDBRANCH  49  63
BRANCH  50  69
ATOM     69  C   UNL A   1      41.947  23.137  27.542  1.00  0.00    -0.014 A 
ATOM     70  C   UNL A   1      41.653  22.109  28.447  1.00  0.00     0.009 A 
ATOM     71  C   UNL A   1      41.813  22.891  26.164  1.00  0.00     0.009 A 
ATOM     72  C   UNL A   1      41.243  20.857  27.982  1.00  0.00     0.001 A 
ATOM     73  C   UNL A   1      41.370  21.650  25.705  1.00  0.00     0.001 A 
ATOM     74  C   UNL A   1      41.094  20.632  26.614  1.00  0.00     0.000 A 
ENDBRANCH  50  69
BRANCH  62  75
ATOM     75  C   UNL A   1      48.096  26.249  28.442  1.00  0.00    -0.014 A 
ATOM     76  C   UNL A   1      48.726  26.371  27.193  1.00  0.00     0.009 A 
ATOM     77  C   UNL A   1      48.804  25.676  29.510  1.00  0.00     0.009 A 
ATOM     78  C   UNL A   1      50.025  25.896  27.009  1.00  0.00     0.001 A 
ATOM     79  C   UNL A   1      50.113  25.228  29.331  1.00  0.00     0.001 A 
ATOM     80  C   UNL A   1      50.718  25.329  28.079  1.00  0.00     0.000 A 
ENDBRANCH  62  75
ENDBRANCH  36  37
ENDBRANCH  29  31
ENDBRANCH  28  29
ENDBRANCH  27  28
ENDBRANCH   1  27
TORSDOF 14
ENDMDL
