MODEL 1
REMARK VINA RESULT:     -10.7      0.000      0.000
REMARK SMILES CC1(C)C(C(=O)Nc2ccc(CC(=O)OCCOC(=O)c3ccc(-c4c5nc(c(-c6ccccc6)c6ccc([nH]6)c(-c6ccccc6)c6nc(c(-c7ccccc7)c7ccc4[nH]7)C=C6)C=C5)cc3)cc2)C1(C)C
REMARK SMILES IDX 16 1 15 2 13 3 14 4 12 5 11 6 8 7 9 8 70 9 10 10 69 11 7 12
REMARK SMILES IDX 5 13 6 14 4 16 1 17 2 18 3 19 71 20 72 21 73 22 17 23 18 24
REMARK SMILES IDX 19 25 20 26 21 27 22 28 68 29 23 30 67 31 24 32 25 33 26 34
REMARK SMILES IDX 61 35 27 36 66 37 60 38 62 39 28 40 65 41 59 42 58 43 29 45
REMARK SMILES IDX 51 46 36 47 50 48 37 49 40 50 49 51 63 52 38 53 39 54 48 56
REMARK SMILES IDX 64 57 41 58 30 59 31 60 35 61 32 62 34 63 33 64 52 65 53 66
REMARK SMILES IDX 57 67 54 68 56 69 55 70 42 71 43 72 47 73 44 74 46 75 45 76
REMARK H PARENT 7 15 62 44 40 55
REMARK Flexibility Score: inf
ROOT
ATOM      1  C   UNL A   1      33.645  35.511  28.736  1.00  0.00     0.274 C 
ENDROOT
BRANCH   1   2
ATOM      2  O   UNL A   1      33.664  34.123  29.106  1.00  0.00    -0.462 OA
BRANCH   2   3
ATOM      3  C   UNL A   1      34.530  33.348  28.407  1.00  0.00     0.310 C 
ATOM      4  O   UNL A   1      35.283  33.745  27.525  1.00  0.00    -0.252 OA
BRANCH   3   5
ATOM      5  C   UNL A   1      34.451  31.901  28.790  1.00  0.00     0.158 C 
BRANCH   5   6
ATOM      6  C   UNL A   1      33.793  30.962  27.809  1.00  0.00    -0.037 A 
ATOM      7  C   UNL A   1      32.851  29.754  25.496  1.00  0.00     0.041 A 
ATOM      8  C   UNL A   1      33.998  29.247  26.100  1.00  0.00     0.026 A 
ATOM      9  C   UNL A   1      32.043  30.657  26.183  1.00  0.00     0.026 A 
ATOM     10  C   UNL A   1      34.487  29.881  27.244  1.00  0.00     0.006 A 
ATOM     11  C   UNL A   1      32.509  31.259  27.346  1.00  0.00     0.006 A 
BRANCH   7  12
ATOM     12  N   UNL A   1      32.636  29.482  24.138  1.00  0.00    -0.326 N 
ATOM     13  C   UNL A   1      33.153  28.377  23.506  1.00  0.00     0.228 C 
ATOM     14  O   UNL A   1      34.144  28.458  22.786  1.00  0.00    -0.274 OA
ATOM     15  H   UNL A   1      32.091  30.111  23.613  1.00  0.00     0.169 HD
BRANCH  13  16
ATOM     16  C   UNL A   1      32.344  27.109  23.464  1.00  0.00     0.091 C 
ATOM     17  C   UNL A   1      32.853  24.615  23.033  1.00  0.00     0.012 C 
ATOM     18  C   UNL A   1      32.841  25.767  24.021  1.00  0.00    -0.017 C 
ATOM     19  C   UNL A   1      34.006  25.639  24.972  1.00  0.00     0.012 C 
ATOM     20  C   UNL A   1      31.505  26.380  24.507  1.00  0.00    -0.017 C 
ATOM     21  C   UNL A   1      30.217  25.725  24.037  1.00  0.00     0.012 C 
ATOM     22  C   UNL A   1      31.314  26.936  25.898  1.00  0.00     0.012 C 
ENDBRANCH  13  16
ENDBRANCH   7  12
ENDBRANCH   5   6
ENDBRANCH   3   5
ENDBRANCH   2   3
ENDBRANCH   1   2
BRANCH   1  23
ATOM     23  C   UNL A   1      32.836  36.303  29.760  1.00  0.00     0.275 C 
BRANCH  23  24
ATOM     24  O   UNL A   1      32.412  35.432  30.826  1.00  0.00    -0.458 OA
BRANCH  24  25
ATOM     25  C   UNL A   1      32.746  35.821  32.077  1.00  0.00     0.338 C 
ATOM     26  O   UNL A   1      32.215  36.678  32.761  1.00  0.00    -0.246 OA
BRANCH  25  27
ATOM     27  C   UNL A   1      33.926  35.067  32.529  1.00  0.00     0.060 A 
ATOM     28  C   UNL A   1      35.199  35.642  32.495  1.00  0.00     0.016 A 
ATOM     29  C   UNL A   1      33.765  33.729  32.891  1.00  0.00     0.016 A 
ATOM     30  C   UNL A   1      36.322  34.865  32.782  1.00  0.00     0.010 A 
ATOM     31  C   UNL A   1      34.884  32.973  33.244  1.00  0.00     0.010 A 
ATOM     32  C   UNL A   1      36.175  33.526  33.173  1.00  0.00    -0.014 A 
BRANCH  32  33
ATOM     33  C   UNL A   1      37.356  32.692  33.516  1.00  0.00     0.031 A 
ATOM     34  C   UNL A   1      38.085  32.904  34.814  1.00  0.00     0.074 A 
ATOM     35  C   UNL A   1      37.806  31.774  32.640  1.00  0.00     0.049 A 
ATOM     36  N   UNL A   1      39.227  32.402  35.213  1.00  0.00    -0.248 NA
ATOM     37  C   UNL A   1      37.452  33.808  35.789  1.00  0.00     0.031 C 
ATOM     38  C   UNL A   1      37.181  31.445  31.357  1.00  0.00     0.029 A 
ATOM     39  N   UNL A   1      38.908  30.957  32.692  1.00  0.00    -0.354 N 
ATOM     40  C   UNL A   1      39.469  32.956  36.463  1.00  0.00     0.074 A 
ATOM     41  C   UNL A   1      38.358  33.837  36.757  1.00  0.00     0.031 C 
ATOM     42  C   UNL A   1      37.905  30.494  30.747  1.00  0.00     0.029 A 
ATOM     43  C   UNL A   1      39.077  30.193  31.563  1.00  0.00     0.049 A 
ATOM     44  H   UNL A   1      39.519  30.923  33.464  1.00  0.00     0.167 HD
ATOM     45  C   UNL A   1      40.522  32.752  37.290  1.00  0.00     0.031 A 
ATOM     46  C   UNL A   1      40.081  29.372  31.202  1.00  0.00     0.031 A 
ATOM     47  C   UNL A   1      41.619  31.864  37.010  1.00  0.00     0.049 A 
ATOM     48  C   UNL A   1      41.259  29.199  32.116  1.00  0.00     0.074 A 
ATOM     49  C   UNL A   1      42.718  31.573  37.801  1.00  0.00     0.029 A 
ATOM     50  N   UNL A   1      41.754  31.121  35.849  1.00  0.00    -0.354 N 
ATOM     51  N   UNL A   1      41.478  29.736  33.291  1.00  0.00    -0.248 NA
ATOM     52  C   UNL A   1      42.333  28.312  31.648  1.00  0.00     0.031 C 
ATOM     53  C   UNL A   1      43.540  30.684  37.100  1.00  0.00     0.029 A 
ATOM     54  C   UNL A   1      42.929  30.387  35.892  1.00  0.00     0.049 A 
ATOM     55  H   UNL A   1      41.112  31.114  35.103  1.00  0.00     0.167 HD
ATOM     56  C   UNL A   1      42.706  29.242  33.709  1.00  0.00     0.074 A 
ATOM     57  C   UNL A   1      43.176  28.348  32.670  1.00  0.00     0.031 C 
ATOM     58  C   UNL A   1      43.385  29.507  34.851  1.00  0.00     0.031 A 
BRANCH  45  59
ATOM     59  C   UNL A   1      40.558  33.535  38.572  1.00  0.00    -0.014 A 
ATOM     60  C   UNL A   1      41.149  34.806  38.637  1.00  0.00     0.009 A 
ATOM     61  C   UNL A   1      39.948  33.008  39.722  1.00  0.00     0.009 A 
ATOM     62  C   UNL A   1      41.150  35.522  39.835  1.00  0.00     0.001 A 
ATOM     63  C   UNL A   1      39.932  33.737  40.913  1.00  0.00     0.001 A 
ATOM     64  C   UNL A   1      40.539  34.990  40.971  1.00  0.00     0.000 A 
ENDBRANCH  45  59
BRANCH  46  65
ATOM     65  C   UNL A   1      40.034  28.682  29.888  1.00  0.00    -0.014 A 
ATOM     66  C   UNL A   1      39.499  27.390  29.782  1.00  0.00     0.009 A 
ATOM     67  C   UNL A   1      40.524  29.315  28.735  1.00  0.00     0.009 A 
ATOM     68  C   UNL A   1      39.473  26.739  28.546  1.00  0.00     0.001 A 
ATOM     69  C   UNL A   1      40.471  28.671  27.498  1.00  0.00     0.001 A 
ATOM     70  C   UNL A   1      39.953  27.381  27.406  1.00  0.00     0.000 A 
ENDBRANCH  46  65
BRANCH  58  71
ATOM     71  C   UNL A   1      44.694  28.798  35.046  1.00  0.00    -0.014 A 
ATOM     72  C   UNL A   1      44.747  27.526  35.636  1.00  0.00     0.009 A 
ATOM     73  C   UNL A   1      45.883  29.401  34.609  1.00  0.00     0.009 A 
ATOM     74  C   UNL A   1      45.974  26.884  35.812  1.00  0.00     0.001 A 
ATOM     75  C   UNL A   1      47.106  28.745  34.765  1.00  0.00     0.001 A 
ATOM     76  C   UNL A   1      47.151  27.491  35.373  1.00  0.00     0.000 A 
ENDBRANCH  58  71
ENDBRANCH  32  33
ENDBRANCH  25  27
ENDBRANCH  24  25
ENDBRANCH  23  24
ENDBRANCH   1  23
TORSDOF 14
ENDMDL
MODEL 2
REMARK VINA RESULT:     -10.6      4.539      8.380
REMARK SMILES CC1(C)C(C(=O)Nc2ccc(CC(=O)OCCOC(=O)c3ccc(-c4c5nc(c(-c6ccccc6)c6ccc([nH]6)c(-c6ccccc6)c6nc(c(-c7ccccc7)c7ccc4[nH]7)C=C6)C=C5)cc3)cc2)C1(C)C
REMARK SMILES IDX 16 1 15 2 13 3 14 4 12 5 11 6 8 7 9 8 70 9 10 10 69 11 7 12
REMARK SMILES IDX 5 13 6 14 4 16 1 17 2 18 3 19 71 20 72 21 73 22 17 23 18 24
REMARK SMILES IDX 19 25 20 26 21 27 22 28 68 29 23 30 67 31 24 32 25 33 26 34
REMARK SMILES IDX 61 35 27 36 66 37 60 38 62 39 28 40 65 41 59 42 58 43 29 45
REMARK SMILES IDX 51 46 36 47 50 48 37 49 40 50 49 51 63 52 38 53 39 54 48 56
REMARK SMILES IDX 64 57 41 58 30 59 31 60 35 61 32 62 34 63 33 64 52 65 53 66
REMARK SMILES IDX 57 67 54 68 56 69 55 70 42 71 43 72 47 73 44 74 46 75 45 76
REMARK H PARENT 7 15 62 44 40 55
REMARK Flexibility Score: inf
ROOT
ATOM      1  C   UNL A   1      34.500  34.033  31.531  1.00  0.00     0.274 C 
ENDROOT
BRANCH   1   2
ATOM      2  O   UNL A   1      34.156  33.245  30.381  1.00  0.00    -0.462 OA
BRANCH   2   3
ATOM      3  C   UNL A   1      34.347  33.852  29.184  1.00  0.00     0.310 C 
ATOM      4  O   UNL A   1      33.888  34.942  28.861  1.00  0.00    -0.252 OA
BRANCH   3   5
ATOM      5  C   UNL A   1      35.163  33.024  28.238  1.00  0.00     0.158 C 
BRANCH   5   6
ATOM      6  C   UNL A   1      34.699  31.612  27.979  1.00  0.00    -0.037 A 
ATOM      7  C   UNL A   1      34.051  29.195  26.781  1.00  0.00     0.041 A 
ATOM      8  C   UNL A   1      35.236  29.290  27.503  1.00  0.00     0.026 A 
ATOM      9  C   UNL A   1      33.086  30.193  26.891  1.00  0.00     0.026 A 
ATOM     10  C   UNL A   1      35.574  30.519  28.075  1.00  0.00     0.006 A 
ATOM     11  C   UNL A   1      33.405  31.402  27.498  1.00  0.00     0.006 A 
BRANCH   7  12
ATOM     12  N   UNL A   1      33.937  28.185  25.816  1.00  0.00    -0.326 N 
ATOM     13  C   UNL A   1      32.972  27.208  25.865  1.00  0.00     0.228 C 
ATOM     14  O   UNL A   1      33.232  26.073  26.252  1.00  0.00    -0.274 OA
ATOM     15  H   UNL A   1      34.578  28.175  25.068  1.00  0.00     0.169 HD
BRANCH  13  16
ATOM     16  C   UNL A   1      31.653  27.443  25.179  1.00  0.00     0.091 C 
ATOM     17  C   UNL A   1      30.527  29.437  23.988  1.00  0.00     0.012 C 
ATOM     18  C   UNL A   1      31.500  28.276  23.898  1.00  0.00    -0.017 C 
ATOM     19  C   UNL A   1      32.655  28.642  22.998  1.00  0.00     0.012 C 
ATOM     20  C   UNL A   1      30.995  26.813  23.957  1.00  0.00    -0.017 C 
ATOM     21  C   UNL A   1      29.492  26.588  24.009  1.00  0.00     0.012 C 
ATOM     22  C   UNL A   1      31.651  25.685  23.197  1.00  0.00     0.012 C 
ENDBRANCH  13  16
ENDBRANCH   7  12
ENDBRANCH   5   6
ENDBRANCH   3   5
ENDBRANCH   2   3
ENDBRANCH   1   2
BRANCH   1  23
ATOM     23  C   UNL A   1      34.405  33.172  32.789  1.00  0.00     0.275 C 
BRANCH  23  24
ATOM     24  O   UNL A   1      35.212  31.988  32.632  1.00  0.00    -0.458 OA
BRANCH  24  25
ATOM     25  C   UNL A   1      36.403  31.995  33.271  1.00  0.00     0.338 C 
ATOM     26  O   UNL A   1      36.649  32.401  34.392  1.00  0.00    -0.246 OA
BRANCH  25  27
ATOM     27  C   UNL A   1      37.442  31.455  32.379  1.00  0.00     0.060 A 
ATOM     28  C   UNL A   1      38.464  30.645  32.878  1.00  0.00     0.016 A 
ATOM     29  C   UNL A   1      37.448  31.856  31.043  1.00  0.00     0.016 A 
ATOM     30  C   UNL A   1      39.523  30.269  32.050  1.00  0.00     0.010 A 
ATOM     31  C   UNL A   1      38.472  31.421  30.199  1.00  0.00     0.010 A 
ATOM     32  C   UNL A   1      39.530  30.642  30.698  1.00  0.00    -0.014 A 
BRANCH  32  33
ATOM     33  C   UNL A   1      40.630  30.221  29.792  1.00  0.00     0.031 A 
ATOM     34  C   UNL A   1      40.590  28.876  29.122  1.00  0.00     0.074 A 
ATOM     35  C   UNL A   1      41.692  31.029  29.607  1.00  0.00     0.049 A 
ATOM     36  N   UNL A   1      41.527  28.264  28.441  1.00  0.00    -0.248 NA
ATOM     37  C   UNL A   1      39.337  28.113  29.241  1.00  0.00     0.031 C 
ATOM     38  C   UNL A   1      41.848  32.370  30.174  1.00  0.00     0.029 A 
ATOM     39  N   UNL A   1      42.851  30.829  28.898  1.00  0.00    -0.354 N 
ATOM     40  C   UNL A   1      40.993  27.032  28.084  1.00  0.00     0.074 A 
ATOM     41  C   UNL A   1      39.652  26.980  28.627  1.00  0.00     0.031 C 
ATOM     42  C   UNL A   1      43.031  32.874  29.786  1.00  0.00     0.029 A 
ATOM     43  C   UNL A   1      43.741  31.870  29.001  1.00  0.00     0.049 A 
ATOM     44  H   UNL A   1      43.026  30.018  28.368  1.00  0.00     0.167 HD
ATOM     45  C   UNL A   1      41.568  26.034  27.372  1.00  0.00     0.031 A 
ATOM     46  C   UNL A   1      45.003  31.991  28.551  1.00  0.00     0.031 A 
ATOM     47  C   UNL A   1      42.894  26.088  26.816  1.00  0.00     0.049 A 
ATOM     48  C   UNL A   1      45.635  30.853  27.804  1.00  0.00     0.074 A 
ATOM     49  C   UNL A   1      43.551  25.135  26.057  1.00  0.00     0.029 A 
ATOM     50  N   UNL A   1      43.764  27.157  26.956  1.00  0.00    -0.354 N 
ATOM     51  N   UNL A   1      45.120  29.691  27.482  1.00  0.00    -0.248 NA
ATOM     52  C   UNL A   1      47.025  31.039  27.366  1.00  0.00     0.031 C 
ATOM     53  C   UNL A   1      44.835  25.610  25.772  1.00  0.00     0.029 A 
ATOM     54  C   UNL A   1      44.961  26.878  26.315  1.00  0.00     0.049 A 
ATOM     55  H   UNL A   1      43.563  27.991  27.439  1.00  0.00     0.167 HD
ATOM     56  C   UNL A   1      46.118  29.015  26.792  1.00  0.00     0.074 A 
ATOM     57  C   UNL A   1      47.260  29.903  26.727  1.00  0.00     0.031 C 
ATOM     58  C   UNL A   1      46.090  27.768  26.262  1.00  0.00     0.031 A 
BRANCH  45  59
ATOM     59  C   UNL A   1      40.775  24.773  27.181  1.00  0.00    -0.014 A 
ATOM     60  C   UNL A   1      39.615  24.750  26.392  1.00  0.00     0.009 A 
ATOM     61  C   UNL A   1      41.225  23.577  27.763  1.00  0.00     0.009 A 
ATOM     62  C   UNL A   1      38.907  23.560  26.211  1.00  0.00     0.001 A 
ATOM     63  C   UNL A   1      40.527  22.384  27.562  1.00  0.00     0.001 A 
ATOM     64  C   UNL A   1      39.365  22.378  26.793  1.00  0.00     0.000 A 
ENDBRANCH  45  59
BRANCH  46  65
ATOM     65  C   UNL A   1      45.773  33.229  28.834  1.00  0.00    -0.014 A 
ATOM     66  C   UNL A   1      46.510  33.353  30.021  1.00  0.00     0.009 A 
ATOM     67  C   UNL A   1      45.775  34.291  27.916  1.00  0.00     0.009 A 
ATOM     68  C   UNL A   1      47.218  34.526  30.290  1.00  0.00     0.001 A 
ATOM     69  C   UNL A   1      46.506  35.451  28.177  1.00  0.00     0.001 A 
ATOM     70  C   UNL A   1      47.221  35.571  29.367  1.00  0.00     0.000 A 
ENDBRANCH  46  65
BRANCH  58  71
ATOM     71  C   UNL A   1      47.322  27.305  25.542  1.00  0.00    -0.014 A 
ATOM     72  C   UNL A   1      48.337  26.610  26.218  1.00  0.00     0.009 A 
ATOM     73  C   UNL A   1      47.455  27.545  24.166  1.00  0.00     0.009 A 
ATOM     74  C   UNL A   1      49.478  26.189  25.531  1.00  0.00     0.001 A 
ATOM     75  C   UNL A   1      48.586  27.102  23.478  1.00  0.00     0.001 A 
ATOM     76  C   UNL A   1      49.599  26.432  24.163  1.00  0.00     0.000 A 
ENDBRANCH  58  71
ENDBRANCH  32  33
ENDBRANCH  25  27
ENDBRANCH  24  25
ENDBRANCH  23  24
ENDBRANCH   1  23
TORSDOF 14
ENDMDL
MODEL 3
REMARK VINA RESULT:     -10.5      4.071     10.020
REMARK SMILES CC1(C)C(C(=O)Nc2ccc(CC(=O)OCCOC(=O)c3ccc(-c4c5nc(c(-c6ccccc6)c6ccc([nH]6)c(-c6ccccc6)c6nc(c(-c7ccccc7)c7ccc4[nH]7)C=C6)C=C5)cc3)cc2)C1(C)C
REMARK SMILES IDX 16 1 15 2 13 3 14 4 12 5 11 6 8 7 9 8 70 9 10 10 69 11 7 12
REMARK SMILES IDX 5 13 6 14 4 16 1 17 2 18 3 19 71 20 72 21 73 22 17 23 18 24
REMARK SMILES IDX 19 25 20 26 21 27 22 28 68 29 23 30 67 31 24 32 25 33 26 34
REMARK SMILES IDX 61 35 27 36 66 37 60 38 62 39 28 40 65 41 59 42 58 43 29 45
REMARK SMILES IDX 51 46 36 47 50 48 37 49 40 50 49 51 63 52 38 53 39 54 48 56
REMARK SMILES IDX 64 57 41 58 30 59 31 60 35 61 32 62 34 63 33 64 52 65 53 66
REMARK SMILES IDX 57 67 54 68 56 69 55 70 42 71 43 72 47 73 44 74 46 75 45 76
REMARK H PARENT 7 15 62 44 40 55
REMARK Flexibility Score: inf
ROOT
ATOM      1  C   UNL A   1      44.032  21.530  25.248  1.00  0.00     0.274 C 
ENDROOT
BRANCH   1   2
ATOM      2  O   UNL A   1      42.860  21.949  25.963  1.00  0.00    -0.462 OA
BRANCH   2   3
ATOM      3  C   UNL A   1      41.936  20.980  26.180  1.00  0.00     0.310 C 
ATOM      4  O   UNL A   1      41.958  19.857  25.688  1.00  0.00    -0.252 OA
BRANCH   3   5
ATOM      5  C   UNL A   1      40.819  21.433  27.072  1.00  0.00     0.158 C 
BRANCH   5   6
ATOM      6  C   UNL A   1      39.661  22.148  26.420  1.00  0.00    -0.037 A 
ATOM      7  C   UNL A   1      37.156  23.191  25.841  1.00  0.00     0.041 A 
ATOM      8  C   UNL A   1      38.129  24.033  26.373  1.00  0.00     0.026 A 
ATOM      9  C   UNL A   1      37.513  21.938  25.351  1.00  0.00     0.026 A 
ATOM     10  C   UNL A   1      39.376  23.494  26.695  1.00  0.00     0.006 A 
ATOM     11  C   UNL A   1      38.770  21.415  25.633  1.00  0.00     0.006 A 
BRANCH   7  12
ATOM     12  N   UNL A   1      35.810  23.556  25.980  1.00  0.00    -0.326 N 
ATOM     13  C   UNL A   1      34.999  23.844  24.909  1.00  0.00     0.228 C 
ATOM     14  O   UNL A   1      34.729  25.002  24.606  1.00  0.00    -0.274 OA
ATOM     15  H   UNL A   1      35.428  23.607  26.886  1.00  0.00     0.169 HD
BRANCH  13  16
ATOM     16  C   UNL A   1      34.206  22.737  24.269  1.00  0.00     0.091 C 
ATOM     17  C   UNL A   1      33.840  20.225  24.740  1.00  0.00     0.012 C 
ATOM     18  C   UNL A   1      33.459  21.657  25.066  1.00  0.00    -0.017 C 
ATOM     19  C   UNL A   1      33.136  21.780  26.535  1.00  0.00     0.012 C 
ATOM     20  C   UNL A   1      32.714  22.534  24.031  1.00  0.00    -0.017 C 
ATOM     21  C   UNL A   1      32.296  21.880  22.724  1.00  0.00     0.012 C 
ATOM     22  C   UNL A   1      31.701  23.584  24.420  1.00  0.00     0.012 C 
ENDBRANCH  13  16
ENDBRANCH   7  12
ENDBRANCH   5   6
ENDBRANCH   3   5
ENDBRANCH   2   3
ENDBRANCH   1   2
BRANCH   1  23
ATOM     23  C   UNL A   1      44.491  22.650  24.317  1.00  0.00     0.275 C 
BRANCH  23  24
ATOM     24  O   UNL A   1      43.777  23.864  24.625  1.00  0.00    -0.458 OA
BRANCH  24  25
ATOM     25  C   UNL A   1      44.530  24.898  25.060  1.00  0.00     0.338 C 
ATOM     26  O   UNL A   1      45.639  25.229  24.680  1.00  0.00    -0.246 OA
BRANCH  25  27
ATOM     27  C   UNL A   1      43.824  25.599  26.145  1.00  0.00     0.060 A 
ATOM     28  C   UNL A   1      44.068  26.949  26.404  1.00  0.00     0.016 A 
ATOM     29  C   UNL A   1      42.983  24.861  26.979  1.00  0.00     0.016 A 
ATOM     30  C   UNL A   1      43.506  27.556  27.528  1.00  0.00     0.010 A 
ATOM     31  C   UNL A   1      42.367  25.489  28.063  1.00  0.00     0.010 A 
ATOM     32  C   UNL A   1      42.638  26.836  28.361  1.00  0.00    -0.014 A 
BRANCH  32  33
ATOM     33  C   UNL A   1      42.001  27.474  29.542  1.00  0.00     0.031 A 
ATOM     34  C   UNL A   1      40.674  28.166  29.409  1.00  0.00     0.074 A 
ATOM     35  C   UNL A   1      42.639  27.475  30.728  1.00  0.00     0.049 A 
ATOM     36  N   UNL A   1      40.045  28.923  30.273  1.00  0.00    -0.248 NA
ATOM     37  C   UNL A   1      39.962  27.994  28.131  1.00  0.00     0.031 C 
ATOM     38  C   UNL A   1      43.918  26.819  31.007  1.00  0.00     0.029 A 
ATOM     39  N   UNL A   1      42.299  28.063  31.922  1.00  0.00    -0.354 N 
ATOM     40  C   UNL A   1      38.887  29.348  29.634  1.00  0.00     0.074 A 
ATOM     41  C   UNL A   1      38.901  28.770  28.307  1.00  0.00     0.031 C 
ATOM     42  C   UNL A   1      44.252  27.036  32.289  1.00  0.00     0.029 A 
ATOM     43  C   UNL A   1      43.247  27.897  32.902  1.00  0.00     0.049 A 
ATOM     44  H   UNL A   1      41.458  28.556  32.061  1.00  0.00     0.167 HD
ATOM     45  C   UNL A   1      37.904  30.151  30.107  1.00  0.00     0.031 A 
ATOM     46  C   UNL A   1      43.324  28.413  34.143  1.00  0.00     0.031 A 
ATOM     47  C   UNL A   1      37.878  30.713  31.432  1.00  0.00     0.049 A 
ATOM     48  C   UNL A   1      42.245  29.336  34.629  1.00  0.00     0.074 A 
ATOM     49  C   UNL A   1      36.909  31.516  32.009  1.00  0.00     0.029 A 
ATOM     50  N   UNL A   1      38.865  30.530  32.386  1.00  0.00    -0.354 N 
ATOM     51  N   UNL A   1      41.161  29.736  34.010  1.00  0.00    -0.248 NA
ATOM     52  C   UNL A   1      42.405  29.886  35.982  1.00  0.00     0.031 C 
ATOM     53  C   UNL A   1      37.330  31.852  33.300  1.00  0.00     0.029 A 
ATOM     54  C   UNL A   1      38.540  31.221  33.541  1.00  0.00     0.049 A 
ATOM     55  H   UNL A   1      39.678  29.988  32.262  1.00  0.00     0.167 HD
ATOM     56  C   UNL A   1      40.503  30.572  34.902  1.00  0.00     0.074 A 
ATOM     57  C   UNL A   1      41.301  30.607  36.111  1.00  0.00     0.031 C 
ATOM     58  C   UNL A   1      39.344  31.251  34.734  1.00  0.00     0.031 A 
BRANCH  45  59
ATOM     59  C   UNL A   1      36.782  30.500  29.171  1.00  0.00    -0.014 A 
ATOM     60  C   UNL A   1      36.614  31.805  28.686  1.00  0.00     0.009 A 
ATOM     61  C   UNL A   1      35.910  29.492  28.730  1.00  0.00     0.009 A 
ATOM     62  C   UNL A   1      35.576  32.100  27.799  1.00  0.00     0.001 A 
ATOM     63  C   UNL A   1      34.887  29.785  27.826  1.00  0.00     0.001 A 
ATOM     64  C   UNL A   1      34.717  31.090  27.367  1.00  0.00     0.000 A 
ENDBRANCH  45  59
BRANCH  46  65
ATOM     65  C   UNL A   1      44.494  28.099  35.002  1.00  0.00    -0.014 A 
ATOM     66  C   UNL A   1      45.638  28.909  34.970  1.00  0.00     0.009 A 
ATOM     67  C   UNL A   1      44.469  26.987  35.860  1.00  0.00     0.009 A 
ATOM     68  C   UNL A   1      46.742  28.600  35.768  1.00  0.00     0.001 A 
ATOM     69  C   UNL A   1      45.564  26.698  36.674  1.00  0.00     0.001 A 
ATOM     70  C   UNL A   1      46.702  27.499  36.622  1.00  0.00     0.000 A 
ENDBRANCH  46  65
BRANCH  58  71
ATOM     71  C   UNL A   1      38.856  32.066  35.895  1.00  0.00    -0.014 A 
ATOM     72  C   UNL A   1      38.132  31.475  36.942  1.00  0.00     0.009 A 
ATOM     73  C   UNL A   1      39.149  33.437  35.955  1.00  0.00     0.009 A 
ATOM     74  C   UNL A   1      37.684  32.250  38.013  1.00  0.00     0.001 A 
ATOM     75  C   UNL A   1      38.720  34.204  37.039  1.00  0.00     0.001 A 
ATOM     76  C   UNL A   1      37.982  33.612  38.063  1.00  0.00     0.000 A 
ENDBRANCH  58  71
ENDBRANCH  32  33
ENDBRANCH  25  27
ENDBRANCH  24  25
ENDBRANCH  23  24
ENDBRANCH   1  23
TORSDOF 14
ENDMDL
