MODEL 1
REMARK VINA RESULT:     -11.4      0.000      0.000
REMARK SMILES Cc1ccc(OC(F)(F)F)cc1C(=O)OCCOC(=O)c1ccc(-c2c3nc(c(-c4ccccc4)c4ccc([nH]4)c(-c4ccccc4)c4nc(c(-c5ccccc5)c5ccc2[nH]5)C=C4)C=C3)cc1
REMARK SMILES IDX 16 1 15 2 13 3 14 4 12 5 1 6 2 7 3 8 4 9 11 10 5 11 6 12
REMARK SMILES IDX 7 13 8 14 9 15 10 16 17 17 18 18 19 19 20 20 21 21 22 22
REMARK SMILES IDX 68 23 23 24 67 25 24 26 25 27 26 28 61 29 27 30 66 31 60 32
REMARK SMILES IDX 62 33 28 34 65 35 59 36 58 37 29 39 51 40 36 41 50 42 37 43
REMARK SMILES IDX 40 44 49 45 63 46 38 47 39 48 48 50 64 51 41 52 30 53 31 54
REMARK SMILES IDX 35 55 32 56 34 57 33 58 52 59 53 60 57 61 54 62 56 63 55 64
REMARK SMILES IDX 42 65 43 66 47 67 44 68 46 69 45 70
REMARK H PARENT 62 38 40 49
REMARK Flexibility Score: inf
ROOT
ATOM      1  C   UNL A   1      32.950  29.253  27.091  1.00  0.00     0.275 C 
ENDROOT
BRANCH   1   2
ATOM      2  O   UNL A   1      31.831  28.462  26.648  1.00  0.00    -0.458 OA
BRANCH   2   3
ATOM      3  C   UNL A   1      32.042  27.950  25.406  1.00  0.00     0.338 C 
ATOM      4  O   UNL A   1      33.091  27.447  25.029  1.00  0.00    -0.246 OA
BRANCH   3   5
ATOM      5  C   UNL A   1      30.924  28.105  24.449  1.00  0.00     0.066 A 
ATOM      6  C   UNL A   1      30.278  25.645  24.857  1.00  0.00     0.045 C 
ATOM      7  C   UNL A   1      30.024  27.026  24.309  1.00  0.00    -0.036 A 
ATOM      8  C   UNL A   1      28.846  27.221  23.577  1.00  0.00     0.008 A 
ATOM      9  C   UNL A   1      28.554  28.464  23.019  1.00  0.00     0.047 A 
ATOM     10  C   UNL A   1      30.644  29.349  23.847  1.00  0.00     0.062 A 
ATOM     11  C   UNL A   1      29.438  29.534  23.161  1.00  0.00     0.130 A 
BRANCH  11  12
ATOM     12  O   UNL A   1      29.027  30.681  22.545  1.00  0.00    -0.406 OA
BRANCH  12  13
ATOM     13  C   UNL A   1      28.403  31.662  23.358  1.00  0.00     0.573 C 
ATOM     14  F   UNL A   1      27.298  31.178  23.965  1.00  0.00    -0.132 F 
ATOM     15  F   UNL A   1      29.258  32.127  24.289  1.00  0.00    -0.132 F 
ATOM     16  F   UNL A   1      28.028  32.697  22.571  1.00  0.00    -0.132 F 
ENDBRANCH  12  13
ENDBRANCH  11  12
ENDBRANCH   3   5
ENDBRANCH   2   3
ENDBRANCH   1   2
BRANCH   1  17
ATOM     17  C   UNL A   1      32.993  30.691  26.557  1.00  0.00     0.275 C 
BRANCH  17  18
ATOM     18  O   UNL A   1      32.645  31.805  27.424  1.00  0.00    -0.458 OA
BRANCH  18  19
ATOM     19  C   UNL A   1      33.441  32.784  27.904  1.00  0.00     0.338 C 
ATOM     20  O   UNL A   1      33.061  33.950  27.991  1.00  0.00    -0.246 OA
BRANCH  19  21
ATOM     21  C   UNL A   1      34.791  32.411  28.338  1.00  0.00     0.060 A 
ATOM     22  C   UNL A   1      35.874  33.226  27.961  1.00  0.00     0.016 A 
ATOM     23  C   UNL A   1      34.968  31.322  29.182  1.00  0.00     0.016 A 
ATOM     24  C   UNL A   1      37.126  33.015  28.514  1.00  0.00     0.010 A 
ATOM     25  C   UNL A   1      36.160  31.193  29.842  1.00  0.00     0.010 A 
ATOM     26  C   UNL A   1      37.244  32.000  29.459  1.00  0.00    -0.014 A 
BRANCH  26  27
ATOM     27  C   UNL A   1      38.520  31.410  29.809  1.00  0.00     0.031 A 
ATOM     28  C   UNL A   1      38.999  30.185  29.162  1.00  0.00     0.074 A 
ATOM     29  C   UNL A   1      39.186  32.226  30.659  1.00  0.00     0.049 A 
ATOM     30  N   UNL A   1      39.895  29.415  29.667  1.00  0.00    -0.248 NA
ATOM     31  C   UNL A   1      38.471  29.662  27.903  1.00  0.00     0.031 C 
ATOM     32  C   UNL A   1      40.567  32.297  31.083  1.00  0.00     0.029 A 
ATOM     33  N   UNL A   1      38.554  33.183  31.463  1.00  0.00    -0.354 N 
ATOM     34  C   UNL A   1      40.316  28.569  28.660  1.00  0.00     0.074 A 
ATOM     35  C   UNL A   1      39.291  28.632  27.655  1.00  0.00     0.031 C 
ATOM     36  C   UNL A   1      40.620  32.997  32.239  1.00  0.00     0.029 A 
ATOM     37  C   UNL A   1      39.245  33.281  32.657  1.00  0.00     0.049 A 
ATOM     38  H   UNL A   1      37.751  33.699  31.219  1.00  0.00     0.167 HD
ATOM     39  C   UNL A   1      41.593  28.094  28.715  1.00  0.00     0.031 A 
ATOM     40  C   UNL A   1      38.620  32.763  33.757  1.00  0.00     0.031 A 
ATOM     41  C   UNL A   1      42.222  28.550  29.953  1.00  0.00     0.049 A 
ATOM     42  C   UNL A   1      39.323  31.492  34.174  1.00  0.00     0.074 A 
ATOM     43  C   UNL A   1      43.020  29.650  30.219  1.00  0.00     0.029 A 
ATOM     44  N   UNL A   1      41.688  28.140  31.168  1.00  0.00    -0.354 N 
ATOM     45  N   UNL A   1      39.868  30.637  33.345  1.00  0.00    -0.248 NA
ATOM     46  C   UNL A   1      39.578  31.177  35.573  1.00  0.00     0.031 C 
ATOM     47  C   UNL A   1      42.859  29.971  31.596  1.00  0.00     0.029 A 
ATOM     48  C   UNL A   1      41.972  29.064  32.157  1.00  0.00     0.049 A 
ATOM     49  H   UNL A   1      41.178  27.308  31.306  1.00  0.00     0.167 HD
ATOM     50  C   UNL A   1      40.640  29.762  34.062  1.00  0.00     0.074 A 
ATOM     51  C   UNL A   1      40.391  30.115  35.452  1.00  0.00     0.031 C 
ATOM     52  C   UNL A   1      41.490  28.847  33.512  1.00  0.00     0.031 A 
BRANCH  39  53
ATOM     53  C   UNL A   1      42.380  27.518  27.560  1.00  0.00    -0.014 A 
ATOM     54  C   UNL A   1      42.201  28.081  26.279  1.00  0.00     0.009 A 
ATOM     55  C   UNL A   1      43.256  26.422  27.628  1.00  0.00     0.009 A 
ATOM     56  C   UNL A   1      42.814  27.557  25.133  1.00  0.00     0.001 A 
ATOM     57  C   UNL A   1      43.871  25.887  26.482  1.00  0.00     0.001 A 
ATOM     58  C   UNL A   1      43.645  26.451  25.233  1.00  0.00     0.000 A 
ENDBRANCH  39  53
BRANCH  40  59
ATOM     59  C   UNL A   1      37.131  33.010  33.812  1.00  0.00    -0.014 A 
ATOM     60  C   UNL A   1      36.673  34.217  34.398  1.00  0.00     0.009 A 
ATOM     61  C   UNL A   1      36.191  32.248  33.104  1.00  0.00     0.009 A 
ATOM     62  C   UNL A   1      35.372  34.697  34.189  1.00  0.00     0.001 A 
ATOM     63  C   UNL A   1      34.874  32.716  32.924  1.00  0.00     0.001 A 
ATOM     64  C   UNL A   1      34.475  33.951  33.435  1.00  0.00     0.000 A 
ENDBRANCH  40  59
BRANCH  52  65
ATOM     65  C   UNL A   1      42.027  27.652  34.253  1.00  0.00    -0.014 A 
ATOM     66  C   UNL A   1      41.206  26.669  34.815  1.00  0.00     0.009 A 
ATOM     67  C   UNL A   1      43.415  27.392  34.231  1.00  0.00     0.009 A 
ATOM     68  C   UNL A   1      41.746  25.516  35.391  1.00  0.00     0.001 A 
ATOM     69  C   UNL A   1      43.952  26.211  34.737  1.00  0.00     0.001 A 
ATOM     70  C   UNL A   1      43.116  25.282  35.339  1.00  0.00     0.000 A 
ENDBRANCH  52  65
ENDBRANCH  26  27
ENDBRANCH  19  21
ENDBRANCH  18  19
ENDBRANCH  17  18
ENDBRANCH   1  17
TORSDOF 13
ENDMDL
MODEL 2
REMARK VINA RESULT:     -11.1      2.127      3.683
REMARK SMILES Cc1ccc(OC(F)(F)F)cc1C(=O)OCCOC(=O)c1ccc(-c2c3nc(c(-c4ccccc4)c4ccc([nH]4)c(-c4ccccc4)c4nc(c(-c5ccccc5)c5ccc2[nH]5)C=C4)C=C3)cc1
REMARK SMILES IDX 16 1 15 2 13 3 14 4 12 5 1 6 2 7 3 8 4 9 11 10 5 11 6 12
REMARK SMILES IDX 7 13 8 14 9 15 10 16 17 17 18 18 19 19 20 20 21 21 22 22
REMARK SMILES IDX 68 23 23 24 67 25 24 26 25 27 26 28 61 29 27 30 66 31 60 32
REMARK SMILES IDX 62 33 28 34 65 35 59 36 58 37 29 39 51 40 36 41 50 42 37 43
REMARK SMILES IDX 40 44 49 45 63 46 38 47 39 48 48 50 64 51 41 52 30 53 31 54
REMARK SMILES IDX 35 55 32 56 34 57 33 58 52 59 53 60 57 61 54 62 56 63 55 64
REMARK SMILES IDX 42 65 43 66 47 67 44 68 46 69 45 70
REMARK H PARENT 62 38 40 49
REMARK Flexibility Score: inf
ROOT
ATOM      1  C   UNL A   1      34.013  28.436  25.830  1.00  0.00     0.275 C 
ENDROOT
BRANCH   1   2
ATOM      2  O   UNL A   1      32.604  28.476  25.530  1.00  0.00    -0.458 OA
BRANCH   2   3
ATOM      3  C   UNL A   1      32.312  27.769  24.406  1.00  0.00     0.338 C 
ATOM      4  O   UNL A   1      33.068  26.971  23.869  1.00  0.00    -0.246 OA
BRANCH   3   5
ATOM      5  C   UNL A   1      31.010  28.077  23.774  1.00  0.00     0.066 A 
ATOM      6  C   UNL A   1      30.196  25.709  24.374  1.00  0.00     0.045 C 
ATOM      7  C   UNL A   1      29.979  27.120  23.891  1.00  0.00    -0.036 A 
ATOM      8  C   UNL A   1      28.684  27.471  23.491  1.00  0.00     0.008 A 
ATOM      9  C   UNL A   1      28.412  28.750  23.010  1.00  0.00     0.047 A 
ATOM     10  C   UNL A   1      30.738  29.357  23.248  1.00  0.00     0.062 A 
ATOM     11  C   UNL A   1      29.427  29.701  22.900  1.00  0.00     0.130 A 
BRANCH  11  12
ATOM     12  O   UNL A   1      29.013  30.901  22.396  1.00  0.00    -0.406 OA
BRANCH  12  13
ATOM     13  C   UNL A   1      28.601  31.885  23.330  1.00  0.00     0.573 C 
ATOM     14  F   UNL A   1      27.282  31.790  23.605  1.00  0.00    -0.132 F 
ATOM     15  F   UNL A   1      29.306  31.785  24.474  1.00  0.00    -0.132 F 
ATOM     16  F   UNL A   1      28.829  33.106  22.796  1.00  0.00    -0.132 F 
ENDBRANCH  12  13
ENDBRANCH  11  12
ENDBRANCH   3   5
ENDBRANCH   2   3
ENDBRANCH   1   2
BRANCH   1  17
ATOM     17  C   UNL A   1      34.392  28.834  27.262  1.00  0.00     0.275 C 
BRANCH  17  18
ATOM     18  O   UNL A   1      34.546  30.236  27.616  1.00  0.00    -0.458 OA
BRANCH  18  19
ATOM     19  C   UNL A   1      35.527  30.824  28.335  1.00  0.00     0.338 C 
ATOM     20  O   UNL A   1      35.380  31.927  28.857  1.00  0.00    -0.246 OA
BRANCH  19  21
ATOM     21  C   UNL A   1      36.789  30.093  28.489  1.00  0.00     0.060 A 
ATOM     22  C   UNL A   1      36.928  29.199  29.565  1.00  0.00     0.016 A 
ATOM     23  C   UNL A   1      37.783  30.226  27.527  1.00  0.00     0.016 A 
ATOM     24  C   UNL A   1      38.023  28.352  29.626  1.00  0.00     0.010 A 
ATOM     25  C   UNL A   1      38.792  29.300  27.499  1.00  0.00     0.010 A 
ATOM     26  C   UNL A   1      38.937  28.413  28.578  1.00  0.00    -0.014 A 
BRANCH  26  27
ATOM     27  C   UNL A   1      40.289  27.907  28.697  1.00  0.00     0.031 A 
ATOM     28  C   UNL A   1      40.650  26.570  28.217  1.00  0.00     0.074 A 
ATOM     29  C   UNL A   1      41.107  28.884  29.154  1.00  0.00     0.049 A 
ATOM     30  N   UNL A   1      41.684  25.923  28.618  1.00  0.00    -0.248 NA
ATOM     31  C   UNL A   1      39.844  25.792  27.276  1.00  0.00     0.031 C 
ATOM     32  C   UNL A   1      42.545  29.038  29.178  1.00  0.00     0.029 A 
ATOM     33  N   UNL A   1      40.653  29.993  29.879  1.00  0.00    -0.354 N 
ATOM     34  C   UNL A   1      41.876  24.878  27.735  1.00  0.00     0.074 A 
ATOM     35  C   UNL A   1      40.626  24.729  27.042  1.00  0.00     0.031 C 
ATOM     36  C   UNL A   1      42.856  29.969  30.108  1.00  0.00     0.029 A 
ATOM     37  C   UNL A   1      41.621  30.341  30.803  1.00  0.00     0.049 A 
ATOM     38  H   UNL A   1      39.789  30.447  29.751  1.00  0.00     0.167 HD
ATOM     39  C   UNL A   1      43.148  24.422  27.551  1.00  0.00     0.031 A 
ATOM     40  C   UNL A   1      41.327  30.074  32.111  1.00  0.00     0.031 A 
ATOM     41  C   UNL A   1      44.048  25.130  28.458  1.00  0.00     0.049 A 
ATOM     42  C   UNL A   1      42.179  28.919  32.584  1.00  0.00     0.074 A 
ATOM     43  C   UNL A   1      44.829  26.258  28.271  1.00  0.00     0.029 A 
ATOM     44  N   UNL A   1      43.865  24.991  29.829  1.00  0.00    -0.354 N 
ATOM     45  N   UNL A   1      42.536  27.904  31.838  1.00  0.00    -0.248 NA
ATOM     46  C   UNL A   1      42.800  28.910  33.902  1.00  0.00     0.031 C 
ATOM     47  C   UNL A   1      45.010  26.867  29.545  1.00  0.00     0.029 A 
ATOM     48  C   UNL A   1      44.345  26.104  30.494  1.00  0.00     0.049 A 
ATOM     49  H   UNL A   1      43.453  24.211  30.265  1.00  0.00     0.167 HD
ATOM     50  C   UNL A   1      43.511  27.200  32.493  1.00  0.00     0.074 A 
ATOM     51  C   UNL A   1      43.609  27.843  33.795  1.00  0.00     0.031 C 
ATOM     52  C   UNL A   1      44.239  26.185  31.942  1.00  0.00     0.031 A 
BRANCH  39  53
ATOM     53  C   UNL A   1      43.642  23.609  26.376  1.00  0.00    -0.014 A 
ATOM     54  C   UNL A   1      43.524  22.204  26.435  1.00  0.00     0.009 A 
ATOM     55  C   UNL A   1      44.266  24.121  25.227  1.00  0.00     0.009 A 
ATOM     56  C   UNL A   1      44.036  21.362  25.438  1.00  0.00     0.001 A 
ATOM     57  C   UNL A   1      44.788  23.283  24.225  1.00  0.00     0.001 A 
ATOM     58  C   UNL A   1      44.678  21.903  24.334  1.00  0.00     0.000 A 
ENDBRANCH  39  53
BRANCH  40  59
ATOM     59  C   UNL A   1      39.890  30.333  32.501  1.00  0.00    -0.014 A 
ATOM     60  C   UNL A   1      39.291  31.548  32.083  1.00  0.00     0.009 A 
ATOM     61  C   UNL A   1      39.041  29.351  33.030  1.00  0.00     0.009 A 
ATOM     62  C   UNL A   1      37.901  31.728  32.083  1.00  0.00     0.001 A 
ATOM     63  C   UNL A   1      37.646  29.549  33.061  1.00  0.00     0.001 A 
ATOM     64  C   UNL A   1      37.075  30.719  32.559  1.00  0.00     0.000 A 
ENDBRANCH  40  59
BRANCH  52  65
ATOM     65  C   UNL A   1      45.010  25.174  32.748  1.00  0.00    -0.014 A 
ATOM     66  C   UNL A   1      46.313  25.396  33.207  1.00  0.00     0.009 A 
ATOM     67  C   UNL A   1      44.346  24.027  33.235  1.00  0.00     0.009 A 
ATOM     68  C   UNL A   1      46.948  24.482  34.052  1.00  0.00     0.001 A 
ATOM     69  C   UNL A   1      44.949  23.152  34.135  1.00  0.00     0.001 A 
ATOM     70  C   UNL A   1      46.262  23.370  34.526  1.00  0.00     0.000 A 
ENDBRANCH  52  65
ENDBRANCH  26  27
ENDBRANCH  19  21
ENDBRANCH  18  19
ENDBRANCH  17  18
ENDBRANCH   1  17
TORSDOF 13
ENDMDL
MODEL 3
REMARK VINA RESULT:     -11.0      5.673     10.371
REMARK SMILES Cc1ccc(OC(F)(F)F)cc1C(=O)OCCOC(=O)c1ccc(-c2c3nc(c(-c4ccccc4)c4ccc([nH]4)c(-c4ccccc4)c4nc(c(-c5ccccc5)c5ccc2[nH]5)C=C4)C=C3)cc1
REMARK SMILES IDX 16 1 15 2 13 3 14 4 12 5 1 6 2 7 3 8 4 9 11 10 5 11 6 12
REMARK SMILES IDX 7 13 8 14 9 15 10 16 17 17 18 18 19 19 20 20 21 21 22 22
REMARK SMILES IDX 68 23 23 24 67 25 24 26 25 27 26 28 61 29 27 30 66 31 60 32
REMARK SMILES IDX 62 33 28 34 65 35 59 36 58 37 29 39 51 40 36 41 50 42 37 43
REMARK SMILES IDX 40 44 49 45 63 46 38 47 39 48 48 50 64 51 41 52 30 53 31 54
REMARK SMILES IDX 35 55 32 56 34 57 33 58 52 59 53 60 57 61 54 62 56 63 55 64
REMARK SMILES IDX 42 65 43 66 47 67 44 68 46 69 45 70
REMARK H PARENT 62 38 40 49
REMARK Flexibility Score: inf
ROOT
ATOM      1  C   UNL A   1      36.034  21.768  25.366  1.00  0.00     0.275 C 
ENDROOT
BRANCH   1   2
ATOM      2  O   UNL A   1      35.157  21.578  26.494  1.00  0.00    -0.458 OA
BRANCH   2   3
ATOM      3  C   UNL A   1      33.870  21.890  26.183  1.00  0.00     0.338 C 
ATOM      4  O   UNL A   1      33.245  22.824  26.664  1.00  0.00    -0.246 OA
BRANCH   3   5
ATOM      5  C   UNL A   1      33.192  20.961  25.253  1.00  0.00     0.066 A 
ATOM      6  C   UNL A   1      32.720  22.938  23.673  1.00  0.00     0.045 C 
ATOM      7  C   UNL A   1      32.770  21.470  24.006  1.00  0.00    -0.036 A 
ATOM      8  C   UNL A   1      32.320  20.572  23.029  1.00  0.00     0.008 A 
ATOM      9  C   UNL A   1      32.312  19.201  23.273  1.00  0.00     0.047 A 
ATOM     10  C   UNL A   1      33.144  19.575  25.511  1.00  0.00     0.062 A 
ATOM     11  C   UNL A   1      32.736  18.694  24.502  1.00  0.00     0.130 A 
BRANCH  11  12
ATOM     12  O   UNL A   1      32.654  17.335  24.601  1.00  0.00    -0.406 OA
BRANCH  12  13
ATOM     13  C   UNL A   1      33.833  16.596  24.322  1.00  0.00     0.573 C 
ATOM     14  F   UNL A   1      34.940  17.245  24.744  1.00  0.00    -0.132 F 
ATOM     15  F   UNL A   1      33.781  15.378  24.896  1.00  0.00    -0.132 F 
ATOM     16  F   UNL A   1      33.929  16.431  22.983  1.00  0.00    -0.132 F 
ENDBRANCH  12  13
ENDBRANCH  11  12
ENDBRANCH   3   5
ENDBRANCH   2   3
ENDBRANCH   1   2
BRANCH   1  17
ATOM     17  C   UNL A   1      37.225  20.803  25.289  1.00  0.00     0.275 C 
BRANCH  17  18
ATOM     18  O   UNL A   1      38.584  21.318  25.241  1.00  0.00    -0.458 OA
BRANCH  18  19
ATOM     19  C   UNL A   1      39.594  21.122  26.115  1.00  0.00     0.338 C 
ATOM     20  O   UNL A   1      40.028  20.000  26.368  1.00  0.00    -0.246 OA
BRANCH  19  21
ATOM     21  C   UNL A   1      40.177  22.304  26.757  1.00  0.00     0.060 A 
ATOM     22  C   UNL A   1      40.928  22.135  27.934  1.00  0.00     0.016 A 
ATOM     23  C   UNL A   1      40.059  23.548  26.149  1.00  0.00     0.016 A 
ATOM     24  C   UNL A   1      41.653  23.196  28.453  1.00  0.00     0.010 A 
ATOM     25  C   UNL A   1      40.879  24.560  26.568  1.00  0.00     0.010 A 
ATOM     26  C   UNL A   1      41.622  24.396  27.749  1.00  0.00    -0.014 A 
BRANCH  26  27
ATOM     27  C   UNL A   1      41.979  25.662  28.356  1.00  0.00     0.031 A 
ATOM     28  C   UNL A   1      40.960  26.656  28.706  1.00  0.00     0.074 A 
ATOM     29  C   UNL A   1      43.299  25.674  28.649  1.00  0.00     0.049 A 
ATOM     30  N   UNL A   1      41.210  27.904  28.879  1.00  0.00    -0.248 NA
ATOM     31  C   UNL A   1      39.534  26.357  28.838  1.00  0.00     0.031 C 
ATOM     32  C   UNL A   1      44.115  26.513  29.500  1.00  0.00     0.029 A 
ATOM     33  N   UNL A   1      44.239  24.856  28.010  1.00  0.00    -0.354 N 
ATOM     34  C   UNL A   1      40.108  28.456  29.501  1.00  0.00     0.074 A 
ATOM     35  C   UNL A   1      39.040  27.518  29.289  1.00  0.00     0.031 C 
ATOM     36  C   UNL A   1      45.405  26.381  29.115  1.00  0.00     0.029 A 
ATOM     37  C   UNL A   1      45.431  25.549  27.910  1.00  0.00     0.049 A 
ATOM     38  H   UNL A   1      44.077  23.940  27.686  1.00  0.00     0.167 HD
ATOM     39  C   UNL A   1      40.304  29.537  30.309  1.00  0.00     0.031 A 
ATOM     40  C   UNL A   1      45.779  25.968  26.655  1.00  0.00     0.031 A 
ATOM     41  C   UNL A   1      41.709  29.934  30.247  1.00  0.00     0.049 A 
ATOM     42  C   UNL A   1      45.620  27.469  26.573  1.00  0.00     0.074 A 
ATOM     43  C   UNL A   1      42.785  29.609  31.055  1.00  0.00     0.029 A 
ATOM     44  N   UNL A   1      42.233  30.358  29.032  1.00  0.00    -0.354 N 
ATOM     45  N   UNL A   1      44.689  28.153  27.189  1.00  0.00    -0.248 NA
ATOM     46  C   UNL A   1      46.596  28.310  25.894  1.00  0.00     0.031 C 
ATOM     47  C   UNL A   1      43.963  29.725  30.263  1.00  0.00     0.029 A 
ATOM     48  C   UNL A   1      43.595  30.125  28.987  1.00  0.00     0.049 A 
ATOM     49  H   UNL A   1      41.709  30.766  28.305  1.00  0.00     0.167 HD
ATOM     50  C   UNL A   1      45.003  29.485  27.116  1.00  0.00     0.074 A 
ATOM     51  C   UNL A   1      46.179  29.533  26.260  1.00  0.00     0.031 C 
ATOM     52  C   UNL A   1      44.351  30.474  27.795  1.00  0.00     0.031 A 
BRANCH  39  53
ATOM     53  C   UNL A   1      39.359  30.031  31.381  1.00  0.00    -0.014 A 
ATOM     54  C   UNL A   1      38.714  31.271  31.187  1.00  0.00     0.009 A 
ATOM     55  C   UNL A   1      39.091  29.389  32.601  1.00  0.00     0.009 A 
ATOM     56  C   UNL A   1      37.895  31.855  32.162  1.00  0.00     0.001 A 
ATOM     57  C   UNL A   1      38.276  29.971  33.587  1.00  0.00     0.001 A 
ATOM     58  C   UNL A   1      37.682  31.208  33.370  1.00  0.00     0.000 A 
ENDBRANCH  39  53
BRANCH  40  59
ATOM     59  C   UNL A   1      45.470  24.983  25.552  1.00  0.00    -0.014 A 
ATOM     60  C   UNL A   1      46.516  24.142  25.093  1.00  0.00     0.009 A 
ATOM     61  C   UNL A   1      44.170  24.674  25.128  1.00  0.00     0.009 A 
ATOM     62  C   UNL A   1      46.262  22.984  24.346  1.00  0.00     0.001 A 
ATOM     63  C   UNL A   1      43.922  23.527  24.348  1.00  0.00     0.001 A 
ATOM     64  C   UNL A   1      44.958  22.667  23.987  1.00  0.00     0.000 A 
ENDBRANCH  40  59
BRANCH  52  65
ATOM     65  C   UNL A   1      44.428  31.931  27.428  1.00  0.00    -0.014 A 
ATOM     66  C   UNL A   1      44.124  32.415  26.150  1.00  0.00     0.009 A 
ATOM     67  C   UNL A   1      44.630  32.891  28.444  1.00  0.00     0.009 A 
ATOM     68  C   UNL A   1      44.093  33.785  25.884  1.00  0.00     0.001 A 
ATOM     69  C   UNL A   1      44.528  34.257  28.199  1.00  0.00     0.001 A 
ATOM     70  C   UNL A   1      44.281  34.705  26.910  1.00  0.00     0.000 A 
ENDBRANCH  52  65
ENDBRANCH  26  27
ENDBRANCH  19  21
ENDBRANCH  18  19
ENDBRANCH  17  18
ENDBRANCH   1  17
TORSDOF 13
ENDMDL
