MODEL 1
REMARK VINA RESULT:      -9.9      0.000      0.000
REMARK SMILES CC(C)Cc1ccc([C@H](C)C(=O)OCCOC(=O)c2ccc(-c3c4nc(c(-c5ccccc5)c5ccc([nH]5)c(-c5ccccc5)c5nc(c(-c6ccccc6)c6ccc3[nH]6)C=C5)C=C4)cc2)cc1
REMARK SMILES IDX 14 1 13 2 11 3 12 4 9 5 10 6 8 7 5 8 6 9 68 10 7 11 67 12
REMARK SMILES IDX 4 13 2 14 1 15 3 16 15 17 16 18 17 19 18 20 19 21 20 22
REMARK SMILES IDX 66 23 21 24 65 25 22 26 23 27 24 28 59 29 25 30 64 31 58 32
REMARK SMILES IDX 60 33 26 34 63 35 57 36 56 37 27 39 49 40 34 41 48 42 35 43
REMARK SMILES IDX 38 44 47 45 61 46 36 47 37 48 46 50 62 51 39 52 28 53 29 54
REMARK SMILES IDX 33 55 30 56 32 57 31 58 50 59 51 60 55 61 52 62 54 63 53 64
REMARK SMILES IDX 40 65 41 66 45 67 42 68 44 69 43 70
REMARK H PARENT 60 38 38 49
REMARK Flexibility Score: inf
ROOT
ATOM      1  C   UNL A   1      44.214  21.635  24.994  1.00  0.00     0.274 C 
ENDROOT
BRANCH   1   2
ATOM      2  O   UNL A   1      42.830  21.813  25.351  1.00  0.00    -0.462 OA
BRANCH   2   3
ATOM      3  C   UNL A   1      42.191  20.714  25.836  1.00  0.00     0.313 C 
ATOM      4  O   UNL A   1      42.314  19.583  25.374  1.00  0.00    -0.252 OA
BRANCH   3   5
ATOM      5  C   UNL A   1      41.273  21.030  27.015  1.00  0.00     0.126 C 
ATOM      6  C   UNL A   1      41.928  21.806  28.152  1.00  0.00     0.025 C 
BRANCH   5   7
ATOM      7  C   UNL A   1      39.975  21.668  26.564  1.00  0.00    -0.034 A 
ATOM      8  C   UNL A   1      37.652  22.883  25.539  1.00  0.00    -0.048 A 
ATOM      9  C   UNL A   1      38.527  23.605  26.358  1.00  0.00     0.004 A 
ATOM     10  C   UNL A   1      37.913  21.532  25.288  1.00  0.00     0.004 A 
ATOM     11  C   UNL A   1      39.671  23.000  26.877  1.00  0.00     0.005 A 
ATOM     12  C   UNL A   1      39.068  20.931  25.790  1.00  0.00     0.005 A 
BRANCH   8  13
ATOM     13  C   UNL A   1      36.487  23.574  24.873  1.00  0.00     0.038 C 
BRANCH  13  14
ATOM     14  C   UNL A   1      35.443  24.086  25.887  1.00  0.00    -0.013 C 
ATOM     15  C   UNL A   1      34.524  25.157  25.288  1.00  0.00     0.008 C 
ATOM     16  C   UNL A   1      34.601  22.919  26.403  1.00  0.00     0.008 C 
ENDBRANCH  13  14
ENDBRANCH   8  13
ENDBRANCH   5   7
ENDBRANCH   3   5
ENDBRANCH   2   3
ENDBRANCH   1   2
BRANCH   1  17
ATOM     17  C   UNL A   1      44.745  22.813  24.173  1.00  0.00     0.275 C 
BRANCH  17  18
ATOM     18  O   UNL A   1      44.002  24.022  24.419  1.00  0.00    -0.458 OA
BRANCH  18  19
ATOM     19  C   UNL A   1      44.708  25.021  24.999  1.00  0.00     0.338 C 
ATOM     20  O   UNL A   1      45.804  25.442  24.673  1.00  0.00    -0.246 OA
BRANCH  19  21
ATOM     21  C   UNL A   1      43.905  25.649  26.056  1.00  0.00     0.060 A 
ATOM     22  C   UNL A   1      44.127  27.000  26.336  1.00  0.00     0.016 A 
ATOM     23  C   UNL A   1      43.025  24.897  26.833  1.00  0.00     0.016 A 
ATOM     24  C   UNL A   1      43.479  27.608  27.405  1.00  0.00     0.010 A 
ATOM     25  C   UNL A   1      42.369  25.510  27.905  1.00  0.00     0.010 A 
ATOM     26  C   UNL A   1      42.604  26.865  28.204  1.00  0.00    -0.014 A 
BRANCH  26  27
ATOM     27  C   UNL A   1      41.973  27.496  29.384  1.00  0.00     0.031 A 
ATOM     28  C   UNL A   1      40.635  28.163  29.246  1.00  0.00     0.074 A 
ATOM     29  C   UNL A   1      42.591  27.454  30.577  1.00  0.00     0.049 A 
ATOM     30  N   UNL A   1      39.966  28.861  30.127  1.00  0.00    -0.248 NA
ATOM     31  C   UNL A   1      39.961  28.024  27.945  1.00  0.00     0.031 C 
ATOM     32  C   UNL A   1      43.861  26.781  30.849  1.00  0.00     0.029 A 
ATOM     33  N   UNL A   1      42.230  27.994  31.784  1.00  0.00    -0.354 N 
ATOM     34  C   UNL A   1      38.806  29.267  29.482  1.00  0.00     0.074 A 
ATOM     35  C   UNL A   1      38.864  28.744  28.133  1.00  0.00     0.031 C 
ATOM     36  C   UNL A   1      44.175  26.950  32.144  1.00  0.00     0.029 A 
ATOM     37  C   UNL A   1      43.156  27.783  32.776  1.00  0.00     0.049 A 
ATOM     38  H   UNL A   1      41.388  28.484  31.927  1.00  0.00     0.167 HD
ATOM     39  C   UNL A   1      37.787  30.013  29.969  1.00  0.00     0.031 A 
ATOM     40  C   UNL A   1      43.195  28.240  34.041  1.00  0.00     0.031 A 
ATOM     41  C   UNL A   1      37.731  30.531  31.310  1.00  0.00     0.049 A 
ATOM     42  C   UNL A   1      42.086  29.124  34.537  1.00  0.00     0.074 A 
ATOM     43  C   UNL A   1      36.743  31.302  31.899  1.00  0.00     0.029 A 
ATOM     44  N   UNL A   1      38.707  30.327  32.273  1.00  0.00    -0.354 N 
ATOM     45  N   UNL A   1      41.007  29.524  33.910  1.00  0.00    -0.248 NA
ATOM     46  C   UNL A   1      42.206  29.625  35.914  1.00  0.00     0.031 C 
ATOM     47  C   UNL A   1      37.141  31.596  33.208  1.00  0.00     0.029 A 
ATOM     48  C   UNL A   1      38.355  30.972  33.447  1.00  0.00     0.049 A 
ATOM     49  H   UNL A   1      39.529  29.801  32.143  1.00  0.00     0.167 HD
ATOM     50  C   UNL A   1      40.311  30.309  34.819  1.00  0.00     0.074 A 
ATOM     51  C   UNL A   1      41.083  30.316  36.046  1.00  0.00     0.031 C 
ATOM     52  C   UNL A   1      39.139  30.968  34.654  1.00  0.00     0.031 A 
BRANCH  39  53
ATOM     53  C   UNL A   1      36.666  30.348  29.028  1.00  0.00    -0.014 A 
ATOM     54  C   UNL A   1      36.474  31.658  28.561  1.00  0.00     0.009 A 
ATOM     55  C   UNL A   1      35.807  29.332  28.584  1.00  0.00     0.009 A 
ATOM     56  C   UNL A   1      35.423  31.946  27.687  1.00  0.00     0.001 A 
ATOM     57  C   UNL A   1      34.772  29.620  27.693  1.00  0.00     0.001 A 
ATOM     58  C   UNL A   1      34.575  30.928  27.252  1.00  0.00     0.000 A 
ENDBRANCH  39  53
BRANCH  40  59
ATOM     59  C   UNL A   1      44.348  27.904  34.914  1.00  0.00    -0.014 A 
ATOM     60  C   UNL A   1      44.296  26.795  35.771  1.00  0.00     0.009 A 
ATOM     61  C   UNL A   1      45.508  28.696  34.893  1.00  0.00     0.009 A 
ATOM     62  C   UNL A   1      45.378  26.496  36.602  1.00  0.00     0.001 A 
ATOM     63  C   UNL A   1      46.596  28.379  35.708  1.00  0.00     0.001 A 
ATOM     64  C   UNL A   1      46.527  27.284  36.566  1.00  0.00     0.000 A 
ENDBRANCH  40  59
BRANCH  52  65
ATOM     65  C   UNL A   1      38.610  31.725  35.837  1.00  0.00    -0.014 A 
ATOM     66  C   UNL A   1      38.765  33.115  35.935  1.00  0.00     0.009 A 
ATOM     67  C   UNL A   1      37.920  31.039  36.849  1.00  0.00     0.009 A 
ATOM     68  C   UNL A   1      38.263  33.803  37.042  1.00  0.00     0.001 A 
ATOM     69  C   UNL A   1      37.400  31.732  37.942  1.00  0.00     0.001 A 
ATOM     70  C   UNL A   1      37.579  33.111  38.042  1.00  0.00     0.000 A 
ENDBRANCH  52  65
ENDBRANCH  26  27
ENDBRANCH  19  21
ENDBRANCH  18  19
ENDBRANCH  17  18
ENDBRANCH   1  17
TORSDOF 14
ENDMDL
MODEL 2
REMARK VINA RESULT:      -9.9      4.409     10.498
REMARK SMILES CC(C)Cc1ccc([C@H](C)C(=O)OCCOC(=O)c2ccc(-c3c4nc(c(-c5ccccc5)c5ccc([nH]5)c(-c5ccccc5)c5nc(c(-c6ccccc6)c6ccc3[nH]6)C=C5)C=C4)cc2)cc1
REMARK SMILES IDX 14 1 13 2 11 3 12 4 9 5 10 6 8 7 5 8 6 9 68 10 7 11 67 12
REMARK SMILES IDX 4 13 2 14 1 15 3 16 15 17 16 18 17 19 18 20 19 21 20 22
REMARK SMILES IDX 66 23 21 24 65 25 22 26 23 27 24 28 59 29 25 30 64 31 58 32
REMARK SMILES IDX 60 33 26 34 63 35 57 36 56 37 27 39 49 40 34 41 48 42 35 43
REMARK SMILES IDX 38 44 47 45 61 46 36 47 37 48 46 50 62 51 39 52 28 53 29 54
REMARK SMILES IDX 33 55 30 56 32 57 31 58 50 59 51 60 55 61 52 62 54 63 53 64
REMARK SMILES IDX 40 65 41 66 45 67 42 68 44 69 43 70
REMARK H PARENT 60 38 38 49
REMARK Flexibility Score: inf
ROOT
ATOM      1  C   UNL A   1      33.940  34.246  29.297  1.00  0.00     0.274 C 
ENDROOT
BRANCH   1   2
ATOM      2  O   UNL A   1      34.029  33.460  30.500  1.00  0.00    -0.462 OA
BRANCH   2   3
ATOM      3  C   UNL A   1      34.620  34.062  31.567  1.00  0.00     0.313 C 
ATOM      4  O   UNL A   1      34.252  35.129  32.049  1.00  0.00    -0.252 OA
BRANCH   3   5
ATOM      5  C   UNL A   1      35.818  33.282  32.103  1.00  0.00     0.126 C 
ATOM      6  C   UNL A   1      35.643  31.768  32.130  1.00  0.00     0.025 C 
BRANCH   5   7
ATOM      7  C   UNL A   1      37.109  33.694  31.423  1.00  0.00    -0.034 A 
ATOM      8  C   UNL A   1      39.568  34.260  30.178  1.00  0.00    -0.048 A 
ATOM      9  C   UNL A   1      39.365  34.583  31.523  1.00  0.00     0.004 A 
ATOM     10  C   UNL A   1      38.514  33.710  29.443  1.00  0.00     0.004 A 
ATOM     11  C   UNL A   1      38.142  34.315  32.138  1.00  0.00     0.005 A 
ATOM     12  C   UNL A   1      37.296  33.423  30.061  1.00  0.00     0.005 A 
BRANCH   8  13
ATOM     13  C   UNL A   1      40.931  34.429  29.551  1.00  0.00     0.038 C 
BRANCH  13  14
ATOM     14  C   UNL A   1      42.062  33.847  30.426  1.00  0.00    -0.013 C 
ATOM     15  C   UNL A   1      42.661  32.568  29.831  1.00  0.00     0.008 C 
ATOM     16  C   UNL A   1      43.164  34.890  30.615  1.00  0.00     0.008 C 
ENDBRANCH  13  14
ENDBRANCH   8  13
ENDBRANCH   5   7
ENDBRANCH   3   5
ENDBRANCH   2   3
ENDBRANCH   1   2
BRANCH   1  17
ATOM     17  C   UNL A   1      33.612  33.382  28.076  1.00  0.00     0.275 C 
BRANCH  17  18
ATOM     18  O   UNL A   1      34.725  32.559  27.681  1.00  0.00    -0.458 OA
BRANCH  18  19
ATOM     19  C   UNL A   1      34.501  31.225  27.739  1.00  0.00     0.338 C 
ATOM     20  O   UNL A   1      33.484  30.629  27.432  1.00  0.00    -0.246 OA
BRANCH  19  21
ATOM     21  C   UNL A   1      35.734  30.530  28.132  1.00  0.00     0.060 A 
ATOM     22  C   UNL A   1      35.721  29.784  29.312  1.00  0.00     0.016 A 
ATOM     23  C   UNL A   1      36.915  30.697  27.408  1.00  0.00     0.016 A 
ATOM     24  C   UNL A   1      36.893  29.207  29.788  1.00  0.00     0.010 A 
ATOM     25  C   UNL A   1      38.092  30.112  27.883  1.00  0.00     0.010 A 
ATOM     26  C   UNL A   1      38.090  29.376  29.084  1.00  0.00    -0.014 A 
BRANCH  26  27
ATOM     27  C   UNL A   1      39.348  28.823  29.630  1.00  0.00     0.031 A 
ATOM     28  C   UNL A   1      40.039  29.521  30.765  1.00  0.00     0.074 A 
ATOM     29  C   UNL A   1      39.858  27.688  29.119  1.00  0.00     0.049 A 
ATOM     30  N   UNL A   1      41.198  29.259  31.312  1.00  0.00    -0.248 NA
ATOM     31  C   UNL A   1      39.330  30.663  31.364  1.00  0.00     0.031 C 
ATOM     32  C   UNL A   1      39.246  26.887  28.059  1.00  0.00     0.029 A 
ATOM     33  N   UNL A   1      41.013  27.016  29.426  1.00  0.00    -0.354 N 
ATOM     34  C   UNL A   1      41.371  30.218  32.301  1.00  0.00     0.074 A 
ATOM     35  C   UNL A   1      40.202  31.071  32.275  1.00  0.00     0.031 C 
ATOM     36  C   UNL A   1      40.034  25.830  27.802  1.00  0.00     0.029 A 
ATOM     37  C   UNL A   1      41.225  25.910  28.641  1.00  0.00     0.049 A 
ATOM     38  H   UNL A   1      41.630  27.300  30.139  1.00  0.00     0.167 HD
ATOM     39  C   UNL A   1      42.413  30.374  33.151  1.00  0.00     0.031 A 
ATOM     40  C   UNL A   1      42.279  25.075  28.582  1.00  0.00     0.031 A 
ATOM     41  C   UNL A   1      43.573  29.524  33.175  1.00  0.00     0.049 A 
ATOM     42  C   UNL A   1      43.455  25.311  29.488  1.00  0.00     0.074 A 
ATOM     43  C   UNL A   1      44.686  29.603  33.995  1.00  0.00     0.029 A 
ATOM     44  N   UNL A   1      43.768  28.436  32.339  1.00  0.00    -0.354 N 
ATOM     45  N   UNL A   1      43.620  26.237  30.401  1.00  0.00    -0.248 NA
ATOM     46  C   UNL A   1      44.592  24.390  29.348  1.00  0.00     0.031 C 
ATOM     47  C   UNL A   1      45.571  28.583  33.628  1.00  0.00     0.029 A 
ATOM     48  C   UNL A   1      44.990  27.844  32.610  1.00  0.00     0.049 A 
ATOM     49  H   UNL A   1      43.132  28.128  31.653  1.00  0.00     0.167 HD
ATOM     50  C   UNL A   1      44.870  26.000  30.956  1.00  0.00     0.074 A 
ATOM     51  C   UNL A   1      45.414  24.836  30.287  1.00  0.00     0.031 C 
ATOM     52  C   UNL A   1      45.513  26.688  31.931  1.00  0.00     0.031 A 
BRANCH  39  53
ATOM     53  C   UNL A   1      42.362  31.538  34.098  1.00  0.00    -0.014 A 
ATOM     54  C   UNL A   1      42.884  32.791  33.742  1.00  0.00     0.009 A 
ATOM     55  C   UNL A   1      41.759  31.382  35.355  1.00  0.00     0.009 A 
ATOM     56  C   UNL A   1      42.826  33.859  34.641  1.00  0.00     0.001 A 
ATOM     57  C   UNL A   1      41.683  32.456  36.243  1.00  0.00     0.001 A 
ATOM     58  C   UNL A   1      42.224  33.691  35.888  1.00  0.00     0.000 A 
ENDBRANCH  39  53
BRANCH  40  59
ATOM     59  C   UNL A   1      42.288  23.963  27.599  1.00  0.00    -0.014 A 
ATOM     60  C   UNL A   1      42.799  24.154  26.307  1.00  0.00     0.009 A 
ATOM     61  C   UNL A   1      41.783  22.701  27.952  1.00  0.00     0.009 A 
ATOM     62  C   UNL A   1      42.789  23.107  25.382  1.00  0.00     0.001 A 
ATOM     63  C   UNL A   1      41.796  21.650  27.032  1.00  0.00     0.001 A 
ATOM     64  C   UNL A   1      42.292  21.857  25.747  1.00  0.00     0.000 A 
ENDBRANCH  40  59
BRANCH  52  65
ATOM     65  C   UNL A   1      46.861  26.178  32.349  1.00  0.00    -0.014 A 
ATOM     66  C   UNL A   1      48.028  26.600  31.696  1.00  0.00     0.009 A 
ATOM     67  C   UNL A   1      46.963  25.288  33.429  1.00  0.00     0.009 A 
ATOM     68  C   UNL A   1      49.275  26.117  32.102  1.00  0.00     0.001 A 
ATOM     69  C   UNL A   1      48.212  24.824  33.845  1.00  0.00     0.001 A 
ATOM     70  C   UNL A   1      49.365  25.233  33.177  1.00  0.00     0.000 A 
ENDBRANCH  52  65
ENDBRANCH  26  27
ENDBRANCH  19  21
ENDBRANCH  18  19
ENDBRANCH  17  18
ENDBRANCH   1  17
TORSDOF 14
ENDMDL
MODEL 3
REMARK VINA RESULT:      -9.5      4.897     10.535
REMARK SMILES CC(C)Cc1ccc([C@H](C)C(=O)OCCOC(=O)c2ccc(-c3c4nc(c(-c5ccccc5)c5ccc([nH]5)c(-c5ccccc5)c5nc(c(-c6ccccc6)c6ccc3[nH]6)C=C5)C=C4)cc2)cc1
REMARK SMILES IDX 14 1 13 2 11 3 12 4 9 5 10 6 8 7 5 8 6 9 68 10 7 11 67 12
REMARK SMILES IDX 4 13 2 14 1 15 3 16 15 17 16 18 17 19 18 20 19 21 20 22
REMARK SMILES IDX 66 23 21 24 65 25 22 26 23 27 24 28 59 29 25 30 64 31 58 32
REMARK SMILES IDX 60 33 26 34 63 35 57 36 56 37 27 39 49 40 34 41 48 42 35 43
REMARK SMILES IDX 38 44 47 45 61 46 36 47 37 48 46 50 62 51 39 52 28 53 29 54
REMARK SMILES IDX 33 55 30 56 32 57 31 58 50 59 51 60 55 61 52 62 54 63 53 64
REMARK SMILES IDX 40 65 41 66 45 67 42 68 44 69 43 70
REMARK H PARENT 60 38 38 49
REMARK Flexibility Score: inf
ROOT
ATOM      1  C   UNL A   1      33.677  35.380  28.788  1.00  0.00     0.274 C 
ENDROOT
BRANCH   1   2
ATOM      2  O   UNL A   1      34.752  34.599  29.342  1.00  0.00    -0.462 OA
BRANCH   2   3
ATOM      3  C   UNL A   1      34.593  33.248  29.306  1.00  0.00     0.313 C 
ATOM      4  O   UNL A   1      34.114  32.585  30.221  1.00  0.00    -0.252 OA
BRANCH   3   5
ATOM      5  C   UNL A   1      35.093  32.624  28.005  1.00  0.00     0.126 C 
ATOM      6  C   UNL A   1      36.597  32.387  27.940  1.00  0.00     0.025 C 
BRANCH   5   7
ATOM      7  C   UNL A   1      34.305  31.383  27.636  1.00  0.00    -0.034 A 
ATOM      8  C   UNL A   1      32.763  29.081  27.143  1.00  0.00    -0.048 A 
ATOM      9  C   UNL A   1      34.128  28.971  27.427  1.00  0.00     0.004 A 
ATOM     10  C   UNL A   1      32.187  30.352  27.045  1.00  0.00     0.004 A 
ATOM     11  C   UNL A   1      34.896  30.112  27.659  1.00  0.00     0.005 A 
ATOM     12  C   UNL A   1      32.950  31.494  27.295  1.00  0.00     0.005 A 
BRANCH   8  13
ATOM     13  C   UNL A   1      31.907  27.843  27.024  1.00  0.00     0.038 C 
BRANCH  13  14
ATOM     14  C   UNL A   1      31.400  27.610  25.585  1.00  0.00    -0.013 C 
ATOM     15  C   UNL A   1      32.511  27.772  24.541  1.00  0.00     0.008 C 
ATOM     16  C   UNL A   1      30.788  26.214  25.468  1.00  0.00     0.008 C 
ENDBRANCH  13  14
ENDBRANCH   8  13
ENDBRANCH   5   7
ENDBRANCH   3   5
ENDBRANCH   2   3
ENDBRANCH   1   2
BRANCH   1  17
ATOM     17  C   UNL A   1      32.588  35.666  29.826  1.00  0.00     0.275 C 
BRANCH  17  18
ATOM     18  O   UNL A   1      33.101  36.382  30.965  1.00  0.00    -0.458 OA
BRANCH  18  19
ATOM     19  C   UNL A   1      32.811  35.832  32.167  1.00  0.00     0.338 C 
ATOM     20  O   UNL A   1      31.742  35.849  32.753  1.00  0.00    -0.246 OA
BRANCH  19  21
ATOM     21  C   UNL A   1      33.968  35.074  32.660  1.00  0.00     0.060 A 
ATOM     22  C   UNL A   1      35.241  35.615  32.465  1.00  0.00     0.016 A 
ATOM     23  C   UNL A   1      33.812  33.801  33.210  1.00  0.00     0.016 A 
ATOM     24  C   UNL A   1      36.372  34.882  32.806  1.00  0.00     0.010 A 
ATOM     25  C   UNL A   1      34.950  33.067  33.558  1.00  0.00     0.010 A 
ATOM     26  C   UNL A   1      36.235  33.598  33.345  1.00  0.00    -0.014 A 
BRANCH  26  27
ATOM     27  C   UNL A   1      37.441  32.793  33.639  1.00  0.00     0.031 A 
ATOM     28  C   UNL A   1      38.185  33.007  34.925  1.00  0.00     0.074 A 
ATOM     29  C   UNL A   1      37.855  31.862  32.761  1.00  0.00     0.049 A 
ATOM     30  N   UNL A   1      39.316  32.483  35.321  1.00  0.00    -0.248 NA
ATOM     31  C   UNL A   1      37.573  33.931  35.894  1.00  0.00     0.031 C 
ATOM     32  C   UNL A   1      37.180  31.520  31.509  1.00  0.00     0.029 A 
ATOM     33  N   UNL A   1      38.948  31.036  32.793  1.00  0.00    -0.354 N 
ATOM     34  C   UNL A   1      39.567  33.032  36.571  1.00  0.00     0.074 A 
ATOM     35  C   UNL A   1      38.473  33.934  36.866  1.00  0.00     0.031 C 
ATOM     36  C   UNL A   1      37.877  30.553  30.889  1.00  0.00     0.029 A 
ATOM     37  C   UNL A   1      39.069  30.248  31.675  1.00  0.00     0.049 A 
ATOM     38  H   UNL A   1      39.585  31.010  33.544  1.00  0.00     0.167 HD
ATOM     39  C   UNL A   1      40.615  32.806  37.397  1.00  0.00     0.031 A 
ATOM     40  C   UNL A   1      40.049  29.401  31.310  1.00  0.00     0.031 A 
ATOM     41  C   UNL A   1      41.700  31.908  37.102  1.00  0.00     0.049 A 
ATOM     42  C   UNL A   1      41.238  29.220  32.211  1.00  0.00     0.074 A 
ATOM     43  C   UNL A   1      42.812  31.614  37.871  1.00  0.00     0.029 A 
ATOM     44  N   UNL A   1      41.805  31.156  35.942  1.00  0.00    -0.354 N 
ATOM     45  N   UNL A   1      41.477  29.765  33.379  1.00  0.00    -0.248 NA
ATOM     46  C   UNL A   1      42.293  28.314  31.739  1.00  0.00     0.031 C 
ATOM     47  C   UNL A   1      43.610  30.712  37.158  1.00  0.00     0.029 A 
ATOM     48  C   UNL A   1      42.972  30.412  35.965  1.00  0.00     0.049 A 
ATOM     49  H   UNL A   1      41.147  31.152  35.209  1.00  0.00     0.167 HD
ATOM     50  C   UNL A   1      42.701  29.255  33.789  1.00  0.00     0.074 A 
ATOM     51  C   UNL A   1      43.147  28.346  32.751  1.00  0.00     0.031 C 
ATOM     52  C   UNL A   1      43.397  29.517  34.922  1.00  0.00     0.031 A 
BRANCH  39  53
ATOM     53  C   UNL A   1      40.660  33.580  38.683  1.00  0.00    -0.014 A 
ATOM     54  C   UNL A   1      41.379  34.780  38.787  1.00  0.00     0.009 A 
ATOM     55  C   UNL A   1      39.949  33.111  39.798  1.00  0.00     0.009 A 
ATOM     56  C   UNL A   1      41.407  35.482  39.995  1.00  0.00     0.001 A 
ATOM     57  C   UNL A   1      39.961  33.825  40.997  1.00  0.00     0.001 A 
ATOM     58  C   UNL A   1      40.696  35.005  41.097  1.00  0.00     0.000 A 
ENDBRANCH  39  53
BRANCH  40  59
ATOM     59  C   UNL A   1      39.967  28.691  30.008  1.00  0.00    -0.014 A 
ATOM     60  C   UNL A   1      39.438  27.394  29.933  1.00  0.00     0.009 A 
ATOM     61  C   UNL A   1      40.420  29.311  28.833  1.00  0.00     0.009 A 
ATOM     62  C   UNL A   1      39.381  26.726  28.708  1.00  0.00     0.001 A 
ATOM     63  C   UNL A   1      40.338  28.649  27.606  1.00  0.00     0.001 A 
ATOM     64  C   UNL A   1      39.826  27.355  27.546  1.00  0.00     0.000 A 
ENDBRANCH  40  59
BRANCH  52  65
ATOM     65  C   UNL A   1      44.696  28.789  35.107  1.00  0.00    -0.014 A 
ATOM     66  C   UNL A   1      45.907  29.348  34.676  1.00  0.00     0.009 A 
ATOM     67  C   UNL A   1      44.708  27.541  35.751  1.00  0.00     0.009 A 
ATOM     68  C   UNL A   1      47.107  28.657  34.861  1.00  0.00     0.001 A 
ATOM     69  C   UNL A   1      45.911  26.864  35.953  1.00  0.00     0.001 A 
ATOM     70  C   UNL A   1      47.107  27.418  35.501  1.00  0.00     0.000 A 
ENDBRANCH  52  65
ENDBRANCH  26  27
ENDBRANCH  19  21
ENDBRANCH  18  19
ENDBRANCH  17  18
ENDBRANCH   1  17
TORSDOF 14
ENDMDL
