MODEL 1
REMARK VINA RESULT:      -9.9      0.000      0.000
REMARK SMILES C[C@@H]1C[C@H]([NH3+])CN(S(=O)(=O)CCCC(=O)OCCOC(=O)c2ccc(-c3c4nc(c(-c5ccccc5)c5ccc([nH]5)c(-c5ccccc5)c5nc(c(-c6ccccc6)c6ccc3[nH]6)C=C5)C=C4)cc2)C1
REMARK SMILES IDX 16 1 14 2 15 3 13 4 12 5 11 6 8 7 9 8 10 9 7 10 1 11 2 12
REMARK SMILES IDX 3 13 70 14 4 15 6 16 5 17 17 21 18 22 19 23 20 24 21 25
REMARK SMILES IDX 22 26 23 27 69 28 24 29 68 30 25 31 26 32 27 33 62 34 28 35
REMARK SMILES IDX 67 36 61 37 63 38 29 39 66 40 60 41 59 42 30 44 52 45 37 46
REMARK SMILES IDX 51 47 38 48 41 49 50 50 64 51 39 52 40 53 49 55 65 56 42 57
REMARK SMILES IDX 31 58 32 59 36 60 33 61 35 62 34 63 53 64 54 65 58 66 55 67
REMARK SMILES IDX 57 68 56 69 43 70 44 71 48 72 45 73 47 74 46 75
REMARK H PARENT 5 18 5 19 5 20 63 43 41 54
REMARK Flexibility Score: inf
ROOT
ATOM      1  O   UNL A   1      42.266  20.774  26.776  1.00  0.00    -0.462 OA
ENDROOT
BRANCH   1   2
ATOM      2  C   UNL A   1      40.944  20.551  26.584  1.00  0.00     0.305 C 
ATOM      3  O   UNL A   1      40.492  19.536  26.067  1.00  0.00    -0.252 OA
BRANCH   2   4
ATOM      4  C   UNL A   1      40.057  21.710  26.994  1.00  0.00     0.124 C 
BRANCH   4   5
ATOM      5  C   UNL A   1      39.193  22.341  25.914  1.00  0.00     0.029 C 
BRANCH   5   6
ATOM      6  C   UNL A   1      37.686  22.215  26.090  1.00  0.00     0.155 C 
BRANCH   6   7
ATOM      7  S   UNL A   1      36.826  21.245  24.861  1.00  0.00     0.214 S 
ATOM      8  O   UNL A   1      37.442  19.935  24.820  1.00  0.00    -0.212 OA
ATOM      9  O   UNL A   1      36.736  22.054  23.664  1.00  0.00    -0.212 OA
BRANCH   7  10
ATOM     10  N   UNL A   1      35.226  21.016  25.445  1.00  0.00    -0.196 NA
ATOM     11  C   UNL A   1      33.427  21.987  27.799  1.00  0.00     0.009 C 
ATOM     12  C   UNL A   1      33.200  22.216  26.301  1.00  0.00     0.007 C 
ATOM     13  C   UNL A   1      32.299  21.175  25.618  1.00  0.00     0.071 C 
ATOM     14  C   UNL A   1      34.528  22.346  25.557  1.00  0.00     0.106 C 
ATOM     15  C   UNL A   1      32.985  19.836  25.329  1.00  0.00     0.196 C 
ATOM     16  C   UNL A   1      34.371  20.064  24.659  1.00  0.00     0.167 C 
BRANCH  15  17
ATOM     17  N   UNL A   1      32.970  19.054  26.564  1.00  0.00    -0.354 N 
ATOM     18  H   UNL A   1      33.913  18.725  26.769  1.00  0.00     0.344 HD
ATOM     19  H   UNL A   1      32.347  18.254  26.453  1.00  0.00     0.344 HD
ATOM     20  H   UNL A   1      32.639  19.639  27.332  1.00  0.00     0.344 HD
ENDBRANCH  15  17
ENDBRANCH   7  10
ENDBRANCH   6   7
ENDBRANCH   5   6
ENDBRANCH   4   5
ENDBRANCH   2   4
ENDBRANCH   1   2
BRANCH   1  21
ATOM     21  C   UNL A   1      43.164  20.349  25.731  1.00  0.00     0.274 C 
BRANCH  21  22
ATOM     22  C   UNL A   1      44.046  21.497  25.238  1.00  0.00     0.275 C 
BRANCH  22  23
ATOM     23  O   UNL A   1      43.267  22.663  24.923  1.00  0.00    -0.458 OA
BRANCH  23  24
ATOM     24  C   UNL A   1      43.952  23.830  24.969  1.00  0.00     0.338 C 
ATOM     25  O   UNL A   1      44.860  24.189  24.239  1.00  0.00    -0.246 OA
BRANCH  24  26
ATOM     26  C   UNL A   1      43.308  24.725  25.937  1.00  0.00     0.060 A 
ATOM     27  C   UNL A   1      43.745  26.051  25.988  1.00  0.00     0.016 A 
ATOM     28  C   UNL A   1      42.346  24.259  26.828  1.00  0.00     0.016 A 
ATOM     29  C   UNL A   1      43.230  26.930  26.923  1.00  0.00     0.010 A 
ATOM     30  C   UNL A   1      41.835  25.138  27.784  1.00  0.00     0.010 A 
ATOM     31  C   UNL A   1      42.287  26.470  27.840  1.00  0.00    -0.014 A 
BRANCH  31  32
ATOM     32  C   UNL A   1      41.879  27.354  28.944  1.00  0.00     0.031 A 
ATOM     33  C   UNL A   1      42.679  27.332  30.210  1.00  0.00     0.074 A 
ATOM     34  C   UNL A   1      40.843  28.195  28.786  1.00  0.00     0.049 A 
ATOM     35  N   UNL A   1      42.427  27.901  31.357  1.00  0.00    -0.248 NA
ATOM     36  C   UNL A   1      43.935  26.560  30.178  1.00  0.00     0.031 C 
ATOM     37  C   UNL A   1      40.074  28.375  27.552  1.00  0.00     0.029 A 
ATOM     38  N   UNL A   1      40.259  29.057  29.674  1.00  0.00    -0.354 N 
ATOM     39  C   UNL A   1      43.473  27.534  32.192  1.00  0.00     0.074 A 
ATOM     40  C   UNL A   1      44.357  26.682  31.428  1.00  0.00     0.031 C 
ATOM     41  C   UNL A   1      39.112  29.288  27.767  1.00  0.00     0.029 A 
ATOM     42  C   UNL A   1      39.160  29.702  29.164  1.00  0.00     0.049 A 
ATOM     43  H   UNL A   1      40.593  29.199  30.589  1.00  0.00     0.167 HD
ATOM     44  C   UNL A   1      43.671  27.880  33.485  1.00  0.00     0.031 A 
ATOM     45  C   UNL A   1      38.270  30.501  29.780  1.00  0.00     0.031 A 
ATOM     46  C   UNL A   1      42.775  28.725  34.226  1.00  0.00     0.049 A 
ATOM     47  C   UNL A   1      38.448  30.773  31.250  1.00  0.00     0.074 A 
ATOM     48  C   UNL A   1      42.849  29.115  35.550  1.00  0.00     0.029 A 
ATOM     49  N   UNL A   1      41.637  29.317  33.693  1.00  0.00    -0.354 N 
ATOM     50  N   UNL A   1      39.407  30.380  32.054  1.00  0.00    -0.248 NA
ATOM     51  C   UNL A   1      37.416  31.593  31.897  1.00  0.00     0.031 C 
ATOM     52  C   UNL A   1      41.730  29.907  35.831  1.00  0.00     0.029 A 
ATOM     53  C   UNL A   1      40.994  30.058  34.666  1.00  0.00     0.049 A 
ATOM     54  H   UNL A   1      41.335  29.222  32.761  1.00  0.00     0.167 HD
ATOM     55  C   UNL A   1      39.114  30.933  33.292  1.00  0.00     0.074 A 
ATOM     56  C   UNL A   1      37.895  31.699  33.128  1.00  0.00     0.031 C 
ATOM     57  C   UNL A   1      39.788  30.820  34.464  1.00  0.00     0.031 A 
BRANCH  44  58
ATOM     58  C   UNL A   1      44.872  27.305  34.178  1.00  0.00    -0.014 A 
ATOM     59  C   UNL A   1      46.109  27.969  34.174  1.00  0.00     0.009 A 
ATOM     60  C   UNL A   1      44.761  26.082  34.859  1.00  0.00     0.009 A 
ATOM     61  C   UNL A   1      47.217  27.406  34.812  1.00  0.00     0.001 A 
ATOM     62  C   UNL A   1      45.862  25.535  35.519  1.00  0.00     0.001 A 
ATOM     63  C   UNL A   1      47.090  26.193  35.489  1.00  0.00     0.000 A 
ENDBRANCH  44  58
BRANCH  45  64
ATOM     64  C   UNL A   1      37.108  31.055  29.036  1.00  0.00    -0.014 A 
ATOM     65  C   UNL A   1      37.118  32.382  28.581  1.00  0.00     0.009 A 
ATOM     66  C   UNL A   1      35.968  30.270  28.804  1.00  0.00     0.009 A 
ATOM     67  C   UNL A   1      35.999  32.921  27.942  1.00  0.00     0.001 A 
ATOM     68  C   UNL A   1      34.863  30.800  28.134  1.00  0.00     0.001 A 
ATOM     69  C   UNL A   1      34.874  32.129  27.715  1.00  0.00     0.000 A 
ENDBRANCH  45  64
BRANCH  57  70
ATOM     70  C   UNL A   1      39.251  31.593  35.633  1.00  0.00    -0.014 A 
ATOM     71  C   UNL A   1      38.247  31.066  36.460  1.00  0.00     0.009 A 
ATOM     72  C   UNL A   1      39.791  32.854  35.931  1.00  0.00     0.009 A 
ATOM     73  C   UNL A   1      37.768  31.806  37.542  1.00  0.00     0.001 A 
ATOM     74  C   UNL A   1      39.333  33.577  37.033  1.00  0.00     0.001 A 
ATOM     75  C   UNL A   1      38.315  33.057  37.830  1.00  0.00     0.000 A 
ENDBRANCH  57  70
ENDBRANCH  31  32
ENDBRANCH  24  26
ENDBRANCH  23  24
ENDBRANCH  22  23
ENDBRANCH  21  22
ENDBRANCH   1  21
TORSDOF 16
ENDMDL
MODEL 2
REMARK VINA RESULT:      -9.7      6.252     11.555
REMARK SMILES C[C@@H]1C[C@H]([NH3+])CN(S(=O)(=O)CCCC(=O)OCCOC(=O)c2ccc(-c3c4nc(c(-c5ccccc5)c5ccc([nH]5)c(-c5ccccc5)c5nc(c(-c6ccccc6)c6ccc3[nH]6)C=C5)C=C4)cc2)C1
REMARK SMILES IDX 16 1 14 2 15 3 13 4 12 5 11 6 8 7 9 8 10 9 7 10 1 11 2 12
REMARK SMILES IDX 3 13 70 14 4 15 6 16 5 17 17 21 18 22 19 23 20 24 21 25
REMARK SMILES IDX 22 26 23 27 69 28 24 29 68 30 25 31 26 32 27 33 62 34 28 35
REMARK SMILES IDX 67 36 61 37 63 38 29 39 66 40 60 41 59 42 30 44 52 45 37 46
REMARK SMILES IDX 51 47 38 48 41 49 50 50 64 51 39 52 40 53 49 55 65 56 42 57
REMARK SMILES IDX 31 58 32 59 36 60 33 61 35 62 34 63 53 64 54 65 58 66 55 67
REMARK SMILES IDX 57 68 56 69 43 70 44 71 48 72 45 73 47 74 46 75
REMARK H PARENT 5 18 5 19 5 20 63 43 41 54
REMARK Flexibility Score: inf
ROOT
ATOM      1  O   UNL A   1      32.767  36.779  32.244  1.00  0.00    -0.462 OA
ENDROOT
BRANCH   1   2
ATOM      2  C   UNL A   1      33.646  36.573  33.252  1.00  0.00     0.305 C 
ATOM      3  O   UNL A   1      34.032  37.456  34.010  1.00  0.00    -0.252 OA
BRANCH   2   4
ATOM      4  C   UNL A   1      34.186  35.159  33.324  1.00  0.00     0.124 C 
BRANCH   4   5
ATOM      5  C   UNL A   1      35.684  34.975  33.144  1.00  0.00     0.029 C 
BRANCH   5   6
ATOM      6  C   UNL A   1      36.274  33.671  33.663  1.00  0.00     0.155 C 
BRANCH   6   7
ATOM      7  S   UNL A   1      37.406  33.808  35.038  1.00  0.00     0.214 S 
ATOM      8  O   UNL A   1      36.657  33.565  36.254  1.00  0.00    -0.212 OA
ATOM      9  O   UNL A   1      38.145  35.040  34.863  1.00  0.00    -0.212 OA
BRANCH   7  10
ATOM     10  N   UNL A   1      38.526  32.514  34.885  1.00  0.00    -0.196 NA
ATOM     11  C   UNL A   1      41.557  31.965  35.363  1.00  0.00     0.009 C 
ATOM     12  C   UNL A   1      40.371  31.292  36.060  1.00  0.00     0.007 C 
ATOM     13  C   UNL A   1      39.905  29.976  35.417  1.00  0.00     0.071 C 
ATOM     14  C   UNL A   1      39.198  32.261  36.209  1.00  0.00     0.106 C 
ATOM     15  C   UNL A   1      39.078  30.154  34.140  1.00  0.00     0.196 C 
ATOM     16  C   UNL A   1      37.969  31.225  34.350  1.00  0.00     0.167 C 
BRANCH  15  17
ATOM     17  N   UNL A   1      40.010  30.376  33.036  1.00  0.00    -0.354 N 
ATOM     18  H   UNL A   1      40.759  30.996  33.343  1.00  0.00     0.344 HD
ATOM     19  H   UNL A   1      39.514  30.802  32.253  1.00  0.00     0.344 HD
ATOM     20  H   UNL A   1      40.407  29.483  32.742  1.00  0.00     0.344 HD
ENDBRANCH  15  17
ENDBRANCH   7  10
ENDBRANCH   6   7
ENDBRANCH   5   6
ENDBRANCH   4   5
ENDBRANCH   2   4
ENDBRANCH   1   2
BRANCH   1  21
ATOM     21  C   UNL A   1      33.292  37.313  31.011  1.00  0.00     0.274 C 
BRANCH  21  22
ATOM     22  C   UNL A   1      32.925  36.439  29.811  1.00  0.00     0.275 C 
BRANCH  22  23
ATOM     23  O   UNL A   1      33.124  35.045  30.094  1.00  0.00    -0.458 OA
BRANCH  23  24
ATOM     24  C   UNL A   1      33.293  34.264  29.001  1.00  0.00     0.338 C 
ATOM     25  O   UNL A   1      32.597  34.224  28.000  1.00  0.00    -0.246 OA
BRANCH  24  26
ATOM     26  C   UNL A   1      34.584  33.574  29.101  1.00  0.00     0.060 A 
ATOM     27  C   UNL A   1      34.786  32.725  30.192  1.00  0.00     0.016 A 
ATOM     28  C   UNL A   1      35.604  33.808  28.184  1.00  0.00     0.016 A 
ATOM     29  C   UNL A   1      36.002  32.097  30.384  1.00  0.00     0.010 A 
ATOM     30  C   UNL A   1      36.839  33.189  28.382  1.00  0.00     0.010 A 
ATOM     31  C   UNL A   1      37.042  32.345  29.490  1.00  0.00    -0.014 A 
BRANCH  31  32
ATOM     32  C   UNL A   1      38.384  31.822  29.799  1.00  0.00     0.031 A 
ATOM     33  C   UNL A   1      39.297  32.653  30.647  1.00  0.00     0.074 A 
ATOM     34  C   UNL A   1      38.747  30.602  29.367  1.00  0.00     0.049 A 
ATOM     35  N   UNL A   1      40.560  32.475  30.921  1.00  0.00    -0.248 NA
ATOM     36  C   UNL A   1      38.703  33.851  31.268  1.00  0.00     0.031 C 
ATOM     37  C   UNL A   1      37.888  29.668  28.635  1.00  0.00     0.029 A 
ATOM     38  N   UNL A   1      39.940  29.941  29.484  1.00  0.00    -0.354 N 
ATOM     39  C   UNL A   1      40.922  33.549  31.721  1.00  0.00     0.074 A 
ATOM     40  C   UNL A   1      39.752  34.385  31.877  1.00  0.00     0.031 C 
ATOM     41  C   UNL A   1      38.589  28.555  28.362  1.00  0.00     0.029 A 
ATOM     42  C   UNL A   1      39.955  28.729  28.841  1.00  0.00     0.049 A 
ATOM     43  H   UNL A   1      40.711  30.300  29.980  1.00  0.00     0.167 HD
ATOM     44  C   UNL A   1      42.129  33.811  32.272  1.00  0.00     0.031 A 
ATOM     45  C   UNL A   1      40.978  27.882  28.628  1.00  0.00     0.031 A 
ATOM     46  C   UNL A   1      43.280  32.968  32.098  1.00  0.00     0.049 A 
ATOM     47  C   UNL A   1      42.339  28.257  29.150  1.00  0.00     0.074 A 
ATOM     48  C   UNL A   1      44.566  33.148  32.575  1.00  0.00     0.029 A 
ATOM     49  N   UNL A   1      43.275  31.774  31.391  1.00  0.00    -0.354 N 
ATOM     50  N   UNL A   1      42.694  29.302  29.859  1.00  0.00    -0.248 NA
ATOM     51  C   UNL A   1      43.441  27.338  28.836  1.00  0.00     0.031 C 
ATOM     52  C   UNL A   1      45.350  32.084  32.117  1.00  0.00     0.029 A 
ATOM     53  C   UNL A   1      44.539  31.212  31.407  1.00  0.00     0.049 A 
ATOM     54  H   UNL A   1      42.489  31.385  30.945  1.00  0.00     0.167 HD
ATOM     55  C   UNL A   1      44.052  29.150  30.105  1.00  0.00     0.074 A 
ATOM     56  C   UNL A   1      44.450  27.904  29.481  1.00  0.00     0.031 C 
ATOM     57  C   UNL A   1      44.897  29.963  30.785  1.00  0.00     0.031 A 
BRANCH  44  58
ATOM     58  C   UNL A   1      42.266  35.078  33.066  1.00  0.00    -0.014 A 
ATOM     59  C   UNL A   1      41.627  35.240  34.305  1.00  0.00     0.009 A 
ATOM     60  C   UNL A   1      43.061  36.125  32.572  1.00  0.00     0.009 A 
ATOM     61  C   UNL A   1      41.756  36.434  35.019  1.00  0.00     0.001 A 
ATOM     62  C   UNL A   1      43.211  37.307  33.299  1.00  0.00     0.001 A 
ATOM     63  C   UNL A   1      42.552  37.464  34.517  1.00  0.00     0.000 A 
ENDBRANCH  44  58
BRANCH  45  64
ATOM     64  C   UNL A   1      40.777  26.633  27.848  1.00  0.00    -0.014 A 
ATOM     65  C   UNL A   1      40.319  25.464  28.475  1.00  0.00     0.009 A 
ATOM     66  C   UNL A   1      41.073  26.592  26.476  1.00  0.00     0.009 A 
ATOM     67  C   UNL A   1      40.196  24.275  27.753  1.00  0.00     0.001 A 
ATOM     68  C   UNL A   1      40.917  25.409  25.749  1.00  0.00     0.001 A 
ATOM     69  C   UNL A   1      40.491  24.249  26.391  1.00  0.00     0.000 A 
ENDBRANCH  45  64
BRANCH  57  70
ATOM     70  C   UNL A   1      46.315  29.495  30.937  1.00  0.00    -0.014 A 
ATOM     71  C   UNL A   1      46.724  28.747  32.052  1.00  0.00     0.009 A 
ATOM     72  C   UNL A   1      47.245  29.775  29.923  1.00  0.00     0.009 A 
ATOM     73  C   UNL A   1      48.049  28.323  32.166  1.00  0.00     0.001 A 
ATOM     74  C   UNL A   1      48.560  29.321  30.024  1.00  0.00     0.001 A 
ATOM     75  C   UNL A   1      48.962  28.605  31.150  1.00  0.00     0.000 A 
ENDBRANCH  57  70
ENDBRANCH  31  32
ENDBRANCH  24  26
ENDBRANCH  23  24
ENDBRANCH  22  23
ENDBRANCH  21  22
ENDBRANCH   1  21
TORSDOF 16
ENDMDL
MODEL 3
REMARK VINA RESULT:      -9.5      3.380      7.700
REMARK SMILES C[C@@H]1C[C@H]([NH3+])CN(S(=O)(=O)CCCC(=O)OCCOC(=O)c2ccc(-c3c4nc(c(-c5ccccc5)c5ccc([nH]5)c(-c5ccccc5)c5nc(c(-c6ccccc6)c6ccc3[nH]6)C=C5)C=C4)cc2)C1
REMARK SMILES IDX 16 1 14 2 15 3 13 4 12 5 11 6 8 7 9 8 10 9 7 10 1 11 2 12
REMARK SMILES IDX 3 13 70 14 4 15 6 16 5 17 17 21 18 22 19 23 20 24 21 25
REMARK SMILES IDX 22 26 23 27 69 28 24 29 68 30 25 31 26 32 27 33 62 34 28 35
REMARK SMILES IDX 67 36 61 37 63 38 29 39 66 40 60 41 59 42 30 44 52 45 37 46
REMARK SMILES IDX 51 47 38 48 41 49 50 50 64 51 39 52 40 53 49 55 65 56 42 57
REMARK SMILES IDX 31 58 32 59 36 60 33 61 35 62 34 63 53 64 54 65 58 66 55 67
REMARK SMILES IDX 57 68 56 69 43 70 44 71 48 72 45 73 47 74 46 75
REMARK H PARENT 5 18 5 19 5 20 63 43 41 54
REMARK Flexibility Score: inf
ROOT
ATOM      1  O   UNL A   1      45.934  24.951  24.750  1.00  0.00    -0.462 OA
ENDROOT
BRANCH   1   2
ATOM      2  C   UNL A   1      46.224  23.688  25.142  1.00  0.00     0.305 C 
ATOM      3  O   UNL A   1      46.800  23.414  26.188  1.00  0.00    -0.252 OA
BRANCH   2   4
ATOM      4  C   UNL A   1      45.843  22.625  24.131  1.00  0.00     0.124 C 
BRANCH   4   5
ATOM      5  C   UNL A   1      46.479  21.253  24.290  1.00  0.00     0.029 C 
BRANCH   5   6
ATOM      6  C   UNL A   1      45.859  20.335  25.335  1.00  0.00     0.155 C 
BRANCH   6   7
ATOM      7  S   UNL A   1      44.430  19.399  24.816  1.00  0.00     0.214 S 
ATOM      8  O   UNL A   1      44.531  18.077  25.401  1.00  0.00    -0.212 OA
ATOM      9  O   UNL A   1      44.308  19.562  23.383  1.00  0.00    -0.212 OA
BRANCH   7  10
ATOM     10  N   UNL A   1      43.061  20.149  25.534  1.00  0.00    -0.196 NA
ATOM     11  C   UNL A   1      39.991  19.677  25.790  1.00  0.00     0.009 C 
ATOM     12  C   UNL A   1      41.020  19.719  26.923  1.00  0.00     0.007 C 
ATOM     13  C   UNL A   1      41.190  21.093  27.591  1.00  0.00     0.071 C 
ATOM     14  C   UNL A   1      42.372  19.179  26.457  1.00  0.00     0.106 C 
ATOM     15  C   UNL A   1      42.015  22.095  26.778  1.00  0.00     0.196 C 
ATOM     16  C   UNL A   1      43.327  21.435  26.264  1.00  0.00     0.167 C 
BRANCH  15  17
ATOM     17  N   UNL A   1      41.132  22.682  25.771  1.00  0.00    -0.354 N 
ATOM     18  H   UNL A   1      41.579  23.505  25.366  1.00  0.00     0.344 HD
ATOM     19  H   UNL A   1      40.251  22.953  26.208  1.00  0.00     0.344 HD
ATOM     20  H   UNL A   1      40.952  21.997  25.038  1.00  0.00     0.344 HD
ENDBRANCH  15  17
ENDBRANCH   7  10
ENDBRANCH   6   7
ENDBRANCH   5   6
ENDBRANCH   4   5
ENDBRANCH   2   4
ENDBRANCH   1   2
BRANCH   1  21
ATOM     21  C   UNL A   1      44.833  25.609  25.410  1.00  0.00     0.274 C 
BRANCH  21  22
ATOM     22  C   UNL A   1      43.486  25.012  25.000  1.00  0.00     0.275 C 
BRANCH  22  23
ATOM     23  O   UNL A   1      42.389  25.774  25.531  1.00  0.00    -0.458 OA
BRANCH  23  24
ATOM     24  C   UNL A   1      42.529  27.116  25.423  1.00  0.00     0.338 C 
ATOM     25  O   UNL A   1      42.606  27.777  24.401  1.00  0.00    -0.246 OA
BRANCH  24  26
ATOM     26  C   UNL A   1      42.382  27.721  26.752  1.00  0.00     0.060 A 
ATOM     27  C   UNL A   1      41.626  27.030  27.702  1.00  0.00     0.016 A 
ATOM     28  C   UNL A   1      42.914  28.974  27.041  1.00  0.00     0.016 A 
ATOM     29  C   UNL A   1      41.391  27.574  28.951  1.00  0.00     0.010 A 
ATOM     30  C   UNL A   1      42.666  29.535  28.295  1.00  0.00     0.010 A 
ATOM     31  C   UNL A   1      41.892  28.841  29.245  1.00  0.00    -0.014 A 
BRANCH  31  32
ATOM     32  C   UNL A   1      41.487  29.491  30.502  1.00  0.00     0.031 A 
ATOM     33  C   UNL A   1      40.238  30.317  30.508  1.00  0.00     0.074 A 
ATOM     34  C   UNL A   1      42.203  29.296  31.623  1.00  0.00     0.049 A 
ATOM     35  N   UNL A   1      39.769  31.099  31.443  1.00  0.00    -0.248 NA
ATOM     36  C   UNL A   1      39.405  30.254  29.294  1.00  0.00     0.031 C 
ATOM     37  C   UNL A   1      43.368  28.416  31.745  1.00  0.00     0.029 A 
ATOM     38  N   UNL A   1      42.052  29.831  32.873  1.00  0.00    -0.354 N 
ATOM     39  C   UNL A   1      38.604  31.644  30.921  1.00  0.00     0.074 A 
ATOM     40  C   UNL A   1      38.442  31.117  29.583  1.00  0.00     0.031 C 
ATOM     41  C   UNL A   1      43.830  28.479  33.005  1.00  0.00     0.029 A 
ATOM     42  C   UNL A   1      43.036  29.448  33.751  1.00  0.00     0.049 A 
ATOM     43  H   UNL A   1      41.311  30.430  33.119  1.00  0.00     0.167 HD
ATOM     44  C   UNL A   1      37.749  32.510  31.512  1.00  0.00     0.031 A 
ATOM     45  C   UNL A   1      43.286  29.876  35.001  1.00  0.00     0.031 A 
ATOM     46  C   UNL A   1      37.934  33.023  32.841  1.00  0.00     0.049 A 
ATOM     47  C   UNL A   1      42.387  30.930  35.591  1.00  0.00     0.074 A 
ATOM     48  C   UNL A   1      37.157  33.934  33.534  1.00  0.00     0.029 A 
ATOM     49  N   UNL A   1      38.975  32.658  33.683  1.00  0.00    -0.354 N 
ATOM     50  N   UNL A   1      41.317  31.487  35.076  1.00  0.00    -0.248 NA
ATOM     51  C   UNL A   1      42.736  31.418  36.931  1.00  0.00     0.031 C 
ATOM     52  C   UNL A   1      37.755  34.154  34.779  1.00  0.00     0.029 A 
ATOM     53  C   UNL A   1      38.869  33.336  34.884  1.00  0.00     0.049 A 
ATOM     54  H   UNL A   1      39.684  32.013  33.459  1.00  0.00     0.167 HD
ATOM     55  C   UNL A   1      40.845  32.366  36.041  1.00  0.00     0.074 A 
ATOM     56  C   UNL A   1      41.739  32.255  37.177  1.00  0.00     0.031 C 
ATOM     57  C   UNL A   1      39.770  33.191  35.998  1.00  0.00     0.031 A 
BRANCH  44  58
ATOM     58  C   UNL A   1      36.576  32.982  30.703  1.00  0.00    -0.014 A 
ATOM     59  C   UNL A   1      36.707  33.997  29.742  1.00  0.00     0.009 A 
ATOM     60  C   UNL A   1      35.316  32.391  30.897  1.00  0.00     0.009 A 
ATOM     61  C   UNL A   1      35.597  34.431  29.014  1.00  0.00     0.001 A 
ATOM     62  C   UNL A   1      34.214  32.807  30.148  1.00  0.00     0.001 A 
ATOM     63  C   UNL A   1      34.354  33.831  29.213  1.00  0.00     0.000 A 
ENDBRANCH  44  58
BRANCH  45  64
ATOM     64  C   UNL A   1      44.455  29.358  35.759  1.00  0.00    -0.014 A 
ATOM     65  C   UNL A   1      45.713  29.966  35.635  1.00  0.00     0.009 A 
ATOM     66  C   UNL A   1      44.327  28.232  36.588  1.00  0.00     0.009 A 
ATOM     67  C   UNL A   1      46.824  29.436  36.296  1.00  0.00     0.001 A 
ATOM     68  C   UNL A   1      45.432  27.724  37.274  1.00  0.00     0.001 A 
ATOM     69  C   UNL A   1      46.682  28.319  37.118  1.00  0.00     0.000 A 
ENDBRANCH  45  64
BRANCH  57  70
ATOM     70  C   UNL A   1      39.475  33.987  37.237  1.00  0.00    -0.014 A 
ATOM     71  C   UNL A   1      38.756  33.434  38.308  1.00  0.00     0.009 A 
ATOM     72  C   UNL A   1      39.963  35.299  37.345  1.00  0.00     0.009 A 
ATOM     73  C   UNL A   1      38.499  34.197  39.448  1.00  0.00     0.001 A 
ATOM     74  C   UNL A   1      39.732  36.046  38.499  1.00  0.00     0.001 A 
ATOM     75  C   UNL A   1      38.991  35.498  39.545  1.00  0.00     0.000 A 
ENDBRANCH  57  70
ENDBRANCH  31  32
ENDBRANCH  24  26
ENDBRANCH  23  24
ENDBRANCH  22  23
ENDBRANCH  21  22
ENDBRANCH   1  21
TORSDOF 16
ENDMDL
