MODEL 1
REMARK VINA RESULT:     -11.6      0.000      0.000
REMARK SMILES CN1C(=O)C[C@@H](C(=O)OCCOC(=O)c2ccc(-c3c4nc(c(-c5ccccc5)c5ccc([nH]5)c(-c5ccccc5)c5nc(c(-c6ccccc6)c6ccc3[nH]6)C=C5)C=C4)cc2)C12CCN(C(=O)c1ccccc1-n1cccn1)CC2
REMARK SMILES IDX 10 1 9 2 7 3 8 4 6 5 1 6 2 7 3 8 63 9 4 10 5 11 64 12 81 13
REMARK SMILES IDX 65 14 80 15 66 16 67 17 68 18 69 19 70 20 74 21 71 22 73 23
REMARK SMILES IDX 72 24 75 25 76 26 79 27 77 28 78 29 11 30 12 31 13 32 14 33
REMARK SMILES IDX 15 34 16 35 62 36 17 37 61 38 18 39 19 40 20 41 55 42 21 43
REMARK SMILES IDX 60 44 54 45 56 46 22 47 59 48 53 49 52 50 23 52 45 53 30 54
REMARK SMILES IDX 44 55 31 56 34 57 43 58 57 59 32 60 33 61 42 63 58 64 35 65
REMARK SMILES IDX 24 66 25 67 29 68 26 69 28 70 27 71 46 72 47 73 51 74 48 75
REMARK SMILES IDX 50 76 49 77 36 78 37 79 41 80 38 81 40 82 39 83
REMARK H PARENT 56 51 34 62
REMARK Flexibility Score: inf
ROOT
ATOM      1  C   UNL A   1      36.166  21.511  24.667  1.00  0.00     0.274 C 
ENDROOT
BRANCH   1   2
ATOM      2  O   UNL A   1      35.254  20.656  25.392  1.00  0.00    -0.462 OA
BRANCH   2   3
ATOM      3  C   UNL A   1      34.483  21.275  26.309  1.00  0.00     0.311 C 
ATOM      4  O   UNL A   1      34.885  21.637  27.413  1.00  0.00    -0.252 OA
BRANCH   3   5
ATOM      5  C   UNL A   1      33.037  21.511  25.906  1.00  0.00     0.134 C 
ATOM      6  C   UNL A   1      32.462  22.450  22.320  1.00  0.00     0.147 C 
ATOM      7  N   UNL A   1      32.604  21.843  23.631  1.00  0.00    -0.339 N 
ATOM      8  C   UNL A   1      32.572  20.470  23.812  1.00  0.00     0.223 C 
ATOM      9  C   UNL A   1      32.585  22.597  24.892  1.00  0.00     0.060 C 
ATOM     10  O   UNL A   1      32.511  19.617  22.940  1.00  0.00    -0.275 OA
ATOM     11  C   UNL A   1      32.559  20.189  25.286  1.00  0.00     0.118 C 
ATOM     12  C   UNL A   1      33.422  23.888  24.809  1.00  0.00     0.051 C 
ATOM     13  C   UNL A   1      31.108  23.020  25.208  1.00  0.00     0.051 C 
ATOM     14  C   UNL A   1      33.291  24.745  26.055  1.00  0.00     0.122 C 
ATOM     15  C   UNL A   1      30.967  24.001  26.380  1.00  0.00     0.122 C 
ATOM     16  N   UNL A   1      31.895  25.120  26.267  1.00  0.00    -0.338 N 
ATOM     17  C   UNL A   1      31.430  26.417  26.499  1.00  0.00     0.256 C 
ATOM     18  O   UNL A   1      30.278  26.675  26.844  1.00  0.00    -0.269 OA
BRANCH  17  19
ATOM     19  C   UNL A   1      32.361  27.560  26.354  1.00  0.00     0.065 A 
ATOM     20  C   UNL A   1      32.723  28.205  27.549  1.00  0.00     0.016 A 
ATOM     21  C   UNL A   1      32.964  27.942  25.144  1.00  0.00     0.077 A 
ATOM     22  C   UNL A   1      33.725  29.174  27.553  1.00  0.00     0.001 A 
ATOM     23  C   UNL A   1      34.014  28.877  25.171  1.00  0.00     0.029 A 
ATOM     24  C   UNL A   1      34.387  29.491  26.370  1.00  0.00     0.002 A 
BRANCH  21  25
ATOM     25  N   UNL A   1      32.562  27.423  23.887  1.00  0.00    -0.240 N 
ATOM     26  C   UNL A   1      31.297  27.361  23.339  1.00  0.00     0.115 A 
ATOM     27  N   UNL A   1      33.485  26.904  23.033  1.00  0.00    -0.177 NA
ATOM     28  C   UNL A   1      31.406  26.710  22.133  1.00  0.00     0.042 A 
ATOM     29  C   UNL A   1      32.776  26.442  22.003  1.00  0.00     0.135 A 
ENDBRANCH  21  25
ENDBRANCH  17  19
ENDBRANCH   3   5
ENDBRANCH   2   3
ENDBRANCH   1   2
BRANCH   1  30
ATOM     30  C   UNL A   1      37.565  21.466  25.288  1.00  0.00     0.275 C 
BRANCH  30  31
ATOM     31  O   UNL A   1      37.938  22.777  25.753  1.00  0.00    -0.458 OA
BRANCH  31  32
ATOM     32  C   UNL A   1      39.246  22.945  26.056  1.00  0.00     0.338 C 
ATOM     33  O   UNL A   1      40.164  22.200  25.755  1.00  0.00    -0.246 OA
BRANCH  32  34
ATOM     34  C   UNL A   1      39.465  24.230  26.759  1.00  0.00     0.060 A 
ATOM     35  C   UNL A   1      40.316  25.209  26.239  1.00  0.00     0.016 A 
ATOM     36  C   UNL A   1      38.911  24.404  28.028  1.00  0.00     0.016 A 
ATOM     37  C   UNL A   1      40.671  26.317  27.007  1.00  0.00     0.010 A 
ATOM     38  C   UNL A   1      39.183  25.568  28.754  1.00  0.00     0.010 A 
ATOM     39  C   UNL A   1      40.078  26.531  28.258  1.00  0.00    -0.014 A 
BRANCH  39  40
ATOM     40  C   UNL A   1      40.334  27.782  29.023  1.00  0.00     0.031 A 
ATOM     41  C   UNL A   1      41.533  27.906  29.923  1.00  0.00     0.074 A 
ATOM     42  C   UNL A   1      39.447  28.793  28.957  1.00  0.00     0.049 A 
ATOM     43  N   UNL A   1      41.795  28.818  30.826  1.00  0.00    -0.248 NA
ATOM     44  C   UNL A   1      42.561  26.861  29.806  1.00  0.00     0.031 C 
ATOM     45  C   UNL A   1      38.248  28.821  28.116  1.00  0.00     0.029 A 
ATOM     46  N   UNL A   1      39.409  29.992  29.626  1.00  0.00    -0.354 N 
ATOM     47  C   UNL A   1      42.990  28.431  31.421  1.00  0.00     0.074 A 
ATOM     48  C   UNL A   1      43.398  27.197  30.778  1.00  0.00     0.031 C 
ATOM     49  C   UNL A   1      37.603  29.981  28.305  1.00  0.00     0.029 A 
ATOM     50  C   UNL A   1      38.293  30.739  29.341  1.00  0.00     0.049 A 
ATOM     51  H   UNL A   1      40.112  30.287  30.249  1.00  0.00     0.167 HD
ATOM     52  C   UNL A   1      43.681  29.045  32.413  1.00  0.00     0.031 A 
ATOM     53  C   UNL A   1      37.834  31.882  29.883  1.00  0.00     0.031 A 
ATOM     54  C   UNL A   1      43.292  30.289  33.028  1.00  0.00     0.049 A 
ATOM     55  C   UNL A   1      38.599  32.529  30.996  1.00  0.00     0.074 A 
ATOM     56  C   UNL A   1      43.947  31.005  34.017  1.00  0.00     0.029 A 
ATOM     57  N   UNL A   1      42.151  31.008  32.709  1.00  0.00    -0.354 N 
ATOM     58  N   UNL A   1      39.710  32.136  31.569  1.00  0.00    -0.248 NA
ATOM     59  C   UNL A   1      38.039  33.773  31.543  1.00  0.00     0.031 C 
ATOM     60  C   UNL A   1      43.179  32.134  34.326  1.00  0.00     0.029 A 
ATOM     61  C   UNL A   1      42.073  32.148  33.493  1.00  0.00     0.049 A 
ATOM     62  H   UNL A   1      41.493  30.748  32.024  1.00  0.00     0.167 HD
ATOM     63  C   UNL A   1      39.989  33.088  32.539  1.00  0.00     0.074 A 
ATOM     64  C   UNL A   1      38.944  34.089  32.460  1.00  0.00     0.031 C 
ATOM     65  C   UNL A   1      41.019  33.126  33.418  1.00  0.00     0.031 A 
BRANCH  52  66
ATOM     66  C   UNL A   1      44.915  28.357  32.928  1.00  0.00    -0.014 A 
ATOM     67  C   UNL A   1      46.197  28.705  32.474  1.00  0.00     0.009 A 
ATOM     68  C   UNL A   1      44.793  27.370  33.920  1.00  0.00     0.009 A 
ATOM     69  C   UNL A   1      47.326  28.053  32.977  1.00  0.00     0.001 A 
ATOM     70  C   UNL A   1      45.925  26.739  34.441  1.00  0.00     0.001 A 
ATOM     71  C   UNL A   1      47.189  27.076  33.962  1.00  0.00     0.000 A 
ENDBRANCH  52  66
BRANCH  53  72
ATOM     72  C   UNL A   1      36.552  32.453  29.399  1.00  0.00    -0.014 A 
ATOM     73  C   UNL A   1      36.539  33.406  28.371  1.00  0.00     0.009 A 
ATOM     74  C   UNL A   1      35.332  32.014  29.940  1.00  0.00     0.009 A 
ATOM     75  C   UNL A   1      35.327  33.914  27.898  1.00  0.00     0.001 A 
ATOM     76  C   UNL A   1      34.123  32.503  29.445  1.00  0.00     0.001 A 
ATOM     77  C   UNL A   1      34.121  33.456  28.429  1.00  0.00     0.000 A 
ENDBRANCH  53  72
BRANCH  65  78
ATOM     78  C   UNL A   1      41.069  34.303  34.351  1.00  0.00    -0.014 A 
ATOM     79  C   UNL A   1      40.332  34.315  35.545  1.00  0.00     0.009 A 
ATOM     80  C   UNL A   1      41.866  35.412  34.030  1.00  0.00     0.009 A 
ATOM     81  C   UNL A   1      40.364  35.432  36.383  1.00  0.00     0.001 A 
ATOM     82  C   UNL A   1      41.917  36.516  34.883  1.00  0.00     0.001 A 
ATOM     83  C   UNL A   1      41.159  36.529  36.053  1.00  0.00     0.000 A 
ENDBRANCH  65  78
ENDBRANCH  39  40
ENDBRANCH  32  34
ENDBRANCH  31  32
ENDBRANCH  30  31
ENDBRANCH   1  30
TORSDOF 13
ENDMDL
MODEL 2
REMARK VINA RESULT:     -11.3      3.112      6.984
REMARK SMILES CN1C(=O)C[C@@H](C(=O)OCCOC(=O)c2ccc(-c3c4nc(c(-c5ccccc5)c5ccc([nH]5)c(-c5ccccc5)c5nc(c(-c6ccccc6)c6ccc3[nH]6)C=C5)C=C4)cc2)C12CCN(C(=O)c1ccccc1-n1cccn1)CC2
REMARK SMILES IDX 10 1 9 2 7 3 8 4 6 5 1 6 2 7 3 8 63 9 4 10 5 11 64 12 81 13
REMARK SMILES IDX 65 14 80 15 66 16 67 17 68 18 69 19 70 20 74 21 71 22 73 23
REMARK SMILES IDX 72 24 75 25 76 26 79 27 77 28 78 29 11 30 12 31 13 32 14 33
REMARK SMILES IDX 15 34 16 35 62 36 17 37 61 38 18 39 19 40 20 41 55 42 21 43
REMARK SMILES IDX 60 44 54 45 56 46 22 47 59 48 53 49 52 50 23 52 45 53 30 54
REMARK SMILES IDX 44 55 31 56 34 57 43 58 57 59 32 60 33 61 42 63 58 64 35 65
REMARK SMILES IDX 24 66 25 67 29 68 26 69 28 70 27 71 46 72 47 73 51 74 48 75
REMARK SMILES IDX 50 76 49 77 36 78 37 79 41 80 38 81 40 82 39 83
REMARK H PARENT 56 51 34 62
REMARK Flexibility Score: inf
ROOT
ATOM      1  C   UNL A   1      37.927  21.664  25.315  1.00  0.00     0.274 C 
ENDROOT
BRANCH   1   2
ATOM      2  O   UNL A   1      36.726  21.871  24.537  1.00  0.00    -0.462 OA
BRANCH   2   3
ATOM      3  C   UNL A   1      35.893  22.826  24.998  1.00  0.00     0.311 C 
ATOM      4  O   UNL A   1      36.132  24.031  24.943  1.00  0.00    -0.252 OA
BRANCH   3   5
ATOM      5  C   UNL A   1      34.597  22.331  25.616  1.00  0.00     0.134 C 
ATOM      6  C   UNL A   1      32.133  20.782  23.250  1.00  0.00     0.147 C 
ATOM      7  N   UNL A   1      33.145  21.128  24.231  1.00  0.00    -0.339 N 
ATOM      8  C   UNL A   1      34.022  20.186  24.745  1.00  0.00     0.223 C 
ATOM      9  C   UNL A   1      33.211  22.423  24.921  1.00  0.00     0.060 C 
ATOM     10  O   UNL A   1      34.123  19.018  24.406  1.00  0.00    -0.275 OA
ATOM     11  C   UNL A   1      34.802  20.826  25.855  1.00  0.00     0.118 C 
ATOM     12  C   UNL A   1      32.974  23.606  23.961  1.00  0.00     0.051 C 
ATOM     13  C   UNL A   1      32.086  22.477  26.011  1.00  0.00     0.051 C 
ATOM     14  C   UNL A   1      32.897  24.936  24.687  1.00  0.00     0.122 C 
ATOM     15  C   UNL A   1      31.897  23.855  26.660  1.00  0.00     0.122 C 
ATOM     16  N   UNL A   1      31.810  24.917  25.664  1.00  0.00    -0.338 N 
ATOM     17  C   UNL A   1      30.815  25.889  25.789  1.00  0.00     0.256 C 
ATOM     18  O   UNL A   1      30.022  25.933  26.727  1.00  0.00    -0.269 OA
BRANCH  17  19
ATOM     19  C   UNL A   1      30.704  26.953  24.763  1.00  0.00     0.065 A 
ATOM     20  C   UNL A   1      29.775  26.714  23.738  1.00  0.00     0.016 A 
ATOM     21  C   UNL A   1      31.374  28.186  24.826  1.00  0.00     0.077 A 
ATOM     22  C   UNL A   1      29.460  27.717  22.822  1.00  0.00     0.001 A 
ATOM     23  C   UNL A   1      31.004  29.208  23.934  1.00  0.00     0.029 A 
ATOM     24  C   UNL A   1      30.056  28.970  22.936  1.00  0.00     0.002 A 
BRANCH  21  25
ATOM     25  N   UNL A   1      32.411  28.452  25.756  1.00  0.00    -0.240 N 
ATOM     26  C   UNL A   1      33.775  28.314  25.597  1.00  0.00     0.115 A 
ATOM     27  N   UNL A   1      32.115  28.923  26.998  1.00  0.00    -0.177 NA
ATOM     28  C   UNL A   1      34.360  28.628  26.800  1.00  0.00     0.042 A 
ATOM     29  C   UNL A   1      33.288  28.985  27.628  1.00  0.00     0.135 A 
ENDBRANCH  21  25
ENDBRANCH  17  19
ENDBRANCH   3   5
ENDBRANCH   2   3
ENDBRANCH   1   2
BRANCH   1  30
ATOM     30  C   UNL A   1      38.576  20.322  24.970  1.00  0.00     0.275 C 
BRANCH  30  31
ATOM     31  O   UNL A   1      39.254  19.792  26.124  1.00  0.00    -0.458 OA
BRANCH  31  32
ATOM     32  C   UNL A   1      40.606  19.775  26.059  1.00  0.00     0.338 C 
ATOM     33  O   UNL A   1      41.299  18.910  25.551  1.00  0.00    -0.246 OA
BRANCH  32  34
ATOM     34  C   UNL A   1      41.177  21.018  26.626  1.00  0.00     0.060 A 
ATOM     35  C   UNL A   1      41.116  21.289  27.996  1.00  0.00     0.016 A 
ATOM     36  C   UNL A   1      41.665  21.993  25.754  1.00  0.00     0.016 A 
ATOM     37  C   UNL A   1      41.469  22.547  28.484  1.00  0.00     0.010 A 
ATOM     38  C   UNL A   1      42.120  23.215  26.258  1.00  0.00     0.010 A 
ATOM     39  C   UNL A   1      42.013  23.512  27.627  1.00  0.00    -0.014 A 
BRANCH  39  40
ATOM     40  C   UNL A   1      42.530  24.802  28.158  1.00  0.00     0.031 A 
ATOM     41  C   UNL A   1      41.592  25.917  28.532  1.00  0.00     0.074 A 
ATOM     42  C   UNL A   1      43.860  24.998  28.246  1.00  0.00     0.049 A 
ATOM     43  N   UNL A   1      41.864  27.172  28.793  1.00  0.00    -0.248 NA
ATOM     44  C   UNL A   1      40.162  25.584  28.603  1.00  0.00     0.031 C 
ATOM     45  C   UNL A   1      44.890  24.004  27.933  1.00  0.00     0.029 A 
ATOM     46  N   UNL A   1      44.577  26.112  28.610  1.00  0.00    -0.354 N 
ATOM     47  C   UNL A   1      40.638  27.790  29.009  1.00  0.00     0.074 A 
ATOM     48  C   UNL A   1      39.621  26.771  28.842  1.00  0.00     0.031 C 
ATOM     49  C   UNL A   1      46.100  24.544  28.135  1.00  0.00     0.029 A 
ATOM     50  C   UNL A   1      45.935  25.944  28.504  1.00  0.00     0.049 A 
ATOM     51  H   UNL A   1      44.158  26.949  28.914  1.00  0.00     0.167 HD
ATOM     52  C   UNL A   1      40.385  29.086  29.315  1.00  0.00     0.031 A 
ATOM     53  C   UNL A   1      46.946  26.822  28.635  1.00  0.00     0.031 A 
ATOM     54  C   UNL A   1      41.399  30.090  29.513  1.00  0.00     0.049 A 
ATOM     55  C   UNL A   1      46.641  28.255  28.946  1.00  0.00     0.074 A 
ATOM     56  C   UNL A   1      41.239  31.422  29.860  1.00  0.00     0.029 A 
ATOM     57  N   UNL A   1      42.763  29.873  29.393  1.00  0.00    -0.354 N 
ATOM     58  N   UNL A   1      45.478  28.831  29.118  1.00  0.00    -0.248 NA
ATOM     59  C   UNL A   1      47.792  29.160  29.072  1.00  0.00     0.031 C 
ATOM     60  C   UNL A   1      42.504  32.021  29.906  1.00  0.00     0.029 A 
ATOM     61  C   UNL A   1      43.454  31.049  29.639  1.00  0.00     0.049 A 
ATOM     62  H   UNL A   1      43.180  29.011  29.168  1.00  0.00     0.167 HD
ATOM     63  C   UNL A   1      45.753  30.165  29.380  1.00  0.00     0.074 A 
ATOM     64  C   UNL A   1      47.196  30.306  29.370  1.00  0.00     0.031 C 
ATOM     65  C   UNL A   1      44.888  31.182  29.607  1.00  0.00     0.031 A 
BRANCH  52  66
ATOM     66  C   UNL A   1      38.944  29.507  29.414  1.00  0.00    -0.014 A 
ATOM     67  C   UNL A   1      38.267  30.081  28.326  1.00  0.00     0.009 A 
ATOM     68  C   UNL A   1      38.240  29.282  30.608  1.00  0.00     0.009 A 
ATOM     69  C   UNL A   1      36.927  30.456  28.447  1.00  0.00     0.001 A 
ATOM     70  C   UNL A   1      36.892  29.632  30.716  1.00  0.00     0.001 A 
ATOM     71  C   UNL A   1      36.239  30.226  29.638  1.00  0.00     0.000 A 
ENDBRANCH  52  66
BRANCH  53  72
ATOM     72  C   UNL A   1      48.341  26.363  28.421  1.00  0.00    -0.014 A 
ATOM     73  C   UNL A   1      49.091  25.839  29.482  1.00  0.00     0.009 A 
ATOM     74  C   UNL A   1      48.913  26.411  27.138  1.00  0.00     0.009 A 
ATOM     75  C   UNL A   1      50.392  25.378  29.266  1.00  0.00     0.001 A 
ATOM     76  C   UNL A   1      50.202  25.923  26.920  1.00  0.00     0.001 A 
ATOM     77  C   UNL A   1      50.942  25.413  27.984  1.00  0.00     0.000 A 
ENDBRANCH  53  72
BRANCH  65  78
ATOM     78  C   UNL A   1      45.487  32.532  29.881  1.00  0.00    -0.014 A 
ATOM     79  C   UNL A   1      45.824  32.925  31.186  1.00  0.00     0.009 A 
ATOM     80  C   UNL A   1      45.719  33.419  28.820  1.00  0.00     0.009 A 
ATOM     81  C   UNL A   1      46.349  34.197  31.425  1.00  0.00     0.001 A 
ATOM     82  C   UNL A   1      46.268  34.680  29.059  1.00  0.00     0.001 A 
ATOM     83  C   UNL A   1      46.573  35.071  30.362  1.00  0.00     0.000 A 
ENDBRANCH  65  78
ENDBRANCH  39  40
ENDBRANCH  32  34
ENDBRANCH  31  32
ENDBRANCH  30  31
ENDBRANCH   1  30
TORSDOF 13
ENDMDL
MODEL 3
REMARK VINA RESULT:     -11.1      4.182      8.969
REMARK SMILES CN1C(=O)C[C@@H](C(=O)OCCOC(=O)c2ccc(-c3c4nc(c(-c5ccccc5)c5ccc([nH]5)c(-c5ccccc5)c5nc(c(-c6ccccc6)c6ccc3[nH]6)C=C5)C=C4)cc2)C12CCN(C(=O)c1ccccc1-n1cccn1)CC2
REMARK SMILES IDX 10 1 9 2 7 3 8 4 6 5 1 6 2 7 3 8 63 9 4 10 5 11 64 12 81 13
REMARK SMILES IDX 65 14 80 15 66 16 67 17 68 18 69 19 70 20 74 21 71 22 73 23
REMARK SMILES IDX 72 24 75 25 76 26 79 27 77 28 78 29 11 30 12 31 13 32 14 33
REMARK SMILES IDX 15 34 16 35 62 36 17 37 61 38 18 39 19 40 20 41 55 42 21 43
REMARK SMILES IDX 60 44 54 45 56 46 22 47 59 48 53 49 52 50 23 52 45 53 30 54
REMARK SMILES IDX 44 55 31 56 34 57 43 58 57 59 32 60 33 61 42 63 58 64 35 65
REMARK SMILES IDX 24 66 25 67 29 68 26 69 28 70 27 71 46 72 47 73 51 74 48 75
REMARK SMILES IDX 50 76 49 77 36 78 37 79 41 80 38 81 40 82 39 83
REMARK H PARENT 56 51 34 62
REMARK Flexibility Score: inf
ROOT
ATOM      1  C   UNL A   1      34.650  29.009  26.864  1.00  0.00     0.274 C 
ENDROOT
BRANCH   1   2
ATOM      2  O   UNL A   1      33.612  28.040  27.134  1.00  0.00    -0.462 OA
BRANCH   2   3
ATOM      3  C   UNL A   1      32.430  28.270  26.528  1.00  0.00     0.311 C 
ATOM      4  O   UNL A   1      31.398  28.567  27.126  1.00  0.00    -0.252 OA
BRANCH   3   5
ATOM      5  C   UNL A   1      32.427  28.137  25.015  1.00  0.00     0.134 C 
ATOM      6  C   UNL A   1      29.218  26.951  23.475  1.00  0.00     0.147 C 
ATOM      7  N   UNL A   1      30.379  27.653  23.990  1.00  0.00    -0.339 N 
ATOM      8  C   UNL A   1      30.414  29.033  24.101  1.00  0.00     0.223 C 
ATOM      9  C   UNL A   1      31.679  27.016  24.243  1.00  0.00     0.060 C 
ATOM     10  O   UNL A   1      29.498  29.809  23.878  1.00  0.00    -0.275 OA
ATOM     11  C   UNL A   1      31.806  29.440  24.486  1.00  0.00     0.118 C 
ATOM     12  C   UNL A   1      31.531  25.649  24.939  1.00  0.00     0.051 C 
ATOM     13  C   UNL A   1      32.396  26.763  22.871  1.00  0.00     0.051 C 
ATOM     14  C   UNL A   1      32.855  24.919  25.073  1.00  0.00     0.122 C 
ATOM     15  C   UNL A   1      33.665  25.905  22.968  1.00  0.00     0.122 C 
ATOM     16  N   UNL A   1      33.446  24.697  23.756  1.00  0.00    -0.338 N 
ATOM     17  C   UNL A   1      33.925  23.475  23.277  1.00  0.00     0.256 C 
ATOM     18  O   UNL A   1      34.570  23.358  22.238  1.00  0.00    -0.269 OA
BRANCH  17  19
ATOM     19  C   UNL A   1      33.677  22.241  24.059  1.00  0.00     0.065 A 
ATOM     20  C   UNL A   1      32.425  21.636  23.861  1.00  0.00     0.016 A 
ATOM     21  C   UNL A   1      34.637  21.611  24.868  1.00  0.00     0.077 A 
ATOM     22  C   UNL A   1      32.153  20.382  24.406  1.00  0.00     0.001 A 
ATOM     23  C   UNL A   1      34.372  20.321  25.361  1.00  0.00     0.029 A 
ATOM     24  C   UNL A   1      33.134  19.715  25.133  1.00  0.00     0.002 A 
BRANCH  21  25
ATOM     25  N   UNL A   1      35.873  22.217  25.211  1.00  0.00    -0.240 N 
ATOM     26  C   UNL A   1      37.148  21.873  24.810  1.00  0.00     0.115 A 
ATOM     27  N   UNL A   1      35.901  23.299  26.035  1.00  0.00    -0.177 NA
ATOM     28  C   UNL A   1      38.021  22.711  25.462  1.00  0.00     0.042 A 
ATOM     29  C   UNL A   1      37.196  23.560  26.212  1.00  0.00     0.135 A 
ENDBRANCH  21  25
ENDBRANCH  17  19
ENDBRANCH   3   5
ENDBRANCH   2   3
ENDBRANCH   1   2
BRANCH   1  30
ATOM     30  C   UNL A   1      34.342  30.343  27.549  1.00  0.00     0.275 C 
BRANCH  30  31
ATOM     31  O   UNL A   1      35.565  31.057  27.808  1.00  0.00    -0.458 OA
BRANCH  31  32
ATOM     32  C   UNL A   1      36.088  30.901  29.046  1.00  0.00     0.338 C 
ATOM     33  O   UNL A   1      35.527  31.123  30.106  1.00  0.00    -0.246 OA
BRANCH  32  34
ATOM     34  C   UNL A   1      37.452  30.330  28.975  1.00  0.00     0.060 A 
ATOM     35  C   UNL A   1      38.271  30.254  30.106  1.00  0.00     0.016 A 
ATOM     36  C   UNL A   1      37.972  29.986  27.726  1.00  0.00     0.016 A 
ATOM     37  C   UNL A   1      39.616  29.909  29.982  1.00  0.00     0.010 A 
ATOM     38  C   UNL A   1      39.292  29.536  27.620  1.00  0.00     0.010 A 
ATOM     39  C   UNL A   1      40.134  29.507  28.744  1.00  0.00    -0.014 A 
BRANCH  39  40
ATOM     40  C   UNL A   1      41.526  28.996  28.627  1.00  0.00     0.031 A 
ATOM     41  C   UNL A   1      42.703  29.930  28.699  1.00  0.00     0.074 A 
ATOM     42  C   UNL A   1      41.734  27.686  28.389  1.00  0.00     0.049 A 
ATOM     43  N   UNL A   1      43.957  29.703  28.397  1.00  0.00    -0.248 NA
ATOM     44  C   UNL A   1      42.432  31.302  29.153  1.00  0.00     0.031 C 
ATOM     45  C   UNL A   1      40.692  26.659  28.308  1.00  0.00     0.029 A 
ATOM     46  N   UNL A   1      42.897  26.995  28.153  1.00  0.00    -0.354 N 
ATOM     47  C   UNL A   1      44.616  30.914  28.573  1.00  0.00     0.074 A 
ATOM     48  C   UNL A   1      43.619  31.874  29.004  1.00  0.00     0.031 C 
ATOM     49  C   UNL A   1      41.262  25.472  28.059  1.00  0.00     0.029 A 
ATOM     50  C   UNL A   1      42.695  25.665  27.877  1.00  0.00     0.049 A 
ATOM     51  H   UNL A   1      43.789  27.412  28.177  1.00  0.00     0.167 HD
ATOM     52  C   UNL A   1      45.928  31.199  28.389  1.00  0.00     0.031 A 
ATOM     53  C   UNL A   1      43.548  24.709  27.470  1.00  0.00     0.031 A 
ATOM     54  C   UNL A   1      46.924  30.235  27.993  1.00  0.00     0.049 A 
ATOM     55  C   UNL A   1      44.988  25.052  27.247  1.00  0.00     0.074 A 
ATOM     56  C   UNL A   1      48.285  30.424  27.816  1.00  0.00     0.029 A 
ATOM     57  N   UNL A   1      46.671  28.900  27.722  1.00  0.00    -0.354 N 
ATOM     58  N   UNL A   1      45.591  26.207  27.388  1.00  0.00    -0.248 NA
ATOM     59  C   UNL A   1      45.864  23.960  26.799  1.00  0.00     0.031 C 
ATOM     60  C   UNL A   1      48.847  29.213  27.395  1.00  0.00     0.029 A 
ATOM     61  C   UNL A   1      47.845  28.258  27.360  1.00  0.00     0.049 A 
ATOM     62  H   UNL A   1      45.787  28.470  27.779  1.00  0.00     0.167 HD
ATOM     63  C   UNL A   1      46.919  25.981  27.055  1.00  0.00     0.074 A 
ATOM     64  C   UNL A   1      47.037  24.573  26.728  1.00  0.00     0.031 C 
ATOM     65  C   UNL A   1      47.947  26.862  27.020  1.00  0.00     0.031 A 
BRANCH  52  66
ATOM     66  C   UNL A   1      46.361  32.628  28.576  1.00  0.00    -0.014 A 
ATOM     67  C   UNL A   1      46.754  33.121  29.830  1.00  0.00     0.009 A 
ATOM     68  C   UNL A   1      46.417  33.483  27.464  1.00  0.00     0.009 A 
ATOM     69  C   UNL A   1      47.158  34.451  29.971  1.00  0.00     0.001 A 
ATOM     70  C   UNL A   1      46.847  34.804  27.603  1.00  0.00     0.001 A 
ATOM     71  C   UNL A   1      47.210  35.289  28.858  1.00  0.00     0.000 A 
ENDBRANCH  52  66
BRANCH  53  72
ATOM     72  C   UNL A   1      43.035  23.342  27.202  1.00  0.00    -0.014 A 
ATOM     73  C   UNL A   1      42.759  22.463  28.258  1.00  0.00     0.009 A 
ATOM     74  C   UNL A   1      42.779  22.927  25.884  1.00  0.00     0.009 A 
ATOM     75  C   UNL A   1      42.245  21.191  28.001  1.00  0.00     0.001 A 
ATOM     76  C   UNL A   1      42.238  21.666  25.632  1.00  0.00     0.001 A 
ATOM     77  C   UNL A   1      41.977  20.797  26.689  1.00  0.00     0.000 A 
ENDBRANCH  53  72
BRANCH  65  78
ATOM     78  C   UNL A   1      49.292  26.318  26.633  1.00  0.00    -0.014 A 
ATOM     79  C   UNL A   1      50.112  25.674  27.571  1.00  0.00     0.009 A 
ATOM     80  C   UNL A   1      49.741  26.449  25.310  1.00  0.00     0.009 A 
ATOM     81  C   UNL A   1      51.374  25.203  27.200  1.00  0.00     0.001 A 
ATOM     82  C   UNL A   1      50.993  25.954  24.936  1.00  0.00     0.001 A 
ATOM     83  C   UNL A   1      51.811  25.342  25.883  1.00  0.00     0.000 A 
ENDBRANCH  65  78
ENDBRANCH  39  40
ENDBRANCH  32  34
ENDBRANCH  31  32
ENDBRANCH  30  31
ENDBRANCH   1  30
TORSDOF 13
ENDMDL
