MODEL 1
REMARK VINA RESULT:     -10.5      0.000      0.000
REMARK SMILES C=CCOc1ccccc1/C=C/c1cc(C(=O)OCCOC(=O)c2ccc(-c3c4nc(c(-c5ccccc5)c5ccc([nH]5)c(-c5ccccc5)c5nc(c(-c6ccccc6)c6ccc3[nH]6)C=C5)C=C4)cc2)ncn1
REMARK SMILES IDX 18 1 16 2 17 3 15 4 13 5 14 6 74 7 73 8 72 9 12 10 11 11
REMARK SMILES IDX 10 12 5 13 6 14 7 15 9 16 8 17 4 18 3 19 2 20 1 21 19 22
REMARK SMILES IDX 20 23 21 24 22 25 23 26 24 27 25 28 71 29 26 30 70 31 27 32
REMARK SMILES IDX 28 33 29 34 64 35 30 36 69 37 63 38 65 39 31 40 68 41 62 42
REMARK SMILES IDX 61 43 32 45 54 46 39 47 53 48 40 49 43 50 52 51 66 52 41 53
REMARK SMILES IDX 42 54 51 56 67 57 44 58 33 59 34 60 38 61 35 62 37 63 36 64
REMARK SMILES IDX 55 65 56 66 60 67 57 68 59 69 58 70 45 71 46 72 50 73 47 74
REMARK SMILES IDX 49 75 48 76
REMARK H PARENT 65 44 43 55
REMARK Flexibility Score: inf
ROOT
ATOM      1  O   UNL A   1      33.673  33.842  29.245  1.00  0.00    -0.457 OA
ENDROOT
BRANCH   1   2
ATOM      2  C   UNL A   1      34.874  33.335  28.853  1.00  0.00     0.357 C 
ATOM      3  O   UNL A   1      35.956  33.870  29.026  1.00  0.00    -0.244 OA
BRANCH   2   4
ATOM      4  C   UNL A   1      34.710  31.974  28.245  1.00  0.00     0.152 A 
ATOM      5  C   UNL A   1      33.484  30.266  27.244  1.00  0.00     0.067 A 
ATOM      6  C   UNL A   1      33.474  31.473  27.914  1.00  0.00     0.064 A 
ATOM      7  N   UNL A   1      34.604  29.537  27.069  1.00  0.00    -0.237 NA
ATOM      8  C   UNL A   1      35.747  30.094  27.473  1.00  0.00     0.223 A 
ATOM      9  N   UNL A   1      35.866  31.310  28.004  1.00  0.00    -0.229 NA
BRANCH   5  10
ATOM     10  C   UNL A   1      32.352  29.781  26.442  1.00  0.00     0.029 C 
ATOM     11  C   UNL A   1      32.480  28.794  25.542  1.00  0.00     0.014 C 
BRANCH  11  12
ATOM     12  C   UNL A   1      31.379  27.918  25.125  1.00  0.00     0.017 A 
ATOM     13  C   UNL A   1      30.658  28.254  23.963  1.00  0.00     0.126 A 
ATOM     14  C   UNL A   1      29.581  27.477  23.536  1.00  0.00     0.047 A 
ATOM     15  C   UNL A   1      29.246  26.323  24.241  1.00  0.00     0.004 A 
ATOM     16  C   UNL A   1      31.032  26.756  25.822  1.00  0.00     0.012 A 
ATOM     17  C   UNL A   1      29.975  25.959  25.375  1.00  0.00     0.001 A 
BRANCH  13  18
ATOM     18  O   UNL A   1      30.975  29.391  23.253  1.00  0.00    -0.489 OA
BRANCH  18  19
ATOM     19  C   UNL A   1      29.838  29.909  22.546  1.00  0.00     0.257 C 
BRANCH  19  20
ATOM     20  C   UNL A   1      28.959  30.670  23.499  1.00  0.00     0.006 C 
ATOM     21  C   UNL A   1      28.779  31.998  23.467  1.00  0.00     0.007 C 
ENDBRANCH  19  20
ENDBRANCH  18  19
ENDBRANCH  13  18
ENDBRANCH  11  12
ENDBRANCH   5  10
ENDBRANCH   2   4
ENDBRANCH   1   2
BRANCH   1  22
ATOM     22  C   UNL A   1      33.324  35.127  28.692  1.00  0.00     0.275 C 
BRANCH  22  23
ATOM     23  C   UNL A   1      32.835  36.091  29.780  1.00  0.00     0.275 C 
BRANCH  23  24
ATOM     24  O   UNL A   1      32.342  35.394  30.941  1.00  0.00    -0.458 OA
BRANCH  24  25
ATOM     25  C   UNL A   1      32.743  35.906  32.128  1.00  0.00     0.338 C 
ATOM     26  O   UNL A   1      32.205  36.797  32.765  1.00  0.00    -0.246 OA
BRANCH  25  27
ATOM     27  C   UNL A   1      33.875  35.131  32.658  1.00  0.00     0.060 A 
ATOM     28  C   UNL A   1      35.147  35.680  32.515  1.00  0.00     0.016 A 
ATOM     29  C   UNL A   1      33.724  33.847  33.177  1.00  0.00     0.016 A 
ATOM     30  C   UNL A   1      36.282  34.955  32.849  1.00  0.00     0.010 A 
ATOM     31  C   UNL A   1      34.868  33.118  33.541  1.00  0.00     0.010 A 
ATOM     32  C   UNL A   1      36.154  33.663  33.361  1.00  0.00    -0.014 A 
BRANCH  32  33
ATOM     33  C   UNL A   1      37.382  32.877  33.637  1.00  0.00     0.031 A 
ATOM     34  C   UNL A   1      38.109  33.063  34.938  1.00  0.00     0.074 A 
ATOM     35  C   UNL A   1      37.799  31.947  32.758  1.00  0.00     0.049 A 
ATOM     36  N   UNL A   1      39.238  32.533  35.336  1.00  0.00    -0.248 NA
ATOM     37  C   UNL A   1      37.483  33.959  35.924  1.00  0.00     0.031 C 
ATOM     38  C   UNL A   1      37.131  31.606  31.500  1.00  0.00     0.029 A 
ATOM     39  N   UNL A   1      38.881  31.103  32.799  1.00  0.00    -0.354 N 
ATOM     40  C   UNL A   1      39.473  33.055  36.602  1.00  0.00     0.074 A 
ATOM     41  C   UNL A   1      38.377  33.950  36.903  1.00  0.00     0.031 C 
ATOM     42  C   UNL A   1      37.807  30.615  30.898  1.00  0.00     0.029 A 
ATOM     43  C   UNL A   1      38.987  30.293  31.694  1.00  0.00     0.049 A 
ATOM     44  H   UNL A   1      39.519  31.081  33.547  1.00  0.00     0.167 HD
ATOM     45  C   UNL A   1      40.510  32.809  37.437  1.00  0.00     0.031 A 
ATOM     46  C   UNL A   1      39.946  29.415  31.346  1.00  0.00     0.031 A 
ATOM     47  C   UNL A   1      41.591  31.907  37.143  1.00  0.00     0.049 A 
ATOM     48  C   UNL A   1      41.127  29.223  32.255  1.00  0.00     0.074 A 
ATOM     49  C   UNL A   1      42.700  31.607  37.916  1.00  0.00     0.029 A 
ATOM     50  N   UNL A   1      41.693  31.150  35.986  1.00  0.00    -0.354 N 
ATOM     51  N   UNL A   1      41.365  29.761  33.427  1.00  0.00    -0.248 NA
ATOM     52  C   UNL A   1      42.177  28.307  31.788  1.00  0.00     0.031 C 
ATOM     53  C   UNL A   1      43.493  30.697  37.209  1.00  0.00     0.029 A 
ATOM     54  C   UNL A   1      42.852  30.393  36.018  1.00  0.00     0.049 A 
ATOM     55  H   UNL A   1      41.038  31.150  35.252  1.00  0.00     0.167 HD
ATOM     56  C   UNL A   1      42.579  29.233  33.846  1.00  0.00     0.074 A 
ATOM     57  C   UNL A   1      43.019  28.320  32.812  1.00  0.00     0.031 C 
ATOM     58  C   UNL A   1      43.269  29.485  34.984  1.00  0.00     0.031 A 
BRANCH  45  59
ATOM     59  C   UNL A   1      40.545  33.561  38.736  1.00  0.00    -0.014 A 
ATOM     60  C   UNL A   1      39.948  33.046  39.896  1.00  0.00     0.009 A 
ATOM     61  C   UNL A   1      41.219  34.790  38.805  1.00  0.00     0.009 A 
ATOM     62  C   UNL A   1      40.003  33.761  41.095  1.00  0.00     0.001 A 
ATOM     63  C   UNL A   1      41.294  35.490  40.011  1.00  0.00     0.001 A 
ATOM     64  C   UNL A   1      40.680  34.979  41.152  1.00  0.00     0.000 A 
ENDBRANCH  45  59
BRANCH  46  65
ATOM     65  C   UNL A   1      39.859  28.683  30.055  1.00  0.00    -0.014 A 
ATOM     66  C   UNL A   1      39.304  27.396  29.998  1.00  0.00     0.009 A 
ATOM     67  C   UNL A   1      40.357  29.260  28.877  1.00  0.00     0.009 A 
ATOM     68  C   UNL A   1      39.275  26.693  28.790  1.00  0.00     0.001 A 
ATOM     69  C   UNL A   1      40.300  28.567  27.667  1.00  0.00     0.001 A 
ATOM     70  C   UNL A   1      39.768  27.280  27.626  1.00  0.00     0.000 A 
ENDBRANCH  46  65
BRANCH  58  71
ATOM     71  C   UNL A   1      44.549  28.728  35.187  1.00  0.00    -0.014 A 
ATOM     72  C   UNL A   1      45.782  29.259  34.776  1.00  0.00     0.009 A 
ATOM     73  C   UNL A   1      44.523  27.480  35.830  1.00  0.00     0.009 A 
ATOM     74  C   UNL A   1      46.961  28.538  34.976  1.00  0.00     0.001 A 
ATOM     75  C   UNL A   1      45.706  26.774  36.050  1.00  0.00     0.001 A 
ATOM     76  C   UNL A   1      46.922  27.299  35.616  1.00  0.00     0.000 A 
ENDBRANCH  58  71
ENDBRANCH  32  33
ENDBRANCH  25  27
ENDBRANCH  24  25
ENDBRANCH  23  24
ENDBRANCH  22  23
ENDBRANCH   1  22
TORSDOF 16
ENDMDL
MODEL 2
REMARK VINA RESULT:     -10.4      3.950      8.190
REMARK SMILES C=CCOc1ccccc1/C=C/c1cc(C(=O)OCCOC(=O)c2ccc(-c3c4nc(c(-c5ccccc5)c5ccc([nH]5)c(-c5ccccc5)c5nc(c(-c6ccccc6)c6ccc3[nH]6)C=C5)C=C4)cc2)ncn1
REMARK SMILES IDX 18 1 16 2 17 3 15 4 13 5 14 6 74 7 73 8 72 9 12 10 11 11
REMARK SMILES IDX 10 12 5 13 6 14 7 15 9 16 8 17 4 18 3 19 2 20 1 21 19 22
REMARK SMILES IDX 20 23 21 24 22 25 23 26 24 27 25 28 71 29 26 30 70 31 27 32
REMARK SMILES IDX 28 33 29 34 64 35 30 36 69 37 63 38 65 39 31 40 68 41 62 42
REMARK SMILES IDX 61 43 32 45 54 46 39 47 53 48 40 49 43 50 52 51 66 52 41 53
REMARK SMILES IDX 42 54 51 56 67 57 44 58 33 59 34 60 38 61 35 62 37 63 36 64
REMARK SMILES IDX 55 65 56 66 60 67 57 68 59 69 58 70 45 71 46 72 50 73 47 74
REMARK SMILES IDX 49 75 48 76
REMARK H PARENT 65 44 43 55
REMARK Flexibility Score: inf
ROOT
ATOM      1  O   UNL A   1      33.525  34.167  29.259  1.00  0.00    -0.457 OA
ENDROOT
BRANCH   1   2
ATOM      2  C   UNL A   1      33.083  35.417  29.567  1.00  0.00     0.357 C 
ATOM      3  O   UNL A   1      32.393  36.119  28.847  1.00  0.00    -0.244 OA
BRANCH   2   4
ATOM      4  C   UNL A   1      33.483  35.801  30.961  1.00  0.00     0.152 A 
ATOM      5  C   UNL A   1      34.710  35.557  32.925  1.00  0.00     0.067 A 
ATOM      6  C   UNL A   1      34.324  35.017  31.714  1.00  0.00     0.064 A 
ATOM      7  N   UNL A   1      34.178  36.690  33.422  1.00  0.00    -0.237 NA
ATOM      8  C   UNL A   1      33.332  37.349  32.629  1.00  0.00     0.223 A 
ATOM      9  N   UNL A   1      32.998  36.991  31.390  1.00  0.00    -0.229 NA
BRANCH   5  10
ATOM     10  C   UNL A   1      35.899  35.108  33.663  1.00  0.00     0.029 C 
ATOM     11  C   UNL A   1      36.463  33.908  33.455  1.00  0.00     0.014 C 
BRANCH  11  12
ATOM     12  C   UNL A   1      37.877  33.612  33.714  1.00  0.00     0.017 A 
ATOM     13  C   UNL A   1      38.835  34.051  32.780  1.00  0.00     0.126 A 
ATOM     14  C   UNL A   1      40.191  33.771  32.958  1.00  0.00     0.047 A 
ATOM     15  C   UNL A   1      40.607  33.093  34.101  1.00  0.00     0.004 A 
ATOM     16  C   UNL A   1      38.309  32.934  34.858  1.00  0.00     0.012 A 
ATOM     17  C   UNL A   1      39.671  32.684  35.053  1.00  0.00     0.001 A 
BRANCH  13  18
ATOM     18  O   UNL A   1      38.442  34.723  31.645  1.00  0.00    -0.489 OA
BRANCH  18  19
ATOM     19  C   UNL A   1      39.356  34.509  30.559  1.00  0.00     0.257 C 
BRANCH  19  20
ATOM     20  C   UNL A   1      38.593  34.073  29.339  1.00  0.00     0.006 C 
ATOM     21  C   UNL A   1      37.419  33.427  29.371  1.00  0.00     0.007 C 
ENDBRANCH  19  20
ENDBRANCH  18  19
ENDBRANCH  13  18
ENDBRANCH  11  12
ENDBRANCH   5  10
ENDBRANCH   2   4
ENDBRANCH   1   2
BRANCH   1  22
ATOM     22  C   UNL A   1      33.399  33.781  27.875  1.00  0.00     0.275 C 
BRANCH  22  23
ATOM     23  C   UNL A   1      33.301  32.258  27.726  1.00  0.00     0.275 C 
BRANCH  23  24
ATOM     24  O   UNL A   1      34.580  31.657  27.439  1.00  0.00    -0.458 OA
BRANCH  24  25
ATOM     25  C   UNL A   1      34.694  30.358  27.800  1.00  0.00     0.338 C 
ATOM     26  O   UNL A   1      33.849  29.484  27.683  1.00  0.00    -0.246 OA
BRANCH  25  27
ATOM     27  C   UNL A   1      36.069  30.071  28.236  1.00  0.00     0.060 A 
ATOM     28  C   UNL A   1      37.083  30.231  27.295  1.00  0.00     0.016 A 
ATOM     29  C   UNL A   1      36.361  29.546  29.493  1.00  0.00     0.016 A 
ATOM     30  C   UNL A   1      38.385  29.841  27.572  1.00  0.00     0.010 A 
ATOM     31  C   UNL A   1      37.682  29.174  29.788  1.00  0.00     0.010 A 
ATOM     32  C   UNL A   1      38.698  29.302  28.820  1.00  0.00    -0.014 A 
BRANCH  32  33
ATOM     33  C   UNL A   1      40.079  28.820  29.068  1.00  0.00     0.031 A 
ATOM     34  C   UNL A   1      41.058  29.701  29.789  1.00  0.00     0.074 A 
ATOM     35  C   UNL A   1      40.429  27.569  28.716  1.00  0.00     0.049 A 
ATOM     36  N   UNL A   1      42.329  29.498  30.032  1.00  0.00    -0.248 NA
ATOM     37  C   UNL A   1      40.543  30.978  30.307  1.00  0.00     0.031 C 
ATOM     38  C   UNL A   1      39.544  26.582  28.091  1.00  0.00     0.029 A 
ATOM     39  N   UNL A   1      41.624  26.906  28.849  1.00  0.00    -0.354 N 
ATOM     40  C   UNL A   1      42.770  30.631  30.702  1.00  0.00     0.074 A 
ATOM     41  C   UNL A   1      41.637  31.523  30.820  1.00  0.00     0.031 C 
ATOM     42  C   UNL A   1      40.221  25.437  27.913  1.00  0.00     0.029 A 
ATOM     43  C   UNL A   1      41.600  25.626  28.350  1.00  0.00     0.049 A 
ATOM     44  H   UNL A   1      42.420  27.310  29.263  1.00  0.00     0.167 HD
ATOM     45  C   UNL A   1      44.009  30.903  31.177  1.00  0.00     0.031 A 
ATOM     46  C   UNL A   1      42.588  24.720  28.229  1.00  0.00     0.031 A 
ATOM     47  C   UNL A   1      45.130  30.008  31.074  1.00  0.00     0.049 A 
ATOM     48  C   UNL A   1      43.972  25.079  28.691  1.00  0.00     0.074 A 
ATOM     49  C   UNL A   1      46.432  30.202  31.504  1.00  0.00     0.029 A 
ATOM     50  N   UNL A   1      45.080  28.744  30.507  1.00  0.00    -0.354 N 
ATOM     51  N   UNL A   1      44.390  26.175  29.278  1.00  0.00    -0.248 NA
ATOM     52  C   UNL A   1      45.024  24.078  28.466  1.00  0.00     0.031 C 
ATOM     53  C   UNL A   1      47.178  29.069  31.164  1.00  0.00     0.029 A 
ATOM     54  C   UNL A   1      46.330  28.151  30.566  1.00  0.00     0.049 A 
ATOM     55  H   UNL A   1      44.275  28.330  30.122  1.00  0.00     0.167 HD
ATOM     56  C   UNL A   1      45.746  25.986  29.511  1.00  0.00     0.074 A 
ATOM     57  C   UNL A   1      46.076  24.666  29.019  1.00  0.00     0.031 C 
ATOM     58  C   UNL A   1      46.638  26.833  30.078  1.00  0.00     0.031 A 
BRANCH  45  59
ATOM     59  C   UNL A   1      44.225  32.243  31.817  1.00  0.00    -0.014 A 
ATOM     60  C   UNL A   1      44.550  33.374  31.053  1.00  0.00     0.009 A 
ATOM     61  C   UNL A   1      44.066  32.382  33.205  1.00  0.00     0.009 A 
ATOM     62  C   UNL A   1      44.736  34.613  31.671  1.00  0.00     0.001 A 
ATOM     63  C   UNL A   1      44.228  33.627  33.816  1.00  0.00     0.001 A 
ATOM     64  C   UNL A   1      44.570  34.739  33.050  1.00  0.00     0.000 A 
ENDBRANCH  45  59
BRANCH  46  65
ATOM     65  C   UNL A   1      42.320  23.399  27.602  1.00  0.00    -0.014 A 
ATOM     66  C   UNL A   1      42.532  23.202  26.229  1.00  0.00     0.009 A 
ATOM     67  C   UNL A   1      41.824  22.335  28.372  1.00  0.00     0.009 A 
ATOM     68  C   UNL A   1      42.227  21.973  25.637  1.00  0.00     0.001 A 
ATOM     69  C   UNL A   1      41.549  21.100  27.783  1.00  0.00     0.001 A 
ATOM     70  C   UNL A   1      41.741  20.923  26.414  1.00  0.00     0.000 A 
ENDBRANCH  46  65
BRANCH  58  71
ATOM     71  C   UNL A   1      48.045  26.336  30.236  1.00  0.00    -0.014 A 
ATOM     72  C   UNL A   1      48.456  25.675  31.404  1.00  0.00     0.009 A 
ATOM     73  C   UNL A   1      48.962  26.502  29.186  1.00  0.00     0.009 A 
ATOM     74  C   UNL A   1      49.770  25.219  31.529  1.00  0.00     0.001 A 
ATOM     75  C   UNL A   1      50.267  26.023  29.305  1.00  0.00     0.001 A 
ATOM     76  C   UNL A   1      50.671  25.390  30.479  1.00  0.00     0.000 A 
ENDBRANCH  58  71
ENDBRANCH  32  33
ENDBRANCH  25  27
ENDBRANCH  24  25
ENDBRANCH  23  24
ENDBRANCH  22  23
ENDBRANCH   1  22
TORSDOF 16
ENDMDL
MODEL 3
REMARK VINA RESULT:     -10.2      7.689     12.575
REMARK SMILES C=CCOc1ccccc1/C=C/c1cc(C(=O)OCCOC(=O)c2ccc(-c3c4nc(c(-c5ccccc5)c5ccc([nH]5)c(-c5ccccc5)c5nc(c(-c6ccccc6)c6ccc3[nH]6)C=C5)C=C4)cc2)ncn1
REMARK SMILES IDX 18 1 16 2 17 3 15 4 13 5 14 6 74 7 73 8 72 9 12 10 11 11
REMARK SMILES IDX 10 12 5 13 6 14 7 15 9 16 8 17 4 18 3 19 2 20 1 21 19 22
REMARK SMILES IDX 20 23 21 24 22 25 23 26 24 27 25 28 71 29 26 30 70 31 27 32
REMARK SMILES IDX 28 33 29 34 64 35 30 36 69 37 63 38 65 39 31 40 68 41 62 42
REMARK SMILES IDX 61 43 32 45 54 46 39 47 53 48 40 49 43 50 52 51 66 52 41 53
REMARK SMILES IDX 42 54 51 56 67 57 44 58 33 59 34 60 38 61 35 62 37 63 36 64
REMARK SMILES IDX 55 65 56 66 60 67 57 68 59 69 58 70 45 71 46 72 50 73 47 74
REMARK SMILES IDX 49 75 48 76
REMARK H PARENT 65 44 43 55
REMARK Flexibility Score: inf
ROOT
ATOM      1  O   UNL A   1      41.818  20.547  26.224  1.00  0.00    -0.457 OA
ENDROOT
BRANCH   1   2
ATOM      2  C   UNL A   1      41.449  21.492  27.131  1.00  0.00     0.357 C 
ATOM      3  O   UNL A   1      42.086  21.806  28.122  1.00  0.00    -0.244 OA
BRANCH   2   4
ATOM      4  C   UNL A   1      40.180  22.172  26.712  1.00  0.00     0.152 A 
ATOM      5  C   UNL A   1      38.100  22.257  25.667  1.00  0.00     0.067 A 
ATOM      6  C   UNL A   1      39.282  21.571  25.863  1.00  0.00     0.064 A 
ATOM      7  N   UNL A   1      37.895  23.505  26.132  1.00  0.00    -0.237 NA
ATOM      8  C   UNL A   1      38.852  24.018  26.907  1.00  0.00     0.223 A 
ATOM      9  N   UNL A   1      39.968  23.388  27.271  1.00  0.00    -0.229 NA
BRANCH   5  10
ATOM     10  C   UNL A   1      36.873  21.620  25.169  1.00  0.00     0.029 C 
ATOM     11  C   UNL A   1      35.846  21.311  25.976  1.00  0.00     0.014 C 
BRANCH  11  12
ATOM     12  C   UNL A   1      34.455  21.198  25.523  1.00  0.00     0.017 A 
ATOM     13  C   UNL A   1      33.549  22.215  25.882  1.00  0.00     0.126 A 
ATOM     14  C   UNL A   1      32.206  22.145  25.507  1.00  0.00     0.047 A 
ATOM     15  C   UNL A   1      31.768  21.080  24.723  1.00  0.00     0.004 A 
ATOM     16  C   UNL A   1      34.001  20.136  24.734  1.00  0.00     0.012 A 
ATOM     17  C   UNL A   1      32.664  20.084  24.330  1.00  0.00     0.001 A 
BRANCH  13  18
ATOM     18  O   UNL A   1      33.964  23.275  26.656  1.00  0.00    -0.489 OA
BRANCH  18  19
ATOM     19  C   UNL A   1      33.382  24.512  26.218  1.00  0.00     0.257 C 
BRANCH  19  20
ATOM     20  C   UNL A   1      34.327  25.206  25.278  1.00  0.00     0.006 C 
ATOM     21  C   UNL A   1      34.693  24.726  24.081  1.00  0.00     0.007 C 
ENDBRANCH  19  20
ENDBRANCH  18  19
ENDBRANCH  13  18
ENDBRANCH  11  12
ENDBRANCH   5  10
ENDBRANCH   2   4
ENDBRANCH   1   2
BRANCH   1  22
ATOM     22  C   UNL A   1      42.244  19.283  26.774  1.00  0.00     0.275 C 
BRANCH  22  23
ATOM     23  C   UNL A   1      43.222  18.566  25.835  1.00  0.00     0.275 C 
BRANCH  23  24
ATOM     24  O   UNL A   1      43.406  19.278  24.595  1.00  0.00    -0.458 OA
BRANCH  24  25
ATOM     25  C   UNL A   1      44.692  19.560  24.284  1.00  0.00     0.338 C 
ATOM     26  O   UNL A   1      45.491  18.828  23.721  1.00  0.00    -0.246 OA
BRANCH  25  27
ATOM     27  C   UNL A   1      44.990  20.969  24.584  1.00  0.00     0.060 A 
ATOM     28  C   UNL A   1      45.523  21.255  25.838  1.00  0.00     0.016 A 
ATOM     29  C   UNL A   1      44.650  22.007  23.718  1.00  0.00     0.016 A 
ATOM     30  C   UNL A   1      45.694  22.565  26.262  1.00  0.00     0.010 A 
ATOM     31  C   UNL A   1      44.845  23.333  24.132  1.00  0.00     0.010 A 
ATOM     32  C   UNL A   1      45.351  23.619  25.416  1.00  0.00    -0.014 A 
BRANCH  32  33
ATOM     33  C   UNL A   1      45.468  25.009  25.918  1.00  0.00     0.031 A 
ATOM     34  C   UNL A   1      46.787  25.724  25.836  1.00  0.00     0.074 A 
ATOM     35  C   UNL A   1      44.379  25.655  26.376  1.00  0.00     0.049 A 
ATOM     36  N   UNL A   1      47.115  26.907  26.290  1.00  0.00    -0.248 NA
ATOM     37  C   UNL A   1      47.881  25.017  25.150  1.00  0.00     0.031 C 
ATOM     38  C   UNL A   1      43.022  25.104  26.423  1.00  0.00     0.029 A 
ATOM     39  N   UNL A   1      44.239  26.926  26.874  1.00  0.00    -0.354 N 
ATOM     40  C   UNL A   1      48.457  27.072  25.974  1.00  0.00     0.074 A 
ATOM     41  C   UNL A   1      48.886  25.867  25.299  1.00  0.00     0.031 C 
ATOM     42  C   UNL A   1      42.187  26.038  26.907  1.00  0.00     0.029 A 
ATOM     43  C   UNL A   1      42.955  27.226  27.260  1.00  0.00     0.049 A 
ATOM     44  H   UNL A   1      44.987  27.561  26.948  1.00  0.00     0.167 HD
ATOM     45  C   UNL A   1      49.259  28.136  26.224  1.00  0.00     0.031 A 
ATOM     46  C   UNL A   1      42.460  28.324  27.862  1.00  0.00     0.031 A 
ATOM     47  C   UNL A   1      48.826  29.340  26.882  1.00  0.00     0.049 A 
ATOM     48  C   UNL A   1      43.390  29.455  28.201  1.00  0.00     0.074 A 
ATOM     49  C   UNL A   1      49.569  30.463  27.201  1.00  0.00     0.029 A 
ATOM     50  N   UNL A   1      47.530  29.581  27.311  1.00  0.00    -0.354 N 
ATOM     51  N   UNL A   1      44.669  29.580  27.944  1.00  0.00    -0.248 NA
ATOM     52  C   UNL A   1      42.807  30.595  28.923  1.00  0.00     0.031 C 
ATOM     53  C   UNL A   1      48.731  31.369  27.859  1.00  0.00     0.029 A 
ATOM     54  C   UNL A   1      47.455  30.829  27.904  1.00  0.00     0.049 A 
ATOM     55  H   UNL A   1      46.777  28.957  27.210  1.00  0.00     0.167 HD
ATOM     56  C   UNL A   1      45.039  30.818  28.452  1.00  0.00     0.074 A 
ATOM     57  C   UNL A   1      43.846  31.413  29.016  1.00  0.00     0.031 C 
ATOM     58  C   UNL A   1      46.258  31.407  28.454  1.00  0.00     0.031 A 
BRANCH  45  59
ATOM     59  C   UNL A   1      50.700  28.024  25.821  1.00  0.00    -0.014 A 
ATOM     60  C   UNL A   1      51.668  27.515  26.700  1.00  0.00     0.009 A 
ATOM     61  C   UNL A   1      51.088  28.402  24.526  1.00  0.00     0.009 A 
ATOM     62  C   UNL A   1      53.002  27.411  26.297  1.00  0.00     0.001 A 
ATOM     63  C   UNL A   1      52.417  28.274  24.118  1.00  0.00     0.001 A 
ATOM     64  C   UNL A   1      53.373  27.786  25.005  1.00  0.00     0.000 A 
ENDBRANCH  45  59
BRANCH  46  65
ATOM     65  C   UNL A   1      41.021  28.393  28.229  1.00  0.00    -0.014 A 
ATOM     66  C   UNL A   1      40.097  29.030  27.388  1.00  0.00     0.009 A 
ATOM     67  C   UNL A   1      40.570  27.843  29.439  1.00  0.00     0.009 A 
ATOM     68  C   UNL A   1      38.756  29.137  27.766  1.00  0.00     0.001 A 
ATOM     69  C   UNL A   1      39.225  27.925  29.800  1.00  0.00     0.001 A 
ATOM     70  C   UNL A   1      38.320  28.582  28.968  1.00  0.00     0.000 A 
ENDBRANCH  46  65
BRANCH  58  71
ATOM     71  C   UNL A   1      46.349  32.784  29.046  1.00  0.00    -0.014 A 
ATOM     72  C   UNL A   1      46.123  33.928  28.265  1.00  0.00     0.009 A 
ATOM     73  C   UNL A   1      46.633  32.934  30.413  1.00  0.00     0.009 A 
ATOM     74  C   UNL A   1      46.212  35.198  28.837  1.00  0.00     0.001 A 
ATOM     75  C   UNL A   1      46.695  34.204  30.986  1.00  0.00     0.001 A 
ATOM     76  C   UNL A   1      46.493  35.334  30.197  1.00  0.00     0.000 A 
ENDBRANCH  58  71
ENDBRANCH  32  33
ENDBRANCH  25  27
ENDBRANCH  24  25
ENDBRANCH  23  24
ENDBRANCH  22  23
ENDBRANCH   1  22
TORSDOF 16
ENDMDL
