MODEL 1
REMARK VINA RESULT:      -9.9      0.000      0.000
REMARK SMILES CCC1(CC)CCN(c2nc(C(C)C)c(C(=O)OCCOC(=O)c3ccc(-c4c5nc(c(-c6ccccc6)c6ccc([nH]6)c(-c6ccccc6)c6nc(c(-c7ccccc7)c7ccc4[nH]7)C=C6)C=C5)cc3)s2)C1
REMARK SMILES IDX 19 1 18 2 16 3 17 4 15 5 9 6 10 7 72 8 11 9 8 10 3 11 6 12
REMARK SMILES IDX 73 13 7 14 2 15 1 16 4 17 5 18 12 19 13 20 14 21 20 22 21 23
REMARK SMILES IDX 22 24 23 25 24 26 25 27 71 28 26 29 70 30 27 31 28 32 29 33
REMARK SMILES IDX 64 34 30 35 69 36 63 37 65 38 31 39 68 40 62 41 61 42 32 44
REMARK SMILES IDX 54 45 39 46 53 47 40 48 43 49 52 50 66 51 41 52 42 53 51 55
REMARK SMILES IDX 67 56 44 57 33 58 34 59 38 60 35 61 37 62 36 63 55 64 56 65
REMARK SMILES IDX 60 66 57 67 59 68 58 69 45 70 46 71 50 72 47 73 49 74 48 75
REMARK H PARENT 65 43 43 54
REMARK Flexibility Score: inf
ROOT
ATOM      1  C   UNL A   1      42.716  21.197  26.098  1.00  0.00     0.275 C 
ENDROOT
BRANCH   1   2
ATOM      2  O   UNL A   1      41.393  21.597  25.682  1.00  0.00    -0.458 OA
BRANCH   2   3
ATOM      3  C   UNL A   1      40.346  21.281  26.495  1.00  0.00     0.350 C 
ATOM      4  O   UNL A   1      40.402  20.417  27.362  1.00  0.00    -0.245 OA
BRANCH   3   5
ATOM      5  C   UNL A   1      39.211  22.152  26.248  1.00  0.00     0.137 A 
ATOM      6  C   UNL A   1      36.973  22.940  25.610  1.00  0.00     0.186 A 
ATOM      7  N   UNL A   1      37.666  23.914  26.156  1.00  0.00    -0.224 NA
ATOM      8  S   UNL A   1      37.870  21.500  25.378  1.00  0.00    -0.089 S 
ATOM      9  C   UNL A   1      38.951  23.488  26.531  1.00  0.00     0.071 A 
BRANCH   6  10
ATOM     10  N   UNL A   1      35.695  23.021  25.166  1.00  0.00    -0.347 N 
ATOM     11  C   UNL A   1      33.764  24.181  24.292  1.00  0.00    -0.011 C 
ATOM     12  C   UNL A   1      34.367  23.219  23.244  1.00  0.00     0.030 C 
ATOM     13  C   UNL A   1      34.900  24.226  25.375  1.00  0.00     0.126 C 
ATOM     14  C   UNL A   1      35.250  22.254  24.025  1.00  0.00     0.119 C 
BRANCH  11  15
ATOM     15  C   UNL A   1      32.478  23.596  24.954  1.00  0.00     0.005 C 
ATOM     16  C   UNL A   1      32.468  23.476  26.472  1.00  0.00     0.004 C 
ENDBRANCH  11  15
BRANCH  11  17
ATOM     17  C   UNL A   1      33.557  25.603  23.696  1.00  0.00     0.005 C 
ATOM     18  C   UNL A   1      33.827  26.796  24.614  1.00  0.00     0.004 C 
ENDBRANCH  11  17
ENDBRANCH   6  10
BRANCH   9  19
ATOM     19  C   UNL A   1      39.873  24.547  27.098  1.00  0.00     0.034 C 
ATOM     20  C   UNL A   1      40.389  25.539  26.054  1.00  0.00     0.014 C 
ATOM     21  C   UNL A   1      39.279  25.254  28.320  1.00  0.00     0.014 C 
ENDBRANCH   9  19
ENDBRANCH   3   5
ENDBRANCH   2   3
ENDBRANCH   1   2
BRANCH   1  22
ATOM     22  C   UNL A   1      43.796  21.997  25.365  1.00  0.00     0.275 C 
BRANCH  22  23
ATOM     23  O   UNL A   1      43.396  23.372  25.223  1.00  0.00    -0.458 OA
BRANCH  23  24
ATOM     24  C   UNL A   1      44.395  24.271  25.364  1.00  0.00     0.338 C 
ATOM     25  O   UNL A   1      45.372  24.418  24.650  1.00  0.00    -0.246 OA
BRANCH  24  26
ATOM     26  C   UNL A   1      44.034  25.221  26.422  1.00  0.00     0.060 A 
ATOM     27  C   UNL A   1      43.533  24.676  27.599  1.00  0.00     0.016 A 
ATOM     28  C   UNL A   1      44.084  26.601  26.251  1.00  0.00     0.016 A 
ATOM     29  C   UNL A   1      43.038  25.487  28.608  1.00  0.00     0.010 A 
ATOM     30  C   UNL A   1      43.618  27.427  27.284  1.00  0.00     0.010 A 
ATOM     31  C   UNL A   1      43.077  26.875  28.462  1.00  0.00    -0.014 A 
BRANCH  31  32
ATOM     32  C   UNL A   1      42.487  27.729  29.522  1.00  0.00     0.031 A 
ATOM     33  C   UNL A   1      43.206  27.892  30.831  1.00  0.00     0.074 A 
ATOM     34  C   UNL A   1      41.340  28.397  29.292  1.00  0.00     0.049 A 
ATOM     35  N   UNL A   1      42.808  28.493  31.924  1.00  0.00    -0.248 NA
ATOM     36  C   UNL A   1      44.551  27.300  30.925  1.00  0.00     0.031 C 
ATOM     37  C   UNL A   1      40.590  28.391  28.034  1.00  0.00     0.029 A 
ATOM     38  N   UNL A   1      40.607  29.221  30.109  1.00  0.00    -0.354 N 
ATOM     39  C   UNL A   1      43.833  28.315  32.846  1.00  0.00     0.074 A 
ATOM     40  C   UNL A   1      44.865  27.543  32.189  1.00  0.00     0.031 C 
ATOM     41  C   UNL A   1      39.516  29.185  28.157  1.00  0.00     0.029 A 
ATOM     42  C   UNL A   1      39.458  29.694  29.522  1.00  0.00     0.049 A 
ATOM     43  H   UNL A   1      40.879  29.452  31.027  1.00  0.00     0.167 HD
ATOM     44  C   UNL A   1      43.903  28.756  34.124  1.00  0.00     0.031 A 
ATOM     45  C   UNL A   1      38.448  30.420  30.040  1.00  0.00     0.031 A 
ATOM     46  C   UNL A   1      42.878  29.538  34.763  1.00  0.00     0.049 A 
ATOM     47  C   UNL A   1      38.512  30.823  31.487  1.00  0.00     0.074 A 
ATOM     48  C   UNL A   1      42.847  30.029  36.056  1.00  0.00     0.029 A 
ATOM     49  N   UNL A   1      41.703  29.950  34.150  1.00  0.00    -0.354 N 
ATOM     50  N   UNL A   1      39.466  30.616  32.361  1.00  0.00    -0.248 NA
ATOM     51  C   UNL A   1      37.355  31.555  32.020  1.00  0.00     0.031 C 
ATOM     52  C   UNL A   1      41.631  30.694  36.242  1.00  0.00     0.029 A 
ATOM     53  C   UNL A   1      40.932  30.671  35.046  1.00  0.00     0.049 A 
ATOM     54  H   UNL A   1      41.455  29.759  33.217  1.00  0.00     0.167 HD
ATOM     55  C   UNL A   1      39.036  31.211  33.539  1.00  0.00     0.074 A 
ATOM     56  C   UNL A   1      37.745  31.806  33.261  1.00  0.00     0.031 C 
ATOM     57  C   UNL A   1      39.652  31.258  34.746  1.00  0.00     0.031 A 
BRANCH  44  58
ATOM     58  C   UNL A   1      45.107  28.361  34.933  1.00  0.00    -0.014 A 
ATOM     59  C   UNL A   1      46.288  29.119  34.914  1.00  0.00     0.009 A 
ATOM     60  C   UNL A   1      45.042  27.226  35.757  1.00  0.00     0.009 A 
ATOM     61  C   UNL A   1      47.389  28.730  35.681  1.00  0.00     0.001 A 
ATOM     62  C   UNL A   1      46.133  26.857  36.546  1.00  0.00     0.001 A 
ATOM     63  C   UNL A   1      47.309  27.604  36.500  1.00  0.00     0.000 A 
ENDBRANCH  44  58
BRANCH  45  64
ATOM     64  C   UNL A   1      37.262  30.757  29.207  1.00  0.00    -0.014 A 
ATOM     65  C   UNL A   1      37.063  32.064  28.736  1.00  0.00     0.009 A 
ATOM     66  C   UNL A   1      36.307  29.775  28.901  1.00  0.00     0.009 A 
ATOM     67  C   UNL A   1      35.918  32.384  28.001  1.00  0.00     0.001 A 
ATOM     68  C   UNL A   1      35.181  30.090  28.137  1.00  0.00     0.001 A 
ATOM     69  C   UNL A   1      34.982  31.397  27.698  1.00  0.00     0.000 A 
ENDBRANCH  45  64
BRANCH  57  70
ATOM     70  C   UNL A   1      38.954  32.017  35.840  1.00  0.00    -0.014 A 
ATOM     71  C   UNL A   1      38.112  31.369  36.756  1.00  0.00     0.009 A 
ATOM     72  C   UNL A   1      39.172  33.397  35.972  1.00  0.00     0.009 A 
ATOM     73  C   UNL A   1      37.473  32.096  37.762  1.00  0.00     0.001 A 
ATOM     74  C   UNL A   1      38.558  34.115  36.997  1.00  0.00     0.001 A 
ATOM     75  C   UNL A   1      37.700  33.467  37.884  1.00  0.00     0.000 A 
ENDBRANCH  57  70
ENDBRANCH  31  32
ENDBRANCH  24  26
ENDBRANCH  23  24
ENDBRANCH  22  23
ENDBRANCH   1  22
TORSDOF 15
ENDMDL
MODEL 2
REMARK VINA RESULT:      -9.7      3.502      5.333
REMARK SMILES CCC1(CC)CCN(c2nc(C(C)C)c(C(=O)OCCOC(=O)c3ccc(-c4c5nc(c(-c6ccccc6)c6ccc([nH]6)c(-c6ccccc6)c6nc(c(-c7ccccc7)c7ccc4[nH]7)C=C6)C=C5)cc3)s2)C1
REMARK SMILES IDX 19 1 18 2 16 3 17 4 15 5 9 6 10 7 72 8 11 9 8 10 3 11 6 12
REMARK SMILES IDX 73 13 7 14 2 15 1 16 4 17 5 18 12 19 13 20 14 21 20 22 21 23
REMARK SMILES IDX 22 24 23 25 24 26 25 27 71 28 26 29 70 30 27 31 28 32 29 33
REMARK SMILES IDX 64 34 30 35 69 36 63 37 65 38 31 39 68 40 62 41 61 42 32 44
REMARK SMILES IDX 54 45 39 46 53 47 40 48 43 49 52 50 66 51 41 52 42 53 51 55
REMARK SMILES IDX 67 56 44 57 33 58 34 59 38 60 35 61 37 62 36 63 55 64 56 65
REMARK SMILES IDX 60 66 57 67 59 68 58 69 45 70 46 71 50 72 47 73 49 74 48 75
REMARK H PARENT 65 43 43 54
REMARK Flexibility Score: inf
ROOT
ATOM      1  C   UNL A   1      38.156  21.307  25.345  1.00  0.00     0.275 C 
ENDROOT
BRANCH   1   2
ATOM      2  O   UNL A   1      36.772  21.238  24.942  1.00  0.00    -0.458 OA
BRANCH   2   3
ATOM      3  C   UNL A   1      36.296  22.220  24.126  1.00  0.00     0.350 C 
ATOM      4  O   UNL A   1      36.875  22.596  23.114  1.00  0.00    -0.245 OA
BRANCH   3   5
ATOM      5  C   UNL A   1      34.995  22.686  24.571  1.00  0.00     0.137 A 
ATOM      6  C   UNL A   1      33.204  24.138  25.420  1.00  0.00     0.186 A 
ATOM      7  N   UNL A   1      32.718  22.975  25.050  1.00  0.00    -0.224 NA
ATOM      8  S   UNL A   1      34.913  24.228  25.342  1.00  0.00    -0.089 S 
ATOM      9  C   UNL A   1      33.723  22.125  24.560  1.00  0.00     0.071 A 
BRANCH   6  10
ATOM     10  N   UNL A   1      32.493  25.182  25.911  1.00  0.00    -0.347 N 
ATOM     11  C   UNL A   1      31.497  27.381  25.799  1.00  0.00    -0.011 C 
ATOM     12  C   UNL A   1      30.419  26.273  25.813  1.00  0.00     0.030 C 
ATOM     13  C   UNL A   1      32.802  26.554  25.521  1.00  0.00     0.126 C 
ATOM     14  C   UNL A   1      31.118  25.020  26.327  1.00  0.00     0.119 C 
BRANCH  11  15
ATOM     15  C   UNL A   1      31.642  28.075  27.188  1.00  0.00     0.005 C 
ATOM     16  C   UNL A   1      32.458  29.361  27.244  1.00  0.00     0.004 C 
ENDBRANCH  11  15
BRANCH  11  17
ATOM     17  C   UNL A   1      31.258  28.383  24.633  1.00  0.00     0.005 C 
ATOM     18  C   UNL A   1      32.366  28.524  23.590  1.00  0.00     0.004 C 
ENDBRANCH  11  17
ENDBRANCH   6  10
BRANCH   9  19
ATOM     19  C   UNL A   1      33.293  20.724  24.179  1.00  0.00     0.034 C 
ATOM     20  C   UNL A   1      32.924  19.845  25.375  1.00  0.00     0.014 C 
ATOM     21  C   UNL A   1      32.207  20.713  23.099  1.00  0.00     0.014 C 
ENDBRANCH   9  19
ENDBRANCH   3   5
ENDBRANCH   2   3
ENDBRANCH   1   2
BRANCH   1  22
ATOM     22  C   UNL A   1      38.857  19.958  25.161  1.00  0.00     0.275 C 
BRANCH  22  23
ATOM     23  O   UNL A   1      39.640  19.635  26.325  1.00  0.00    -0.458 OA
BRANCH  23  24
ATOM     24  C   UNL A   1      40.978  19.661  26.133  1.00  0.00     0.338 C 
ATOM     25  O   UNL A   1      41.664  18.841  25.549  1.00  0.00    -0.246 OA
BRANCH  24  26
ATOM     26  C   UNL A   1      41.494  20.965  26.566  1.00  0.00     0.060 A 
ATOM     27  C   UNL A   1      41.311  21.290  27.906  1.00  0.00     0.016 A 
ATOM     28  C   UNL A   1      42.050  21.890  25.688  1.00  0.00     0.016 A 
ATOM     29  C   UNL A   1      41.639  22.546  28.388  1.00  0.00     0.010 A 
ATOM     30  C   UNL A   1      42.419  23.151  26.179  1.00  0.00     0.010 A 
ATOM     31  C   UNL A   1      42.200  23.493  27.528  1.00  0.00    -0.014 A 
BRANCH  31  32
ATOM     32  C   UNL A   1      42.489  24.854  28.042  1.00  0.00     0.031 A 
ATOM     33  C   UNL A   1      43.897  25.226  28.412  1.00  0.00     0.074 A 
ATOM     34  C   UNL A   1      41.503  25.769  28.126  1.00  0.00     0.049 A 
ATOM     35  N   UNL A   1      44.341  26.314  28.988  1.00  0.00    -0.248 NA
ATOM     36  C   UNL A   1      44.945  24.242  28.095  1.00  0.00     0.031 C 
ATOM     37  C   UNL A   1      40.112  25.559  27.717  1.00  0.00     0.029 A 
ATOM     38  N   UNL A   1      41.524  27.065  28.577  1.00  0.00    -0.354 N 
ATOM     39  C   UNL A   1      45.710  26.129  29.139  1.00  0.00     0.074 A 
ATOM     40  C   UNL A   1      46.023  24.822  28.604  1.00  0.00     0.031 C 
ATOM     41  C   UNL A   1      39.419  26.690  27.919  1.00  0.00     0.029 A 
ATOM     42  C   UNL A   1      40.293  27.677  28.542  1.00  0.00     0.049 A 
ATOM     43  H   UNL A   1      42.341  27.513  28.894  1.00  0.00     0.167 HD
ATOM     44  C   UNL A   1      46.621  26.975  29.676  1.00  0.00     0.031 A 
ATOM     45  C   UNL A   1      39.904  28.882  29.001  1.00  0.00     0.031 A 
ATOM     46  C   UNL A   1      46.302  28.281  30.189  1.00  0.00     0.049 A 
ATOM     47  C   UNL A   1      40.920  29.765  29.670  1.00  0.00     0.074 A 
ATOM     48  C   UNL A   1      47.149  29.213  30.761  1.00  0.00     0.029 A 
ATOM     49  N   UNL A   1      45.033  28.841  30.185  1.00  0.00    -0.354 N 
ATOM     50  N   UNL A   1      42.203  29.565  29.844  1.00  0.00    -0.248 NA
ATOM     51  C   UNL A   1      40.430  31.039  30.213  1.00  0.00     0.031 C 
ATOM     52  C   UNL A   1      46.384  30.318  31.150  1.00  0.00     0.029 A 
ATOM     53  C   UNL A   1      45.072  30.099  30.764  1.00  0.00     0.049 A 
ATOM     54  H   UNL A   1      44.225  28.410  29.824  1.00  0.00     0.167 HD
ATOM     55  C   UNL A   1      42.679  30.695  30.495  1.00  0.00     0.074 A 
ATOM     56  C   UNL A   1      41.549  31.587  30.664  1.00  0.00     0.031 C 
ATOM     57  C   UNL A   1      43.937  30.971  30.918  1.00  0.00     0.031 A 
BRANCH  44  58
ATOM     58  C   UNL A   1      48.041  26.494  29.781  1.00  0.00    -0.014 A 
ATOM     59  C   UNL A   1      48.983  26.754  28.774  1.00  0.00     0.009 A 
ATOM     60  C   UNL A   1      48.450  25.797  30.929  1.00  0.00     0.009 A 
ATOM     61  C   UNL A   1      50.298  26.299  28.902  1.00  0.00     0.001 A 
ATOM     62  C   UNL A   1      49.772  25.371  31.069  1.00  0.00     0.001 A 
ATOM     63  C   UNL A   1      50.693  25.614  30.051  1.00  0.00     0.000 A 
ENDBRANCH  44  58
BRANCH  45  64
ATOM     64  C   UNL A   1      38.479  29.298  28.903  1.00  0.00    -0.014 A 
ATOM     65  C   UNL A   1      37.974  29.860  27.720  1.00  0.00     0.009 A 
ATOM     66  C   UNL A   1      37.621  29.159  30.006  1.00  0.00     0.009 A 
ATOM     67  C   UNL A   1      36.648  30.299  27.656  1.00  0.00     0.001 A 
ATOM     68  C   UNL A   1      36.288  29.567  29.927  1.00  0.00     0.001 A 
ATOM     69  C   UNL A   1      35.806  30.147  28.756  1.00  0.00     0.000 A 
ENDBRANCH  45  64
BRANCH  57  70
ATOM     70  C   UNL A   1      44.162  32.309  31.564  1.00  0.00    -0.014 A 
ATOM     71  C   UNL A   1      44.474  33.446  30.802  1.00  0.00     0.009 A 
ATOM     72  C   UNL A   1      44.027  32.437  32.955  1.00  0.00     0.009 A 
ATOM     73  C   UNL A   1      44.681  34.677  31.426  1.00  0.00     0.001 A 
ATOM     74  C   UNL A   1      44.203  33.675  33.572  1.00  0.00     0.001 A 
ATOM     75  C   UNL A   1      44.541  34.791  32.809  1.00  0.00     0.000 A 
ENDBRANCH  57  70
ENDBRANCH  31  32
ENDBRANCH  24  26
ENDBRANCH  23  24
ENDBRANCH  22  23
ENDBRANCH   1  22
TORSDOF 15
ENDMDL
MODEL 3
REMARK VINA RESULT:      -9.7      0.854      6.117
REMARK SMILES CCC1(CC)CCN(c2nc(C(C)C)c(C(=O)OCCOC(=O)c3ccc(-c4c5nc(c(-c6ccccc6)c6ccc([nH]6)c(-c6ccccc6)c6nc(c(-c7ccccc7)c7ccc4[nH]7)C=C6)C=C5)cc3)s2)C1
REMARK SMILES IDX 19 1 18 2 16 3 17 4 15 5 9 6 10 7 72 8 11 9 8 10 3 11 6 12
REMARK SMILES IDX 73 13 7 14 2 15 1 16 4 17 5 18 12 19 13 20 14 21 20 22 21 23
REMARK SMILES IDX 22 24 23 25 24 26 25 27 71 28 26 29 70 30 27 31 28 32 29 33
REMARK SMILES IDX 64 34 30 35 69 36 63 37 65 38 31 39 68 40 62 41 61 42 32 44
REMARK SMILES IDX 54 45 39 46 53 47 40 48 43 49 52 50 66 51 41 52 42 53 51 55
REMARK SMILES IDX 67 56 44 57 33 58 34 59 38 60 35 61 37 62 36 63 55 64 56 65
REMARK SMILES IDX 60 66 57 67 59 68 58 69 45 70 46 71 50 72 47 73 49 74 48 75
REMARK H PARENT 65 43 43 54
REMARK Flexibility Score: inf
ROOT
ATOM      1  C   UNL A   1      42.657  21.649  26.004  1.00  0.00     0.275 C 
ENDROOT
BRANCH   1   2
ATOM      2  O   UNL A   1      41.293  21.986  25.675  1.00  0.00    -0.458 OA
BRANCH   2   3
ATOM      3  C   UNL A   1      40.328  21.714  26.599  1.00  0.00     0.350 C 
ATOM      4  O   UNL A   1      40.549  21.128  27.652  1.00  0.00    -0.245 OA
BRANCH   3   5
ATOM      5  C   UNL A   1      39.051  22.280  26.204  1.00  0.00     0.137 A 
ATOM      6  C   UNL A   1      36.760  22.485  25.341  1.00  0.00     0.186 A 
ATOM      7  N   UNL A   1      37.158  23.622  25.865  1.00  0.00    -0.224 NA
ATOM      8  S   UNL A   1      37.980  21.285  25.284  1.00  0.00    -0.089 S 
ATOM      9  C   UNL A   1      38.467  23.531  26.366  1.00  0.00     0.071 A 
BRANCH   6  10
ATOM     10  N   UNL A   1      35.542  22.239  24.797  1.00  0.00    -0.347 N 
ATOM     11  C   UNL A   1      33.134  22.054  24.848  1.00  0.00    -0.011 C 
ATOM     12  C   UNL A   1      33.590  23.255  23.990  1.00  0.00     0.030 C 
ATOM     13  C   UNL A   1      34.460  21.675  25.597  1.00  0.00     0.126 C 
ATOM     14  C   UNL A   1      35.059  23.005  23.671  1.00  0.00     0.119 C 
BRANCH  11  15
ATOM     15  C   UNL A   1      32.700  20.838  23.972  1.00  0.00     0.005 C 
ATOM     16  C   UNL A   1      32.641  19.476  24.651  1.00  0.00     0.004 C 
ENDBRANCH  11  15
BRANCH  11  17
ATOM     17  C   UNL A   1      32.055  22.481  25.885  1.00  0.00     0.005 C 
ATOM     18  C   UNL A   1      30.710  22.962  25.341  1.00  0.00     0.004 C 
ENDBRANCH  11  17
ENDBRANCH   6  10
BRANCH   9  19
ATOM     19  C   UNL A   1      39.066  24.806  26.922  1.00  0.00     0.034 C 
ATOM     20  C   UNL A   1      39.369  24.744  28.420  1.00  0.00     0.014 C 
ATOM     21  C   UNL A   1      40.270  25.295  26.111  1.00  0.00     0.014 C 
ENDBRANCH   9  19
ENDBRANCH   3   5
ENDBRANCH   2   3
ENDBRANCH   1   2
BRANCH   1  22
ATOM     22  C   UNL A   1      43.648  22.438  25.144  1.00  0.00     0.275 C 
BRANCH  22  23
ATOM     23  O   UNL A   1      43.287  23.830  25.108  1.00  0.00    -0.458 OA
BRANCH  23  24
ATOM     24  C   UNL A   1      44.296  24.685  25.387  1.00  0.00     0.338 C 
ATOM     25  O   UNL A   1      45.293  24.906  24.722  1.00  0.00    -0.246 OA
BRANCH  24  26
ATOM     26  C   UNL A   1      43.923  25.496  26.552  1.00  0.00     0.060 A 
ATOM     27  C   UNL A   1      43.360  24.814  27.626  1.00  0.00     0.016 A 
ATOM     28  C   UNL A   1      44.022  26.883  26.573  1.00  0.00     0.016 A 
ATOM     29  C   UNL A   1      42.851  25.498  28.718  1.00  0.00     0.010 A 
ATOM     30  C   UNL A   1      43.542  27.578  27.693  1.00  0.00     0.010 A 
ATOM     31  C   UNL A   1      42.937  26.891  28.764  1.00  0.00    -0.014 A 
BRANCH  31  32
ATOM     32  C   UNL A   1      42.333  27.614  29.910  1.00  0.00     0.031 A 
ATOM     33  C   UNL A   1      41.005  28.297  29.742  1.00  0.00     0.074 A 
ATOM     34  C   UNL A   1      42.945  27.612  31.110  1.00  0.00     0.049 A 
ATOM     35  N   UNL A   1      40.365  29.077  30.575  1.00  0.00    -0.248 NA
ATOM     36  C   UNL A   1      40.305  28.076  28.465  1.00  0.00     0.031 C 
ATOM     37  C   UNL A   1      44.193  26.914  31.426  1.00  0.00     0.029 A 
ATOM     38  N   UNL A   1      42.593  28.212  32.293  1.00  0.00    -0.354 N 
ATOM     39  C   UNL A   1      39.210  29.472  29.910  1.00  0.00     0.074 A 
ATOM     40  C   UNL A   1      39.242  28.855  28.601  1.00  0.00     0.031 C 
ATOM     41  C   UNL A   1      44.493  27.111  32.719  1.00  0.00     0.029 A 
ATOM     42  C   UNL A   1      43.504  28.009  33.303  1.00  0.00     0.049 A 
ATOM     43  H   UNL A   1      41.768  28.736  32.408  1.00  0.00     0.167 HD
ATOM     44  C   UNL A   1      38.216  30.277  30.352  1.00  0.00     0.031 A 
ATOM     45  C   UNL A   1      43.559  28.525  34.545  1.00  0.00     0.031 A 
ATOM     46  C   UNL A   1      38.185  30.872  31.662  1.00  0.00     0.049 A 
ATOM     47  C   UNL A   1      42.486  29.485  34.980  1.00  0.00     0.074 A 
ATOM     48  C   UNL A   1      37.227  31.710  32.207  1.00  0.00     0.029 A 
ATOM     49  N   UNL A   1      39.155  30.686  32.636  1.00  0.00    -0.354 N 
ATOM     50  N   UNL A   1      41.420  29.883  34.330  1.00  0.00    -0.248 NA
ATOM     51  C   UNL A   1      42.629  30.071  36.320  1.00  0.00     0.031 C 
ATOM     52  C   UNL A   1      37.644  32.071  33.492  1.00  0.00     0.029 A 
ATOM     53  C   UNL A   1      38.829  31.410  33.771  1.00  0.00     0.049 A 
ATOM     54  H   UNL A   1      39.956  30.123  32.536  1.00  0.00     0.167 HD
ATOM     55  C   UNL A   1      40.754  30.747  35.188  1.00  0.00     0.074 A 
ATOM     56  C   UNL A   1      41.525  30.797  36.414  1.00  0.00     0.031 C 
ATOM     57  C   UNL A   1      39.608  31.442  34.981  1.00  0.00     0.031 A 
BRANCH  44  58
ATOM     58  C   UNL A   1      37.103  30.601  29.395  1.00  0.00    -0.014 A 
ATOM     59  C   UNL A   1      36.987  31.868  28.804  1.00  0.00     0.009 A 
ATOM     60  C   UNL A   1      36.176  29.605  29.051  1.00  0.00     0.009 A 
ATOM     61  C   UNL A   1      35.946  32.139  27.912  1.00  0.00     0.001 A 
ATOM     62  C   UNL A   1      35.155  29.868  28.137  1.00  0.00     0.001 A 
ATOM     63  C   UNL A   1      35.035  31.138  27.575  1.00  0.00     0.000 A 
ENDBRANCH  44  58
BRANCH  45  64
ATOM     64  C   UNL A   1      44.699  28.199  35.444  1.00  0.00    -0.014 A 
ATOM     65  C   UNL A   1      45.837  29.020  35.490  1.00  0.00     0.009 A 
ATOM     66  C   UNL A   1      44.664  27.047  36.246  1.00  0.00     0.009 A 
ATOM     67  C   UNL A   1      46.925  28.675  36.296  1.00  0.00     0.001 A 
ATOM     68  C   UNL A   1      45.739  26.724  37.077  1.00  0.00     0.001 A 
ATOM     69  C   UNL A   1      46.873  27.532  37.092  1.00  0.00     0.000 A 
ENDBRANCH  45  64
BRANCH  57  70
ATOM     70  C   UNL A   1      39.100  32.277  36.122  1.00  0.00    -0.014 A 
ATOM     71  C   UNL A   1      39.559  33.587  36.330  1.00  0.00     0.009 A 
ATOM     72  C   UNL A   1      38.120  31.754  36.979  1.00  0.00     0.009 A 
ATOM     73  C   UNL A   1      39.073  34.342  37.399  1.00  0.00     0.001 A 
ATOM     74  C   UNL A   1      37.613  32.522  38.027  1.00  0.00     0.001 A 
ATOM     75  C   UNL A   1      38.097  33.810  38.243  1.00  0.00     0.000 A 
ENDBRANCH  57  70
ENDBRANCH  31  32
ENDBRANCH  24  26
ENDBRANCH  23  24
ENDBRANCH  22  23
ENDBRANCH   1  22
TORSDOF 15
ENDMDL
