MODEL 1
REMARK VINA RESULT:     -10.4      0.000      0.000
REMARK SMILES Cc1cscc1C(=O)NC1(C(=O)OCCOC(=O)c2ccc(-c3c4nc(c(-c5ccccc5)c5ccc([nH]5)c(-c5ccccc5)c5nc(c(-c6ccccc6)c6ccc3[nH]6)C=C5)C=C4)cc2)CCCC1
REMARK SMILES IDX 14 1 13 2 11 3 12 4 10 5 67 6 70 7 68 8 69 9 9 10 7 11 8 12
REMARK SMILES IDX 6 14 1 15 2 16 3 17 4 18 5 19 15 20 16 21 17 22 18 23 19 24
REMARK SMILES IDX 20 25 66 26 21 27 65 28 22 29 23 30 24 31 59 32 25 33 64 34
REMARK SMILES IDX 58 35 60 36 26 37 63 38 57 39 56 40 27 42 49 43 34 44 48 45
REMARK SMILES IDX 35 46 38 47 47 48 61 49 36 50 37 51 46 53 62 54 39 55 28 56
REMARK SMILES IDX 29 57 33 58 30 59 32 60 31 61 50 62 51 63 55 64 52 65 54 66
REMARK SMILES IDX 53 67 40 68 41 69 45 70 42 71 44 72 43 73
REMARK H PARENT 9 13 60 41 38 52
REMARK Flexibility Score: inf
ROOT
ATOM      1  C   UNL A   1      32.119  28.796  27.071  1.00  0.00     0.274 C 
ENDROOT
BRANCH   1   2
ATOM      2  O   UNL A   1      31.898  28.283  25.741  1.00  0.00    -0.460 OA
BRANCH   2   3
ATOM      3  C   UNL A   1      31.362  29.136  24.821  1.00  0.00     0.331 C 
ATOM      4  O   UNL A   1      31.140  30.322  25.028  1.00  0.00    -0.249 OA
BRANCH   3   5
ATOM      5  C   UNL A   1      31.019  28.412  23.486  1.00  0.00     0.138 C 
ATOM      6  C   UNL A   1      30.007  29.207  22.675  1.00  0.00     0.040 C 
ATOM      7  C   UNL A   1      30.267  27.067  23.740  1.00  0.00     0.040 C 
ATOM      8  C   UNL A   1      28.641  28.775  23.192  1.00  0.00     0.003 C 
ATOM      9  C   UNL A   1      28.783  27.298  23.471  1.00  0.00     0.003 C 
BRANCH   5  10
ATOM     10  N   UNL A   1      32.305  28.031  22.851  1.00  0.00    -0.336 N 
ATOM     11  C   UNL A   1      33.159  27.035  22.507  1.00  0.00     0.253 C 
ATOM     12  O   UNL A   1      33.937  27.457  21.633  1.00  0.00    -0.269 OA
ATOM     13  H   UNL A   1      32.721  28.870  22.547  1.00  0.00     0.165 HD
BRANCH  11  14
ATOM     14  C   UNL A   1      33.348  25.662  23.010  1.00  0.00     0.053 A 
ATOM     15  C   UNL A   1      34.208  25.612  25.517  1.00  0.00     0.046 C 
ATOM     16  C   UNL A   1      33.812  25.013  24.224  1.00  0.00    -0.028 A 
ATOM     17  C   UNL A   1      33.865  23.629  24.090  1.00  0.00     0.069 A 
ATOM     18  S   UNL A   1      33.287  23.065  22.605  1.00  0.00    -0.151 S 
ATOM     19  C   UNL A   1      32.994  24.656  22.100  1.00  0.00     0.079 A 
ENDBRANCH  11  14
ENDBRANCH   5  10
ENDBRANCH   3   5
ENDBRANCH   2   3
ENDBRANCH   1   2
BRANCH   1  20
ATOM     20  C   UNL A   1      33.616  28.889  27.350  1.00  0.00     0.275 C 
BRANCH  20  21
ATOM     21  O   UNL A   1      34.059  30.232  27.090  1.00  0.00    -0.458 OA
BRANCH  21  22
ATOM     22  C   UNL A   1      34.687  30.855  28.112  1.00  0.00     0.338 C 
ATOM     23  O   UNL A   1      34.292  31.797  28.774  1.00  0.00    -0.246 OA
BRANCH  22  24
ATOM     24  C   UNL A   1      35.975  30.190  28.350  1.00  0.00     0.060 A 
ATOM     25  C   UNL A   1      36.223  29.597  29.588  1.00  0.00     0.016 A 
ATOM     26  C   UNL A   1      36.969  30.245  27.374  1.00  0.00     0.016 A 
ATOM     27  C   UNL A   1      37.497  29.110  29.881  1.00  0.00     0.010 A 
ATOM     28  C   UNL A   1      38.222  29.689  27.644  1.00  0.00     0.010 A 
ATOM     29  C   UNL A   1      38.508  29.145  28.910  1.00  0.00    -0.014 A 
BRANCH  29  30
ATOM     30  C   UNL A   1      39.876  28.648  29.210  1.00  0.00     0.031 A 
ATOM     31  C   UNL A   1      40.860  29.536  29.922  1.00  0.00     0.074 A 
ATOM     32  C   UNL A   1      40.252  27.410  28.832  1.00  0.00     0.049 A 
ATOM     33  N   UNL A   1      42.146  29.370  30.105  1.00  0.00    -0.248 NA
ATOM     34  C   UNL A   1      40.329  30.784  30.495  1.00  0.00     0.031 C 
ATOM     35  C   UNL A   1      39.392  26.423  28.177  1.00  0.00     0.029 A 
ATOM     36  N   UNL A   1      41.464  26.775  28.943  1.00  0.00    -0.354 N 
ATOM     37  C   UNL A   1      42.585  30.510  30.765  1.00  0.00     0.074 A 
ATOM     38  C   UNL A   1      41.430  31.362  30.954  1.00  0.00     0.031 C 
ATOM     39  C   UNL A   1      40.098  25.301  27.964  1.00  0.00     0.029 A 
ATOM     40  C   UNL A   1      41.473  25.513  28.402  1.00  0.00     0.049 A 
ATOM     41  H   UNL A   1      42.251  27.185  29.370  1.00  0.00     0.167 HD
ATOM     42  C   UNL A   1      43.838  30.823  31.172  1.00  0.00     0.031 A 
ATOM     43  C   UNL A   1      42.481  24.636  28.242  1.00  0.00     0.031 A 
ATOM     44  C   UNL A   1      44.982  29.964  31.021  1.00  0.00     0.049 A 
ATOM     45  C   UNL A   1      43.867  25.015  28.679  1.00  0.00     0.074 A 
ATOM     46  C   UNL A   1      46.292  30.194  31.405  1.00  0.00     0.029 A 
ATOM     47  N   UNL A   1      44.946  28.700  30.454  1.00  0.00    -0.354 N 
ATOM     48  N   UNL A   1      44.278  26.121  29.250  1.00  0.00    -0.248 NA
ATOM     49  C   UNL A   1      44.929  24.029  28.435  1.00  0.00     0.031 C 
ATOM     50  C   UNL A   1      47.056  29.078  31.043  1.00  0.00     0.029 A 
ATOM     51  C   UNL A   1      46.213  28.142  30.469  1.00  0.00     0.049 A 
ATOM     52  H   UNL A   1      44.140  28.265  30.094  1.00  0.00     0.167 HD
ATOM     53  C   UNL A   1      45.644  25.962  29.437  1.00  0.00     0.074 A 
ATOM     54  C   UNL A   1      45.988  24.646  28.940  1.00  0.00     0.031 C 
ATOM     55  C   UNL A   1      46.536  26.834  29.968  1.00  0.00     0.031 A 
BRANCH  42  56
ATOM     56  C   UNL A   1      44.047  32.176  31.789  1.00  0.00    -0.014 A 
ATOM     57  C   UNL A   1      43.965  32.369  33.176  1.00  0.00     0.009 A 
ATOM     58  C   UNL A   1      44.369  33.267  30.966  1.00  0.00     0.009 A 
ATOM     59  C   UNL A   1      44.177  33.636  33.725  1.00  0.00     0.001 A 
ATOM     60  C   UNL A   1      44.600  34.528  31.519  1.00  0.00     0.001 A 
ATOM     61  C   UNL A   1      44.497  34.712  32.897  1.00  0.00     0.000 A 
ENDBRANCH  42  56
BRANCH  43  62
ATOM     62  C   UNL A   1      42.226  23.327  27.591  1.00  0.00    -0.014 A 
ATOM     63  C   UNL A   1      41.671  22.264  28.318  1.00  0.00     0.009 A 
ATOM     64  C   UNL A   1      42.536  23.135  26.234  1.00  0.00     0.009 A 
ATOM     65  C   UNL A   1      41.447  21.029  27.705  1.00  0.00     0.001 A 
ATOM     66  C   UNL A   1      42.288  21.908  25.617  1.00  0.00     0.001 A 
ATOM     67  C   UNL A   1      41.751  20.854  26.354  1.00  0.00     0.000 A 
ENDBRANCH  43  62
BRANCH  55  68
ATOM     68  C   UNL A   1      47.963  26.379  30.052  1.00  0.00    -0.014 A 
ATOM     69  C   UNL A   1      48.470  25.810  31.230  1.00  0.00     0.009 A 
ATOM     70  C   UNL A   1      48.798  26.492  28.931  1.00  0.00     0.009 A 
ATOM     71  C   UNL A   1      49.800  25.390  31.292  1.00  0.00     0.001 A 
ATOM     72  C   UNL A   1      50.122  26.052  28.989  1.00  0.00     0.001 A 
ATOM     73  C   UNL A   1      50.622  25.507  30.172  1.00  0.00     0.000 A 
ENDBRANCH  55  68
ENDBRANCH  29  30
ENDBRANCH  22  24
ENDBRANCH  21  22
ENDBRANCH  20  21
ENDBRANCH   1  20
TORSDOF 13
ENDMDL
MODEL 2
REMARK VINA RESULT:     -10.3      3.350      6.715
REMARK SMILES Cc1cscc1C(=O)NC1(C(=O)OCCOC(=O)c2ccc(-c3c4nc(c(-c5ccccc5)c5ccc([nH]5)c(-c5ccccc5)c5nc(c(-c6ccccc6)c6ccc3[nH]6)C=C5)C=C4)cc2)CCCC1
REMARK SMILES IDX 14 1 13 2 11 3 12 4 10 5 67 6 70 7 68 8 69 9 9 10 7 11 8 12
REMARK SMILES IDX 6 14 1 15 2 16 3 17 4 18 5 19 15 20 16 21 17 22 18 23 19 24
REMARK SMILES IDX 20 25 66 26 21 27 65 28 22 29 23 30 24 31 59 32 25 33 64 34
REMARK SMILES IDX 58 35 60 36 26 37 63 38 57 39 56 40 27 42 49 43 34 44 48 45
REMARK SMILES IDX 35 46 38 47 47 48 61 49 36 50 37 51 46 53 62 54 39 55 28 56
REMARK SMILES IDX 29 57 33 58 30 59 32 60 31 61 50 62 51 63 55 64 52 65 54 66
REMARK SMILES IDX 53 67 40 68 41 69 45 70 42 71 44 72 43 73
REMARK H PARENT 9 13 60 41 38 52
REMARK Flexibility Score: inf
ROOT
ATOM      1  C   UNL A   1      35.138  20.686  24.984  1.00  0.00     0.274 C 
ENDROOT
BRANCH   1   2
ATOM      2  O   UNL A   1      34.568  21.827  24.308  1.00  0.00    -0.460 OA
BRANCH   2   3
ATOM      3  C   UNL A   1      33.208  21.899  24.241  1.00  0.00     0.331 C 
ATOM      4  O   UNL A   1      32.485  20.976  23.885  1.00  0.00    -0.249 OA
BRANCH   3   5
ATOM      5  C   UNL A   1      32.679  23.312  24.624  1.00  0.00     0.138 C 
ATOM      6  C   UNL A   1      33.189  23.737  25.992  1.00  0.00     0.040 C 
ATOM      7  C   UNL A   1      31.131  23.311  24.826  1.00  0.00     0.040 C 
ATOM      8  C   UNL A   1      32.198  23.160  26.994  1.00  0.00     0.003 C 
ATOM      9  C   UNL A   1      30.851  23.296  26.326  1.00  0.00     0.003 C 
BRANCH   5  10
ATOM     10  N   UNL A   1      32.924  24.201  23.461  1.00  0.00    -0.336 N 
ATOM     11  C   UNL A   1      32.967  25.469  22.980  1.00  0.00     0.253 C 
ATOM     12  O   UNL A   1      33.626  25.477  21.926  1.00  0.00    -0.269 OA
ATOM     13  H   UNL A   1      33.157  23.612  22.708  1.00  0.00     0.165 HD
BRANCH  11  14
ATOM     14  C   UNL A   1      32.348  26.730  23.430  1.00  0.00     0.053 A 
ATOM     15  C   UNL A   1      33.169  27.456  25.844  1.00  0.00     0.046 C 
ATOM     16  C   UNL A   1      32.362  27.577  24.610  1.00  0.00    -0.028 A 
ATOM     17  C   UNL A   1      31.471  28.640  24.502  1.00  0.00     0.069 A 
ATOM     18  S   UNL A   1      30.689  28.725  23.006  1.00  0.00    -0.151 S 
ATOM     19  C   UNL A   1      31.495  27.325  22.491  1.00  0.00     0.079 A 
ENDBRANCH  11  14
ENDBRANCH   5  10
ENDBRANCH   3   5
ENDBRANCH   2   3
ENDBRANCH   1   2
BRANCH   1  20
ATOM     20  C   UNL A   1      36.646  20.650  24.758  1.00  0.00     0.275 C 
BRANCH  20  21
ATOM     21  O   UNL A   1      37.290  21.458  25.759  1.00  0.00    -0.458 OA
BRANCH  21  22
ATOM     22  C   UNL A   1      38.605  21.216  25.957  1.00  0.00     0.338 C 
ATOM     23  O   UNL A   1      39.221  20.188  25.740  1.00  0.00    -0.246 OA
BRANCH  22  24
ATOM     24  C   UNL A   1      39.236  22.435  26.477  1.00  0.00     0.060 A 
ATOM     25  C   UNL A   1      38.716  23.681  26.125  1.00  0.00     0.016 A 
ATOM     26  C   UNL A   1      40.403  22.339  27.232  1.00  0.00     0.016 A 
ATOM     27  C   UNL A   1      39.402  24.844  26.475  1.00  0.00     0.010 A 
ATOM     28  C   UNL A   1      41.049  23.508  27.645  1.00  0.00     0.010 A 
ATOM     29  C   UNL A   1      40.571  24.770  27.245  1.00  0.00    -0.014 A 
BRANCH  29  30
ATOM     30  C   UNL A   1      41.325  25.997  27.612  1.00  0.00     0.031 A 
ATOM     31  C   UNL A   1      40.709  27.010  28.539  1.00  0.00     0.074 A 
ATOM     32  C   UNL A   1      42.553  26.222  27.106  1.00  0.00     0.049 A 
ATOM     33  N   UNL A   1      41.112  28.222  28.829  1.00  0.00    -0.248 NA
ATOM     34  C   UNL A   1      39.468  26.611  29.222  1.00  0.00     0.031 C 
ATOM     35  C   UNL A   1      43.294  25.308  26.234  1.00  0.00     0.029 A 
ATOM     36  N   UNL A   1      43.394  27.298  27.251  1.00  0.00    -0.354 N 
ATOM     37  C   UNL A   1      40.150  28.747  29.683  1.00  0.00     0.074 A 
ATOM     38  C   UNL A   1      39.144  27.723  29.868  1.00  0.00     0.031 C 
ATOM     39  C   UNL A   1      44.486  25.853  25.941  1.00  0.00     0.029 A 
ATOM     40  C   UNL A   1      44.564  27.179  26.544  1.00  0.00     0.049 A 
ATOM     41  H   UNL A   1      43.177  28.080  27.810  1.00  0.00     0.167 HD
ATOM     42  C   UNL A   1      40.106  29.972  30.257  1.00  0.00     0.031 A 
ATOM     43  C   UNL A   1      45.573  28.051  26.368  1.00  0.00     0.031 A 
ATOM     44  C   UNL A   1      41.122  30.979  30.105  1.00  0.00     0.049 A 
ATOM     45  C   UNL A   1      45.490  29.414  26.994  1.00  0.00     0.074 A 
ATOM     46  C   UNL A   1      41.165  32.251  30.651  1.00  0.00     0.029 A 
ATOM     47  N   UNL A   1      42.283  30.820  29.368  1.00  0.00    -0.354 N 
ATOM     48  N   UNL A   1      44.547  29.917  27.753  1.00  0.00    -0.248 NA
ATOM     49  C   UNL A   1      46.605  30.333  26.726  1.00  0.00     0.031 C 
ATOM     50  C   UNL A   1      42.342  32.873  30.218  1.00  0.00     0.029 A 
ATOM     51  C   UNL A   1      43.046  31.973  29.435  1.00  0.00     0.049 A 
ATOM     52  H   UNL A   1      42.529  30.007  28.869  1.00  0.00     0.167 HD
ATOM     53  C   UNL A   1      44.957  31.208  28.056  1.00  0.00     0.074 A 
ATOM     54  C   UNL A   1      46.242  31.404  27.419  1.00  0.00     0.031 C 
ATOM     55  C   UNL A   1      44.319  32.150  28.792  1.00  0.00     0.031 A 
BRANCH  42  56
ATOM     56  C   UNL A   1      38.892  30.309  31.074  1.00  0.00    -0.014 A 
ATOM     57  C   UNL A   1      38.858  30.088  32.459  1.00  0.00     0.009 A 
ATOM     58  C   UNL A   1      37.780  30.894  30.449  1.00  0.00     0.009 A 
ATOM     59  C   UNL A   1      37.720  30.422  33.198  1.00  0.00     0.001 A 
ATOM     60  C   UNL A   1      36.652  31.247  31.193  1.00  0.00     0.001 A 
ATOM     61  C   UNL A   1      36.622  31.004  32.566  1.00  0.00     0.000 A 
ENDBRANCH  42  56
BRANCH  43  62
ATOM     62  C   UNL A   1      46.732  27.681  25.517  1.00  0.00    -0.014 A 
ATOM     63  C   UNL A   1      47.858  27.059  26.077  1.00  0.00     0.009 A 
ATOM     64  C   UNL A   1      46.716  27.946  24.139  1.00  0.00     0.009 A 
ATOM     65  C   UNL A   1      48.952  26.726  25.275  1.00  0.00     0.001 A 
ATOM     66  C   UNL A   1      47.800  27.589  23.335  1.00  0.00     0.001 A 
ATOM     67  C   UNL A   1      48.920  26.986  23.905  1.00  0.00     0.000 A 
ENDBRANCH  43  62
BRANCH  55  68
ATOM     68  C   UNL A   1      45.017  33.469  28.958  1.00  0.00    -0.014 A 
ATOM     69  C   UNL A   1      44.782  34.525  28.066  1.00  0.00     0.009 A 
ATOM     70  C   UNL A   1      45.892  33.663  30.036  1.00  0.00     0.009 A 
ATOM     71  C   UNL A   1      45.437  35.746  28.236  1.00  0.00     0.001 A 
ATOM     72  C   UNL A   1      46.530  34.892  30.215  1.00  0.00     0.001 A 
ATOM     73  C   UNL A   1      46.306  35.929  29.310  1.00  0.00     0.000 A 
ENDBRANCH  55  68
ENDBRANCH  29  30
ENDBRANCH  22  24
ENDBRANCH  21  22
ENDBRANCH  20  21
ENDBRANCH   1  20
TORSDOF 13
ENDMDL
MODEL 3
REMARK VINA RESULT:     -10.2      5.380     11.066
REMARK SMILES Cc1cscc1C(=O)NC1(C(=O)OCCOC(=O)c2ccc(-c3c4nc(c(-c5ccccc5)c5ccc([nH]5)c(-c5ccccc5)c5nc(c(-c6ccccc6)c6ccc3[nH]6)C=C5)C=C4)cc2)CCCC1
REMARK SMILES IDX 14 1 13 2 11 3 12 4 10 5 67 6 70 7 68 8 69 9 9 10 7 11 8 12
REMARK SMILES IDX 6 14 1 15 2 16 3 17 4 18 5 19 15 20 16 21 17 22 18 23 19 24
REMARK SMILES IDX 20 25 66 26 21 27 65 28 22 29 23 30 24 31 59 32 25 33 64 34
REMARK SMILES IDX 58 35 60 36 26 37 63 38 57 39 56 40 27 42 49 43 34 44 48 45
REMARK SMILES IDX 35 46 38 47 47 48 61 49 36 50 37 51 46 53 62 54 39 55 28 56
REMARK SMILES IDX 29 57 33 58 30 59 32 60 31 61 50 62 51 63 55 64 52 65 54 66
REMARK SMILES IDX 53 67 40 68 41 69 45 70 42 71 44 72 43 73
REMARK H PARENT 9 13 60 41 38 52
REMARK Flexibility Score: inf
ROOT
ATOM      1  C   UNL A   1      46.146  23.458  24.867  1.00  0.00     0.274 C 
ENDROOT
BRANCH   1   2
ATOM      2  O   UNL A   1      46.083  24.870  24.581  1.00  0.00    -0.460 OA
BRANCH   2   3
ATOM      3  C   UNL A   1      47.233  25.590  24.724  1.00  0.00     0.331 C 
ATOM      4  O   UNL A   1      48.170  25.558  23.934  1.00  0.00    -0.249 OA
BRANCH   3   5
ATOM      5  C   UNL A   1      47.239  26.425  26.037  1.00  0.00     0.138 C 
ATOM      6  C   UNL A   1      48.563  26.286  26.771  1.00  0.00     0.040 C 
ATOM      7  C   UNL A   1      46.216  25.867  27.076  1.00  0.00     0.040 C 
ATOM      8  C   UNL A   1      48.422  25.039  27.635  1.00  0.00     0.003 C 
ATOM      9  C   UNL A   1      46.991  25.065  28.117  1.00  0.00     0.003 C 
BRANCH   5  10
ATOM     10  N   UNL A   1      46.750  27.784  25.694  1.00  0.00    -0.336 N 
ATOM     11  C   UNL A   1      46.227  28.956  26.135  1.00  0.00     0.253 C 
ATOM     12  O   UNL A   1      46.406  29.828  25.266  1.00  0.00    -0.269 OA
ATOM     13  H   UNL A   1      46.846  27.874  24.719  1.00  0.00     0.165 HD
BRANCH  11  14
ATOM     14  C   UNL A   1      45.478  29.322  27.351  1.00  0.00     0.053 A 
ATOM     15  C   UNL A   1      42.917  29.797  26.857  1.00  0.00     0.046 C 
ATOM     16  C   UNL A   1      44.125  29.715  27.707  1.00  0.00    -0.028 A 
ATOM     17  C   UNL A   1      44.013  30.044  29.053  1.00  0.00     0.069 A 
ATOM     18  S   UNL A   1      45.437  29.808  29.934  1.00  0.00    -0.151 S 
ATOM     19  C   UNL A   1      46.237  29.300  28.529  1.00  0.00     0.079 A 
ENDBRANCH  11  14
ENDBRANCH   5  10
ENDBRANCH   3   5
ENDBRANCH   2   3
ENDBRANCH   1   2
BRANCH   1  20
ATOM     20  C   UNL A   1      44.996  22.736  24.172  1.00  0.00     0.275 C 
BRANCH  20  21
ATOM     21  O   UNL A   1      43.799  23.521  24.308  1.00  0.00    -0.458 OA
BRANCH  21  22
ATOM     22  C   UNL A   1      42.882  23.051  25.183  1.00  0.00     0.338 C 
ATOM     23  O   UNL A   1      42.289  21.988  25.153  1.00  0.00    -0.246 OA
BRANCH  22  24
ATOM     24  C   UNL A   1      42.701  24.041  26.253  1.00  0.00     0.060 A 
ATOM     25  C   UNL A   1      42.225  23.628  27.497  1.00  0.00     0.016 A 
ATOM     26  C   UNL A   1      42.911  25.392  25.984  1.00  0.00     0.016 A 
ATOM     27  C   UNL A   1      41.893  24.578  28.463  1.00  0.00     0.010 A 
ATOM     28  C   UNL A   1      42.648  26.337  26.979  1.00  0.00     0.010 A 
ATOM     29  C   UNL A   1      42.108  25.941  28.218  1.00  0.00    -0.014 A 
BRANCH  29  30
ATOM     30  C   UNL A   1      41.743  26.969  29.228  1.00  0.00     0.031 A 
ATOM     31  C   UNL A   1      42.566  27.120  30.478  1.00  0.00     0.074 A 
ATOM     32  C   UNL A   1      40.666  27.757  29.043  1.00  0.00     0.049 A 
ATOM     33  N   UNL A   1      42.312  27.811  31.561  1.00  0.00    -0.248 NA
ATOM     34  C   UNL A   1      43.842  26.385  30.522  1.00  0.00     0.031 C 
ATOM     35  C   UNL A   1      39.803  27.755  27.861  1.00  0.00     0.029 A 
ATOM     36  N   UNL A   1      40.112  28.712  29.859  1.00  0.00    -0.354 N 
ATOM     37  C   UNL A   1      43.364  27.555  32.431  1.00  0.00     0.074 A 
ATOM     38  C   UNL A   1      44.263  26.647  31.752  1.00  0.00     0.031 C 
ATOM     39  C   UNL A   1      38.843  28.680  28.018  1.00  0.00     0.029 A 
ATOM     40  C   UNL A   1      38.980  29.288  29.337  1.00  0.00     0.049 A 
ATOM     41  H   UNL A   1      40.490  28.961  30.734  1.00  0.00     0.167 HD
ATOM     42  C   UNL A   1      43.561  28.029  33.683  1.00  0.00     0.031 A 
ATOM     43  C   UNL A   1      38.124  30.179  29.872  1.00  0.00     0.031 A 
ATOM     44  C   UNL A   1      42.689  28.961  34.348  1.00  0.00     0.049 A 
ATOM     45  C   UNL A   1      38.350  30.672  31.273  1.00  0.00     0.074 A 
ATOM     46  C   UNL A   1      42.809  29.500  35.617  1.00  0.00     0.029 A 
ATOM     47  N   UNL A   1      41.547  29.506  33.786  1.00  0.00    -0.354 N 
ATOM     48  N   UNL A   1      39.319  30.376  32.105  1.00  0.00    -0.248 NA
ATOM     49  C   UNL A   1      37.354  31.609  31.812  1.00  0.00     0.031 C 
ATOM     50  C   UNL A   1      41.719  30.352  35.835  1.00  0.00     0.029 A 
ATOM     51  C   UNL A   1      40.946  30.369  34.686  1.00  0.00     0.049 A 
ATOM     52  H   UNL A   1      41.212  29.309  32.882  1.00  0.00     0.167 HD
ATOM     53  C   UNL A   1      39.052  31.094  33.263  1.00  0.00     0.074 A 
ATOM     54  C   UNL A   1      37.845  31.855  33.019  1.00  0.00     0.031 C 
ATOM     55  C   UNL A   1      39.744  31.114  34.428  1.00  0.00     0.031 A 
BRANCH  42  56
ATOM     56  C   UNL A   1      44.752  27.513  34.439  1.00  0.00    -0.014 A 
ATOM     57  C   UNL A   1      45.976  28.197  34.431  1.00  0.00     0.009 A 
ATOM     58  C   UNL A   1      44.630  26.340  35.201  1.00  0.00     0.009 A 
ATOM     59  C   UNL A   1      47.065  27.701  35.152  1.00  0.00     0.001 A 
ATOM     60  C   UNL A   1      45.713  25.858  35.938  1.00  0.00     0.001 A 
ATOM     61  C   UNL A   1      46.932  26.536  35.907  1.00  0.00     0.000 A 
ENDBRANCH  42  56
BRANCH  43  62
ATOM     62  C   UNL A   1      36.941  30.627  29.095  1.00  0.00    -0.014 A 
ATOM     63  C   UNL A   1      35.931  29.718  28.745  1.00  0.00     0.009 A 
ATOM     64  C   UNL A   1      36.816  31.969  28.702  1.00  0.00     0.009 A 
ATOM     65  C   UNL A   1      34.827  30.142  28.002  1.00  0.00     0.001 A 
ATOM     66  C   UNL A   1      35.699  32.395  27.982  1.00  0.00     0.001 A 
ATOM     67  C   UNL A   1      34.710  31.480  27.626  1.00  0.00     0.000 A 
ENDBRANCH  43  62
BRANCH  55  68
ATOM     68  C   UNL A   1      39.216  32.003  35.515  1.00  0.00    -0.014 A 
ATOM     69  C   UNL A   1      39.616  33.344  35.607  1.00  0.00     0.009 A 
ATOM     70  C   UNL A   1      38.287  31.499  36.437  1.00  0.00     0.009 A 
ATOM     71  C   UNL A   1      39.114  34.159  36.624  1.00  0.00     0.001 A 
ATOM     72  C   UNL A   1      37.772  32.322  37.441  1.00  0.00     0.001 A 
ATOM     73  C   UNL A   1      38.191  33.649  37.536  1.00  0.00     0.000 A 
ENDBRANCH  55  68
ENDBRANCH  29  30
ENDBRANCH  22  24
ENDBRANCH  21  22
ENDBRANCH  20  21
ENDBRANCH   1  20
TORSDOF 13
ENDMDL
