MODEL 1
REMARK VINA RESULT:     -12.8      0.000      0.000
REMARK SMILES CC1=NN(c2ccccc2)C(=O)/C1=C\c1ccc(-c2cc(C(=O)OCCOC(=O)c3ccc(-c4c5nc(c(-c6ccccc6)c6ccc([nH]6)c(-c6ccccc6)c6nc(c(-c7ccccc7)c7ccc4[nH]7)C=C6)C=C5)cc3)ccc2Cl)o1
REMARK SMILES IDX 25 1 24 2 22 3 23 4 21 5 19 6 20 7 80 8 79 9 81 10 78 11
REMARK SMILES IDX 18 12 15 13 16 14 82 15 17 16 14 17 1 18 2 19 3 20 13 21
REMARK SMILES IDX 4 22 11 23 12 24 5 25 6 26 10 27 7 28 9 29 8 30 26 31 27 32
REMARK SMILES IDX 28 33 29 34 30 35 31 36 77 37 32 38 76 39 33 40 34 41 35 42
REMARK SMILES IDX 70 43 36 44 75 45 69 46 71 47 37 48 74 49 68 50 67 51 38 53
REMARK SMILES IDX 60 54 45 55 59 56 46 57 49 58 58 59 72 60 47 61 48 62 57 64
REMARK SMILES IDX 73 65 50 66 39 67 40 68 44 69 41 70 43 71 42 72 61 73 62 74
REMARK SMILES IDX 66 75 63 76 65 77 64 78 51 79 52 80 56 81 53 82 55 83 54 84
REMARK H PARENT 71 52 49 63
REMARK Flexibility Score: inf
ROOT
ATOM      1  C   UNL A   1      42.192  20.299  26.188  1.00  0.00     0.275 C 
ENDROOT
BRANCH   1   2
ATOM      2  O   UNL A   1      40.945  20.982  26.431  1.00  0.00    -0.458 OA
BRANCH   2   3
ATOM      3  C   UNL A   1      39.825  20.439  25.892  1.00  0.00     0.338 C 
ATOM      4  O   UNL A   1      39.651  19.269  25.600  1.00  0.00    -0.246 OA
BRANCH   3   5
ATOM      5  C   UNL A   1      38.760  21.474  25.821  1.00  0.00     0.060 A 
ATOM      6  C   UNL A   1      36.408  22.031  25.434  1.00  0.00     0.037 A 
ATOM      7  C   UNL A   1      37.472  21.118  25.389  1.00  0.00     0.029 A 
ATOM      8  C   UNL A   1      36.687  23.353  25.812  1.00  0.00     0.052 A 
ATOM      9  C   UNL A   1      37.986  23.732  26.174  1.00  0.00     0.022 A 
ATOM     10  Cl  UNL A   1      35.466  24.579  25.847  1.00  0.00    -0.084 Cl
ATOM     11  C   UNL A   1      39.018  22.792  26.200  1.00  0.00     0.017 A 
BRANCH   6  12
ATOM     12  C   UNL A   1      35.075  21.590  25.046  1.00  0.00     0.136 A 
ATOM     13  C   UNL A   1      32.861  21.525  25.254  1.00  0.00     0.128 A 
ATOM     14  C   UNL A   1      33.217  20.788  24.128  1.00  0.00     0.051 A 
ATOM     15  O   UNL A   1      34.022  22.028  25.808  1.00  0.00    -0.457 OA
ATOM     16  C   UNL A   1      34.619  20.814  24.010  1.00  0.00     0.051 A 
BRANCH  13  17
ATOM     17  C   UNL A   1      31.532  21.787  25.704  1.00  0.00     0.063 C 
ATOM     18  C   UNL A   1      29.140  22.670  27.519  1.00  0.00     0.069 C 
ATOM     19  C   UNL A   1      30.003  23.538  26.677  1.00  0.00     0.071 C 
ATOM     20  N   UNL A   1      29.963  24.842  26.730  1.00  0.00    -0.169 NA
ATOM     21  C   UNL A   1      31.079  23.044  25.802  1.00  0.00     0.068 C 
ATOM     22  N   UNL A   1      30.923  25.291  25.833  1.00  0.00    -0.196 N 
ATOM     23  C   UNL A   1      31.650  24.273  25.195  1.00  0.00     0.280 C 
ATOM     24  O   UNL A   1      32.537  24.312  24.369  1.00  0.00    -0.267 OA
BRANCH  22  25
ATOM     25  C   UNL A   1      31.084  26.679  25.640  1.00  0.00     0.069 A 
ATOM     26  C   UNL A   1      31.619  27.488  26.653  1.00  0.00     0.028 A 
ATOM     27  C   UNL A   1      30.732  27.278  24.426  1.00  0.00     0.028 A 
ATOM     28  C   UNL A   1      31.824  28.854  26.441  1.00  0.00     0.002 A 
ATOM     29  C   UNL A   1      30.925  28.643  24.218  1.00  0.00     0.002 A 
ATOM     30  C   UNL A   1      31.473  29.432  25.224  1.00  0.00     0.000 A 
ENDBRANCH  22  25
ENDBRANCH  13  17
ENDBRANCH   6  12
ENDBRANCH   3   5
ENDBRANCH   2   3
ENDBRANCH   1   2
BRANCH   1  31
ATOM     31  C   UNL A   1      43.209  21.237  25.533  1.00  0.00     0.275 C 
BRANCH  31  32
ATOM     32  O   UNL A   1      42.581  22.466  25.123  1.00  0.00    -0.458 OA
BRANCH  32  33
ATOM     33  C   UNL A   1      43.367  23.561  25.209  1.00  0.00     0.338 C 
ATOM     34  O   UNL A   1      44.399  23.790  24.603  1.00  0.00    -0.246 OA
BRANCH  33  35
ATOM     35  C   UNL A   1      42.749  24.543  26.107  1.00  0.00     0.060 A 
ATOM     36  C   UNL A   1      43.121  25.875  25.965  1.00  0.00     0.016 A 
ATOM     37  C   UNL A   1      41.957  24.146  27.177  1.00  0.00     0.016 A 
ATOM     38  C   UNL A   1      42.838  26.799  26.961  1.00  0.00     0.010 A 
ATOM     39  C   UNL A   1      41.553  25.106  28.111  1.00  0.00     0.010 A 
ATOM     40  C   UNL A   1      42.030  26.431  28.040  1.00  0.00    -0.014 A 
BRANCH  40  41
ATOM     41  C   UNL A   1      41.689  27.417  29.102  1.00  0.00     0.031 A 
ATOM     42  C   UNL A   1      42.493  27.435  30.378  1.00  0.00     0.074 A 
ATOM     43  C   UNL A   1      40.638  28.248  28.932  1.00  0.00     0.049 A 
ATOM     44  N   UNL A   1      42.260  28.066  31.500  1.00  0.00    -0.248 NA
ATOM     45  C   UNL A   1      43.718  26.615  30.407  1.00  0.00     0.031 C 
ATOM     46  C   UNL A   1      39.820  28.343  27.717  1.00  0.00     0.029 A 
ATOM     47  N   UNL A   1      40.062  29.161  29.779  1.00  0.00    -0.354 N 
ATOM     48  C   UNL A   1      43.249  27.652  32.388  1.00  0.00     0.074 A 
ATOM     49  C   UNL A   1      44.092  26.720  31.675  1.00  0.00     0.031 C 
ATOM     50  C   UNL A   1      38.865  29.267  27.893  1.00  0.00     0.029 A 
ATOM     51  C   UNL A   1      38.940  29.767  29.257  1.00  0.00     0.049 A 
ATOM     52  H   UNL A   1      40.418  29.364  30.675  1.00  0.00     0.167 HD
ATOM     53  C   UNL A   1      43.429  28.028  33.678  1.00  0.00     0.031 A 
ATOM     54  C   UNL A   1      38.050  30.604  29.825  1.00  0.00     0.031 A 
ATOM     55  C   UNL A   1      42.599  29.013  34.329  1.00  0.00     0.049 A 
ATOM     56  C   UNL A   1      38.278  30.995  31.259  1.00  0.00     0.074 A 
ATOM     57  C   UNL A   1      42.728  29.545  35.601  1.00  0.00     0.029 A 
ATOM     58  N   UNL A   1      41.491  29.625  33.752  1.00  0.00    -0.354 N 
ATOM     59  N   UNL A   1      39.243  30.632  32.072  1.00  0.00    -0.248 NA
ATOM     60  C   UNL A   1      37.296  31.907  31.859  1.00  0.00     0.031 C 
ATOM     61  C   UNL A   1      41.656  30.415  35.821  1.00  0.00     0.029 A 
ATOM     62  C   UNL A   1      40.896  30.481  34.664  1.00  0.00     0.049 A 
ATOM     63  H   UNL A   1      41.177  29.472  32.832  1.00  0.00     0.167 HD
ATOM     64  C   UNL A   1      39.012  31.308  33.261  1.00  0.00     0.074 A 
ATOM     65  C   UNL A   1      37.820  32.108  33.059  1.00  0.00     0.031 C 
ATOM     66  C   UNL A   1      39.713  31.269  34.420  1.00  0.00     0.031 A 
BRANCH  53  67
ATOM     67  C   UNL A   1      44.529  27.370  34.485  1.00  0.00    -0.014 A 
ATOM     68  C   UNL A   1      45.844  27.857  34.510  1.00  0.00     0.009 A 
ATOM     69  C   UNL A   1      44.224  26.272  35.306  1.00  0.00     0.009 A 
ATOM     70  C   UNL A   1      46.828  27.264  35.307  1.00  0.00     0.001 A 
ATOM     71  C   UNL A   1      45.198  25.693  36.126  1.00  0.00     0.001 A 
ATOM     72  C   UNL A   1      46.502  26.186  36.123  1.00  0.00     0.000 A 
ENDBRANCH  53  67
BRANCH  54  73
ATOM     73  C   UNL A   1      36.875  31.110  29.051  1.00  0.00    -0.014 A 
ATOM     74  C   UNL A   1      35.811  30.257  28.716  1.00  0.00     0.009 A 
ATOM     75  C   UNL A   1      36.796  32.452  28.645  1.00  0.00     0.009 A 
ATOM     76  C   UNL A   1      34.703  30.727  28.005  1.00  0.00     0.001 A 
ATOM     77  C   UNL A   1      35.676  32.930  27.957  1.00  0.00     0.001 A 
ATOM     78  C   UNL A   1      34.632  32.066  27.634  1.00  0.00     0.000 A 
ENDBRANCH  54  73
BRANCH  66  79
ATOM     79  C   UNL A   1      39.219  32.149  35.536  1.00  0.00    -0.014 A 
ATOM     80  C   UNL A   1      39.622  33.489  35.641  1.00  0.00     0.009 A 
ATOM     81  C   UNL A   1      38.312  31.634  36.474  1.00  0.00     0.009 A 
ATOM     82  C   UNL A   1      39.152  34.286  36.686  1.00  0.00     0.001 A 
ATOM     83  C   UNL A   1      37.816  32.442  37.496  1.00  0.00     0.001 A 
ATOM     84  C   UNL A   1      38.245  33.764  37.608  1.00  0.00     0.000 A 
ENDBRANCH  66  79
ENDBRANCH  40  41
ENDBRANCH  33  35
ENDBRANCH  32  33
ENDBRANCH  31  32
ENDBRANCH   1  31
TORSDOF 14
ENDMDL
MODEL 2
REMARK VINA RESULT:     -12.3      3.614      9.762
REMARK SMILES CC1=NN(c2ccccc2)C(=O)/C1=C\c1ccc(-c2cc(C(=O)OCCOC(=O)c3ccc(-c4c5nc(c(-c6ccccc6)c6ccc([nH]6)c(-c6ccccc6)c6nc(c(-c7ccccc7)c7ccc4[nH]7)C=C6)C=C5)cc3)ccc2Cl)o1
REMARK SMILES IDX 25 1 24 2 22 3 23 4 21 5 19 6 20 7 80 8 79 9 81 10 78 11
REMARK SMILES IDX 18 12 15 13 16 14 82 15 17 16 14 17 1 18 2 19 3 20 13 21
REMARK SMILES IDX 4 22 11 23 12 24 5 25 6 26 10 27 7 28 9 29 8 30 26 31 27 32
REMARK SMILES IDX 28 33 29 34 30 35 31 36 77 37 32 38 76 39 33 40 34 41 35 42
REMARK SMILES IDX 70 43 36 44 75 45 69 46 71 47 37 48 74 49 68 50 67 51 38 53
REMARK SMILES IDX 60 54 45 55 59 56 46 57 49 58 58 59 72 60 47 61 48 62 57 64
REMARK SMILES IDX 73 65 50 66 39 67 40 68 44 69 41 70 43 71 42 72 61 73 62 74
REMARK SMILES IDX 66 75 63 76 65 77 64 78 51 79 52 80 56 81 53 82 55 83 54 84
REMARK H PARENT 71 52 49 63
REMARK Flexibility Score: inf
ROOT
ATOM      1  C   UNL A   1      32.655  36.057  30.476  1.00  0.00     0.275 C 
ENDROOT
BRANCH   1   2
ATOM      2  O   UNL A   1      32.755  34.909  29.609  1.00  0.00    -0.458 OA
BRANCH   2   3
ATOM      3  C   UNL A   1      33.730  34.926  28.666  1.00  0.00     0.338 C 
ATOM      4  O   UNL A   1      34.221  35.912  28.144  1.00  0.00    -0.246 OA
BRANCH   3   5
ATOM      5  C   UNL A   1      34.224  33.543  28.441  1.00  0.00     0.060 A 
ATOM      6  C   UNL A   1      33.846  31.313  27.503  1.00  0.00     0.037 A 
ATOM      7  C   UNL A   1      33.377  32.589  27.853  1.00  0.00     0.029 A 
ATOM      8  C   UNL A   1      35.156  30.967  27.866  1.00  0.00     0.052 A 
ATOM      9  C   UNL A   1      35.982  31.891  28.520  1.00  0.00     0.022 A 
ATOM     10  Cl  UNL A   1      35.821  29.403  27.539  1.00  0.00    -0.084 Cl
ATOM     11  C   UNL A   1      35.526  33.183  28.789  1.00  0.00     0.017 A 
BRANCH   6  12
ATOM     12  C   UNL A   1      32.949  30.387  26.825  1.00  0.00     0.136 A 
ATOM     13  C   UNL A   1      31.865  28.455  26.622  1.00  0.00     0.128 A 
ATOM     14  C   UNL A   1      31.482  29.285  25.572  1.00  0.00     0.051 A 
ATOM     15  O   UNL A   1      32.766  29.155  27.399  1.00  0.00    -0.457 OA
ATOM     16  C   UNL A   1      32.183  30.498  25.690  1.00  0.00     0.051 A 
BRANCH  13  17
ATOM     17  C   UNL A   1      31.353  27.151  26.895  1.00  0.00     0.063 C 
ATOM     18  C   UNL A   1      30.030  24.343  26.487  1.00  0.00     0.069 C 
ATOM     19  C   UNL A   1      31.437  24.728  26.205  1.00  0.00     0.071 C 
ATOM     20  N   UNL A   1      32.272  23.948  25.574  1.00  0.00    -0.169 NA
ATOM     21  C   UNL A   1      32.007  26.059  26.475  1.00  0.00     0.068 C 
ATOM     22  N   UNL A   1      33.461  24.658  25.477  1.00  0.00    -0.196 N 
ATOM     23  C   UNL A   1      33.414  25.954  26.015  1.00  0.00     0.280 C 
ATOM     24  O   UNL A   1      34.256  26.823  26.101  1.00  0.00    -0.267 OA
BRANCH  22  25
ATOM     25  C   UNL A   1      34.578  24.045  24.871  1.00  0.00     0.069 A 
ATOM     26  C   UNL A   1      35.744  23.790  25.607  1.00  0.00     0.028 A 
ATOM     27  C   UNL A   1      34.541  23.660  23.527  1.00  0.00     0.028 A 
ATOM     28  C   UNL A   1      36.830  23.138  25.017  1.00  0.00     0.002 A 
ATOM     29  C   UNL A   1      35.628  23.019  22.935  1.00  0.00     0.002 A 
ATOM     30  C   UNL A   1      36.773  22.755  23.680  1.00  0.00     0.000 A 
ENDBRANCH  22  25
ENDBRANCH  13  17
ENDBRANCH   6  12
ENDBRANCH   3   5
ENDBRANCH   2   3
ENDBRANCH   1   2
BRANCH   1  31
ATOM     31  C   UNL A   1      33.033  35.690  31.913  1.00  0.00     0.275 C 
BRANCH  31  32
ATOM     32  O   UNL A   1      34.331  35.069  31.957  1.00  0.00    -0.458 OA
BRANCH  32  33
ATOM     33  C   UNL A   1      34.368  33.878  32.594  1.00  0.00     0.338 C 
ATOM     34  O   UNL A   1      33.491  33.363  33.266  1.00  0.00    -0.246 OA
BRANCH  33  35
ATOM     35  C   UNL A   1      35.630  33.194  32.290  1.00  0.00     0.060 A 
ATOM     36  C   UNL A   1      35.721  31.840  32.591  1.00  0.00     0.016 A 
ATOM     37  C   UNL A   1      36.754  33.900  31.882  1.00  0.00     0.016 A 
ATOM     38  C   UNL A   1      36.956  31.207  32.636  1.00  0.00     0.010 A 
ATOM     39  C   UNL A   1      37.977  33.228  31.792  1.00  0.00     0.010 A 
ATOM     40  C   UNL A   1      38.101  31.889  32.215  1.00  0.00    -0.014 A 
BRANCH  40  41
ATOM     41  C   UNL A   1      39.429  31.216  32.226  1.00  0.00     0.031 A 
ATOM     42  C   UNL A   1      39.736  30.170  31.184  1.00  0.00     0.074 A 
ATOM     43  C   UNL A   1      40.322  31.515  33.194  1.00  0.00     0.049 A 
ATOM     44  N   UNL A   1      40.736  29.331  31.117  1.00  0.00    -0.248 NA
ATOM     45  C   UNL A   1      38.775  30.033  30.073  1.00  0.00     0.031 C 
ATOM     46  C   UNL A   1      40.144  32.543  34.226  1.00  0.00     0.029 A 
ATOM     47  N   UNL A   1      41.552  30.977  33.486  1.00  0.00    -0.354 N 
ATOM     48  C   UNL A   1      40.481  28.514  30.019  1.00  0.00     0.074 A 
ATOM     49  C   UNL A   1      39.234  28.961  29.442  1.00  0.00     0.031 C 
ATOM     50  C   UNL A   1      41.223  32.570  35.021  1.00  0.00     0.029 A 
ATOM     51  C   UNL A   1      42.131  31.507  34.618  1.00  0.00     0.049 A 
ATOM     52  H   UNL A   1      41.978  30.280  32.937  1.00  0.00     0.167 HD
ATOM     53  C   UNL A   1      41.231  27.490  29.542  1.00  0.00     0.031 A 
ATOM     54  C   UNL A   1      43.250  31.152  35.280  1.00  0.00     0.031 A 
ATOM     55  C   UNL A   1      42.504  27.121  30.112  1.00  0.00     0.049 A 
ATOM     56  C   UNL A   1      44.054  30.008  34.726  1.00  0.00     0.074 A 
ATOM     57  C   UNL A   1      43.401  26.163  29.672  1.00  0.00     0.029 A 
ATOM     58  N   UNL A   1      43.068  27.705  31.242  1.00  0.00    -0.354 N 
ATOM     59  N   UNL A   1      43.823  29.275  33.662  1.00  0.00    -0.248 NA
ATOM     60  C   UNL A   1      45.268  29.637  35.463  1.00  0.00     0.031 C 
ATOM     61  C   UNL A   1      44.465  26.112  30.578  1.00  0.00     0.029 A 
ATOM     62  C   UNL A   1      44.269  27.086  31.545  1.00  0.00     0.049 A 
ATOM     63  H   UNL A   1      42.672  28.449  31.750  1.00  0.00     0.167 HD
ATOM     64  C   UNL A   1      44.888  28.390  33.574  1.00  0.00     0.074 A 
ATOM     65  C   UNL A   1      45.767  28.685  34.688  1.00  0.00     0.031 C 
ATOM     66  C   UNL A   1      45.120  27.415  32.661  1.00  0.00     0.031 A 
BRANCH  53  67
ATOM     67  C   UNL A   1      40.703  26.676  28.379  1.00  0.00    -0.014 A 
ATOM     68  C   UNL A   1      41.183  26.827  27.069  1.00  0.00     0.009 A 
ATOM     69  C   UNL A   1      39.747  25.674  28.612  1.00  0.00     0.009 A 
ATOM     70  C   UNL A   1      40.718  26.024  26.024  1.00  0.00     0.001 A 
ATOM     71  C   UNL A   1      39.300  24.849  27.574  1.00  0.00     0.001 A 
ATOM     72  C   UNL A   1      39.782  25.028  26.279  1.00  0.00     0.000 A 
ENDBRANCH  53  67
BRANCH  54  73
ATOM     73  C   UNL A   1      43.660  31.869  36.526  1.00  0.00    -0.014 A 
ATOM     74  C   UNL A   1      44.516  32.981  36.470  1.00  0.00     0.009 A 
ATOM     75  C   UNL A   1      43.197  31.458  37.786  1.00  0.00     0.009 A 
ATOM     76  C   UNL A   1      44.892  33.664  37.630  1.00  0.00     0.001 A 
ATOM     77  C   UNL A   1      43.550  32.157  38.945  1.00  0.00     0.001 A 
ATOM     78  C   UNL A   1      44.401  33.257  38.866  1.00  0.00     0.000 A 
ENDBRANCH  54  73
BRANCH  66  79
ATOM     79  C   UNL A   1      46.395  26.632  32.822  1.00  0.00    -0.014 A 
ATOM     80  C   UNL A   1      47.585  27.041  32.201  1.00  0.00     0.009 A 
ATOM     81  C   UNL A   1      46.406  25.488  33.634  1.00  0.00     0.009 A 
ATOM     82  C   UNL A   1      48.754  26.296  32.362  1.00  0.00     0.001 A 
ATOM     83  C   UNL A   1      47.584  24.767  33.822  1.00  0.00     0.001 A 
ATOM     84  C   UNL A   1      48.755  25.165  33.178  1.00  0.00     0.000 A 
ENDBRANCH  66  79
ENDBRANCH  40  41
ENDBRANCH  33  35
ENDBRANCH  32  33
ENDBRANCH  31  32
ENDBRANCH   1  31
TORSDOF 14
ENDMDL
MODEL 3
REMARK VINA RESULT:     -12.2      3.752      6.646
REMARK SMILES CC1=NN(c2ccccc2)C(=O)/C1=C\c1ccc(-c2cc(C(=O)OCCOC(=O)c3ccc(-c4c5nc(c(-c6ccccc6)c6ccc([nH]6)c(-c6ccccc6)c6nc(c(-c7ccccc7)c7ccc4[nH]7)C=C6)C=C5)cc3)ccc2Cl)o1
REMARK SMILES IDX 25 1 24 2 22 3 23 4 21 5 19 6 20 7 80 8 79 9 81 10 78 11
REMARK SMILES IDX 18 12 15 13 16 14 82 15 17 16 14 17 1 18 2 19 3 20 13 21
REMARK SMILES IDX 4 22 11 23 12 24 5 25 6 26 10 27 7 28 9 29 8 30 26 31 27 32
REMARK SMILES IDX 28 33 29 34 30 35 31 36 77 37 32 38 76 39 33 40 34 41 35 42
REMARK SMILES IDX 70 43 36 44 75 45 69 46 71 47 37 48 74 49 68 50 67 51 38 53
REMARK SMILES IDX 60 54 45 55 59 56 46 57 49 58 58 59 72 60 47 61 48 62 57 64
REMARK SMILES IDX 73 65 50 66 39 67 40 68 44 69 41 70 43 71 42 72 61 73 62 74
REMARK SMILES IDX 66 75 63 76 65 77 64 78 51 79 52 80 56 81 53 82 55 83 54 84
REMARK H PARENT 71 52 49 63
REMARK Flexibility Score: inf
ROOT
ATOM      1  C   UNL A   1      42.956  18.741  25.596  1.00  0.00     0.275 C 
ENDROOT
BRANCH   1   2
ATOM      2  O   UNL A   1      41.779  19.573  25.639  1.00  0.00    -0.458 OA
BRANCH   2   3
ATOM      3  C   UNL A   1      41.282  19.882  26.862  1.00  0.00     0.338 C 
ATOM      4  O   UNL A   1      41.496  19.290  27.906  1.00  0.00    -0.246 OA
BRANCH   3   5
ATOM      5  C   UNL A   1      40.521  21.156  26.779  1.00  0.00     0.060 A 
ATOM      6  C   UNL A   1      38.547  22.364  25.980  1.00  0.00     0.037 A 
ATOM      7  C   UNL A   1      39.366  21.225  25.982  1.00  0.00     0.029 A 
ATOM      8  C   UNL A   1      38.974  23.487  26.705  1.00  0.00     0.052 A 
ATOM      9  C   UNL A   1      40.164  23.448  27.443  1.00  0.00     0.022 A 
ATOM     10  Cl  UNL A   1      38.076  24.966  26.727  1.00  0.00    -0.084 Cl
ATOM     11  C   UNL A   1      40.926  22.280  27.498  1.00  0.00     0.017 A 
BRANCH   6  12
ATOM     12  C   UNL A   1      37.320  22.357  25.195  1.00  0.00     0.136 A 
ATOM     13  C   UNL A   1      35.108  22.356  24.959  1.00  0.00     0.128 A 
ATOM     14  C   UNL A   1      35.683  22.429  23.694  1.00  0.00     0.051 A 
ATOM     15  O   UNL A   1      36.134  22.325  25.883  1.00  0.00    -0.457 OA
ATOM     16  C   UNL A   1      37.081  22.409  23.843  1.00  0.00     0.051 A 
BRANCH  13  17
ATOM     17  C   UNL A   1      33.712  22.396  25.254  1.00  0.00     0.063 C 
ATOM     18  C   UNL A   1      31.026  22.573  26.852  1.00  0.00     0.069 C 
ATOM     19  C   UNL A   1      31.898  23.697  26.425  1.00  0.00     0.071 C 
ATOM     20  N   UNL A   1      31.719  24.925  26.829  1.00  0.00    -0.169 NA
ATOM     21  C   UNL A   1      33.124  23.542  25.624  1.00  0.00     0.068 C 
ATOM     22  N   UNL A   1      32.737  25.671  26.249  1.00  0.00    -0.196 N 
ATOM     23  C   UNL A   1      33.641  24.926  25.475  1.00  0.00     0.280 C 
ATOM     24  O   UNL A   1      34.620  25.254  24.839  1.00  0.00    -0.267 OA
BRANCH  22  25
ATOM     25  C   UNL A   1      32.780  27.063  26.474  1.00  0.00     0.069 A 
ATOM     26  C   UNL A   1      33.841  27.838  25.983  1.00  0.00     0.028 A 
ATOM     27  C   UNL A   1      31.754  27.706  27.174  1.00  0.00     0.028 A 
ATOM     28  C   UNL A   1      33.855  29.223  26.164  1.00  0.00     0.002 A 
ATOM     29  C   UNL A   1      31.773  29.087  27.365  1.00  0.00     0.002 A 
ATOM     30  C   UNL A   1      32.822  29.848  26.859  1.00  0.00     0.000 A 
ENDBRANCH  22  25
ENDBRANCH  13  17
ENDBRANCH   6  12
ENDBRANCH   3   5
ENDBRANCH   2   3
ENDBRANCH   1   2
BRANCH   1  31
ATOM     31  C   UNL A   1      44.115  19.468  24.911  1.00  0.00     0.275 C 
BRANCH  31  32
ATOM     32  O   UNL A   1      44.396  20.717  25.571  1.00  0.00    -0.458 OA
BRANCH  32  33
ATOM     33  C   UNL A   1      44.307  21.808  24.781  1.00  0.00     0.338 C 
ATOM     34  O   UNL A   1      44.344  21.855  23.563  1.00  0.00    -0.246 OA
BRANCH  33  35
ATOM     35  C   UNL A   1      44.054  22.995  25.605  1.00  0.00     0.060 A 
ATOM     36  C   UNL A   1      43.661  24.162  24.958  1.00  0.00     0.016 A 
ATOM     37  C   UNL A   1      44.362  23.014  26.959  1.00  0.00     0.016 A 
ATOM     38  C   UNL A   1      43.715  25.385  25.611  1.00  0.00     0.010 A 
ATOM     39  C   UNL A   1      44.282  24.225  27.653  1.00  0.00     0.010 A 
ATOM     40  C   UNL A   1      44.007  25.431  26.977  1.00  0.00    -0.014 A 
BRANCH  40  41
ATOM     41  C   UNL A   1      44.038  26.731  27.701  1.00  0.00     0.031 A 
ATOM     42  C   UNL A   1      42.741  27.357  28.151  1.00  0.00     0.074 A 
ATOM     43  C   UNL A   1      45.218  27.356  27.903  1.00  0.00     0.049 A 
ATOM     44  N   UNL A   1      42.515  28.557  28.620  1.00  0.00    -0.248 NA
ATOM     45  C   UNL A   1      41.526  26.530  28.039  1.00  0.00     0.031 C 
ATOM     46  C   UNL A   1      46.535  26.818  27.548  1.00  0.00     0.029 A 
ATOM     47  N   UNL A   1      45.508  28.585  28.442  1.00  0.00    -0.354 N 
ATOM     48  C   UNL A   1      41.135  28.657  28.773  1.00  0.00     0.074 A 
ATOM     49  C   UNL A   1      40.572  27.395  28.353  1.00  0.00     0.031 C 
ATOM     50  C   UNL A   1      47.486  27.700  27.888  1.00  0.00     0.029 A 
ATOM     51  C   UNL A   1      46.849  28.902  28.403  1.00  0.00     0.049 A 
ATOM     52  H   UNL A   1      44.823  29.183  28.820  1.00  0.00     0.167 HD
ATOM     53  C   UNL A   1      40.416  29.713  29.229  1.00  0.00     0.031 A 
ATOM     54  C   UNL A   1      47.489  30.046  28.712  1.00  0.00     0.031 A 
ATOM     55  C   UNL A   1      41.028  30.932  29.699  1.00  0.00     0.049 A 
ATOM     56  C   UNL A   1      46.659  31.198  29.209  1.00  0.00     0.074 A 
ATOM     57  C   UNL A   1      40.420  32.039  30.265  1.00  0.00     0.029 A 
ATOM     58  N   UNL A   1      42.393  31.199  29.670  1.00  0.00    -0.354 N 
ATOM     59  N   UNL A   1      45.361  31.262  29.391  1.00  0.00    -0.248 NA
ATOM     60  C   UNL A   1      47.377  32.435  29.539  1.00  0.00     0.031 C 
ATOM     61  C   UNL A   1      41.404  33.004  30.502  1.00  0.00     0.029 A 
ATOM     62  C   UNL A   1      42.636  32.474  30.152  1.00  0.00     0.049 A 
ATOM     63  H   UNL A   1      43.084  30.573  29.354  1.00  0.00     0.167 HD
ATOM     64  C   UNL A   1      45.113  32.528  29.903  1.00  0.00     0.074 A 
ATOM     65  C   UNL A   1      46.397  33.193  30.008  1.00  0.00     0.031 C 
ATOM     66  C   UNL A   1      43.932  33.097  30.249  1.00  0.00     0.031 A 
BRANCH  53  67
ATOM     67  C   UNL A   1      38.905  29.625  29.220  1.00  0.00    -0.014 A 
ATOM     68  C   UNL A   1      38.156  29.336  30.372  1.00  0.00     0.009 A 
ATOM     69  C   UNL A   1      38.200  29.914  28.040  1.00  0.00     0.009 A 
ATOM     70  C   UNL A   1      36.758  29.317  30.349  1.00  0.00     0.001 A 
ATOM     71  C   UNL A   1      36.801  29.922  28.020  1.00  0.00     0.001 A 
ATOM     72  C   UNL A   1      36.080  29.620  29.173  1.00  0.00     0.000 A 
ENDBRANCH  53  67
BRANCH  54  73
ATOM     73  C   UNL A   1      48.972  30.159  28.552  1.00  0.00    -0.014 A 
ATOM     74  C   UNL A   1      49.535  30.609  27.347  1.00  0.00     0.009 A 
ATOM     75  C   UNL A   1      49.843  29.828  29.602  1.00  0.00     0.009 A 
ATOM     76  C   UNL A   1      50.919  30.730  27.195  1.00  0.00     0.001 A 
ATOM     77  C   UNL A   1      51.227  29.975  29.461  1.00  0.00     0.001 A 
ATOM     78  C   UNL A   1      51.764  30.421  28.256  1.00  0.00     0.000 A 
ENDBRANCH  54  73
BRANCH  66  79
ATOM     79  C   UNL A   1      43.996  34.492  30.807  1.00  0.00    -0.014 A 
ATOM     80  C   UNL A   1      43.841  35.617  29.982  1.00  0.00     0.009 A 
ATOM     81  C   UNL A   1      44.183  34.678  32.185  1.00  0.00     0.009 A 
ATOM     82  C   UNL A   1      43.907  36.902  30.522  1.00  0.00     0.001 A 
ATOM     83  C   UNL A   1      44.212  35.962  32.727  1.00  0.00     0.001 A 
ATOM     84  C   UNL A   1      44.085  37.074  31.895  1.00  0.00     0.000 A 
ENDBRANCH  66  79
ENDBRANCH  40  41
ENDBRANCH  33  35
ENDBRANCH  32  33
ENDBRANCH  31  32
ENDBRANCH   1  31
TORSDOF 14
ENDMDL
