MODEL 1
REMARK VINA RESULT:     -12.1      0.000      0.000
REMARK SMILES CCOC(=O)c1c(NC(=O)[C@@H]2[C@@H](C(=O)OCCOC(=O)c3ccc(-c4c5nc(c(-c6ccccc6)c6ccc([nH]6)c(-c6ccccc6)c6nc(c(-c7ccccc7)c7ccc4[nH]7)C=C6)C=C5)cc3)[C@@H]3C=C[C@H]2CC3)sc2c1CCC2
REMARK SMILES IDX 15 1 13 2 14 3 12 4 11 5 72 6 69 7 71 8 73 9 70 10 74 11
REMARK SMILES IDX 9 12 8 13 10 15 7 16 6 17 77 18 75 19 76 20 78 21 80 22
REMARK SMILES IDX 79 23 4 24 5 25 3 26 2 27 1 28 16 29 17 30 18 31 19 32 20 33
REMARK SMILES IDX 21 34 22 35 68 36 23 37 67 38 24 39 25 40 26 41 61 42 27 43
REMARK SMILES IDX 66 44 60 45 62 46 28 47 65 48 59 49 58 50 29 52 51 53 36 54
REMARK SMILES IDX 50 55 37 56 40 57 49 58 63 59 38 60 39 61 48 63 64 64 41 65
REMARK SMILES IDX 30 66 31 67 35 68 32 69 34 70 33 71 52 72 53 73 57 74 54 75
REMARK SMILES IDX 56 76 55 77 42 78 43 79 47 80 44 81 46 82 45 83
REMARK H PARENT 8 14 62 51 40 62
REMARK Flexibility Score: inf
ROOT
ATOM      1  O   UNL A   1      32.240  28.978  27.114  1.00  0.00    -0.462 OA
ENDROOT
BRANCH   1   2
ATOM      2  C   UNL A   1      32.874  27.933  26.529  1.00  0.00     0.310 C 
ATOM      3  O   UNL A   1      34.072  27.962  26.256  1.00  0.00    -0.252 OA
BRANCH   2   4
ATOM      4  C   UNL A   1      31.943  26.786  26.107  1.00  0.00     0.119 C 
ATOM      5  C   UNL A   1      32.548  25.419  25.596  1.00  0.00     0.100 C 
ATOM      6  C   UNL A   1      31.895  25.099  24.183  1.00  0.00     0.025 C 
ATOM      7  C   UNL A   1      31.025  27.395  24.981  1.00  0.00     0.026 C 
ATOM      8  C   UNL A   1      30.374  25.217  24.263  1.00  0.00    -0.027 C 
ATOM      9  C   UNL A   1      32.302  26.175  23.160  1.00  0.00     0.009 C 
ATOM     10  C   UNL A   1      29.927  26.405  24.694  1.00  0.00    -0.027 C 
ATOM     11  C   UNL A   1      31.809  27.554  23.649  1.00  0.00     0.009 C 
BRANCH   5  12
ATOM     12  C   UNL A   1      32.235  24.198  26.505  1.00  0.00     0.229 C 
ATOM     13  N   UNL A   1      32.954  23.055  26.646  1.00  0.00    -0.317 N 
ATOM     14  H   UNL A   1      32.596  22.490  27.369  1.00  0.00     0.170 HD
ATOM     15  O   UNL A   1      31.242  24.215  27.252  1.00  0.00    -0.274 OA
BRANCH  13  16
ATOM     16  C   UNL A   1      34.049  22.479  26.047  1.00  0.00     0.110 A 
ATOM     17  C   UNL A   1      34.083  21.222  25.436  1.00  0.00     0.098 A 
ATOM     18  C   UNL A   1      35.427  20.868  25.154  1.00  0.00    -0.017 A 
ATOM     19  S   UNL A   1      35.517  23.312  25.836  1.00  0.00    -0.122 S 
ATOM     20  C   UNL A   1      36.291  21.900  25.387  1.00  0.00     0.011 A 
ATOM     21  C   UNL A   1      36.149  19.683  24.621  1.00  0.00     0.038 C 
ATOM     22  C   UNL A   1      37.709  21.560  25.113  1.00  0.00     0.047 C 
ATOM     23  C   UNL A   1      37.625  20.012  24.992  1.00  0.00     0.010 C 
BRANCH  17  24
ATOM     24  C   UNL A   1      32.902  20.415  25.186  1.00  0.00     0.341 C 
ATOM     25  O   UNL A   1      31.769  20.863  25.305  1.00  0.00    -0.246 OA
BRANCH  24  26
ATOM     26  O   UNL A   1      33.205  19.140  24.816  1.00  0.00    -0.462 OA
BRANCH  26  27
ATOM     27  C   UNL A   1      32.551  18.644  23.639  1.00  0.00     0.230 C 
ATOM     28  C   UNL A   1      33.133  17.337  23.125  1.00  0.00     0.049 C 
ENDBRANCH  26  27
ENDBRANCH  24  26
ENDBRANCH  17  24
ENDBRANCH  13  16
ENDBRANCH   5  12
ENDBRANCH   2   4
ENDBRANCH   1   2
BRANCH   1  29
ATOM     29  C   UNL A   1      32.331  30.247  26.424  1.00  0.00     0.274 C 
BRANCH  29  30
ATOM     30  C   UNL A   1      33.101  31.287  27.245  1.00  0.00     0.275 C 
BRANCH  30  31
ATOM     31  O   UNL A   1      34.146  30.748  28.061  1.00  0.00    -0.458 OA
BRANCH  31  32
ATOM     32  C   UNL A   1      35.283  31.477  28.016  1.00  0.00     0.338 C 
ATOM     33  O   UNL A   1      35.321  32.628  27.645  1.00  0.00    -0.246 OA
BRANCH  32  34
ATOM     34  C   UNL A   1      36.498  30.800  28.508  1.00  0.00     0.060 A 
ATOM     35  C   UNL A   1      36.482  29.399  28.492  1.00  0.00     0.016 A 
ATOM     36  C   UNL A   1      37.620  31.497  28.962  1.00  0.00     0.016 A 
ATOM     37  C   UNL A   1      37.576  28.694  28.940  1.00  0.00     0.010 A 
ATOM     38  C   UNL A   1      38.735  30.791  29.389  1.00  0.00     0.010 A 
ATOM     39  C   UNL A   1      38.707  29.395  29.368  1.00  0.00    -0.014 A 
BRANCH  39  40
ATOM     40  C   UNL A   1      39.937  28.620  29.471  1.00  0.00     0.031 A 
ATOM     41  C   UNL A   1      40.349  28.423  30.897  1.00  0.00     0.074 A 
ATOM     42  C   UNL A   1      40.548  28.037  28.424  1.00  0.00     0.049 A 
ATOM     43  N   UNL A   1      41.410  28.866  31.486  1.00  0.00    -0.248 NA
ATOM     44  C   UNL A   1      39.354  27.841  31.824  1.00  0.00     0.031 C 
ATOM     45  C   UNL A   1      40.074  27.921  27.046  1.00  0.00     0.029 A 
ATOM     46  N   UNL A   1      41.698  27.315  28.406  1.00  0.00    -0.354 N 
ATOM     47  C   UNL A   1      41.305  28.464  32.817  1.00  0.00     0.074 A 
ATOM     48  C   UNL A   1      39.955  28.006  33.003  1.00  0.00     0.031 C 
ATOM     49  C   UNL A   1      40.783  26.957  26.410  1.00  0.00     0.029 A 
ATOM     50  C   UNL A   1      41.850  26.504  27.289  1.00  0.00     0.049 A 
ATOM     51  H   UNL A   1      42.369  27.362  29.126  1.00  0.00     0.167 HD
ATOM     52  C   UNL A   1      42.411  28.278  33.590  1.00  0.00     0.031 A 
ATOM     53  C   UNL A   1      42.739  25.489  27.146  1.00  0.00     0.031 A 
ATOM     54  C   UNL A   1      43.553  28.961  33.043  1.00  0.00     0.049 A 
ATOM     55  C   UNL A   1      43.791  25.675  28.175  1.00  0.00     0.074 A 
ATOM     56  C   UNL A   1      43.894  30.278  32.815  1.00  0.00     0.029 A 
ATOM     57  N   UNL A   1      44.395  28.207  32.264  1.00  0.00    -0.354 N 
ATOM     58  N   UNL A   1      44.618  26.681  28.178  1.00  0.00    -0.248 NA
ATOM     59  C   UNL A   1      43.608  25.010  29.454  1.00  0.00     0.031 C 
ATOM     60  C   UNL A   1      44.593  30.264  31.571  1.00  0.00     0.029 A 
ATOM     61  C   UNL A   1      44.713  28.937  31.151  1.00  0.00     0.049 A 
ATOM     62  H   UNL A   1      44.716  27.300  32.471  1.00  0.00     0.167 HD
ATOM     63  C   UNL A   1      44.713  27.055  29.511  1.00  0.00     0.074 A 
ATOM     64  C   UNL A   1      44.134  25.938  30.259  1.00  0.00     0.031 C 
ATOM     65  C   UNL A   1      44.988  28.347  29.860  1.00  0.00     0.031 A 
BRANCH  52  66
ATOM     66  C   UNL A   1      42.557  27.087  34.511  1.00  0.00    -0.014 A 
ATOM     67  C   UNL A   1      43.276  25.967  34.054  1.00  0.00     0.009 A 
ATOM     68  C   UNL A   1      41.763  26.897  35.660  1.00  0.00     0.009 A 
ATOM     69  C   UNL A   1      43.131  24.712  34.658  1.00  0.00     0.001 A 
ATOM     70  C   UNL A   1      41.643  25.655  36.286  1.00  0.00     0.001 A 
ATOM     71  C   UNL A   1      42.303  24.554  35.766  1.00  0.00     0.000 A 
ENDBRANCH  52  66
BRANCH  53  72
ATOM     72  C   UNL A   1      42.526  24.181  26.482  1.00  0.00    -0.014 A 
ATOM     73  C   UNL A   1      43.562  23.555  25.767  1.00  0.00     0.009 A 
ATOM     74  C   UNL A   1      41.393  23.408  26.795  1.00  0.00     0.009 A 
ATOM     75  C   UNL A   1      43.477  22.200  25.408  1.00  0.00     0.001 A 
ATOM     76  C   UNL A   1      41.308  22.057  26.438  1.00  0.00     0.001 A 
ATOM     77  C   UNL A   1      42.355  21.449  25.755  1.00  0.00     0.000 A 
ENDBRANCH  53  72
BRANCH  65  78
ATOM     78  C   UNL A   1      45.421  29.294  28.768  1.00  0.00    -0.014 A 
ATOM     79  C   UNL A   1      46.758  29.471  28.366  1.00  0.00     0.009 A 
ATOM     80  C   UNL A   1      44.414  29.924  28.021  1.00  0.00     0.009 A 
ATOM     81  C   UNL A   1      47.072  30.279  27.267  1.00  0.00     0.001 A 
ATOM     82  C   UNL A   1      44.727  30.712  26.914  1.00  0.00     0.001 A 
ATOM     83  C   UNL A   1      46.055  30.896  26.540  1.00  0.00     0.000 A 
ENDBRANCH  65  78
ENDBRANCH  39  40
ENDBRANCH  32  34
ENDBRANCH  31  32
ENDBRANCH  30  31
ENDBRANCH  29  30
ENDBRANCH   1  29
TORSDOF 16
ENDMDL
MODEL 2
REMARK VINA RESULT:     -11.4      1.491      2.025
REMARK SMILES CCOC(=O)c1c(NC(=O)[C@@H]2[C@@H](C(=O)OCCOC(=O)c3ccc(-c4c5nc(c(-c6ccccc6)c6ccc([nH]6)c(-c6ccccc6)c6nc(c(-c7ccccc7)c7ccc4[nH]7)C=C6)C=C5)cc3)[C@@H]3C=C[C@H]2CC3)sc2c1CCC2
REMARK SMILES IDX 15 1 13 2 14 3 12 4 11 5 72 6 69 7 71 8 73 9 70 10 74 11
REMARK SMILES IDX 9 12 8 13 10 15 7 16 6 17 77 18 75 19 76 20 78 21 80 22
REMARK SMILES IDX 79 23 4 24 5 25 3 26 2 27 1 28 16 29 17 30 18 31 19 32 20 33
REMARK SMILES IDX 21 34 22 35 68 36 23 37 67 38 24 39 25 40 26 41 61 42 27 43
REMARK SMILES IDX 66 44 60 45 62 46 28 47 65 48 59 49 58 50 29 52 51 53 36 54
REMARK SMILES IDX 50 55 37 56 40 57 49 58 63 59 38 60 39 61 48 63 64 64 41 65
REMARK SMILES IDX 30 66 31 67 35 68 32 69 34 70 33 71 52 72 53 73 57 74 54 75
REMARK SMILES IDX 56 76 55 77 42 78 43 79 47 80 44 81 46 82 45 83
REMARK H PARENT 8 14 62 51 40 62
REMARK Flexibility Score: inf
ROOT
ATOM      1  O   UNL A   1      33.398  29.806  26.049  1.00  0.00    -0.462 OA
ENDROOT
BRANCH   1   2
ATOM      2  C   UNL A   1      32.099  29.850  25.661  1.00  0.00     0.310 C 
ATOM      3  O   UNL A   1      31.410  30.858  25.794  1.00  0.00    -0.252 OA
BRANCH   2   4
ATOM      4  C   UNL A   1      31.537  28.502  25.186  1.00  0.00     0.119 C 
ATOM      5  C   UNL A   1      32.435  27.203  25.242  1.00  0.00     0.100 C 
ATOM      6  C   UNL A   1      32.433  26.549  23.794  1.00  0.00     0.025 C 
ATOM      7  C   UNL A   1      31.082  28.747  23.698  1.00  0.00     0.026 C 
ATOM      8  C   UNL A   1      31.002  26.402  23.281  1.00  0.00    -0.027 C 
ATOM      9  C   UNL A   1      33.097  27.505  22.785  1.00  0.00     0.009 C 
ATOM     10  C   UNL A   1      30.298  27.543  23.249  1.00  0.00    -0.027 C 
ATOM     11  C   UNL A   1      32.309  28.832  22.747  1.00  0.00     0.009 C 
BRANCH   5  12
ATOM     12  C   UNL A   1      31.918  26.105  26.213  1.00  0.00     0.229 C 
ATOM     13  N   UNL A   1      32.459  24.886  26.462  1.00  0.00    -0.317 N 
ATOM     14  H   UNL A   1      31.998  24.429  27.203  1.00  0.00     0.170 HD
ATOM     15  O   UNL A   1      30.911  26.315  26.912  1.00  0.00    -0.274 OA
BRANCH  13  16
ATOM     16  C   UNL A   1      33.482  24.121  25.954  1.00  0.00     0.110 A 
ATOM     17  C   UNL A   1      33.362  22.823  25.447  1.00  0.00     0.098 A 
ATOM     18  C   UNL A   1      34.653  22.271  25.245  1.00  0.00    -0.017 A 
ATOM     19  S   UNL A   1      35.055  24.731  25.731  1.00  0.00    -0.122 S 
ATOM     20  C   UNL A   1      35.642  23.195  25.427  1.00  0.00     0.011 A 
ATOM     21  C   UNL A   1      35.221  20.960  24.837  1.00  0.00     0.038 C 
ATOM     22  C   UNL A   1      37.007  22.648  25.235  1.00  0.00     0.047 C 
ATOM     23  C   UNL A   1      36.717  21.120  25.236  1.00  0.00     0.010 C 
BRANCH  17  24
ATOM     24  C   UNL A   1      32.089  22.162  25.219  1.00  0.00     0.341 C 
ATOM     25  O   UNL A   1      31.092  22.421  25.880  1.00  0.00    -0.246 OA
BRANCH  24  26
ATOM     26  O   UNL A   1      32.145  21.250  24.210  1.00  0.00    -0.462 OA
BRANCH  26  27
ATOM     27  C   UNL A   1      32.060  21.769  22.874  1.00  0.00     0.230 C 
ATOM     28  C   UNL A   1      31.903  20.691  21.812  1.00  0.00     0.049 C 
ENDBRANCH  26  27
ENDBRANCH  24  26
ENDBRANCH  17  24
ENDBRANCH  13  16
ENDBRANCH   5  12
ENDBRANCH   2   4
ENDBRANCH   1   2
BRANCH   1  29
ATOM     29  C   UNL A   1      33.649  30.019  27.459  1.00  0.00     0.274 C 
BRANCH  29  30
ATOM     30  C   UNL A   1      34.044  31.470  27.752  1.00  0.00     0.275 C 
BRANCH  30  31
ATOM     31  O   UNL A   1      35.437  31.753  27.595  1.00  0.00    -0.458 OA
BRANCH  31  32
ATOM     32  C   UNL A   1      36.145  31.584  28.733  1.00  0.00     0.338 C 
ATOM     33  O   UNL A   1      35.886  32.155  29.768  1.00  0.00    -0.246 OA
BRANCH  32  34
ATOM     34  C   UNL A   1      37.244  30.602  28.666  1.00  0.00     0.060 A 
ATOM     35  C   UNL A   1      38.490  31.025  29.148  1.00  0.00     0.016 A 
ATOM     36  C   UNL A   1      37.074  29.311  28.160  1.00  0.00     0.016 A 
ATOM     37  C   UNL A   1      39.567  30.168  29.113  1.00  0.00     0.010 A 
ATOM     38  C   UNL A   1      38.150  28.436  28.148  1.00  0.00     0.010 A 
ATOM     39  C   UNL A   1      39.386  28.869  28.631  1.00  0.00    -0.014 A 
BRANCH  39  40
ATOM     40  C   UNL A   1      40.437  27.915  28.961  1.00  0.00     0.031 A 
ATOM     41  C   UNL A   1      40.897  28.067  30.379  1.00  0.00     0.074 A 
ATOM     42  C   UNL A   1      40.845  26.931  28.141  1.00  0.00     0.049 A 
ATOM     43  N   UNL A   1      42.063  28.428  30.801  1.00  0.00    -0.248 NA
ATOM     44  C   UNL A   1      39.870  28.014  31.442  1.00  0.00     0.031 C 
ATOM     45  C   UNL A   1      40.264  26.514  26.865  1.00  0.00     0.029 A 
ATOM     46  N   UNL A   1      41.820  26.007  28.340  1.00  0.00    -0.354 N 
ATOM     47  C   UNL A   1      41.970  28.472  32.191  1.00  0.00     0.074 A 
ATOM     48  C   UNL A   1      40.570  28.389  32.513  1.00  0.00     0.031 C 
ATOM     49  C   UNL A   1      40.718  25.277  26.551  1.00  0.00     0.029 A 
ATOM     50  C   UNL A   1      41.728  24.888  27.523  1.00  0.00     0.049 A 
ATOM     51  H   UNL A   1      42.535  26.122  29.009  1.00  0.00     0.167 HD
ATOM     52  C   UNL A   1      43.065  28.292  32.981  1.00  0.00     0.031 A 
ATOM     53  C   UNL A   1      42.382  23.710  27.694  1.00  0.00     0.031 A 
ATOM     54  C   UNL A   1      44.282  28.521  32.249  1.00  0.00     0.049 A 
ATOM     55  C   UNL A   1      43.517  23.965  28.614  1.00  0.00     0.074 A 
ATOM     56  C   UNL A   1      44.866  29.605  31.629  1.00  0.00     0.029 A 
ATOM     57  N   UNL A   1      44.899  27.408  31.734  1.00  0.00    -0.354 N 
ATOM     58  N   UNL A   1      44.529  24.725  28.308  1.00  0.00    -0.248 NA
ATOM     59  C   UNL A   1      43.290  23.766  30.035  1.00  0.00     0.031 C 
ATOM     60  C   UNL A   1      45.461  29.073  30.446  1.00  0.00     0.029 A 
ATOM     61  C   UNL A   1      45.281  27.687  30.450  1.00  0.00     0.049 A 
ATOM     62  H   UNL A   1      45.042  26.556  32.207  1.00  0.00     0.167 HD
ATOM     63  C   UNL A   1      44.788  25.449  29.463  1.00  0.00     0.074 A 
ATOM     64  C   UNL A   1      44.047  24.756  30.518  1.00  0.00     0.031 C 
ATOM     65  C   UNL A   1      45.343  26.696  29.400  1.00  0.00     0.031 A 
BRANCH  52  66
ATOM     66  C   UNL A   1      43.028  27.426  34.221  1.00  0.00    -0.014 A 
ATOM     67  C   UNL A   1      42.904  26.033  34.065  1.00  0.00     0.009 A 
ATOM     68  C   UNL A   1      42.794  27.937  35.514  1.00  0.00     0.009 A 
ATOM     69  C   UNL A   1      42.476  25.217  35.121  1.00  0.00     0.001 A 
ATOM     70  C   UNL A   1      42.402  27.122  36.578  1.00  0.00     0.001 A 
ATOM     71  C   UNL A   1      42.213  25.765  36.373  1.00  0.00     0.000 A 
ENDBRANCH  52  66
BRANCH  53  72
ATOM     72  C   UNL A   1      41.863  22.342  27.461  1.00  0.00    -0.014 A 
ATOM     73  C   UNL A   1      40.580  22.135  26.926  1.00  0.00     0.009 A 
ATOM     74  C   UNL A   1      42.740  21.241  27.489  1.00  0.00     0.009 A 
ATOM     75  C   UNL A   1      40.203  20.884  26.412  1.00  0.00     0.001 A 
ATOM     76  C   UNL A   1      42.365  19.994  26.977  1.00  0.00     0.001 A 
ATOM     77  C   UNL A   1      41.100  19.818  26.427  1.00  0.00     0.000 A 
ENDBRANCH  53  72
BRANCH  65  78
ATOM     78  C   UNL A   1      45.883  27.160  28.070  1.00  0.00    -0.014 A 
ATOM     79  C   UNL A   1      45.129  27.878  27.123  1.00  0.00     0.009 A 
ATOM     80  C   UNL A   1      47.255  26.985  27.832  1.00  0.00     0.009 A 
ATOM     81  C   UNL A   1      45.731  28.377  25.961  1.00  0.00     0.001 A 
ATOM     82  C   UNL A   1      47.857  27.500  26.685  1.00  0.00     0.001 A 
ATOM     83  C   UNL A   1      47.095  28.191  25.746  1.00  0.00     0.000 A 
ENDBRANCH  65  78
ENDBRANCH  39  40
ENDBRANCH  32  34
ENDBRANCH  31  32
ENDBRANCH  30  31
ENDBRANCH  29  30
ENDBRANCH   1  29
TORSDOF 16
ENDMDL
MODEL 3
REMARK VINA RESULT:     -11.2      1.288      1.793
REMARK SMILES CCOC(=O)c1c(NC(=O)[C@@H]2[C@@H](C(=O)OCCOC(=O)c3ccc(-c4c5nc(c(-c6ccccc6)c6ccc([nH]6)c(-c6ccccc6)c6nc(c(-c7ccccc7)c7ccc4[nH]7)C=C6)C=C5)cc3)[C@@H]3C=C[C@H]2CC3)sc2c1CCC2
REMARK SMILES IDX 15 1 13 2 14 3 12 4 11 5 72 6 69 7 71 8 73 9 70 10 74 11
REMARK SMILES IDX 9 12 8 13 10 15 7 16 6 17 77 18 75 19 76 20 78 21 80 22
REMARK SMILES IDX 79 23 4 24 5 25 3 26 2 27 1 28 16 29 17 30 18 31 19 32 20 33
REMARK SMILES IDX 21 34 22 35 68 36 23 37 67 38 24 39 25 40 26 41 61 42 27 43
REMARK SMILES IDX 66 44 60 45 62 46 28 47 65 48 59 49 58 50 29 52 51 53 36 54
REMARK SMILES IDX 50 55 37 56 40 57 49 58 63 59 38 60 39 61 48 63 64 64 41 65
REMARK SMILES IDX 30 66 31 67 35 68 32 69 34 70 33 71 52 72 53 73 57 74 54 75
REMARK SMILES IDX 56 76 55 77 42 78 43 79 47 80 44 81 46 82 45 83
REMARK H PARENT 8 14 62 51 40 62
REMARK Flexibility Score: inf
ROOT
ATOM      1  O   UNL A   1      34.028  30.540  26.499  1.00  0.00    -0.462 OA
ENDROOT
BRANCH   1   2
ATOM      2  C   UNL A   1      34.174  29.200  26.648  1.00  0.00     0.310 C 
ATOM      3  O   UNL A   1      35.181  28.702  27.144  1.00  0.00    -0.252 OA
BRANCH   2   4
ATOM      4  C   UNL A   1      33.049  28.369  26.014  1.00  0.00     0.119 C 
ATOM      5  C   UNL A   1      33.321  26.880  25.560  1.00  0.00     0.100 C 
ATOM      6  C   UNL A   1      32.880  26.749  24.039  1.00  0.00     0.025 C 
ATOM      7  C   UNL A   1      32.571  29.206  24.768  1.00  0.00     0.026 C 
ATOM      8  C   UNL A   1      31.470  27.304  23.846  1.00  0.00    -0.027 C 
ATOM      9  C   UNL A   1      33.762  27.651  23.156  1.00  0.00     0.009 C 
ATOM     10  C   UNL A   1      31.309  28.575  24.242  1.00  0.00    -0.027 C 
ATOM     11  C   UNL A   1      33.603  29.119  23.609  1.00  0.00     0.009 C 
BRANCH   5  12
ATOM     12  C   UNL A   1      32.507  25.811  26.340  1.00  0.00     0.229 C 
ATOM     13  N   UNL A   1      32.775  24.487  26.470  1.00  0.00    -0.317 N 
ATOM     14  H   UNL A   1      32.163  24.055  27.110  1.00  0.00     0.170 HD
ATOM     15  O   UNL A   1      31.496  26.143  26.982  1.00  0.00    -0.274 OA
BRANCH  13  16
ATOM     16  C   UNL A   1      33.676  23.590  25.946  1.00  0.00     0.110 A 
ATOM     17  C   UNL A   1      33.357  22.397  25.290  1.00  0.00     0.098 A 
ATOM     18  C   UNL A   1      34.534  21.625  25.111  1.00  0.00    -0.017 A 
ATOM     19  S   UNL A   1      35.348  23.899  25.897  1.00  0.00    -0.122 S 
ATOM     20  C   UNL A   1      35.660  22.315  25.460  1.00  0.00     0.011 A 
ATOM     21  C   UNL A   1      34.879  20.275  24.594  1.00  0.00     0.038 C 
ATOM     22  C   UNL A   1      36.909  21.533  25.297  1.00  0.00     0.047 C 
ATOM     23  C   UNL A   1      36.338  20.099  25.105  1.00  0.00     0.010 C 
BRANCH  17  24
ATOM     24  C   UNL A   1      32.007  22.024  24.905  1.00  0.00     0.341 C 
ATOM     25  O   UNL A   1      31.141  21.770  25.732  1.00  0.00    -0.246 OA
BRANCH  24  26
ATOM     26  O   UNL A   1      31.835  21.995  23.555  1.00  0.00    -0.462 OA
BRANCH  26  27
ATOM     27  C   UNL A   1      31.794  23.266  22.888  1.00  0.00     0.230 C 
ATOM     28  C   UNL A   1      33.053  23.577  22.095  1.00  0.00     0.049 C 
ENDBRANCH  26  27
ENDBRANCH  24  26
ENDBRANCH  17  24
ENDBRANCH  13  16
ENDBRANCH   5  12
ENDBRANCH   2   4
ENDBRANCH   1   2
BRANCH   1  29
ATOM     29  C   UNL A   1      33.467  31.250  27.629  1.00  0.00     0.274 C 
BRANCH  29  30
ATOM     30  C   UNL A   1      34.096  32.637  27.797  1.00  0.00     0.275 C 
BRANCH  30  31
ATOM     31  O   UNL A   1      35.457  32.626  28.238  1.00  0.00    -0.458 OA
BRANCH  31  32
ATOM     32  C   UNL A   1      35.604  32.151  29.495  1.00  0.00     0.338 C 
ATOM     33  O   UNL A   1      34.767  32.286  30.359  1.00  0.00    -0.246 OA
BRANCH  32  34
ATOM     34  C   UNL A   1      36.843  31.392  29.753  1.00  0.00     0.060 A 
ATOM     35  C   UNL A   1      36.693  30.026  30.024  1.00  0.00     0.016 A 
ATOM     36  C   UNL A   1      38.109  31.981  29.726  1.00  0.00     0.016 A 
ATOM     37  C   UNL A   1      37.802  29.251  30.282  1.00  0.00     0.010 A 
ATOM     38  C   UNL A   1      39.230  31.199  29.958  1.00  0.00     0.010 A 
ATOM     39  C   UNL A   1      39.069  29.839  30.227  1.00  0.00    -0.014 A 
BRANCH  39  40
ATOM     40  C   UNL A   1      40.195  28.918  30.135  1.00  0.00     0.031 A 
ATOM     41  C   UNL A   1      40.826  28.682  31.474  1.00  0.00     0.074 A 
ATOM     42  C   UNL A   1      40.537  28.257  29.016  1.00  0.00     0.049 A 
ATOM     43  N   UNL A   1      42.019  28.995  31.855  1.00  0.00    -0.248 NA
ATOM     44  C   UNL A   1      39.947  28.235  32.576  1.00  0.00     0.031 C 
ATOM     45  C   UNL A   1      39.816  28.190  27.745  1.00  0.00     0.029 A 
ATOM     46  N   UNL A   1      41.570  27.398  28.819  1.00  0.00    -0.354 N 
ATOM     47  C   UNL A   1      42.104  28.619  33.195  1.00  0.00     0.074 A 
ATOM     48  C   UNL A   1      40.762  28.332  33.627  1.00  0.00     0.031 C 
ATOM     49  C   UNL A   1      40.280  27.142  27.024  1.00  0.00     0.029 A 
ATOM     50  C   UNL A   1      41.423  26.567  27.716  1.00  0.00     0.049 A 
ATOM     51  H   UNL A   1      42.359  27.367  29.408  1.00  0.00     0.167 HD
ATOM     52  C   UNL A   1      43.298  28.303  33.768  1.00  0.00     0.031 A 
ATOM     53  C   UNL A   1      42.145  25.448  27.449  1.00  0.00     0.031 A 
ATOM     54  C   UNL A   1      44.400  28.835  33.012  1.00  0.00     0.049 A 
ATOM     55  C   UNL A   1      43.376  25.510  28.273  1.00  0.00     0.074 A 
ATOM     56  C   UNL A   1      44.851  30.098  32.689  1.00  0.00     0.029 A 
ATOM     57  N   UNL A   1      44.994  27.978  32.120  1.00  0.00    -0.354 N 
ATOM     58  N   UNL A   1      44.306  26.406  28.103  1.00  0.00    -0.248 NA
ATOM     59  C   UNL A   1      43.343  24.883  29.584  1.00  0.00     0.031 C 
ATOM     60  C   UNL A   1      45.312  29.989  31.343  1.00  0.00     0.029 A 
ATOM     61  C   UNL A   1      45.195  28.654  30.947  1.00  0.00     0.049 A 
ATOM     62  H   UNL A   1      45.234  27.040  32.293  1.00  0.00     0.167 HD
ATOM     63  C   UNL A   1      44.680  26.775  29.388  1.00  0.00     0.074 A 
ATOM     64  C   UNL A   1      44.112  25.744  30.257  1.00  0.00     0.031 C 
ATOM     65  C   UNL A   1      45.165  28.026  29.646  1.00  0.00     0.031 A 
BRANCH  52  66
ATOM     66  C   UNL A   1      43.459  27.110  34.684  1.00  0.00    -0.014 A 
ATOM     67  C   UNL A   1      44.229  27.256  35.852  1.00  0.00     0.009 A 
ATOM     68  C   UNL A   1      43.159  25.789  34.291  1.00  0.00     0.009 A 
ATOM     69  C   UNL A   1      44.745  26.144  36.529  1.00  0.00     0.001 A 
ATOM     70  C   UNL A   1      43.643  24.678  34.984  1.00  0.00     0.001 A 
ATOM     71  C   UNL A   1      44.462  24.855  36.086  1.00  0.00     0.000 A 
ENDBRANCH  52  66
BRANCH  53  72
ATOM     72  C   UNL A   1      41.662  24.172  26.870  1.00  0.00    -0.014 A 
ATOM     73  C   UNL A   1      42.502  23.374  26.075  1.00  0.00     0.009 A 
ATOM     74  C   UNL A   1      40.468  23.592  27.340  1.00  0.00     0.009 A 
ATOM     75  C   UNL A   1      42.173  22.040  25.788  1.00  0.00     0.001 A 
ATOM     76  C   UNL A   1      40.140  22.262  27.054  1.00  0.00     0.001 A 
ATOM     77  C   UNL A   1      40.998  21.481  26.288  1.00  0.00     0.000 A 
ENDBRANCH  53  72
BRANCH  65  78
ATOM     78  C   UNL A   1      45.509  28.904  28.468  1.00  0.00    -0.014 A 
ATOM     79  C   UNL A   1      44.612  29.814  27.878  1.00  0.00     0.009 A 
ATOM     80  C   UNL A   1      46.843  28.909  28.032  1.00  0.00     0.009 A 
ATOM     81  C   UNL A   1      45.038  30.680  26.864  1.00  0.00     0.001 A 
ATOM     82  C   UNL A   1      47.270  29.786  27.036  1.00  0.00     0.001 A 
ATOM     83  C   UNL A   1      46.368  30.667  26.446  1.00  0.00     0.000 A 
ENDBRANCH  65  78
ENDBRANCH  39  40
ENDBRANCH  32  34
ENDBRANCH  31  32
ENDBRANCH  30  31
ENDBRANCH  29  30
ENDBRANCH   1  29
TORSDOF 16
ENDMDL
