MODEL 1
REMARK VINA RESULT:     -11.4      0.000      0.000
REMARK SMILES O=C(OCCOC(=O)[C@@H]1[C@@H](C(=O)NCc2ccccc2Br)[C@H]2C=C[C@@H]1O2)c1ccc(-c2c3nc(c(-c4ccccc4)c4ccc([nH]4)c(-c4ccccc4)c4nc(c(-c5ccccc5)c5ccc2[nH]5)C=C4)C=C3)cc1
REMARK SMILES IDX 5 1 4 2 3 3 2 4 1 5 27 6 28 7 74 8 29 9 73 10 30 11 31 12
REMARK SMILES IDX 32 13 67 14 33 15 72 16 66 17 68 18 34 19 71 20 65 21 64 22
REMARK SMILES IDX 35 24 57 25 42 26 56 27 43 28 46 29 55 30 69 31 44 32 45 33
REMARK SMILES IDX 54 35 70 36 47 37 36 38 37 39 41 40 38 41 40 42 39 43 58 44
REMARK SMILES IDX 59 45 63 46 60 47 62 48 61 49 48 50 49 51 53 52 50 53 52 54
REMARK SMILES IDX 51 55 6 56 7 57 8 58 9 59 10 60 25 61 22 62 24 63 26 64
REMARK SMILES IDX 23 65 11 66 12 67 13 68 14 70 15 71 16 72 20 73 17 74 19 75
REMARK SMILES IDX 21 76 18 77
REMARK H PARENT 68 23 46 34 13 69
REMARK Flexibility Score: inf
ROOT
ATOM      1  C   UNL A   1      30.936  28.967  23.482  1.00  0.00     0.274 C 
ENDROOT
BRANCH   1   2
ATOM      2  C   UNL A   1      30.817  29.996  24.606  1.00  0.00     0.275 C 
BRANCH   2   3
ATOM      3  O   UNL A   1      31.999  30.063  25.430  1.00  0.00    -0.458 OA
BRANCH   3   4
ATOM      4  C   UNL A   1      32.243  30.858  26.506  1.00  0.00     0.338 C 
ATOM      5  O   UNL A   1      31.454  31.764  26.769  1.00  0.00    -0.246 OA
BRANCH   4   6
ATOM      6  C   UNL A   1      33.573  30.856  27.213  1.00  0.00     0.060 A 
ATOM      7  C   UNL A   1      34.232  31.960  27.742  1.00  0.00     0.016 A 
ATOM      8  C   UNL A   1      34.243  29.625  27.338  1.00  0.00     0.016 A 
ATOM      9  C   UNL A   1      35.395  31.798  28.542  1.00  0.00     0.010 A 
ATOM     10  C   UNL A   1      35.388  29.472  28.165  1.00  0.00     0.010 A 
ATOM     11  C   UNL A   1      35.908  30.536  28.917  1.00  0.00    -0.014 A 
BRANCH  11  12
ATOM     12  C   UNL A   1      37.143  30.332  29.816  1.00  0.00     0.031 A 
ATOM     13  C   UNL A   1      38.289  29.660  29.151  1.00  0.00     0.074 A 
ATOM     14  C   UNL A   1      37.364  30.652  31.127  1.00  0.00     0.049 A 
ATOM     15  N   UNL A   1      39.432  29.297  29.659  1.00  0.00    -0.248 NA
ATOM     16  C   UNL A   1      38.099  29.349  27.731  1.00  0.00     0.031 C 
ATOM     17  C   UNL A   1      36.455  31.394  31.951  1.00  0.00     0.029 A 
ATOM     18  N   UNL A   1      38.417  30.457  32.022  1.00  0.00    -0.354 N 
ATOM     19  C   UNL A   1      40.091  28.672  28.624  1.00  0.00     0.074 A 
ATOM     20  C   UNL A   1      39.206  28.681  27.479  1.00  0.00     0.031 C 
ATOM     21  C   UNL A   1      36.949  31.685  33.159  1.00  0.00     0.029 A 
ATOM     22  C   UNL A   1      38.233  31.032  33.282  1.00  0.00     0.049 A 
ATOM     23  H   UNL A   1      39.227  29.952  31.784  1.00  0.00     0.167 HD
ATOM     24  C   UNL A   1      41.325  28.129  28.619  1.00  0.00     0.031 A 
ATOM     25  C   UNL A   1      38.961  31.063  34.426  1.00  0.00     0.031 A 
ATOM     26  C   UNL A   1      42.206  28.067  29.746  1.00  0.00     0.049 A 
ATOM     27  C   UNL A   1      40.301  30.398  34.426  1.00  0.00     0.074 A 
ATOM     28  C   UNL A   1      43.449  27.469  29.812  1.00  0.00     0.029 A 
ATOM     29  N   UNL A   1      41.948  28.602  31.000  1.00  0.00    -0.354 N 
ATOM     30  N   UNL A   1      40.893  29.803  33.423  1.00  0.00    -0.248 NA
ATOM     31  C   UNL A   1      41.086  30.417  35.671  1.00  0.00     0.031 C 
ATOM     32  C   UNL A   1      43.923  27.590  31.120  1.00  0.00     0.029 A 
ATOM     33  C   UNL A   1      43.003  28.321  31.854  1.00  0.00     0.049 A 
ATOM     34  H   UNL A   1      41.138  29.104  31.245  1.00  0.00     0.167 HD
ATOM     35  C   UNL A   1      42.127  29.403  33.900  1.00  0.00     0.074 A 
ATOM     36  C   UNL A   1      42.214  29.835  35.280  1.00  0.00     0.031 C 
ATOM     37  C   UNL A   1      43.095  28.737  33.231  1.00  0.00     0.031 A 
BRANCH  24  38
ATOM     38  C   UNL A   1      41.687  27.457  27.335  1.00  0.00    -0.014 A 
ATOM     39  C   UNL A   1      41.526  26.071  27.168  1.00  0.00     0.009 A 
ATOM     40  C   UNL A   1      42.373  28.199  26.365  1.00  0.00     0.009 A 
ATOM     41  C   UNL A   1      42.131  25.428  26.091  1.00  0.00     0.001 A 
ATOM     42  C   UNL A   1      42.935  27.558  25.265  1.00  0.00     0.001 A 
ATOM     43  C   UNL A   1      42.835  26.172  25.143  1.00  0.00     0.000 A 
ENDBRANCH  24  38
BRANCH  25  44
ATOM     44  C   UNL A   1      38.470  31.773  35.661  1.00  0.00    -0.014 A 
ATOM     45  C   UNL A   1      37.909  31.057  36.735  1.00  0.00     0.009 A 
ATOM     46  C   UNL A   1      38.558  33.172  35.784  1.00  0.00     0.009 A 
ATOM     47  C   UNL A   1      37.459  31.715  37.889  1.00  0.00     0.001 A 
ATOM     48  C   UNL A   1      38.134  33.825  36.951  1.00  0.00     0.001 A 
ATOM     49  C   UNL A   1      37.583  33.097  38.003  1.00  0.00     0.000 A 
ENDBRANCH  25  44
BRANCH  37  50
ATOM     50  C   UNL A   1      44.357  28.426  33.974  1.00  0.00    -0.014 A 
ATOM     51  C   UNL A   1      44.514  27.214  34.661  1.00  0.00     0.009 A 
ATOM     52  C   UNL A   1      45.434  29.322  33.907  1.00  0.00     0.009 A 
ATOM     53  C   UNL A   1      45.728  26.910  35.277  1.00  0.00     0.001 A 
ATOM     54  C   UNL A   1      46.654  29.004  34.501  1.00  0.00     0.001 A 
ATOM     55  C   UNL A   1      46.799  27.799  35.187  1.00  0.00     0.000 A 
ENDBRANCH  37  50
ENDBRANCH  11  12
ENDBRANCH   4   6
ENDBRANCH   3   4
ENDBRANCH   2   3
ENDBRANCH   1   2
BRANCH   1  56
ATOM     56  O   UNL A   1      29.712  28.271  23.259  1.00  0.00    -0.462 OA
BRANCH  56  57
ATOM     57  C   UNL A   1      29.583  27.038  23.841  1.00  0.00     0.312 C 
ATOM     58  O   UNL A   1      28.540  26.425  23.962  1.00  0.00    -0.252 OA
BRANCH  57  59
ATOM     59  C   UNL A   1      30.891  26.620  24.456  1.00  0.00     0.147 C 
ATOM     60  C   UNL A   1      31.259  25.152  24.080  1.00  0.00     0.128 C 
ATOM     61  C   UNL A   1      30.849  26.573  25.990  1.00  0.00     0.157 C 
ATOM     62  C   UNL A   1      31.552  24.588  25.486  1.00  0.00     0.155 C 
ATOM     63  C   UNL A   1      32.246  26.451  26.543  1.00  0.00     0.004 C 
ATOM     64  O   UNL A   1      30.433  25.198  26.200  1.00  0.00    -0.365 OA
ATOM     65  C   UNL A   1      32.671  25.223  26.227  1.00  0.00     0.004 C 
BRANCH  60  66
ATOM     66  C   UNL A   1      32.318  25.235  22.987  1.00  0.00     0.227 C 
ATOM     67  O   UNL A   1      32.956  26.269  22.786  1.00  0.00    -0.275 OA
ATOM     68  N   UNL A   1      32.451  24.246  22.054  1.00  0.00    -0.352 N 
ATOM     69  H   UNL A   1      31.925  24.398  21.235  1.00  0.00     0.163 HD
BRANCH  68  70
ATOM     70  C   UNL A   1      33.238  22.983  22.035  1.00  0.00     0.152 C 
BRANCH  70  71
ATOM     71  C   UNL A   1      33.223  22.299  23.396  1.00  0.00    -0.015 A 
ATOM     72  C   UNL A   1      32.169  21.416  23.690  1.00  0.00     0.007 A 
ATOM     73  C   UNL A   1      34.290  22.359  24.311  1.00  0.00     0.022 A 
ATOM     74  C   UNL A   1      32.278  20.463  24.695  1.00  0.00     0.000 A 
ATOM     75  C   UNL A   1      34.382  21.422  25.354  1.00  0.00     0.016 A 
ATOM     76  Br  UNL A   1      35.647  23.682  24.206  1.00  0.00    -0.050 Br
ATOM     77  C   UNL A   1      33.405  20.437  25.503  1.00  0.00     0.001 A 
ENDBRANCH  70  71
ENDBRANCH  68  70
ENDBRANCH  60  66
ENDBRANCH  57  59
ENDBRANCH  56  57
ENDBRANCH   1  56
TORSDOF 14
ENDMDL
MODEL 2
REMARK VINA RESULT:     -11.1      3.995      8.550
REMARK SMILES O=C(OCCOC(=O)[C@@H]1[C@@H](C(=O)NCc2ccccc2Br)[C@H]2C=C[C@@H]1O2)c1ccc(-c2c3nc(c(-c4ccccc4)c4ccc([nH]4)c(-c4ccccc4)c4nc(c(-c5ccccc5)c5ccc2[nH]5)C=C4)C=C3)cc1
REMARK SMILES IDX 5 1 4 2 3 3 2 4 1 5 27 6 28 7 74 8 29 9 73 10 30 11 31 12
REMARK SMILES IDX 32 13 67 14 33 15 72 16 66 17 68 18 34 19 71 20 65 21 64 22
REMARK SMILES IDX 35 24 57 25 42 26 56 27 43 28 46 29 55 30 69 31 44 32 45 33
REMARK SMILES IDX 54 35 70 36 47 37 36 38 37 39 41 40 38 41 40 42 39 43 58 44
REMARK SMILES IDX 59 45 63 46 60 47 62 48 61 49 48 50 49 51 53 52 50 53 52 54
REMARK SMILES IDX 51 55 6 56 7 57 8 58 9 59 10 60 25 61 22 62 24 63 26 64
REMARK SMILES IDX 23 65 11 66 12 67 13 68 14 70 15 71 16 72 20 73 17 74 19 75
REMARK SMILES IDX 21 76 18 77
REMARK H PARENT 68 23 46 34 13 69
REMARK Flexibility Score: inf
ROOT
ATOM      1  C   UNL A   1      37.614  20.401  24.700  1.00  0.00     0.274 C 
ENDROOT
BRANCH   1   2
ATOM      2  C   UNL A   1      38.746  20.837  25.630  1.00  0.00     0.275 C 
BRANCH   2   3
ATOM      3  O   UNL A   1      39.677  19.772  25.914  1.00  0.00    -0.458 OA
BRANCH   3   4
ATOM      4  C   UNL A   1      41.031  19.833  26.024  1.00  0.00     0.338 C 
ATOM      5  O   UNL A   1      41.680  18.789  25.985  1.00  0.00    -0.246 OA
BRANCH   4   6
ATOM      6  C   UNL A   1      41.738  21.085  26.473  1.00  0.00     0.060 A 
ATOM      7  C   UNL A   1      42.324  22.044  25.655  1.00  0.00     0.016 A 
ATOM      8  C   UNL A   1      41.850  21.311  27.857  1.00  0.00     0.016 A 
ATOM      9  C   UNL A   1      42.802  23.268  26.196  1.00  0.00     0.010 A 
ATOM     10  C   UNL A   1      42.302  22.551  28.384  1.00  0.00     0.010 A 
ATOM     11  C   UNL A   1      42.649  23.627  27.553  1.00  0.00    -0.014 A 
BRANCH  11  12
ATOM     12  C   UNL A   1      43.122  24.963  28.158  1.00  0.00     0.031 A 
ATOM     13  C   UNL A   1      42.034  25.933  28.444  1.00  0.00     0.074 A 
ATOM     14  C   UNL A   1      44.374  25.418  28.467  1.00  0.00     0.049 A 
ATOM     15  N   UNL A   1      42.122  27.153  28.891  1.00  0.00    -0.248 NA
ATOM     16  C   UNL A   1      40.675  25.456  28.168  1.00  0.00     0.031 C 
ATOM     17  C   UNL A   1      45.572  24.635  28.380  1.00  0.00     0.029 A 
ATOM     18  N   UNL A   1      44.891  26.617  28.959  1.00  0.00    -0.354 N 
ATOM     19  C   UNL A   1      40.823  27.611  28.914  1.00  0.00     0.074 A 
ATOM     20  C   UNL A   1      39.981  26.549  28.407  1.00  0.00     0.031 C 
ATOM     21  C   UNL A   1      46.653  25.262  28.853  1.00  0.00     0.029 A 
ATOM     22  C   UNL A   1      46.267  26.612  29.198  1.00  0.00     0.049 A 
ATOM     23  H   UNL A   1      44.328  27.407  29.125  1.00  0.00     0.167 HD
ATOM     24  C   UNL A   1      40.362  28.813  29.316  1.00  0.00     0.031 A 
ATOM     25  C   UNL A   1      47.158  27.538  29.632  1.00  0.00     0.031 A 
ATOM     26  C   UNL A   1      41.173  29.896  29.782  1.00  0.00     0.049 A 
ATOM     27  C   UNL A   1      46.641  28.889  30.011  1.00  0.00     0.074 A 
ATOM     28  C   UNL A   1      40.759  31.164  30.144  1.00  0.00     0.029 A 
ATOM     29  N   UNL A   1      42.551  29.859  29.942  1.00  0.00    -0.354 N 
ATOM     30  N   UNL A   1      45.397  29.293  30.012  1.00  0.00    -0.248 NA
ATOM     31  C   UNL A   1      47.608  29.901  30.469  1.00  0.00     0.031 C 
ATOM     32  C   UNL A   1      41.890  31.915  30.470  1.00  0.00     0.029 A 
ATOM     33  C   UNL A   1      43.004  31.096  30.374  1.00  0.00     0.049 A 
ATOM     34  H   UNL A   1      43.119  29.075  29.774  1.00  0.00     0.167 HD
ATOM     35  C   UNL A   1      45.422  30.589  30.493  1.00  0.00     0.074 A 
ATOM     36  C   UNL A   1      46.804  30.906  30.794  1.00  0.00     0.031 C 
ATOM     37  C   UNL A   1      44.376  31.426  30.667  1.00  0.00     0.031 A 
BRANCH  24  38
ATOM     38  C   UNL A   1      38.891  28.993  29.123  1.00  0.00    -0.014 A 
ATOM     39  C   UNL A   1      38.369  29.455  27.903  1.00  0.00     0.009 A 
ATOM     40  C   UNL A   1      38.054  28.881  30.240  1.00  0.00     0.009 A 
ATOM     41  C   UNL A   1      37.047  29.890  27.836  1.00  0.00     0.001 A 
ATOM     42  C   UNL A   1      36.722  29.273  30.155  1.00  0.00     0.001 A 
ATOM     43  C   UNL A   1      36.228  29.800  28.961  1.00  0.00     0.000 A 
ENDBRANCH  24  38
BRANCH  25  44
ATOM     44  C   UNL A   1      48.625  27.224  29.772  1.00  0.00    -0.014 A 
ATOM     45  C   UNL A   1      49.144  26.697  30.969  1.00  0.00     0.009 A 
ATOM     46  C   UNL A   1      49.524  27.443  28.712  1.00  0.00     0.009 A 
ATOM     47  C   UNL A   1      50.508  26.396  31.099  1.00  0.00     0.001 A 
ATOM     48  C   UNL A   1      50.883  27.115  28.834  1.00  0.00     0.001 A 
ATOM     49  C   UNL A   1      51.375  26.593  30.027  1.00  0.00     0.000 A 
ENDBRANCH  25  44
BRANCH  37  50
ATOM     50  C   UNL A   1      44.667  32.788  31.217  1.00  0.00    -0.014 A 
ATOM     51  C   UNL A   1      44.920  33.875  30.368  1.00  0.00     0.009 A 
ATOM     52  C   UNL A   1      44.598  32.998  32.602  1.00  0.00     0.009 A 
ATOM     53  C   UNL A   1      45.107  35.150  30.901  1.00  0.00     0.001 A 
ATOM     54  C   UNL A   1      44.759  34.279  33.129  1.00  0.00     0.001 A 
ATOM     55  C   UNL A   1      45.015  35.353  32.278  1.00  0.00     0.000 A 
ENDBRANCH  37  50
ENDBRANCH  11  12
ENDBRANCH   4   6
ENDBRANCH   3   4
ENDBRANCH   2   3
ENDBRANCH   1   2
BRANCH   1  56
ATOM     56  O   UNL A   1      36.364  20.982  25.066  1.00  0.00    -0.462 OA
BRANCH  56  57
ATOM     57  C   UNL A   1      35.913  22.022  24.296  1.00  0.00     0.312 C 
ATOM     58  O   UNL A   1      36.570  22.614  23.463  1.00  0.00    -0.252 OA
BRANCH  57  59
ATOM     59  C   UNL A   1      34.536  22.433  24.743  1.00  0.00     0.147 C 
ATOM     60  C   UNL A   1      34.409  23.982  24.859  1.00  0.00     0.128 C 
ATOM     61  C   UNL A   1      34.198  21.961  26.165  1.00  0.00     0.157 C 
ATOM     62  C   UNL A   1      33.827  24.091  26.284  1.00  0.00     0.155 C 
ATOM     63  C   UNL A   1      32.724  22.134  26.431  1.00  0.00     0.004 C 
ATOM     64  O   UNL A   1      34.672  23.095  26.938  1.00  0.00    -0.365 OA
ATOM     65  C   UNL A   1      32.505  23.451  26.502  1.00  0.00     0.004 C 
BRANCH  60  66
ATOM     66  C   UNL A   1      33.653  24.450  23.621  1.00  0.00     0.227 C 
ATOM     67  O   UNL A   1      33.008  23.666  22.926  1.00  0.00    -0.275 OA
ATOM     68  N   UNL A   1      33.835  25.706  23.113  1.00  0.00    -0.352 N 
ATOM     69  H   UNL A   1      34.535  25.759  22.423  1.00  0.00     0.163 HD
BRANCH  68  70
ATOM     70  C   UNL A   1      33.178  27.010  23.402  1.00  0.00     0.152 C 
BRANCH  70  71
ATOM     71  C   UNL A   1      32.894  27.171  24.890  1.00  0.00    -0.015 A 
ATOM     72  C   UNL A   1      33.897  27.721  25.708  1.00  0.00     0.007 A 
ATOM     73  C   UNL A   1      31.628  26.967  25.469  1.00  0.00     0.022 A 
ATOM     74  C   UNL A   1      33.602  28.274  26.949  1.00  0.00     0.000 A 
ATOM     75  C   UNL A   1      31.338  27.489  26.741  1.00  0.00     0.016 A 
ATOM     76  Br  UNL A   1      30.255  25.992  24.595  1.00  0.00    -0.050 Br
ATOM     77  C   UNL A   1      32.311  28.196  27.449  1.00  0.00     0.001 A 
ENDBRANCH  70  71
ENDBRANCH  68  70
ENDBRANCH  60  66
ENDBRANCH  57  59
ENDBRANCH  56  57
ENDBRANCH   1  56
TORSDOF 14
ENDMDL
MODEL 3
REMARK VINA RESULT:     -11.0      2.514      3.533
REMARK SMILES O=C(OCCOC(=O)[C@@H]1[C@@H](C(=O)NCc2ccccc2Br)[C@H]2C=C[C@@H]1O2)c1ccc(-c2c3nc(c(-c4ccccc4)c4ccc([nH]4)c(-c4ccccc4)c4nc(c(-c5ccccc5)c5ccc2[nH]5)C=C4)C=C3)cc1
REMARK SMILES IDX 5 1 4 2 3 3 2 4 1 5 27 6 28 7 74 8 29 9 73 10 30 11 31 12
REMARK SMILES IDX 32 13 67 14 33 15 72 16 66 17 68 18 34 19 71 20 65 21 64 22
REMARK SMILES IDX 35 24 57 25 42 26 56 27 43 28 46 29 55 30 69 31 44 32 45 33
REMARK SMILES IDX 54 35 70 36 47 37 36 38 37 39 41 40 38 41 40 42 39 43 58 44
REMARK SMILES IDX 59 45 63 46 60 47 62 48 61 49 48 50 49 51 53 52 50 53 52 54
REMARK SMILES IDX 51 55 6 56 7 57 8 58 9 59 10 60 25 61 22 62 24 63 26 64
REMARK SMILES IDX 23 65 11 66 12 67 13 68 14 70 15 71 16 72 20 73 17 74 19 75
REMARK SMILES IDX 21 76 18 77
REMARK H PARENT 68 23 46 34 13 69
REMARK Flexibility Score: inf
ROOT
ATOM      1  C   UNL A   1      32.648  30.904  27.239  1.00  0.00     0.274 C 
ENDROOT
BRANCH   1   2
ATOM      2  C   UNL A   1      31.893  32.220  27.047  1.00  0.00     0.275 C 
BRANCH   2   3
ATOM      3  O   UNL A   1      32.741  33.377  27.194  1.00  0.00    -0.458 OA
BRANCH   3   4
ATOM      4  C   UNL A   1      33.115  34.018  28.335  1.00  0.00     0.338 C 
ATOM      5  O   UNL A   1      32.532  35.051  28.656  1.00  0.00    -0.246 OA
BRANCH   4   6
ATOM      6  C   UNL A   1      34.389  33.673  29.060  1.00  0.00     0.060 A 
ATOM      7  C   UNL A   1      34.499  32.964  30.250  1.00  0.00     0.016 A 
ATOM      8  C   UNL A   1      35.599  34.128  28.505  1.00  0.00     0.016 A 
ATOM      9  C   UNL A   1      35.769  32.550  30.737  1.00  0.00     0.010 A 
ATOM     10  C   UNL A   1      36.862  33.684  28.983  1.00  0.00     0.010 A 
ATOM     11  C   UNL A   1      36.974  32.752  30.027  1.00  0.00    -0.014 A 
BRANCH  11  12
ATOM     12  C   UNL A   1      38.358  32.280  30.511  1.00  0.00     0.031 A 
ATOM     13  C   UNL A   1      38.842  31.028  29.876  1.00  0.00     0.074 A 
ATOM     14  C   UNL A   1      39.216  32.808  31.436  1.00  0.00     0.049 A 
ATOM     15  N   UNL A   1      39.930  30.354  30.119  1.00  0.00    -0.248 NA
ATOM     16  C   UNL A   1      37.965  30.463  28.845  1.00  0.00     0.031 C 
ATOM     17  C   UNL A   1      39.024  34.061  32.107  1.00  0.00     0.029 A 
ATOM     18  N   UNL A   1      40.447  32.422  31.968  1.00  0.00    -0.354 N 
ATOM     19  C   UNL A   1      39.852  29.255  29.294  1.00  0.00     0.074 A 
ATOM     20  C   UNL A   1      38.600  29.342  28.575  1.00  0.00     0.031 C 
ATOM     21  C   UNL A   1      40.060  34.418  32.872  1.00  0.00     0.029 A 
ATOM     22  C   UNL A   1      41.013  33.332  32.863  1.00  0.00     0.049 A 
ATOM     23  H   UNL A   1      40.883  31.572  31.730  1.00  0.00     0.167 HD
ATOM     24  C   UNL A   1      40.739  28.250  29.145  1.00  0.00     0.031 A 
ATOM     25  C   UNL A   1      42.144  33.348  33.613  1.00  0.00     0.031 A 
ATOM     26  C   UNL A   1      41.965  28.115  29.872  1.00  0.00     0.049 A 
ATOM     27  C   UNL A   1      43.087  32.193  33.488  1.00  0.00     0.074 A 
ATOM     28  C   UNL A   1      42.875  27.077  29.804  1.00  0.00     0.029 A 
ATOM     29  N   UNL A   1      42.453  29.021  30.802  1.00  0.00    -0.354 N 
ATOM     30  N   UNL A   1      42.976  31.157  32.697  1.00  0.00    -0.248 NA
ATOM     31  C   UNL A   1      44.308  32.200  34.311  1.00  0.00     0.031 C 
ATOM     32  C   UNL A   1      43.888  27.324  30.733  1.00  0.00     0.029 A 
ATOM     33  C   UNL A   1      43.644  28.548  31.334  1.00  0.00     0.049 A 
ATOM     34  H   UNL A   1      42.021  29.870  31.047  1.00  0.00     0.167 HD
ATOM     35  C   UNL A   1      44.116  30.404  32.901  1.00  0.00     0.074 A 
ATOM     36  C   UNL A   1      44.923  31.106  33.879  1.00  0.00     0.031 C 
ATOM     37  C   UNL A   1      44.449  29.233  32.313  1.00  0.00     0.031 A 
BRANCH  24  38
ATOM     38  C   UNL A   1      40.285  27.173  28.215  1.00  0.00    -0.014 A 
ATOM     39  C   UNL A   1      39.495  26.103  28.670  1.00  0.00     0.009 A 
ATOM     40  C   UNL A   1      40.821  27.140  26.921  1.00  0.00     0.009 A 
ATOM     41  C   UNL A   1      39.329  24.975  27.871  1.00  0.00     0.001 A 
ATOM     42  C   UNL A   1      40.612  26.030  26.108  1.00  0.00     0.001 A 
ATOM     43  C   UNL A   1      39.889  24.940  26.593  1.00  0.00     0.000 A 
ENDBRANCH  24  38
BRANCH  25  44
ATOM     44  C   UNL A   1      42.478  34.500  34.524  1.00  0.00    -0.014 A 
ATOM     45  C   UNL A   1      42.067  34.505  35.870  1.00  0.00     0.009 A 
ATOM     46  C   UNL A   1      43.212  35.608  34.063  1.00  0.00     0.009 A 
ATOM     47  C   UNL A   1      42.383  35.572  36.722  1.00  0.00     0.001 A 
ATOM     48  C   UNL A   1      43.553  36.662  34.924  1.00  0.00     0.001 A 
ATOM     49  C   UNL A   1      43.138  36.644  36.253  1.00  0.00     0.000 A 
ENDBRANCH  25  44
BRANCH  37  50
ATOM     50  C   UNL A   1      45.757  28.615  32.701  1.00  0.00    -0.014 A 
ATOM     51  C   UNL A   1      46.944  28.954  32.037  1.00  0.00     0.009 A 
ATOM     52  C   UNL A   1      45.808  27.750  33.804  1.00  0.00     0.009 A 
ATOM     53  C   UNL A   1      48.162  28.428  32.468  1.00  0.00     0.001 A 
ATOM     54  C   UNL A   1      47.030  27.248  34.248  1.00  0.00     0.001 A 
ATOM     55  C   UNL A   1      48.205  27.585  33.579  1.00  0.00     0.000 A 
ENDBRANCH  37  50
ENDBRANCH  11  12
ENDBRANCH   4   6
ENDBRANCH   3   4
ENDBRANCH   2   3
ENDBRANCH   1   2
BRANCH   1  56
ATOM     56  O   UNL A   1      31.799  29.769  27.081  1.00  0.00    -0.462 OA
BRANCH  56  57
ATOM     57  C   UNL A   1      32.409  28.563  26.858  1.00  0.00     0.312 C 
ATOM     58  O   UNL A   1      33.513  28.250  27.261  1.00  0.00    -0.252 OA
BRANCH  57  59
ATOM     59  C   UNL A   1      31.585  27.739  25.905  1.00  0.00     0.147 C 
ATOM     60  C   UNL A   1      32.353  26.465  25.438  1.00  0.00     0.128 C 
ATOM     61  C   UNL A   1      31.293  28.460  24.582  1.00  0.00     0.157 C 
ATOM     62  C   UNL A   1      32.181  26.602  23.911  1.00  0.00     0.155 C 
ATOM     63  C   UNL A   1      30.228  27.719  23.813  1.00  0.00     0.004 C 
ATOM     64  O   UNL A   1      32.436  28.035  23.793  1.00  0.00    -0.365 OA
ATOM     65  C   UNL A   1      30.785  26.575  23.404  1.00  0.00     0.004 C 
BRANCH  60  66
ATOM     66  C   UNL A   1      31.780  25.296  26.231  1.00  0.00     0.227 C 
ATOM     67  O   UNL A   1      30.588  25.247  26.534  1.00  0.00    -0.275 OA
ATOM     68  N   UNL A   1      32.597  24.372  26.820  1.00  0.00    -0.352 N 
ATOM     69  H   UNL A   1      32.836  24.587  27.751  1.00  0.00     0.163 HD
BRANCH  68  70
ATOM     70  C   UNL A   1      33.195  23.102  26.325  1.00  0.00     0.152 C 
BRANCH  70  71
ATOM     71  C   UNL A   1      34.327  23.368  25.342  1.00  0.00    -0.015 A 
ATOM     72  C   UNL A   1      35.580  23.756  25.851  1.00  0.00     0.007 A 
ATOM     73  C   UNL A   1      34.251  23.078  23.967  1.00  0.00     0.022 A 
ATOM     74  C   UNL A   1      36.742  23.623  25.102  1.00  0.00     0.000 A 
ATOM     75  C   UNL A   1      35.422  22.983  23.197  1.00  0.00     0.016 A 
ATOM     76  Br  UNL A   1      32.597  22.806  23.076  1.00  0.00    -0.050 Br
ATOM     77  C   UNL A   1      36.669  23.195  23.785  1.00  0.00     0.001 A 
ENDBRANCH  70  71
ENDBRANCH  68  70
ENDBRANCH  60  66
ENDBRANCH  57  59
ENDBRANCH  56  57
ENDBRANCH   1  56
TORSDOF 14
ENDMDL
