MODEL 1
REMARK VINA RESULT:      -8.7      0.000      0.000
REMARK SMILES O=C(CC[NH+]1CCC(CC(=O)OCCOC(=O)c2ccc(-c3c4nc(c(-c5ccccc5)c5ccc([nH]5)c(-c5ccccc5)c5nc(c(-c6ccccc6)c6ccc3[nH]6)C=C5)C=C4)cc2)CC1)NC1CC1
REMARK SMILES IDX 12 1 10 2 11 3 9 4 8 5 5 6 6 7 67 8 7 10 66 11 4 12 3 13
REMARK SMILES IDX 2 14 1 15 68 16 69 18 70 19 71 20 13 21 14 22 15 23 16 24
REMARK SMILES IDX 17 25 18 26 19 27 65 28 20 29 64 30 21 31 22 32 23 33 58 34
REMARK SMILES IDX 24 35 63 36 57 37 59 38 25 39 62 40 56 41 55 42 26 44 48 45
REMARK SMILES IDX 33 46 47 47 34 48 37 49 46 50 60 51 35 52 36 53 45 55 61 56
REMARK SMILES IDX 38 57 27 58 28 59 32 60 29 61 31 62 30 63 49 64 50 65 54 66
REMARK SMILES IDX 51 67 53 68 52 69 39 70 40 71 44 72 41 73 43 74 42 75
REMARK H PARENT 5 9 68 17 59 43 37 54
REMARK Flexibility Score: inf
ROOT
ATOM      1  O   UNL A   1      45.411  20.840  24.445  1.00  0.00    -0.462 OA
ENDROOT
BRANCH   1   2
ATOM      2  C   UNL A   1      45.854  21.916  25.140  1.00  0.00     0.306 C 
ATOM      3  O   UNL A   1      45.885  21.985  26.364  1.00  0.00    -0.252 OA
BRANCH   2   4
ATOM      4  C   UNL A   1      46.241  23.086  24.254  1.00  0.00     0.126 C 
BRANCH   4   5
ATOM      5  C   UNL A   1      46.571  24.423  24.939  1.00  0.00     0.011 C 
ATOM      6  N   UNL A   1      46.894  27.349  25.030  1.00  0.00    -0.334 N 
ATOM      7  C   UNL A   1      48.055  26.463  25.009  1.00  0.00     0.262 C 
ATOM      8  C   UNL A   1      45.650  26.739  25.486  1.00  0.00     0.262 C 
ATOM      9  H   UNL A   1      46.685  27.534  24.048  1.00  0.00     0.348 HD
ATOM     10  C   UNL A   1      47.771  25.135  24.308  1.00  0.00     0.066 C 
ATOM     11  C   UNL A   1      45.363  25.375  24.850  1.00  0.00     0.066 C 
BRANCH   6  12
ATOM     12  C   UNL A   1      47.199  28.669  25.614  1.00  0.00     0.272 C 
BRANCH  12  13
ATOM     13  C   UNL A   1      46.109  29.461  26.347  1.00  0.00     0.161 C 
BRANCH  13  14
ATOM     14  C   UNL A   1      46.289  30.966  26.323  1.00  0.00     0.225 C 
ATOM     15  O   UNL A   1      47.379  31.497  26.513  1.00  0.00    -0.275 OA
ATOM     16  N   UNL A   1      45.135  31.658  26.026  1.00  0.00    -0.353 N 
ATOM     17  H   UNL A   1      44.305  31.142  25.908  1.00  0.00     0.163 HD
BRANCH  16  18
ATOM     18  C   UNL A   1      45.067  33.074  25.878  1.00  0.00     0.082 C 
ATOM     19  C   UNL A   1      44.145  33.653  24.837  1.00  0.00     0.027 C 
ATOM     20  C   UNL A   1      43.844  33.840  26.296  1.00  0.00     0.027 C 
ENDBRANCH  16  18
ENDBRANCH  13  14
ENDBRANCH  12  13
ENDBRANCH   6  12
ENDBRANCH   4   5
ENDBRANCH   2   4
ENDBRANCH   1   2
BRANCH   1  21
ATOM     21  C   UNL A   1      45.141  19.637  25.197  1.00  0.00     0.274 C 
BRANCH  21  22
ATOM     22  C   UNL A   1      43.758  19.050  24.890  1.00  0.00     0.275 C 
BRANCH  22  23
ATOM     23  O   UNL A   1      42.921  18.972  26.061  1.00  0.00    -0.458 OA
BRANCH  23  24
ATOM     24  C   UNL A   1      41.858  19.807  26.038  1.00  0.00     0.338 C 
ATOM     25  O   UNL A   1      40.714  19.523  25.733  1.00  0.00    -0.246 OA
BRANCH  24  26
ATOM     26  C   UNL A   1      42.211  21.131  26.562  1.00  0.00     0.060 A 
ATOM     27  C   UNL A   1      42.314  21.273  27.949  1.00  0.00     0.016 A 
ATOM     28  C   UNL A   1      42.351  22.231  25.716  1.00  0.00     0.016 A 
ATOM     29  C   UNL A   1      42.570  22.524  28.501  1.00  0.00     0.010 A 
ATOM     30  C   UNL A   1      42.613  23.485  26.271  1.00  0.00     0.010 A 
ATOM     31  C   UNL A   1      42.727  23.637  27.665  1.00  0.00    -0.014 A 
BRANCH  31  32
ATOM     32  C   UNL A   1      43.041  24.961  28.244  1.00  0.00     0.031 A 
ATOM     33  C   UNL A   1      41.958  25.973  28.459  1.00  0.00     0.074 A 
ATOM     34  C   UNL A   1      44.319  25.252  28.553  1.00  0.00     0.049 A 
ATOM     35  N   UNL A   1      42.060  27.218  28.848  1.00  0.00    -0.248 NA
ATOM     36  C   UNL A   1      40.580  25.528  28.204  1.00  0.00     0.031 C 
ATOM     37  C   UNL A   1      45.449  24.329  28.425  1.00  0.00     0.029 A 
ATOM     38  N   UNL A   1      44.880  26.409  29.025  1.00  0.00    -0.354 N 
ATOM     39  C   UNL A   1      40.762  27.714  28.867  1.00  0.00     0.074 A 
ATOM     40  C   UNL A   1      39.893  26.638  28.440  1.00  0.00     0.031 C 
ATOM     41  C   UNL A   1      46.572  24.960  28.804  1.00  0.00     0.029 A 
ATOM     42  C   UNL A   1      46.246  26.341  29.149  1.00  0.00     0.049 A 
ATOM     43  H   UNL A   1      44.357  27.211  29.254  1.00  0.00     0.167 HD
ATOM     44  C   UNL A   1      40.342  28.955  29.206  1.00  0.00     0.031 A 
ATOM     45  C   UNL A   1      47.140  27.293  29.469  1.00  0.00     0.031 A 
ATOM     46  C   UNL A   1      41.215  30.022  29.618  1.00  0.00     0.049 A 
ATOM     47  C   UNL A   1      46.653  28.684  29.762  1.00  0.00     0.074 A 
ATOM     48  C   UNL A   1      40.883  31.313  29.994  1.00  0.00     0.029 A 
ATOM     49  N   UNL A   1      42.596  29.924  29.700  1.00  0.00    -0.354 N 
ATOM     50  N   UNL A   1      45.425  29.140  29.783  1.00  0.00    -0.248 NA
ATOM     51  C   UNL A   1      47.677  29.691  30.072  1.00  0.00     0.031 C 
ATOM     52  C   UNL A   1      42.069  32.009  30.256  1.00  0.00     0.029 A 
ATOM     53  C   UNL A   1      43.133  31.137  30.094  1.00  0.00     0.049 A 
ATOM     54  H   UNL A   1      43.117  29.111  29.507  1.00  0.00     0.167 HD
ATOM     55  C   UNL A   1      45.525  30.480  30.130  1.00  0.00     0.074 A 
ATOM     56  C   UNL A   1      46.934  30.761  30.320  1.00  0.00     0.031 C 
ATOM     57  C   UNL A   1      44.537  31.396  30.277  1.00  0.00     0.031 A 
BRANCH  44  58
ATOM     58  C   UNL A   1      38.869  29.238  29.105  1.00  0.00    -0.014 A 
ATOM     59  C   UNL A   1      38.279  29.612  27.887  1.00  0.00     0.009 A 
ATOM     60  C   UNL A   1      38.055  29.091  30.239  1.00  0.00     0.009 A 
ATOM     61  C   UNL A   1      36.906  29.860  27.817  1.00  0.00     0.001 A 
ATOM     62  C   UNL A   1      36.680  29.316  30.159  1.00  0.00     0.001 A 
ATOM     63  C   UNL A   1      36.107  29.707  28.951  1.00  0.00     0.000 A 
ENDBRANCH  44  58
BRANCH  45  64
ATOM     64  C   UNL A   1      48.589  26.971  29.489  1.00  0.00    -0.014 A 
ATOM     65  C   UNL A   1      49.203  26.516  30.665  1.00  0.00     0.009 A 
ATOM     66  C   UNL A   1      49.364  27.108  28.327  1.00  0.00     0.009 A 
ATOM     67  C   UNL A   1      50.568  26.223  30.681  1.00  0.00     0.001 A 
ATOM     68  C   UNL A   1      50.723  26.787  28.337  1.00  0.00     0.001 A 
ATOM     69  C   UNL A   1      51.325  26.353  29.517  1.00  0.00     0.000 A 
ENDBRANCH  45  64
BRANCH  57  70
ATOM     70  C   UNL A   1      44.945  32.779  30.699  1.00  0.00    -0.014 A 
ATOM     71  C   UNL A   1      45.057  33.121  32.055  1.00  0.00     0.009 A 
ATOM     72  C   UNL A   1      45.265  33.736  29.724  1.00  0.00     0.009 A 
ATOM     73  C   UNL A   1      45.456  34.406  32.426  1.00  0.00     0.001 A 
ATOM     74  C   UNL A   1      45.688  35.012  30.098  1.00  0.00     0.001 A 
ATOM     75  C   UNL A   1      45.776  35.348  31.448  1.00  0.00     0.000 A 
ENDBRANCH  57  70
ENDBRANCH  31  32
ENDBRANCH  24  26
ENDBRANCH  23  24
ENDBRANCH  22  23
ENDBRANCH  21  22
ENDBRANCH   1  21
TORSDOF 16
ENDMDL
MODEL 2
REMARK VINA RESULT:      -8.3      0.535      6.171
REMARK SMILES O=C(CC[NH+]1CCC(CC(=O)OCCOC(=O)c2ccc(-c3c4nc(c(-c5ccccc5)c5ccc([nH]5)c(-c5ccccc5)c5nc(c(-c6ccccc6)c6ccc3[nH]6)C=C5)C=C4)cc2)CC1)NC1CC1
REMARK SMILES IDX 12 1 10 2 11 3 9 4 8 5 5 6 6 7 67 8 7 10 66 11 4 12 3 13
REMARK SMILES IDX 2 14 1 15 68 16 69 18 70 19 71 20 13 21 14 22 15 23 16 24
REMARK SMILES IDX 17 25 18 26 19 27 65 28 20 29 64 30 21 31 22 32 23 33 58 34
REMARK SMILES IDX 24 35 63 36 57 37 59 38 25 39 62 40 56 41 55 42 26 44 48 45
REMARK SMILES IDX 33 46 47 47 34 48 37 49 46 50 60 51 35 52 36 53 45 55 61 56
REMARK SMILES IDX 38 57 27 58 28 59 32 60 29 61 31 62 30 63 49 64 50 65 54 66
REMARK SMILES IDX 51 67 53 68 52 69 39 70 40 71 44 72 41 73 43 74 42 75
REMARK H PARENT 5 9 68 17 59 43 37 54
REMARK Flexibility Score: inf
ROOT
ATOM      1  O   UNL A   1      45.077  20.717  24.303  1.00  0.00    -0.462 OA
ENDROOT
BRANCH   1   2
ATOM      2  C   UNL A   1      45.614  21.746  25.003  1.00  0.00     0.306 C 
ATOM      3  O   UNL A   1      45.858  21.714  26.204  1.00  0.00    -0.252 OA
BRANCH   2   4
ATOM      4  C   UNL A   1      45.818  22.999  24.170  1.00  0.00     0.126 C 
BRANCH   4   5
ATOM      5  C   UNL A   1      46.203  24.293  24.906  1.00  0.00     0.011 C 
ATOM      6  N   UNL A   1      46.806  27.171  25.075  1.00  0.00    -0.334 N 
ATOM      7  C   UNL A   1      47.868  26.172  25.165  1.00  0.00     0.262 C 
ATOM      8  C   UNL A   1      45.464  26.687  25.387  1.00  0.00     0.262 C 
ATOM      9  H   UNL A   1      46.722  27.380  24.080  1.00  0.00     0.348 HD
ATOM     10  C   UNL A   1      47.529  24.883  24.418  1.00  0.00     0.066 C 
ATOM     11  C   UNL A   1      45.113  25.362  24.703  1.00  0.00     0.066 C 
BRANCH   6  12
ATOM     12  C   UNL A   1      47.175  28.450  25.708  1.00  0.00     0.272 C 
BRANCH  12  13
ATOM     13  C   UNL A   1      46.140  29.242  26.517  1.00  0.00     0.161 C 
BRANCH  13  14
ATOM     14  C   UNL A   1      46.313  30.746  26.477  1.00  0.00     0.225 C 
ATOM     15  O   UNL A   1      47.383  31.274  26.185  1.00  0.00    -0.275 OA
ATOM     16  N   UNL A   1      45.157  31.446  26.750  1.00  0.00    -0.353 N 
ATOM     17  H   UNL A   1      44.354  30.932  26.992  1.00  0.00     0.163 HD
BRANCH  16  18
ATOM     18  C   UNL A   1      45.052  32.866  26.705  1.00  0.00     0.082 C 
ATOM     19  C   UNL A   1      44.191  33.498  25.642  1.00  0.00     0.027 C 
ATOM     20  C   UNL A   1      43.776  33.562  27.083  1.00  0.00     0.027 C 
ENDBRANCH  16  18
ENDBRANCH  13  14
ENDBRANCH  12  13
ENDBRANCH   6  12
ENDBRANCH   4   5
ENDBRANCH   2   4
ENDBRANCH   1   2
BRANCH   1  21
ATOM     21  C   UNL A   1      45.103  19.415  24.925  1.00  0.00     0.274 C 
BRANCH  21  22
ATOM     22  C   UNL A   1      43.725  18.742  24.941  1.00  0.00     0.275 C 
BRANCH  22  23
ATOM     23  O   UNL A   1      43.057  18.884  26.210  1.00  0.00    -0.458 OA
BRANCH  23  24
ATOM     24  C   UNL A   1      41.921  19.614  26.158  1.00  0.00     0.338 C 
ATOM     25  O   UNL A   1      40.814  19.219  25.842  1.00  0.00    -0.246 OA
BRANCH  24  26
ATOM     26  C   UNL A   1      42.140  20.973  26.665  1.00  0.00     0.060 A 
ATOM     27  C   UNL A   1      42.216  22.010  25.730  1.00  0.00     0.016 A 
ATOM     28  C   UNL A   1      42.354  21.214  28.023  1.00  0.00     0.016 A 
ATOM     29  C   UNL A   1      42.498  23.305  26.153  1.00  0.00     0.010 A 
ATOM     30  C   UNL A   1      42.632  22.515  28.446  1.00  0.00     0.010 A 
ATOM     31  C   UNL A   1      42.703  23.567  27.514  1.00  0.00    -0.014 A 
BRANCH  31  32
ATOM     32  C   UNL A   1      42.961  24.949  27.973  1.00  0.00     0.031 A 
ATOM     33  C   UNL A   1      44.342  25.370  28.372  1.00  0.00     0.074 A 
ATOM     34  C   UNL A   1      41.934  25.815  28.047  1.00  0.00     0.049 A 
ATOM     35  N   UNL A   1      44.737  26.500  28.903  1.00  0.00    -0.248 NA
ATOM     36  C   UNL A   1      45.421  24.397  28.148  1.00  0.00     0.031 C 
ATOM     37  C   UNL A   1      40.556  25.526  27.644  1.00  0.00     0.029 A 
ATOM     38  N   UNL A   1      41.889  27.108  28.500  1.00  0.00    -0.354 N 
ATOM     39  C   UNL A   1      46.106  26.368  29.094  1.00  0.00     0.074 A 
ATOM     40  C   UNL A   1      46.472  25.045  28.632  1.00  0.00     0.031 C 
ATOM     41  C   UNL A   1      39.798  26.611  27.874  1.00  0.00     0.029 A 
ATOM     42  C   UNL A   1      40.626  27.646  28.487  1.00  0.00     0.049 A 
ATOM     43  H   UNL A   1      42.684  27.602  28.804  1.00  0.00     0.167 HD
ATOM     44  C   UNL A   1      46.973  27.269  29.612  1.00  0.00     0.031 A 
ATOM     45  C   UNL A   1      40.177  28.825  28.952  1.00  0.00     0.031 A 
ATOM     46  C   UNL A   1      46.599  28.578  30.079  1.00  0.00     0.049 A 
ATOM     47  C   UNL A   1      41.147  29.775  29.595  1.00  0.00     0.074 A 
ATOM     48  C   UNL A   1      47.407  29.569  30.611  1.00  0.00     0.029 A 
ATOM     49  N   UNL A   1      45.304  29.074  30.080  1.00  0.00    -0.354 N 
ATOM     50  N   UNL A   1      42.440  29.642  29.765  1.00  0.00    -0.248 NA
ATOM     51  C   UNL A   1      40.595  31.033  30.114  1.00  0.00     0.031 C 
ATOM     52  C   UNL A   1      46.593  30.646  30.977  1.00  0.00     0.029 A 
ATOM     53  C   UNL A   1      45.287  30.346  30.626  1.00  0.00     0.049 A 
ATOM     54  H   UNL A   1      44.515  28.593  29.742  1.00  0.00     0.167 HD
ATOM     55  C   UNL A   1      42.861  30.808  30.389  1.00  0.00     0.074 A 
ATOM     56  C   UNL A   1      41.687  31.641  30.559  1.00  0.00     0.031 C 
ATOM     57  C   UNL A   1      44.108  31.158  30.787  1.00  0.00     0.031 A 
BRANCH  44  58
ATOM     58  C   UNL A   1      48.412  26.852  29.738  1.00  0.00    -0.014 A 
ATOM     59  C   UNL A   1      48.906  26.283  30.922  1.00  0.00     0.009 A 
ATOM     60  C   UNL A   1      49.274  26.996  28.640  1.00  0.00     0.009 A 
ATOM     61  C   UNL A   1      50.245  25.893  31.012  1.00  0.00     0.001 A 
ATOM     62  C   UNL A   1      50.605  26.583  28.726  1.00  0.00     0.001 A 
ATOM     63  C   UNL A   1      51.092  26.040  29.912  1.00  0.00     0.000 A 
ENDBRANCH  44  58
BRANCH  45  64
ATOM     64  C   UNL A   1      38.733  29.156  28.858  1.00  0.00    -0.014 A 
ATOM     65  C   UNL A   1      38.178  29.594  27.647  1.00  0.00     0.009 A 
ATOM     66  C   UNL A   1      37.900  29.027  29.981  1.00  0.00     0.009 A 
ATOM     67  C   UNL A   1      36.820  29.911  27.567  1.00  0.00     0.001 A 
ATOM     68  C   UNL A   1      36.538  29.318  29.891  1.00  0.00     0.001 A 
ATOM     69  C   UNL A   1      36.000  29.768  28.687  1.00  0.00     0.000 A 
ENDBRANCH  45  64
BRANCH  57  70
ATOM     70  C   UNL A   1      44.272  32.514  31.410  1.00  0.00    -0.014 A 
ATOM     71  C   UNL A   1      44.517  33.651  30.624  1.00  0.00     0.009 A 
ATOM     72  C   UNL A   1      44.134  32.661  32.799  1.00  0.00     0.009 A 
ATOM     73  C   UNL A   1      44.647  34.905  31.222  1.00  0.00     0.001 A 
ATOM     74  C   UNL A   1      44.240  33.920  33.391  1.00  0.00     0.001 A 
ATOM     75  C   UNL A   1      44.503  35.040  32.603  1.00  0.00     0.000 A 
ENDBRANCH  57  70
ENDBRANCH  31  32
ENDBRANCH  24  26
ENDBRANCH  23  24
ENDBRANCH  22  23
ENDBRANCH  21  22
ENDBRANCH   1  21
TORSDOF 16
ENDMDL
MODEL 3
REMARK VINA RESULT:      -8.3      6.939     12.706
REMARK SMILES O=C(CC[NH+]1CCC(CC(=O)OCCOC(=O)c2ccc(-c3c4nc(c(-c5ccccc5)c5ccc([nH]5)c(-c5ccccc5)c5nc(c(-c6ccccc6)c6ccc3[nH]6)C=C5)C=C4)cc2)CC1)NC1CC1
REMARK SMILES IDX 12 1 10 2 11 3 9 4 8 5 5 6 6 7 67 8 7 10 66 11 4 12 3 13
REMARK SMILES IDX 2 14 1 15 68 16 69 18 70 19 71 20 13 21 14 22 15 23 16 24
REMARK SMILES IDX 17 25 18 26 19 27 65 28 20 29 64 30 21 31 22 32 23 33 58 34
REMARK SMILES IDX 24 35 63 36 57 37 59 38 25 39 62 40 56 41 55 42 26 44 48 45
REMARK SMILES IDX 33 46 47 47 34 48 37 49 46 50 60 51 35 52 36 53 45 55 61 56
REMARK SMILES IDX 38 57 27 58 28 59 32 60 29 61 31 62 30 63 49 64 50 65 54 66
REMARK SMILES IDX 51 67 53 68 52 69 39 70 40 71 44 72 41 73 43 74 42 75
REMARK H PARENT 5 9 68 17 59 43 37 54
REMARK Flexibility Score: inf
ROOT
ATOM      1  O   UNL A   1      33.832  33.846  29.285  1.00  0.00    -0.462 OA
ENDROOT
BRANCH   1   2
ATOM      2  C   UNL A   1      34.592  33.133  28.416  1.00  0.00     0.306 C 
ATOM      3  O   UNL A   1      35.341  33.630  27.583  1.00  0.00    -0.252 OA
BRANCH   2   4
ATOM      4  C   UNL A   1      34.367  31.635  28.511  1.00  0.00     0.126 C 
BRANCH   4   5
ATOM      5  C   UNL A   1      33.962  30.889  27.229  1.00  0.00     0.011 C 
ATOM      6  N   UNL A   1      32.534  28.812  25.705  1.00  0.00    -0.334 N 
ATOM      7  C   UNL A   1      33.973  28.719  25.941  1.00  0.00     0.262 C 
ATOM      8  C   UNL A   1      31.968  30.153  25.817  1.00  0.00     0.262 C 
ATOM      9  H   UNL A   1      32.104  28.340  26.500  1.00  0.00     0.348 HD
ATOM     10  C   UNL A   1      34.406  29.424  27.226  1.00  0.00     0.066 C 
ATOM     11  C   UNL A   1      32.431  30.914  27.063  1.00  0.00     0.066 C 
BRANCH   6  12
ATOM     12  C   UNL A   1      32.103  28.045  24.521  1.00  0.00     0.272 C 
BRANCH  12  13
ATOM     13  C   UNL A   1      30.917  27.078  24.615  1.00  0.00     0.161 C 
BRANCH  13  14
ATOM     14  C   UNL A   1      30.901  26.204  25.853  1.00  0.00     0.225 C 
ATOM     15  O   UNL A   1      30.642  26.653  26.967  1.00  0.00    -0.275 OA
ATOM     16  N   UNL A   1      31.154  24.874  25.598  1.00  0.00    -0.353 N 
ATOM     17  H   UNL A   1      31.369  24.615  24.673  1.00  0.00     0.163 HD
BRANCH  16  18
ATOM     18  C   UNL A   1      31.125  23.849  26.588  1.00  0.00     0.082 C 
ATOM     19  C   UNL A   1      30.556  22.503  26.224  1.00  0.00     0.027 C 
ATOM     20  C   UNL A   1      32.026  22.651  26.491  1.00  0.00     0.027 C 
ENDBRANCH  16  18
ENDBRANCH  13  14
ENDBRANCH  12  13
ENDBRANCH   6  12
ENDBRANCH   4   5
ENDBRANCH   2   4
ENDBRANCH   1   2
BRANCH   1  21
ATOM     21  C   UNL A   1      33.194  35.036  28.775  1.00  0.00     0.274 C 
BRANCH  21  22
ATOM     22  C   UNL A   1      32.901  36.063  29.876  1.00  0.00     0.275 C 
BRANCH  22  23
ATOM     23  O   UNL A   1      32.205  35.484  30.997  1.00  0.00    -0.458 OA
BRANCH  23  24
ATOM     24  C   UNL A   1      32.687  35.860  32.202  1.00  0.00     0.338 C 
ATOM     25  O   UNL A   1      32.206  36.687  32.956  1.00  0.00    -0.246 OA
BRANCH  24  26
ATOM     26  C   UNL A   1      33.843  35.044  32.590  1.00  0.00     0.060 A 
ATOM     27  C   UNL A   1      35.115  35.603  32.429  1.00  0.00     0.016 A 
ATOM     28  C   UNL A   1      33.688  33.725  33.018  1.00  0.00     0.016 A 
ATOM     29  C   UNL A   1      36.246  34.843  32.710  1.00  0.00     0.010 A 
ATOM     30  C   UNL A   1      34.824  32.966  33.304  1.00  0.00     0.010 A 
ATOM     31  C   UNL A   1      36.108  33.522  33.153  1.00  0.00    -0.014 A 
BRANCH  31  32
ATOM     32  C   UNL A   1      37.306  32.724  33.493  1.00  0.00     0.031 A 
ATOM     33  C   UNL A   1      38.041  32.967  34.775  1.00  0.00     0.074 A 
ATOM     34  C   UNL A   1      37.740  31.794  32.622  1.00  0.00     0.049 A 
ATOM     35  N   UNL A   1      39.169  32.448  35.189  1.00  0.00    -0.248 NA
ATOM     36  C   UNL A   1      37.430  33.918  35.716  1.00  0.00     0.031 C 
ATOM     37  C   UNL A   1      37.079  31.444  31.363  1.00  0.00     0.029 A 
ATOM     38  N   UNL A   1      38.845  30.984  32.660  1.00  0.00    -0.354 N 
ATOM     39  C   UNL A   1      39.414  33.021  36.430  1.00  0.00     0.074 A 
ATOM     40  C   UNL A   1      38.324  33.935  36.697  1.00  0.00     0.031 C 
ATOM     41  C   UNL A   1      37.797  30.492  30.744  1.00  0.00     0.029 A 
ATOM     42  C   UNL A   1      38.989  30.208  31.537  1.00  0.00     0.049 A 
ATOM     43  H   UNL A   1      39.473  30.961  33.418  1.00  0.00     0.167 HD
ATOM     44  C   UNL A   1      40.458  32.803  37.265  1.00  0.00     0.031 A 
ATOM     45  C   UNL A   1      39.990  29.387  31.169  1.00  0.00     0.031 A 
ATOM     46  C   UNL A   1      41.544  31.901  36.986  1.00  0.00     0.049 A 
ATOM     47  C   UNL A   1      41.175  29.226  32.077  1.00  0.00     0.074 A 
ATOM     48  C   UNL A   1      42.643  31.603  37.774  1.00  0.00     0.029 A 
ATOM     49  N   UNL A   1      41.672  31.157  35.823  1.00  0.00    -0.354 N 
ATOM     50  N   UNL A   1      41.394  29.768  33.250  1.00  0.00    -0.248 NA
ATOM     51  C   UNL A   1      42.252  28.344  31.608  1.00  0.00     0.031 C 
ATOM     52  C   UNL A   1      43.460  30.715  37.065  1.00  0.00     0.029 A 
ATOM     53  C   UNL A   1      42.844  30.421  35.860  1.00  0.00     0.049 A 
ATOM     54  H   UNL A   1      41.025  31.152  35.081  1.00  0.00     0.167 HD
ATOM     55  C   UNL A   1      42.622  29.276  33.671  1.00  0.00     0.074 A 
ATOM     56  C   UNL A   1      43.095  28.383  32.631  1.00  0.00     0.031 C 
ATOM     57  C   UNL A   1      43.297  29.539  34.815  1.00  0.00     0.031 A 
BRANCH  44  58
ATOM     58  C   UNL A   1      40.496  33.589  38.545  1.00  0.00    -0.014 A 
ATOM     59  C   UNL A   1      39.906  33.100  39.721  1.00  0.00     0.009 A 
ATOM     60  C   UNL A   1      41.167  34.822  38.582  1.00  0.00     0.009 A 
ATOM     61  C   UNL A   1      39.963  33.845  40.901  1.00  0.00     0.001 A 
ATOM     62  C   UNL A   1      41.243  35.552  39.770  1.00  0.00     0.001 A 
ATOM     63  C   UNL A   1      40.635  35.068  40.925  1.00  0.00     0.000 A 
ENDBRANCH  44  58
BRANCH  45  64
ATOM     64  C   UNL A   1      39.927  28.686  29.862  1.00  0.00    -0.014 A 
ATOM     65  C   UNL A   1      39.422  27.381  29.774  1.00  0.00     0.009 A 
ATOM     66  C   UNL A   1      40.368  29.325  28.691  1.00  0.00     0.009 A 
ATOM     67  C   UNL A   1      39.374  26.724  28.543  1.00  0.00     0.001 A 
ATOM     68  C   UNL A   1      40.293  28.676  27.458  1.00  0.00     0.001 A 
ATOM     69  C   UNL A   1      39.804  27.373  27.386  1.00  0.00     0.000 A 
ENDBRANCH  45  64
BRANCH  57  70
ATOM     70  C   UNL A   1      44.602  28.825  35.019  1.00  0.00    -0.014 A 
ATOM     71  C   UNL A   1      44.646  27.532  35.564  1.00  0.00     0.009 A 
ATOM     72  C   UNL A   1      45.799  29.438  34.619  1.00  0.00     0.009 A 
ATOM     73  C   UNL A   1      45.868  26.878  35.727  1.00  0.00     0.001 A 
ATOM     74  C   UNL A   1      47.017  28.773  34.761  1.00  0.00     0.001 A 
ATOM     75  C   UNL A   1      47.051  27.496  35.321  1.00  0.00     0.000 A 
ENDBRANCH  57  70
ENDBRANCH  31  32
ENDBRANCH  24  26
ENDBRANCH  23  24
ENDBRANCH  22  23
ENDBRANCH  21  22
ENDBRANCH   1  21
TORSDOF 16
ENDMDL
