MODEL 1
REMARK VINA RESULT:      -9.6      0.000      0.000
REMARK SMILES CC[C@@H](C)SCc1cc(F)cc(/C=C/C(=O)OCCOC(=O)c2ccc(-c3c4nc(c(-c5ccccc5)c5ccc([nH]5)c(-c5ccccc5)c5nc(c(-c6ccccc6)c6ccc3[nH]6)C=C5)C=C4)cc2)c1
REMARK SMILES IDX 17 1 15 2 16 3 14 4 13 5 12 6 7 7 8 8 71 9 9 10 10 11 11 12
REMARK SMILES IDX 6 13 5 14 3 15 4 16 2 17 1 18 18 19 19 20 20 21 21 22 22 23
REMARK SMILES IDX 23 24 24 25 70 26 25 27 69 28 26 29 27 30 28 31 63 32 29 33
REMARK SMILES IDX 68 34 62 35 64 36 30 37 67 38 61 39 60 40 31 42 53 43 38 44
REMARK SMILES IDX 52 45 39 46 42 47 51 48 65 49 40 50 41 51 50 53 66 54 43 55
REMARK SMILES IDX 32 56 33 57 37 58 34 59 36 60 35 61 54 62 55 63 59 64 56 65
REMARK SMILES IDX 58 66 57 67 44 68 45 69 49 70 46 71 48 72 47 73
REMARK H PARENT 64 41 42 52
REMARK Flexibility Score: inf
ROOT
ATOM      1  O   UNL A   1      34.473  34.900  31.367  1.00  0.00    -0.459 OA
ENDROOT
BRANCH   1   2
ATOM      2  C   UNL A   1      33.671  34.609  30.317  1.00  0.00     0.330 C 
ATOM      3  O   UNL A   1      32.684  35.237  29.964  1.00  0.00    -0.247 OA
BRANCH   2   4
ATOM      4  C   UNL A   1      34.200  33.495  29.499  1.00  0.00     0.094 C 
ATOM      5  C   UNL A   1      33.653  33.031  28.364  1.00  0.00     0.016 C 
BRANCH   5   6
ATOM      6  C   UNL A   1      34.052  31.742  27.774  1.00  0.00    -0.022 A 
ATOM      7  C   UNL A   1      33.533  29.721  26.471  1.00  0.00    -0.035 A 
ATOM      8  C   UNL A   1      34.685  29.127  26.996  1.00  0.00     0.043 A 
ATOM      9  C   UNL A   1      33.211  31.031  26.903  1.00  0.00     0.013 A 
ATOM     10  C   UNL A   1      35.544  29.847  27.809  1.00  0.00     0.124 A 
ATOM     11  F   UNL A   1      36.677  29.279  28.244  1.00  0.00    -0.207 F 
ATOM     12  C   UNL A   1      35.242  31.140  28.194  1.00  0.00     0.047 A 
BRANCH   7  13
ATOM     13  C   UNL A   1      32.600  29.027  25.501  1.00  0.00     0.105 C 
BRANCH  13  14
ATOM     14  S   UNL A   1      31.631  27.595  26.085  1.00  0.00    -0.154 SA
BRANCH  14  15
ATOM     15  C   UNL A   1      30.846  26.898  24.560  1.00  0.00     0.043 C 
ATOM     16  C   UNL A   1      30.238  27.971  23.661  1.00  0.00     0.019 C 
BRANCH  15  17
ATOM     17  C   UNL A   1      29.890  25.732  24.846  1.00  0.00     0.011 C 
ATOM     18  C   UNL A   1      30.293  24.924  26.075  1.00  0.00     0.005 C 
ENDBRANCH  15  17
ENDBRANCH  14  15
ENDBRANCH  13  14
ENDBRANCH   7  13
ENDBRANCH   5   6
ENDBRANCH   2   4
ENDBRANCH   1   2
BRANCH   1  19
ATOM     19  C   UNL A   1      33.866  34.821  32.672  1.00  0.00     0.275 C 
BRANCH  19  20
ATOM     20  C   UNL A   1      34.023  33.421  33.274  1.00  0.00     0.275 C 
BRANCH  20  21
ATOM     21  O   UNL A   1      35.014  32.638  32.579  1.00  0.00    -0.458 OA
BRANCH  21  22
ATOM     22  C   UNL A   1      36.195  32.505  33.225  1.00  0.00     0.338 C 
ATOM     23  O   UNL A   1      36.410  32.693  34.414  1.00  0.00    -0.246 OA
BRANCH  22  24
ATOM     24  C   UNL A   1      37.223  31.967  32.314  1.00  0.00     0.060 A 
ATOM     25  C   UNL A   1      38.224  31.171  32.875  1.00  0.00     0.016 A 
ATOM     26  C   UNL A   1      37.260  32.285  30.956  1.00  0.00     0.016 A 
ATOM     27  C   UNL A   1      39.277  30.703  32.093  1.00  0.00     0.010 A 
ATOM     28  C   UNL A   1      38.314  31.806  30.164  1.00  0.00     0.010 A 
ATOM     29  C   UNL A   1      39.334  31.021  30.730  1.00  0.00    -0.014 A 
BRANCH  29  30
ATOM     30  C   UNL A   1      40.469  30.526  29.915  1.00  0.00     0.031 A 
ATOM     31  C   UNL A   1      41.664  31.398  29.660  1.00  0.00     0.074 A 
ATOM     32  C   UNL A   1      40.441  29.268  29.433  1.00  0.00     0.049 A 
ATOM     33  N   UNL A   1      42.752  31.129  28.981  1.00  0.00    -0.248 NA
ATOM     34  C   UNL A   1      41.635  32.746  30.245  1.00  0.00     0.031 C 
ATOM     35  C   UNL A   1      39.354  28.310  29.637  1.00  0.00     0.029 A 
ATOM     36  N   UNL A   1      41.359  28.582  28.679  1.00  0.00    -0.354 N 
ATOM     37  C   UNL A   1      43.534  32.273  29.052  1.00  0.00     0.074 A 
ATOM     38  C   UNL A   1      42.787  33.247  29.819  1.00  0.00     0.031 C 
ATOM     39  C   UNL A   1      39.673  27.154  29.032  1.00  0.00     0.029 A 
ATOM     40  C   UNL A   1      40.967  27.302  28.371  1.00  0.00     0.049 A 
ATOM     41  H   UNL A   1      42.216  28.969  28.388  1.00  0.00     0.167 HD
ATOM     42  C   UNL A   1      44.766  32.491  28.532  1.00  0.00     0.031 A 
ATOM     43  C   UNL A   1      41.574  26.359  27.628  1.00  0.00     0.031 A 
ATOM     44  C   UNL A   1      45.511  31.530  27.761  1.00  0.00     0.049 A 
ATOM     45  C   UNL A   1      42.911  26.650  27.006  1.00  0.00     0.074 A 
ATOM     46  C   UNL A   1      46.775  31.659  27.208  1.00  0.00     0.029 A 
ATOM     47  N   UNL A   1      45.059  30.263  27.429  1.00  0.00    -0.354 N 
ATOM     48  N   UNL A   1      43.649  27.730  27.100  1.00  0.00    -0.248 NA
ATOM     49  C   UNL A   1      43.500  25.589  26.177  1.00  0.00     0.031 C 
ATOM     50  C   UNL A   1      47.066  30.487  26.501  1.00  0.00     0.029 A 
ATOM     51  C   UNL A   1      46.005  29.610  26.656  1.00  0.00     0.049 A 
ATOM     52  H   UNL A   1      44.193  29.882  27.702  1.00  0.00     0.167 HD
ATOM     53  C   UNL A   1      44.794  27.471  26.359  1.00  0.00     0.074 A 
ATOM     54  C   UNL A   1      44.663  26.127  25.836  1.00  0.00     0.031 C 
ATOM     55  C   UNL A   1      45.860  28.277  26.133  1.00  0.00     0.031 A 
BRANCH  42  56
ATOM     56  C   UNL A   1      45.378  33.845  28.753  1.00  0.00    -0.014 A 
ATOM     57  C   UNL A   1      45.115  34.913  27.882  1.00  0.00     0.009 A 
ATOM     58  C   UNL A   1      46.195  34.065  29.873  1.00  0.00     0.009 A 
ATOM     59  C   UNL A   1      45.682  36.169  28.112  1.00  0.00     0.001 A 
ATOM     60  C   UNL A   1      46.743  35.327  30.113  1.00  0.00     0.001 A 
ATOM     61  C   UNL A   1      46.492  36.375  29.229  1.00  0.00     0.000 A 
ENDBRANCH  42  56
BRANCH  43  62
ATOM     62  C   UNL A   1      40.913  25.047  27.412  1.00  0.00    -0.014 A 
ATOM     63  C   UNL A   1      41.370  23.899  28.076  1.00  0.00     0.009 A 
ATOM     64  C   UNL A   1      39.826  24.938  26.532  1.00  0.00     0.009 A 
ATOM     65  C   UNL A   1      40.763  22.661  27.845  1.00  0.00     0.001 A 
ATOM     66  C   UNL A   1      39.205  23.705  26.323  1.00  0.00     0.001 A 
ATOM     67  C   UNL A   1      39.679  22.567  26.973  1.00  0.00     0.000 A 
ENDBRANCH  43  62
BRANCH  55  68
ATOM     68  C   UNL A   1      46.975  27.717  25.297  1.00  0.00    -0.014 A 
ATOM     69  C   UNL A   1      47.010  27.913  23.908  1.00  0.00     0.009 A 
ATOM     70  C   UNL A   1      48.017  27.005  25.911  1.00  0.00     0.009 A 
ATOM     71  C   UNL A   1      48.051  27.378  23.146  1.00  0.00     0.001 A 
ATOM     72  C   UNL A   1      49.069  26.493  25.151  1.00  0.00     0.001 A 
ATOM     73  C   UNL A   1      49.080  26.672  23.767  1.00  0.00     0.000 A 
ENDBRANCH  55  68
ENDBRANCH  29  30
ENDBRANCH  22  24
ENDBRANCH  21  22
ENDBRANCH  20  21
ENDBRANCH  19  20
ENDBRANCH   1  19
TORSDOF 16
ENDMDL
MODEL 2
REMARK VINA RESULT:      -9.5      4.367      9.144
REMARK SMILES CC[C@@H](C)SCc1cc(F)cc(/C=C/C(=O)OCCOC(=O)c2ccc(-c3c4nc(c(-c5ccccc5)c5ccc([nH]5)c(-c5ccccc5)c5nc(c(-c6ccccc6)c6ccc3[nH]6)C=C5)C=C4)cc2)c1
REMARK SMILES IDX 17 1 15 2 16 3 14 4 13 5 12 6 7 7 8 8 71 9 9 10 10 11 11 12
REMARK SMILES IDX 6 13 5 14 3 15 4 16 2 17 1 18 18 19 19 20 20 21 21 22 22 23
REMARK SMILES IDX 23 24 24 25 70 26 25 27 69 28 26 29 27 30 28 31 63 32 29 33
REMARK SMILES IDX 68 34 62 35 64 36 30 37 67 38 61 39 60 40 31 42 53 43 38 44
REMARK SMILES IDX 52 45 39 46 42 47 51 48 65 49 40 50 41 51 50 53 66 54 43 55
REMARK SMILES IDX 32 56 33 57 37 58 34 59 36 60 35 61 54 62 55 63 59 64 56 65
REMARK SMILES IDX 58 66 57 67 44 68 45 69 49 70 46 71 48 72 47 73
REMARK H PARENT 64 41 42 52
REMARK Flexibility Score: inf
ROOT
ATOM      1  O   UNL A   1      37.823  21.861  24.675  1.00  0.00    -0.459 OA
ENDROOT
BRANCH   1   2
ATOM      2  C   UNL A   1      37.630  22.772  25.656  1.00  0.00     0.330 C 
ATOM      3  O   UNL A   1      38.461  23.145  26.471  1.00  0.00    -0.247 OA
BRANCH   2   4
ATOM      4  C   UNL A   1      36.304  23.423  25.564  1.00  0.00     0.094 C 
ATOM      5  C   UNL A   1      35.290  23.257  26.427  1.00  0.00     0.016 C 
BRANCH   5   6
ATOM      6  C   UNL A   1      33.917  23.688  26.114  1.00  0.00    -0.022 A 
ATOM      7  C   UNL A   1      32.345  25.269  25.077  1.00  0.00    -0.035 A 
ATOM      8  C   UNL A   1      31.325  24.717  25.860  1.00  0.00     0.043 A 
ATOM      9  C   UNL A   1      33.655  24.758  25.244  1.00  0.00     0.013 A 
ATOM     10  C   UNL A   1      31.572  23.625  26.674  1.00  0.00     0.124 A 
ATOM     11  F   UNL A   1      30.565  23.071  27.363  1.00  0.00    -0.207 F 
ATOM     12  C   UNL A   1      32.848  23.108  26.802  1.00  0.00     0.047 A 
BRANCH   7  13
ATOM     13  C   UNL A   1      32.126  26.400  24.093  1.00  0.00     0.105 C 
BRANCH  13  14
ATOM     14  S   UNL A   1      30.776  27.587  24.406  1.00  0.00    -0.154 SA
BRANCH  14  15
ATOM     15  C   UNL A   1      31.515  28.864  25.525  1.00  0.00     0.043 C 
ATOM     16  C   UNL A   1      32.674  29.620  24.881  1.00  0.00     0.019 C 
BRANCH  15  17
ATOM     17  C   UNL A   1      31.844  28.329  26.926  1.00  0.00     0.011 C 
ATOM     18  C   UNL A   1      33.343  28.272  27.200  1.00  0.00     0.005 C 
ENDBRANCH  15  17
ENDBRANCH  14  15
ENDBRANCH  13  14
ENDBRANCH   7  13
ENDBRANCH   5   6
ENDBRANCH   2   4
ENDBRANCH   1   2
BRANCH   1  19
ATOM     19  C   UNL A   1      37.585  20.484  25.029  1.00  0.00     0.275 C 
BRANCH  19  20
ATOM     20  C   UNL A   1      38.854  19.640  24.867  1.00  0.00     0.275 C 
BRANCH  20  21
ATOM     21  O   UNL A   1      39.551  19.461  26.116  1.00  0.00    -0.458 OA
BRANCH  21  22
ATOM     22  C   UNL A   1      40.884  19.688  26.066  1.00  0.00     0.338 C 
ATOM     23  O   UNL A   1      41.732  18.979  25.544  1.00  0.00    -0.246 OA
BRANCH  22  24
ATOM     24  C   UNL A   1      41.203  21.010  26.637  1.00  0.00     0.060 A 
ATOM     25  C   UNL A   1      41.671  21.991  25.761  1.00  0.00     0.016 A 
ATOM     26  C   UNL A   1      41.121  21.273  28.005  1.00  0.00     0.016 A 
ATOM     27  C   UNL A   1      42.077  23.233  26.242  1.00  0.00     0.010 A 
ATOM     28  C   UNL A   1      41.520  22.527  28.491  1.00  0.00     0.010 A 
ATOM     29  C   UNL A   1      42.010  23.511  27.613  1.00  0.00    -0.014 A 
BRANCH  29  30
ATOM     30  C   UNL A   1      42.459  24.834  28.110  1.00  0.00     0.031 A 
ATOM     31  C   UNL A   1      41.470  25.938  28.344  1.00  0.00     0.074 A 
ATOM     32  C   UNL A   1      43.762  25.029  28.390  1.00  0.00     0.049 A 
ATOM     33  N   UNL A   1      41.679  27.153  28.786  1.00  0.00    -0.248 NA
ATOM     34  C   UNL A   1      40.062  25.638  28.047  1.00  0.00     0.031 C 
ATOM     35  C   UNL A   1      44.819  24.028  28.237  1.00  0.00     0.029 A 
ATOM     36  N   UNL A   1      44.415  26.138  28.869  1.00  0.00    -0.354 N 
ATOM     37  C   UNL A   1      40.434  27.765  28.815  1.00  0.00     0.074 A 
ATOM     38  C   UNL A   1      39.477  26.796  28.323  1.00  0.00     0.031 C 
ATOM     39  C   UNL A   1      45.987  24.565  28.626  1.00  0.00     0.029 A 
ATOM     40  C   UNL A   1      45.767  25.954  29.021  1.00  0.00     0.049 A 
ATOM     41  H   UNL A   1      43.957  26.983  29.082  1.00  0.00     0.167 HD
ATOM     42  C   UNL A   1      40.114  29.018  29.219  1.00  0.00     0.031 A 
ATOM     43  C   UNL A   1      46.725  26.811  29.419  1.00  0.00     0.031 A 
ATOM     44  C   UNL A   1      41.062  29.990  29.700  1.00  0.00     0.049 A 
ATOM     45  C   UNL A   1      46.351  28.216  29.799  1.00  0.00     0.074 A 
ATOM     46  C   UNL A   1      40.824  31.279  30.148  1.00  0.00     0.029 A 
ATOM     47  N   UNL A   1      42.429  29.781  29.793  1.00  0.00    -0.354 N 
ATOM     48  N   UNL A   1      45.166  28.774  29.842  1.00  0.00    -0.248 NA
ATOM     49  C   UNL A   1      47.452  29.110  30.190  1.00  0.00     0.031 C 
ATOM     50  C   UNL A   1      42.054  31.866  30.466  1.00  0.00     0.029 A 
ATOM     51  C   UNL A   1      43.051  30.926  30.264  1.00  0.00     0.049 A 
ATOM     52  H   UNL A   1      42.889  28.944  29.560  1.00  0.00     0.167 HD
ATOM     53  C   UNL A   1      45.375  30.075  30.280  1.00  0.00     0.074 A 
ATOM     54  C   UNL A   1      46.799  30.219  30.507  1.00  0.00     0.031 C 
ATOM     55  C   UNL A   1      44.468  31.062  30.476  1.00  0.00     0.031 A 
BRANCH  42  56
ATOM     56  C   UNL A   1      38.672  29.425  29.126  1.00  0.00    -0.014 A 
ATOM     57  C   UNL A   1      38.139  29.951  27.939  1.00  0.00     0.009 A 
ATOM     58  C   UNL A   1      37.823  29.240  30.229  1.00  0.00     0.009 A 
ATOM     59  C   UNL A   1      36.791  30.310  27.868  1.00  0.00     0.001 A 
ATOM     60  C   UNL A   1      36.472  29.580  30.149  1.00  0.00     0.001 A 
ATOM     61  C   UNL A   1      35.958  30.122  28.971  1.00  0.00     0.000 A 
ENDBRANCH  42  56
BRANCH  43  62
ATOM     62  C   UNL A   1      48.142  26.370  29.463  1.00  0.00    -0.014 A 
ATOM     63  C   UNL A   1      48.968  26.503  28.338  1.00  0.00     0.009 A 
ATOM     64  C   UNL A   1      48.671  25.803  30.633  1.00  0.00     0.009 A 
ATOM     65  C   UNL A   1      50.291  26.057  28.377  1.00  0.00     0.001 A 
ATOM     66  C   UNL A   1      50.001  25.383  30.678  1.00  0.00     0.001 A 
ATOM     67  C   UNL A   1      50.808  25.503  29.547  1.00  0.00     0.000 A 
ENDBRANCH  43  62
BRANCH  55  68
ATOM     68  C   UNL A   1      44.987  32.378  30.978  1.00  0.00    -0.014 A 
ATOM     69  C   UNL A   1      45.104  32.635  32.353  1.00  0.00     0.009 A 
ATOM     70  C   UNL A   1      45.388  33.365  30.064  1.00  0.00     0.009 A 
ATOM     71  C   UNL A   1      45.582  33.868  32.803  1.00  0.00     0.001 A 
ATOM     72  C   UNL A   1      45.889  34.587  30.515  1.00  0.00     0.001 A 
ATOM     73  C   UNL A   1      45.977  34.841  31.884  1.00  0.00     0.000 A 
ENDBRANCH  55  68
ENDBRANCH  29  30
ENDBRANCH  22  24
ENDBRANCH  21  22
ENDBRANCH  20  21
ENDBRANCH  19  20
ENDBRANCH   1  19
TORSDOF 16
ENDMDL
MODEL 3
REMARK VINA RESULT:      -9.5      4.993      9.723
REMARK SMILES CC[C@@H](C)SCc1cc(F)cc(/C=C/C(=O)OCCOC(=O)c2ccc(-c3c4nc(c(-c5ccccc5)c5ccc([nH]5)c(-c5ccccc5)c5nc(c(-c6ccccc6)c6ccc3[nH]6)C=C5)C=C4)cc2)c1
REMARK SMILES IDX 17 1 15 2 16 3 14 4 13 5 12 6 7 7 8 8 71 9 9 10 10 11 11 12
REMARK SMILES IDX 6 13 5 14 3 15 4 16 2 17 1 18 18 19 19 20 20 21 21 22 22 23
REMARK SMILES IDX 23 24 24 25 70 26 25 27 69 28 26 29 27 30 28 31 63 32 29 33
REMARK SMILES IDX 68 34 62 35 64 36 30 37 67 38 61 39 60 40 31 42 53 43 38 44
REMARK SMILES IDX 52 45 39 46 42 47 51 48 65 49 40 50 41 51 50 53 66 54 43 55
REMARK SMILES IDX 32 56 33 57 37 58 34 59 36 60 35 61 54 62 55 63 59 64 56 65
REMARK SMILES IDX 58 66 57 67 44 68 45 69 49 70 46 71 48 72 47 73
REMARK H PARENT 64 41 42 52
REMARK Flexibility Score: inf
ROOT
ATOM      1  O   UNL A   1      39.115  22.232  26.016  1.00  0.00    -0.459 OA
ENDROOT
BRANCH   1   2
ATOM      2  C   UNL A   1      38.103  23.120  26.147  1.00  0.00     0.330 C 
ATOM      3  O   UNL A   1      38.103  24.118  26.853  1.00  0.00    -0.247 OA
BRANCH   2   4
ATOM      4  C   UNL A   1      36.995  22.852  25.203  1.00  0.00     0.094 C 
ATOM      5  C   UNL A   1      36.040  23.728  24.851  1.00  0.00     0.016 C 
BRANCH   5   6
ATOM      6  C   UNL A   1      34.812  23.307  24.156  1.00  0.00    -0.022 A 
ATOM      7  C   UNL A   1      33.129  21.599  23.608  1.00  0.00    -0.035 A 
ATOM      8  C   UNL A   1      32.718  22.395  22.534  1.00  0.00     0.043 A 
ATOM      9  C   UNL A   1      34.212  22.061  24.396  1.00  0.00     0.013 A 
ATOM     10  C   UNL A   1      33.271  23.649  22.332  1.00  0.00     0.124 A 
ATOM     11  F   UNL A   1      32.814  24.422  21.338  1.00  0.00    -0.207 F 
ATOM     12  C   UNL A   1      34.302  24.108  23.130  1.00  0.00     0.047 A 
BRANCH   7  13
ATOM     13  C   UNL A   1      32.503  20.262  23.947  1.00  0.00     0.105 C 
BRANCH  13  14
ATOM     14  S   UNL A   1      33.269  19.237  25.248  1.00  0.00    -0.154 SA
BRANCH  14  15
ATOM     15  C   UNL A   1      33.928  17.753  24.358  1.00  0.00     0.043 C 
ATOM     16  C   UNL A   1      33.192  17.469  23.052  1.00  0.00     0.019 C 
BRANCH  15  17
ATOM     17  C   UNL A   1      34.068  16.517  25.257  1.00  0.00     0.011 C 
ATOM     18  C   UNL A   1      32.865  15.583  25.170  1.00  0.00     0.005 C 
ENDBRANCH  15  17
ENDBRANCH  14  15
ENDBRANCH  13  14
ENDBRANCH   7  13
ENDBRANCH   5   6
ENDBRANCH   2   4
ENDBRANCH   1   2
BRANCH   1  19
ATOM     19  C   UNL A   1      38.787  20.986  25.370  1.00  0.00     0.275 C 
BRANCH  19  20
ATOM     20  C   UNL A   1      39.566  19.818  25.986  1.00  0.00     0.275 C 
BRANCH  20  21
ATOM     21  O   UNL A   1      40.819  19.585  25.312  1.00  0.00    -0.458 OA
BRANCH  21  22
ATOM     22  C   UNL A   1      41.898  19.497  26.124  1.00  0.00     0.338 C 
ATOM     23  O   UNL A   1      42.479  18.478  26.468  1.00  0.00    -0.246 OA
BRANCH  22  24
ATOM     24  C   UNL A   1      42.392  20.842  26.473  1.00  0.00     0.060 A 
ATOM     25  C   UNL A   1      42.390  21.195  27.824  1.00  0.00     0.016 A 
ATOM     26  C   UNL A   1      42.780  21.771  25.506  1.00  0.00     0.016 A 
ATOM     27  C   UNL A   1      42.757  22.479  28.220  1.00  0.00     0.010 A 
ATOM     28  C   UNL A   1      43.161  23.061  25.904  1.00  0.00     0.010 A 
ATOM     29  C   UNL A   1      43.141  23.426  27.262  1.00  0.00    -0.014 A 
BRANCH  29  30
ATOM     30  C   UNL A   1      43.516  24.792  27.700  1.00  0.00     0.031 A 
ATOM     31  C   UNL A   1      42.459  25.809  28.019  1.00  0.00     0.074 A 
ATOM     32  C   UNL A   1      44.817  25.107  27.848  1.00  0.00     0.049 A 
ATOM     33  N   UNL A   1      42.600  27.046  28.426  1.00  0.00    -0.248 NA
ATOM     34  C   UNL A   1      41.061  25.380  27.863  1.00  0.00     0.031 C 
ATOM     35  C   UNL A   1      45.939  24.201  27.602  1.00  0.00     0.029 A 
ATOM     36  N   UNL A   1      45.410  26.278  28.250  1.00  0.00    -0.354 N 
ATOM     37  C   UNL A   1      41.314  27.546  28.570  1.00  0.00     0.074 A 
ATOM     38  C   UNL A   1      40.404  26.487  28.184  1.00  0.00     0.031 C 
ATOM     39  C   UNL A   1      47.087  24.846  27.869  1.00  0.00     0.029 A 
ATOM     40  C   UNL A   1      46.782  26.217  28.270  1.00  0.00     0.049 A 
ATOM     41  H   UNL A   1      44.901  27.083  28.499  1.00  0.00     0.167 HD
ATOM     42  C   UNL A   1      40.923  28.773  28.992  1.00  0.00     0.031 A 
ATOM     43  C   UNL A   1      47.693  27.163  28.564  1.00  0.00     0.031 A 
ATOM     44  C   UNL A   1      41.822  29.833  29.368  1.00  0.00     0.049 A 
ATOM     45  C   UNL A   1      47.234  28.537  28.965  1.00  0.00     0.074 A 
ATOM     46  C   UNL A   1      41.513  31.105  29.825  1.00  0.00     0.029 A 
ATOM     47  N   UNL A   1      43.204  29.748  29.329  1.00  0.00    -0.354 N 
ATOM     48  N   UNL A   1      46.013  28.988  29.118  1.00  0.00    -0.248 NA
ATOM     49  C   UNL A   1      48.282  29.531  29.238  1.00  0.00     0.031 C 
ATOM     50  C   UNL A   1      42.710  31.804  30.014  1.00  0.00     0.029 A 
ATOM     51  C   UNL A   1      43.763  30.952  29.724  1.00  0.00     0.049 A 
ATOM     52  H   UNL A   1      43.713  28.950  29.059  1.00  0.00     0.167 HD
ATOM     53  C   UNL A   1      46.146  30.310  29.521  1.00  0.00     0.074 A 
ATOM     54  C   UNL A   1      47.566  30.584  29.606  1.00  0.00     0.031 C 
ATOM     55  C   UNL A   1      45.176  31.216  29.795  1.00  0.00     0.031 A 
BRANCH  42  56
ATOM     56  C   UNL A   1      39.447  29.049  29.037  1.00  0.00    -0.014 A 
ATOM     57  C   UNL A   1      38.762  29.526  27.909  1.00  0.00     0.009 A 
ATOM     58  C   UNL A   1      38.725  28.787  30.212  1.00  0.00     0.009 A 
ATOM     59  C   UNL A   1      37.386  29.764  27.967  1.00  0.00     0.001 A 
ATOM     60  C   UNL A   1      37.347  29.004  30.260  1.00  0.00     0.001 A 
ATOM     61  C   UNL A   1      36.680  29.499  29.140  1.00  0.00     0.000 A 
ENDBRANCH  42  56
BRANCH  43  62
ATOM     62  C   UNL A   1      49.142  26.849  28.474  1.00  0.00    -0.014 A 
ATOM     63  C   UNL A   1      49.828  26.983  27.257  1.00  0.00     0.009 A 
ATOM     64  C   UNL A   1      49.842  26.406  29.606  1.00  0.00     0.009 A 
ATOM     65  C   UNL A   1      51.183  26.656  27.172  1.00  0.00     0.001 A 
ATOM     66  C   UNL A   1      51.203  26.106  29.524  1.00  0.00     0.001 A 
ATOM     67  C   UNL A   1      51.870  26.223  28.306  1.00  0.00     0.000 A 
ENDBRANCH  43  62
BRANCH  55  68
ATOM     68  C   UNL A   1      45.622  32.583  30.231  1.00  0.00    -0.014 A 
ATOM     69  C   UNL A   1      45.857  32.872  31.585  1.00  0.00     0.009 A 
ATOM     70  C   UNL A   1      45.832  33.587  29.274  1.00  0.00     0.009 A 
ATOM     71  C   UNL A   1      46.264  34.150  31.973  1.00  0.00     0.001 A 
ATOM     72  C   UNL A   1      46.263  34.856  29.662  1.00  0.00     0.001 A 
ATOM     73  C   UNL A   1      46.469  35.139  31.012  1.00  0.00     0.000 A 
ENDBRANCH  55  68
ENDBRANCH  29  30
ENDBRANCH  22  24
ENDBRANCH  21  22
ENDBRANCH  20  21
ENDBRANCH  19  20
ENDBRANCH   1  19
TORSDOF 16
ENDMDL
