MODEL 1
REMARK VINA RESULT:     -10.3      0.000      0.000
REMARK SMILES CCc1cc(OCCC(=O)OCCOC(=O)c2ccc(-c3c4nc(c(-c5ccccc5)c5ccc([nH]5)c(-c5ccccc5)c5nc(c(-c6ccccc6)c6ccc3[nH]6)C=C5)C=C4)cc2)nc(-c2cnccn2)n1
REMARK SMILES IDX 12 1 11 2 9 3 10 4 8 5 7 6 6 7 5 8 3 9 4 10 73 11 66 12
REMARK SMILES IDX 65 13 2 14 1 15 67 16 68 17 72 18 69 19 71 20 70 21 13 22
REMARK SMILES IDX 14 23 15 24 16 25 17 26 18 27 64 28 19 29 63 30 20 31 21 32
REMARK SMILES IDX 22 33 57 34 23 35 62 36 56 37 58 38 24 39 61 40 55 41 54 42
REMARK SMILES IDX 25 44 47 45 32 46 46 47 33 48 36 49 45 50 59 51 34 52 35 53
REMARK SMILES IDX 44 55 60 56 37 57 26 58 27 59 31 60 28 61 30 62 29 63 48 64
REMARK SMILES IDX 49 65 53 66 50 67 52 68 51 69 38 70 39 71 43 72 40 73 42 74
REMARK SMILES IDX 41 75
REMARK H PARENT 58 43 36 54
REMARK Flexibility Score: inf
ROOT
ATOM      1  C   UNL A   1      41.984  19.243  26.370  1.00  0.00     0.274 C 
ENDROOT
BRANCH   1   2
ATOM      2  O   UNL A   1      41.771  20.588  25.921  1.00  0.00    -0.462 OA
BRANCH   2   3
ATOM      3  C   UNL A   1      41.386  21.540  26.786  1.00  0.00     0.309 C 
ATOM      4  O   UNL A   1      41.931  21.766  27.859  1.00  0.00    -0.252 OA
BRANCH   3   5
ATOM      5  C   UNL A   1      40.220  22.335  26.246  1.00  0.00     0.164 C 
BRANCH   5   6
ATOM      6  C   UNL A   1      38.955  21.530  25.921  1.00  0.00     0.243 C 
BRANCH   6   7
ATOM      7  O   UNL A   1      38.056  22.217  25.051  1.00  0.00    -0.477 OA
BRANCH   7   8
ATOM      8  C   UNL A   1      36.710  22.253  25.241  1.00  0.00     0.217 A 
ATOM      9  C   UNL A   1      34.571  23.166  25.746  1.00  0.00     0.048 A 
ATOM     10  C   UNL A   1      35.958  23.234  25.857  1.00  0.00     0.092 A 
ATOM     11  N   UNL A   1      33.990  22.079  25.229  1.00  0.00    -0.231 NA
ATOM     12  C   UNL A   1      34.797  21.071  24.855  1.00  0.00     0.183 A 
ATOM     13  N   UNL A   1      36.136  21.136  24.790  1.00  0.00    -0.192 NA
BRANCH   9  14
ATOM     14  C   UNL A   1      33.586  24.184  26.275  1.00  0.00     0.053 C 
ATOM     15  C   UNL A   1      33.593  25.554  25.590  1.00  0.00     0.011 C 
ENDBRANCH   9  14
BRANCH  12  16
ATOM     16  C   UNL A   1      34.210  19.740  24.927  1.00  0.00     0.126 A 
ATOM     17  C   UNL A   1      32.902  19.594  25.392  1.00  0.00     0.143 A 
ATOM     18  N   UNL A   1      34.911  18.680  24.442  1.00  0.00    -0.250 NA
ATOM     19  N   UNL A   1      32.245  18.410  25.405  1.00  0.00    -0.261 NA
ATOM     20  C   UNL A   1      34.258  17.499  24.463  1.00  0.00     0.132 A 
ATOM     21  C   UNL A   1      32.959  17.368  24.931  1.00  0.00     0.131 A 
ENDBRANCH  12  16
ENDBRANCH   7   8
ENDBRANCH   6   7
ENDBRANCH   5   6
ENDBRANCH   3   5
ENDBRANCH   2   3
ENDBRANCH   1   2
BRANCH   1  22
ATOM     22  C   UNL A   1      43.238  18.707  25.663  1.00  0.00     0.275 C 
BRANCH  22  23
ATOM     23  O   UNL A   1      43.662  19.580  24.636  1.00  0.00    -0.458 OA
BRANCH  23  24
ATOM     24  C   UNL A   1      44.989  19.681  24.411  1.00  0.00     0.338 C 
ATOM     25  O   UNL A   1      45.758  18.916  23.861  1.00  0.00    -0.246 OA
BRANCH  24  26
ATOM     26  C   UNL A   1      45.177  21.095  24.674  1.00  0.00     0.060 A 
ATOM     27  C   UNL A   1      44.664  22.015  23.753  1.00  0.00     0.016 A 
ATOM     28  C   UNL A   1      45.536  21.433  25.983  1.00  0.00     0.016 A 
ATOM     29  C   UNL A   1      44.510  23.324  24.161  1.00  0.00     0.010 A 
ATOM     30  C   UNL A   1      45.313  22.715  26.407  1.00  0.00     0.010 A 
ATOM     31  C   UNL A   1      44.847  23.656  25.479  1.00  0.00    -0.014 A 
BRANCH  31  32
ATOM     32  C   UNL A   1      44.957  25.051  25.877  1.00  0.00     0.031 A 
ATOM     33  C   UNL A   1      46.321  25.646  25.769  1.00  0.00     0.074 A 
ATOM     34  C   UNL A   1      43.883  25.665  26.390  1.00  0.00     0.049 A 
ATOM     35  N   UNL A   1      46.759  26.785  26.214  1.00  0.00    -0.248 NA
ATOM     36  C   UNL A   1      47.353  24.816  25.107  1.00  0.00     0.031 C 
ATOM     37  C   UNL A   1      42.542  25.083  26.500  1.00  0.00     0.029 A 
ATOM     38  N   UNL A   1      43.762  26.906  26.932  1.00  0.00    -0.354 N 
ATOM     39  C   UNL A   1      48.114  26.797  25.908  1.00  0.00     0.074 A 
ATOM     40  C   UNL A   1      48.444  25.536  25.295  1.00  0.00     0.031 C 
ATOM     41  C   UNL A   1      41.726  25.982  27.073  1.00  0.00     0.029 A 
ATOM     42  C   UNL A   1      42.504  27.167  27.409  1.00  0.00     0.049 A 
ATOM     43  H   UNL A   1      44.503  27.553  26.976  1.00  0.00     0.167 HD
ATOM     44  C   UNL A   1      48.991  27.799  26.121  1.00  0.00     0.031 A 
ATOM     45  C   UNL A   1      42.067  28.252  28.069  1.00  0.00     0.031 A 
ATOM     46  C   UNL A   1      48.596  29.025  26.751  1.00  0.00     0.049 A 
ATOM     47  C   UNL A   1      43.073  29.340  28.325  1.00  0.00     0.074 A 
ATOM     48  C   UNL A   1      49.349  30.147  27.018  1.00  0.00     0.029 A 
ATOM     49  N   UNL A   1      47.307  29.273  27.215  1.00  0.00    -0.354 N 
ATOM     50  N   UNL A   1      44.347  29.377  27.998  1.00  0.00    -0.248 NA
ATOM     51  C   UNL A   1      42.593  30.528  29.033  1.00  0.00     0.031 C 
ATOM     52  C   UNL A   1      48.527  31.054  27.697  1.00  0.00     0.029 A 
ATOM     53  C   UNL A   1      47.246  30.521  27.797  1.00  0.00     0.049 A 
ATOM     54  H   UNL A   1      46.549  28.649  27.139  1.00  0.00     0.167 HD
ATOM     55  C   UNL A   1      44.822  30.597  28.449  1.00  0.00     0.074 A 
ATOM     56  C   UNL A   1      43.686  31.278  29.050  1.00  0.00     0.031 C 
ATOM     57  C   UNL A   1      46.073  31.120  28.387  1.00  0.00     0.031 A 
BRANCH  44  58
ATOM     58  C   UNL A   1      50.416  27.567  25.707  1.00  0.00    -0.014 A 
ATOM     59  C   UNL A   1      50.893  27.982  24.450  1.00  0.00     0.009 A 
ATOM     60  C   UNL A   1      51.290  26.888  26.568  1.00  0.00     0.009 A 
ATOM     61  C   UNL A   1      52.199  27.687  24.051  1.00  0.00     0.001 A 
ATOM     62  C   UNL A   1      52.605  26.621  26.180  1.00  0.00     0.001 A 
ATOM     63  C   UNL A   1      53.055  27.010  24.918  1.00  0.00     0.000 A 
ENDBRANCH  44  58
BRANCH  45  64
ATOM     64  C   UNL A   1      40.652  28.337  28.509  1.00  0.00    -0.014 A 
ATOM     65  C   UNL A   1      40.257  27.804  29.745  1.00  0.00     0.009 A 
ATOM     66  C   UNL A   1      39.696  29.003  27.725  1.00  0.00     0.009 A 
ATOM     67  C   UNL A   1      38.933  27.920  30.177  1.00  0.00     0.001 A 
ATOM     68  C   UNL A   1      38.379  29.142  28.172  1.00  0.00     0.001 A 
ATOM     69  C   UNL A   1      37.997  28.593  29.393  1.00  0.00     0.000 A 
ENDBRANCH  45  64
BRANCH  57  70
ATOM     70  C   UNL A   1      46.248  32.483  28.981  1.00  0.00    -0.014 A 
ATOM     71  C   UNL A   1      46.024  33.635  28.216  1.00  0.00     0.009 A 
ATOM     72  C   UNL A   1      46.584  32.607  30.338  1.00  0.00     0.009 A 
ATOM     73  C   UNL A   1      46.164  34.895  28.794  1.00  0.00     0.001 A 
ATOM     74  C   UNL A   1      46.688  33.867  30.920  1.00  0.00     0.001 A 
ATOM     75  C   UNL A   1      46.487  35.009  30.146  1.00  0.00     0.000 A 
ENDBRANCH  57  70
ENDBRANCH  31  32
ENDBRANCH  24  26
ENDBRANCH  23  24
ENDBRANCH  22  23
ENDBRANCH   1  22
TORSDOF 16
ENDMDL
MODEL 2
REMARK VINA RESULT:     -10.0      4.295      6.623
REMARK SMILES CCc1cc(OCCC(=O)OCCOC(=O)c2ccc(-c3c4nc(c(-c5ccccc5)c5ccc([nH]5)c(-c5ccccc5)c5nc(c(-c6ccccc6)c6ccc3[nH]6)C=C5)C=C4)cc2)nc(-c2cnccn2)n1
REMARK SMILES IDX 12 1 11 2 9 3 10 4 8 5 7 6 6 7 5 8 3 9 4 10 73 11 66 12
REMARK SMILES IDX 65 13 2 14 1 15 67 16 68 17 72 18 69 19 71 20 70 21 13 22
REMARK SMILES IDX 14 23 15 24 16 25 17 26 18 27 64 28 19 29 63 30 20 31 21 32
REMARK SMILES IDX 22 33 57 34 23 35 62 36 56 37 58 38 24 39 61 40 55 41 54 42
REMARK SMILES IDX 25 44 47 45 32 46 46 47 33 48 36 49 45 50 59 51 34 52 35 53
REMARK SMILES IDX 44 55 60 56 37 57 26 58 27 59 31 60 28 61 30 62 29 63 48 64
REMARK SMILES IDX 49 65 53 66 50 67 52 68 51 69 38 70 39 71 43 72 40 73 42 74
REMARK SMILES IDX 41 75
REMARK H PARENT 58 43 36 54
REMARK Flexibility Score: inf
ROOT
ATOM      1  C   UNL A   1      42.509  20.068  26.338  1.00  0.00     0.274 C 
ENDROOT
BRANCH   1   2
ATOM      2  O   UNL A   1      41.256  20.656  26.714  1.00  0.00    -0.462 OA
BRANCH   2   3
ATOM      3  C   UNL A   1      40.125  20.312  26.077  1.00  0.00     0.309 C 
ATOM      4  O   UNL A   1      39.871  19.184  25.674  1.00  0.00    -0.252 OA
BRANCH   3   5
ATOM      5  C   UNL A   1      39.179  21.484  25.962  1.00  0.00     0.164 C 
BRANCH   5   6
ATOM      6  C   UNL A   1      37.838  21.197  25.272  1.00  0.00     0.243 C 
BRANCH   6   7
ATOM      7  O   UNL A   1      36.815  22.130  25.615  1.00  0.00    -0.477 OA
BRANCH   7   8
ATOM      8  C   UNL A   1      35.487  21.870  25.477  1.00  0.00     0.217 A 
ATOM      9  C   UNL A   1      33.148  22.296  25.390  1.00  0.00     0.048 A 
ATOM     10  C   UNL A   1      34.417  22.672  25.821  1.00  0.00     0.092 A 
ATOM     11  N   UNL A   1      32.954  21.095  24.834  1.00  0.00    -0.231 NA
ATOM     12  C   UNL A   1      34.022  20.284  24.739  1.00  0.00     0.183 A 
ATOM     13  N   UNL A   1      35.290  20.644  24.989  1.00  0.00    -0.192 NA
BRANCH   9  14
ATOM     14  C   UNL A   1      31.871  23.080  25.592  1.00  0.00     0.053 C 
ATOM     15  C   UNL A   1      31.722  23.797  26.937  1.00  0.00     0.011 C 
ENDBRANCH   9  14
BRANCH  12  16
ATOM     16  C   UNL A   1      33.729  18.858  24.770  1.00  0.00     0.126 A 
ATOM     17  C   UNL A   1      34.712  17.949  24.374  1.00  0.00     0.143 A 
ATOM     18  N   UNL A   1      32.540  18.438  25.282  1.00  0.00    -0.250 NA
ATOM     19  N   UNL A   1      34.559  16.606  24.458  1.00  0.00    -0.261 NA
ATOM     20  C   UNL A   1      32.387  17.099  25.358  1.00  0.00     0.132 A 
ATOM     21  C   UNL A   1      33.371  16.207  24.958  1.00  0.00     0.131 A 
ENDBRANCH  12  16
ENDBRANCH   7   8
ENDBRANCH   6   7
ENDBRANCH   5   6
ENDBRANCH   3   5
ENDBRANCH   2   3
ENDBRANCH   1   2
BRANCH   1  22
ATOM     22  C   UNL A   1      43.388  21.181  25.747  1.00  0.00     0.275 C 
BRANCH  22  23
ATOM     23  O   UNL A   1      42.878  22.461  26.061  1.00  0.00    -0.458 OA
BRANCH  23  24
ATOM     24  C   UNL A   1      43.528  23.531  25.557  1.00  0.00     0.338 C 
ATOM     25  O   UNL A   1      43.941  23.750  24.434  1.00  0.00    -0.246 OA
BRANCH  24  26
ATOM     26  C   UNL A   1      43.276  24.492  26.614  1.00  0.00     0.060 A 
ATOM     27  C   UNL A   1      43.791  25.785  26.474  1.00  0.00     0.016 A 
ATOM     28  C   UNL A   1      42.253  24.164  27.510  1.00  0.00     0.016 A 
ATOM     29  C   UNL A   1      43.262  26.784  27.265  1.00  0.00     0.010 A 
ATOM     30  C   UNL A   1      41.680  25.170  28.239  1.00  0.00     0.010 A 
ATOM     31  C   UNL A   1      42.221  26.459  28.143  1.00  0.00    -0.014 A 
BRANCH  31  32
ATOM     32  C   UNL A   1      41.814  27.399  29.176  1.00  0.00     0.031 A 
ATOM     33  C   UNL A   1      42.589  27.331  30.450  1.00  0.00     0.074 A 
ATOM     34  C   UNL A   1      40.744  28.173  28.962  1.00  0.00     0.049 A 
ATOM     35  N   UNL A   1      42.347  27.902  31.592  1.00  0.00    -0.248 NA
ATOM     36  C   UNL A   1      43.782  26.455  30.450  1.00  0.00     0.031 C 
ATOM     37  C   UNL A   1      39.978  28.241  27.713  1.00  0.00     0.029 A 
ATOM     38  N   UNL A   1      40.106  29.034  29.799  1.00  0.00    -0.354 N 
ATOM     39  C   UNL A   1      43.338  27.438  32.446  1.00  0.00     0.074 A 
ATOM     40  C   UNL A   1      44.150  26.497  31.719  1.00  0.00     0.031 C 
ATOM     41  C   UNL A   1      38.970  29.113  27.871  1.00  0.00     0.029 A 
ATOM     42  C   UNL A   1      38.999  29.614  29.238  1.00  0.00     0.049 A 
ATOM     43  H   UNL A   1      40.410  29.223  30.716  1.00  0.00     0.167 HD
ATOM     44  C   UNL A   1      43.541  27.792  33.731  1.00  0.00     0.031 A 
ATOM     45  C   UNL A   1      38.106  30.440  29.808  1.00  0.00     0.031 A 
ATOM     46  C   UNL A   1      42.682  28.727  34.399  1.00  0.00     0.049 A 
ATOM     47  C   UNL A   1      38.335  30.793  31.252  1.00  0.00     0.074 A 
ATOM     48  C   UNL A   1      42.761  29.214  35.686  1.00  0.00     0.029 A 
ATOM     49  N   UNL A   1      41.570  29.315  33.803  1.00  0.00    -0.354 N 
ATOM     50  N   UNL A   1      39.297  30.393  32.055  1.00  0.00    -0.248 NA
ATOM     51  C   UNL A   1      37.369  31.704  31.868  1.00  0.00     0.031 C 
ATOM     52  C   UNL A   1      41.661  30.055  35.886  1.00  0.00     0.029 A 
ATOM     53  C   UNL A   1      40.932  30.140  34.704  1.00  0.00     0.049 A 
ATOM     54  H   UNL A   1      41.281  29.164  32.873  1.00  0.00     0.167 HD
ATOM     55  C   UNL A   1      39.062  31.011  33.271  1.00  0.00     0.074 A 
ATOM     56  C   UNL A   1      37.878  31.834  33.086  1.00  0.00     0.031 C 
ATOM     57  C   UNL A   1      39.744  30.916  34.441  1.00  0.00     0.031 A 
BRANCH  44  58
ATOM     58  C   UNL A   1      44.684  27.140  34.455  1.00  0.00    -0.014 A 
ATOM     59  C   UNL A   1      44.541  25.884  35.074  1.00  0.00     0.009 A 
ATOM     60  C   UNL A   1      45.913  27.805  34.558  1.00  0.00     0.009 A 
ATOM     61  C   UNL A   1      45.591  25.330  35.810  1.00  0.00     0.001 A 
ATOM     62  C   UNL A   1      46.973  27.235  35.269  1.00  0.00     0.001 A 
ATOM     63  C   UNL A   1      46.807  26.004  35.903  1.00  0.00     0.000 A 
ENDBRANCH  44  58
BRANCH  45  64
ATOM     64  C   UNL A   1      36.961  30.960  29.019  1.00  0.00    -0.014 A 
ATOM     65  C   UNL A   1      35.909  30.110  28.646  1.00  0.00     0.009 A 
ATOM     66  C   UNL A   1      36.881  32.320  28.681  1.00  0.00     0.009 A 
ATOM     67  C   UNL A   1      34.812  30.608  27.938  1.00  0.00     0.001 A 
ATOM     68  C   UNL A   1      35.770  32.822  27.998  1.00  0.00     0.001 A 
ATOM     69  C   UNL A   1      34.740  31.963  27.619  1.00  0.00     0.000 A 
ENDBRANCH  45  64
BRANCH  57  70
ATOM     70  C   UNL A   1      39.212  31.728  35.582  1.00  0.00    -0.014 A 
ATOM     71  C   UNL A   1      39.600  33.063  35.756  1.00  0.00     0.009 A 
ATOM     72  C   UNL A   1      38.269  31.160  36.452  1.00  0.00     0.009 A 
ATOM     73  C   UNL A   1      39.072  33.811  36.806  1.00  0.00     0.001 A 
ATOM     74  C   UNL A   1      37.719  31.922  37.479  1.00  0.00     0.001 A 
ATOM     75  C   UNL A   1      38.127  33.242  37.661  1.00  0.00     0.000 A 
ENDBRANCH  57  70
ENDBRANCH  31  32
ENDBRANCH  24  26
ENDBRANCH  23  24
ENDBRANCH  22  23
ENDBRANCH   1  22
TORSDOF 16
ENDMDL
MODEL 3
REMARK VINA RESULT:      -9.9      7.013     11.194
REMARK SMILES CCc1cc(OCCC(=O)OCCOC(=O)c2ccc(-c3c4nc(c(-c5ccccc5)c5ccc([nH]5)c(-c5ccccc5)c5nc(c(-c6ccccc6)c6ccc3[nH]6)C=C5)C=C4)cc2)nc(-c2cnccn2)n1
REMARK SMILES IDX 12 1 11 2 9 3 10 4 8 5 7 6 6 7 5 8 3 9 4 10 73 11 66 12
REMARK SMILES IDX 65 13 2 14 1 15 67 16 68 17 72 18 69 19 71 20 70 21 13 22
REMARK SMILES IDX 14 23 15 24 16 25 17 26 18 27 64 28 19 29 63 30 20 31 21 32
REMARK SMILES IDX 22 33 57 34 23 35 62 36 56 37 58 38 24 39 61 40 55 41 54 42
REMARK SMILES IDX 25 44 47 45 32 46 46 47 33 48 36 49 45 50 59 51 34 52 35 53
REMARK SMILES IDX 44 55 60 56 37 57 26 58 27 59 31 60 28 61 30 62 29 63 48 64
REMARK SMILES IDX 49 65 53 66 50 67 52 68 51 69 38 70 39 71 43 72 40 73 42 74
REMARK SMILES IDX 41 75
REMARK H PARENT 58 43 36 54
REMARK Flexibility Score: inf
ROOT
ATOM      1  C   UNL A   1      32.811  31.519  27.486  1.00  0.00     0.274 C 
ENDROOT
BRANCH   1   2
ATOM      2  O   UNL A   1      32.115  30.764  26.485  1.00  0.00    -0.462 OA
BRANCH   2   3
ATOM      3  C   UNL A   1      32.682  29.677  25.938  1.00  0.00     0.309 C 
ATOM      4  O   UNL A   1      33.049  29.596  24.773  1.00  0.00    -0.252 OA
BRANCH   3   5
ATOM      5  C   UNL A   1      32.857  28.576  26.958  1.00  0.00     0.164 C 
BRANCH   5   6
ATOM      6  C   UNL A   1      31.575  27.843  27.378  1.00  0.00     0.243 C 
BRANCH   6   7
ATOM      7  O   UNL A   1      31.332  26.655  26.628  1.00  0.00    -0.477 OA
BRANCH   7   8
ATOM      8  C   UNL A   1      31.346  26.611  25.269  1.00  0.00     0.217 A 
ATOM      9  C   UNL A   1      32.007  25.939  23.084  1.00  0.00     0.048 A 
ATOM     10  C   UNL A   1      32.304  26.065  24.439  1.00  0.00     0.092 A 
ATOM     11  N   UNL A   1      30.908  26.512  22.580  1.00  0.00    -0.231 NA
ATOM     12  C   UNL A   1      30.140  27.217  23.428  1.00  0.00     0.183 A 
ATOM     13  N   UNL A   1      30.286  27.244  24.762  1.00  0.00    -0.192 NA
BRANCH   9  14
ATOM     14  C   UNL A   1      32.886  25.295  22.036  1.00  0.00     0.053 C 
ATOM     15  C   UNL A   1      32.551  25.620  20.577  1.00  0.00     0.011 C 
ENDBRANCH   9  14
BRANCH  12  16
ATOM     16  C   UNL A   1      29.391  28.313  22.830  1.00  0.00     0.126 A 
ATOM     17  C   UNL A   1      28.051  28.494  23.175  1.00  0.00     0.143 A 
ATOM     18  N   UNL A   1      30.042  29.198  22.027  1.00  0.00    -0.250 NA
ATOM     19  N   UNL A   1      27.306  29.538  22.741  1.00  0.00    -0.261 NA
ATOM     20  C   UNL A   1      29.296  30.234  21.588  1.00  0.00     0.132 A 
ATOM     21  C   UNL A   1      27.964  30.401  21.937  1.00  0.00     0.131 A 
ENDBRANCH  12  16
ENDBRANCH   7   8
ENDBRANCH   6   7
ENDBRANCH   5   6
ENDBRANCH   3   5
ENDBRANCH   2   3
ENDBRANCH   1   2
BRANCH   1  22
ATOM     22  C   UNL A   1      32.376  32.987  27.350  1.00  0.00     0.275 C 
BRANCH  22  23
ATOM     23  O   UNL A   1      33.450  33.868  27.607  1.00  0.00    -0.458 OA
BRANCH  23  24
ATOM     24  C   UNL A   1      33.334  34.701  28.663  1.00  0.00     0.338 C 
ATOM     25  O   UNL A   1      32.397  35.384  29.032  1.00  0.00    -0.246 OA
BRANCH  24  26
ATOM     26  C   UNL A   1      34.489  34.284  29.434  1.00  0.00     0.060 A 
ATOM     27  C   UNL A   1      34.308  33.326  30.438  1.00  0.00     0.016 A 
ATOM     28  C   UNL A   1      35.738  34.601  28.888  1.00  0.00     0.016 A 
ATOM     29  C   UNL A   1      35.421  32.665  30.913  1.00  0.00     0.010 A 
ATOM     30  C   UNL A   1      36.829  33.891  29.309  1.00  0.00     0.010 A 
ATOM     31  C   UNL A   1      36.667  32.965  30.348  1.00  0.00    -0.014 A 
BRANCH  31  32
ATOM     32  C   UNL A   1      37.890  32.501  30.985  1.00  0.00     0.031 A 
ATOM     33  C   UNL A   1      38.544  31.323  30.343  1.00  0.00     0.074 A 
ATOM     34  C   UNL A   1      38.287  33.082  32.124  1.00  0.00     0.049 A 
ATOM     35  N   UNL A   1      39.523  30.588  30.777  1.00  0.00    -0.248 NA
ATOM     36  C   UNL A   1      37.981  30.882  29.046  1.00  0.00     0.031 C 
ATOM     37  C   UNL A   1      37.646  34.237  32.759  1.00  0.00     0.029 A 
ATOM     38  N   UNL A   1      39.313  32.760  32.956  1.00  0.00    -0.354 N 
ATOM     39  C   UNL A   1      39.675  29.589  29.824  1.00  0.00     0.074 A 
ATOM     40  C   UNL A   1      38.659  29.771  28.820  1.00  0.00     0.031 C 
ATOM     41  C   UNL A   1      38.308  34.532  33.889  1.00  0.00     0.029 A 
ATOM     42  C   UNL A   1      39.376  33.557  34.070  1.00  0.00     0.049 A 
ATOM     43  H   UNL A   1      39.948  32.030  32.777  1.00  0.00     0.167 HD
ATOM     44  C   UNL A   1      40.606  28.613  29.805  1.00  0.00     0.031 A 
ATOM     45  C   UNL A   1      40.206  33.463  35.122  1.00  0.00     0.031 A 
ATOM     46  C   UNL A   1      41.582  28.483  30.848  1.00  0.00     0.049 A 
ATOM     47  C   UNL A   1      41.212  32.346  35.092  1.00  0.00     0.074 A 
ATOM     48  C   UNL A   1      42.608  27.571  30.970  1.00  0.00     0.029 A 
ATOM     49  N   UNL A   1      41.635  29.314  31.963  1.00  0.00    -0.354 N 
ATOM     50  N   UNL A   1      41.392  31.423  34.172  1.00  0.00    -0.248 NA
ATOM     51  C   UNL A   1      42.125  32.252  36.233  1.00  0.00     0.031 C 
ATOM     52  C   UNL A   1      43.247  27.817  32.190  1.00  0.00     0.029 A 
ATOM     53  C   UNL A   1      42.658  28.920  32.798  1.00  0.00     0.049 A 
ATOM     54  H   UNL A   1      41.030  30.073  32.132  1.00  0.00     0.167 HD
ATOM     55  C   UNL A   1      42.447  30.644  34.613  1.00  0.00     0.074 A 
ATOM     56  C   UNL A   1      42.881  31.223  35.875  1.00  0.00     0.031 C 
ATOM     57  C   UNL A   1      43.014  29.547  34.048  1.00  0.00     0.031 A 
BRANCH  44  58
ATOM     58  C   UNL A   1      40.560  27.639  28.663  1.00  0.00    -0.014 A 
ATOM     59  C   UNL A   1      41.241  27.887  27.457  1.00  0.00     0.009 A 
ATOM     60  C   UNL A   1      39.792  26.471  28.776  1.00  0.00     0.009 A 
ATOM     61  C   UNL A   1      41.121  27.007  26.379  1.00  0.00     0.001 A 
ATOM     62  C   UNL A   1      39.699  25.576  27.706  1.00  0.00     0.001 A 
ATOM     63  C   UNL A   1      40.354  25.851  26.505  1.00  0.00     0.000 A 
ENDBRANCH  44  58
BRANCH  45  64
ATOM     64  C   UNL A   1      40.105  34.433  36.240  1.00  0.00    -0.014 A 
ATOM     65  C   UNL A   1      39.295  34.157  37.351  1.00  0.00     0.009 A 
ATOM     66  C   UNL A   1      40.861  35.617  36.234  1.00  0.00     0.009 A 
ATOM     67  C   UNL A   1      39.231  35.053  38.423  1.00  0.00     0.001 A 
ATOM     68  C   UNL A   1      40.817  36.497  37.318  1.00  0.00     0.001 A 
ATOM     69  C   UNL A   1      39.996  36.218  38.408  1.00  0.00     0.000 A 
ENDBRANCH  45  64
BRANCH  57  70
ATOM     70  C   UNL A   1      44.154  28.932  34.801  1.00  0.00    -0.014 A 
ATOM     71  C   UNL A   1      43.927  27.942  35.766  1.00  0.00     0.009 A 
ATOM     72  C   UNL A   1      45.470  29.310  34.493  1.00  0.00     0.009 A 
ATOM     73  C   UNL A   1      45.001  27.361  36.436  1.00  0.00     0.001 A 
ATOM     74  C   UNL A   1      46.541  28.702  35.139  1.00  0.00     0.001 A 
ATOM     75  C   UNL A   1      46.306  27.736  36.116  1.00  0.00     0.000 A 
ENDBRANCH  57  70
ENDBRANCH  31  32
ENDBRANCH  24  26
ENDBRANCH  23  24
ENDBRANCH  22  23
ENDBRANCH   1  22
TORSDOF 16
ENDMDL
