MODEL 1
REMARK VINA RESULT:      -9.3      0.000      0.000
REMARK SMILES C[C@@H](Sc1ccccc1[N+](=O)[O-])[C@@H](C)C(=O)OCCOC(=O)c1ccc(-c2c3nc(c(-c4ccccc4)c4ccc([nH]4)c(-c4ccccc4)c4nc(c(-c5ccccc5)c5ccc2[nH]5)C=C4)C=C3)cc1
REMARK SMILES IDX 18 1 17 2 15 3 16 4 13 5 14 6 2 7 1 8 3 9 4 10 5 11 9 12
REMARK SMILES IDX 6 13 8 14 7 15 10 16 11 17 12 18 19 19 20 20 21 21 22 22
REMARK SMILES IDX 23 23 24 24 70 25 25 26 69 27 26 28 27 29 28 30 63 31 29 32
REMARK SMILES IDX 68 33 62 34 64 35 30 36 67 37 61 38 60 39 31 41 53 42 38 43
REMARK SMILES IDX 52 44 39 45 42 46 51 47 65 48 40 49 41 50 50 52 66 53 43 54
REMARK SMILES IDX 32 55 33 56 37 57 34 58 36 59 35 60 54 61 55 62 59 63 56 64
REMARK SMILES IDX 58 65 57 66 44 67 45 68 49 69 46 70 48 71 47 72
REMARK H PARENT 64 40 42 51
REMARK Flexibility Score: inf
ROOT
ATOM      1  C   UNL A   1      33.507  34.468  28.576  1.00  0.00     0.274 C 
ENDROOT
BRANCH   1   2
ATOM      2  O   UNL A   1      32.514  34.917  29.523  1.00  0.00    -0.462 OA
BRANCH   2   3
ATOM      3  C   UNL A   1      32.907  35.925  30.344  1.00  0.00     0.309 C 
ATOM      4  O   UNL A   1      33.180  37.064  29.979  1.00  0.00    -0.252 OA
BRANCH   3   5
ATOM      5  C   UNL A   1      33.060  35.494  31.793  1.00  0.00     0.109 C 
ATOM      6  C   UNL A   1      31.740  35.848  32.485  1.00  0.00     0.021 C 
BRANCH   5   7
ATOM      7  C   UNL A   1      34.307  36.050  32.527  1.00  0.00     0.063 C 
ATOM      8  C   UNL A   1      33.976  37.325  33.312  1.00  0.00     0.020 C 
BRANCH   7   9
ATOM      9  S   UNL A   1      34.946  34.778  33.722  1.00  0.00    -0.115 SA
BRANCH   9  10
ATOM     10  C   UNL A   1      36.567  34.388  33.072  1.00  0.00     0.085 A 
ATOM     11  C   UNL A   1      36.756  34.648  31.704  1.00  0.00     0.022 A 
ATOM     12  C   UNL A   1      37.659  33.877  33.784  1.00  0.00     0.282 A 
ATOM     13  C   UNL A   1      37.975  34.369  31.072  1.00  0.00     0.002 A 
ATOM     14  C   UNL A   1      38.884  33.586  33.159  1.00  0.00     0.087 A 
ATOM     15  C   UNL A   1      39.036  33.831  31.797  1.00  0.00     0.007 A 
BRANCH  12  16
ATOM     16  N   UNL A   1      37.584  33.630  35.208  1.00  0.00     0.063 N 
ATOM     17  O   UNL A   1      38.347  34.292  35.928  1.00  0.00    -0.258 OA
ATOM     18  O   UNL A   1      36.749  32.812  35.610  1.00  0.00    -0.258 OA
ENDBRANCH  12  16
ENDBRANCH   9  10
ENDBRANCH   7   9
ENDBRANCH   5   7
ENDBRANCH   3   5
ENDBRANCH   2   3
ENDBRANCH   1   2
BRANCH   1  19
ATOM     19  C   UNL A   1      33.426  32.954  28.382  1.00  0.00     0.275 C 
BRANCH  19  20
ATOM     20  O   UNL A   1      34.741  32.391  28.513  1.00  0.00    -0.458 OA
BRANCH  20  21
ATOM     21  C   UNL A   1      35.084  32.004  29.762  1.00  0.00     0.338 C 
ATOM     22  O   UNL A   1      34.474  32.228  30.793  1.00  0.00    -0.246 OA
BRANCH  21  23
ATOM     23  C   UNL A   1      36.377  31.286  29.719  1.00  0.00     0.060 A 
ATOM     24  C   UNL A   1      36.977  30.771  30.874  1.00  0.00     0.016 A 
ATOM     25  C   UNL A   1      37.028  31.171  28.490  1.00  0.00     0.016 A 
ATOM     26  C   UNL A   1      38.240  30.181  30.811  1.00  0.00     0.010 A 
ATOM     27  C   UNL A   1      38.262  30.523  28.416  1.00  0.00     0.010 A 
ATOM     28  C   UNL A   1      38.888  30.040  29.579  1.00  0.00    -0.014 A 
BRANCH  28  29
ATOM     29  C   UNL A   1      40.230  29.414  29.477  1.00  0.00     0.031 A 
ATOM     30  C   UNL A   1      41.462  30.252  29.676  1.00  0.00     0.074 A 
ATOM     31  C   UNL A   1      40.348  28.112  29.155  1.00  0.00     0.049 A 
ATOM     32  N   UNL A   1      42.714  29.955  29.435  1.00  0.00    -0.248 NA
ATOM     33  C   UNL A   1      41.254  31.609  30.206  1.00  0.00     0.031 C 
ATOM     34  C   UNL A   1      39.238  27.176  28.974  1.00  0.00     0.029 A 
ATOM     35  N   UNL A   1      41.466  27.356  28.905  1.00  0.00    -0.354 N 
ATOM     36  C   UNL A   1      43.438  31.100  29.742  1.00  0.00     0.074 A 
ATOM     37  C   UNL A   1      42.487  32.098  30.181  1.00  0.00     0.031 C 
ATOM     38  C   UNL A   1      39.730  25.971  28.643  1.00  0.00     0.029 A 
ATOM     39  C   UNL A   1      41.181  26.068  28.527  1.00  0.00     0.049 A 
ATOM     40  H   UNL A   1      42.383  27.705  28.989  1.00  0.00     0.167 HD
ATOM     41  C   UNL A   1      44.774  31.300  29.661  1.00  0.00     0.031 A 
ATOM     42  C   UNL A   1      41.993  25.085  28.092  1.00  0.00     0.031 A 
ATOM     43  C   UNL A   1      45.721  30.303  29.238  1.00  0.00     0.049 A 
ATOM     44  C   UNL A   1      43.464  25.350  27.956  1.00  0.00     0.074 A 
ATOM     45  C   UNL A   1      47.098  30.407  29.138  1.00  0.00     0.029 A 
ATOM     46  N   UNL A   1      45.386  29.017  28.846  1.00  0.00    -0.354 N 
ATOM     47  N   UNL A   1      44.136  26.442  28.229  1.00  0.00    -0.248 NA
ATOM     48  C   UNL A   1      44.288  24.248  27.439  1.00  0.00     0.031 C 
ATOM     49  C   UNL A   1      47.593  29.193  28.649  1.00  0.00     0.029 A 
ATOM     50  C   UNL A   1      46.529  28.321  28.487  1.00  0.00     0.049 A 
ATOM     51  H   UNL A   1      44.472  28.652  28.825  1.00  0.00     0.167 HD
ATOM     52  C   UNL A   1      45.461  26.153  27.934  1.00  0.00     0.074 A 
ATOM     53  C   UNL A   1      45.501  24.780  27.476  1.00  0.00     0.031 C 
ATOM     54  C   UNL A   1      46.548  26.956  28.031  1.00  0.00     0.031 A 
BRANCH  41  55
ATOM     55  C   UNL A   1      45.289  32.668  30.007  1.00  0.00    -0.014 A 
ATOM     56  C   UNL A   1      45.183  33.739  29.105  1.00  0.00     0.009 A 
ATOM     57  C   UNL A   1      45.863  32.895  31.268  1.00  0.00     0.009 A 
ATOM     58  C   UNL A   1      45.668  35.002  29.451  1.00  0.00     0.001 A 
ATOM     59  C   UNL A   1      46.326  34.164  31.619  1.00  0.00     0.001 A 
ATOM     60  C   UNL A   1      46.235  35.214  30.707  1.00  0.00     0.000 A 
ENDBRANCH  41  55
BRANCH  42  61
ATOM     61  C   UNL A   1      41.422  23.766  27.714  1.00  0.00    -0.014 A 
ATOM     62  C   UNL A   1      41.696  22.627  28.484  1.00  0.00     0.009 A 
ATOM     63  C   UNL A   1      40.603  23.642  26.582  1.00  0.00     0.009 A 
ATOM     64  C   UNL A   1      41.175  21.384  28.117  1.00  0.00     0.001 A 
ATOM     65  C   UNL A   1      40.061  22.403  26.233  1.00  0.00     0.001 A 
ATOM     66  C   UNL A   1      40.353  21.274  26.996  1.00  0.00     0.000 A 
ENDBRANCH  42  61
BRANCH  54  67
ATOM     67  C   UNL A   1      47.874  26.355  27.666  1.00  0.00    -0.014 A 
ATOM     68  C   UNL A   1      48.419  26.524  26.384  1.00  0.00     0.009 A 
ATOM     69  C   UNL A   1      48.600  25.635  28.628  1.00  0.00     0.009 A 
ATOM     70  C   UNL A   1      49.653  25.957  26.063  1.00  0.00     0.001 A 
ATOM     71  C   UNL A   1      49.844  25.090  28.311  1.00  0.00     0.001 A 
ATOM     72  C   UNL A   1      50.366  25.243  27.027  1.00  0.00     0.000 A 
ENDBRANCH  54  67
ENDBRANCH  28  29
ENDBRANCH  21  23
ENDBRANCH  20  21
ENDBRANCH  19  20
ENDBRANCH   1  19
TORSDOF 15
ENDMDL
MODEL 2
REMARK VINA RESULT:      -9.3      4.595      7.008
REMARK SMILES C[C@@H](Sc1ccccc1[N+](=O)[O-])[C@@H](C)C(=O)OCCOC(=O)c1ccc(-c2c3nc(c(-c4ccccc4)c4ccc([nH]4)c(-c4ccccc4)c4nc(c(-c5ccccc5)c5ccc2[nH]5)C=C4)C=C3)cc1
REMARK SMILES IDX 18 1 17 2 15 3 16 4 13 5 14 6 2 7 1 8 3 9 4 10 5 11 9 12
REMARK SMILES IDX 6 13 8 14 7 15 10 16 11 17 12 18 19 19 20 20 21 21 22 22
REMARK SMILES IDX 23 23 24 24 70 25 25 26 69 27 26 28 27 29 28 30 63 31 29 32
REMARK SMILES IDX 68 33 62 34 64 35 30 36 67 37 61 38 60 39 31 41 53 42 38 43
REMARK SMILES IDX 52 44 39 45 42 46 51 47 65 48 40 49 41 50 50 52 66 53 43 54
REMARK SMILES IDX 32 55 33 56 37 57 34 58 36 59 35 60 54 61 55 62 59 63 56 64
REMARK SMILES IDX 58 65 57 66 44 67 45 68 49 69 46 70 48 71 47 72
REMARK H PARENT 64 40 42 51
REMARK Flexibility Score: inf
ROOT
ATOM      1  C   UNL A   1      31.885  28.930  26.627  1.00  0.00     0.274 C 
ENDROOT
BRANCH   1   2
ATOM      2  O   UNL A   1      31.742  27.886  25.641  1.00  0.00    -0.462 OA
BRANCH   2   3
ATOM      3  C   UNL A   1      31.762  28.300  24.348  1.00  0.00     0.309 C 
ATOM      4  O   UNL A   1      32.443  29.225  23.915  1.00  0.00    -0.252 OA
BRANCH   3   5
ATOM      5  C   UNL A   1      30.782  27.549  23.461  1.00  0.00     0.109 C 
ATOM      6  C   UNL A   1      29.883  28.612  22.823  1.00  0.00     0.021 C 
BRANCH   5   7
ATOM      7  C   UNL A   1      29.991  26.410  24.155  1.00  0.00     0.063 C 
ATOM      8  C   UNL A   1      28.484  26.537  23.900  1.00  0.00     0.020 C 
BRANCH   7   9
ATOM      9  S   UNL A   1      30.559  24.767  23.499  1.00  0.00    -0.115 SA
BRANCH   9  10
ATOM     10  C   UNL A   1      32.226  24.631  24.134  1.00  0.00     0.085 A 
ATOM     11  C   UNL A   1      32.340  24.484  25.527  1.00  0.00     0.022 A 
ATOM     12  C   UNL A   1      33.413  24.633  23.391  1.00  0.00     0.282 A 
ATOM     13  C   UNL A   1      33.592  24.385  26.148  1.00  0.00     0.002 A 
ATOM     14  C   UNL A   1      34.675  24.543  24.004  1.00  0.00     0.087 A 
ATOM     15  C   UNL A   1      34.759  24.422  25.388  1.00  0.00     0.007 A 
BRANCH  12  16
ATOM     16  N   UNL A   1      33.400  24.721  21.946  1.00  0.00     0.063 N 
ATOM     17  O   UNL A   1      33.467  25.858  21.458  1.00  0.00    -0.258 OA
ATOM     18  O   UNL A   1      33.359  23.666  21.303  1.00  0.00    -0.258 OA
ENDBRANCH  12  16
ENDBRANCH   9  10
ENDBRANCH   7   9
ENDBRANCH   5   7
ENDBRANCH   3   5
ENDBRANCH   2   3
ENDBRANCH   1   2
BRANCH   1  19
ATOM     19  C   UNL A   1      33.201  28.778  27.390  1.00  0.00     0.275 C 
BRANCH  19  20
ATOM     20  O   UNL A   1      34.132  29.770  26.928  1.00  0.00    -0.458 OA
BRANCH  20  21
ATOM     21  C   UNL A   1      34.637  30.581  27.884  1.00  0.00     0.338 C 
ATOM     22  O   UNL A   1      34.095  31.551  28.384  1.00  0.00    -0.246 OA
BRANCH  21  23
ATOM     23  C   UNL A   1      36.013  30.151  28.221  1.00  0.00     0.060 A 
ATOM     24  C   UNL A   1      37.061  30.232  27.298  1.00  0.00     0.016 A 
ATOM     25  C   UNL A   1      36.242  29.607  29.485  1.00  0.00     0.016 A 
ATOM     26  C   UNL A   1      38.324  29.733  27.618  1.00  0.00     0.010 A 
ATOM     27  C   UNL A   1      37.521  29.167  29.829  1.00  0.00     0.010 A 
ATOM     28  C   UNL A   1      38.568  29.207  28.892  1.00  0.00    -0.014 A 
BRANCH  28  29
ATOM     29  C   UNL A   1      39.902  28.672  29.266  1.00  0.00     0.031 A 
ATOM     30  C   UNL A   1      40.876  29.546  30.004  1.00  0.00     0.074 A 
ATOM     31  C   UNL A   1      40.260  27.427  28.898  1.00  0.00     0.049 A 
ATOM     32  N   UNL A   1      42.148  29.349  30.245  1.00  0.00    -0.248 NA
ATOM     33  C   UNL A   1      40.352  30.815  30.533  1.00  0.00     0.031 C 
ATOM     34  C   UNL A   1      39.400  26.461  28.213  1.00  0.00     0.029 A 
ATOM     35  N   UNL A   1      41.456  26.769  29.036  1.00  0.00    -0.354 N 
ATOM     36  C   UNL A   1      42.585  30.485  30.914  1.00  0.00     0.074 A 
ATOM     37  C   UNL A   1      41.446  31.369  31.036  1.00  0.00     0.031 C 
ATOM     38  C   UNL A   1      40.096  25.334  27.993  1.00  0.00     0.029 A 
ATOM     39  C   UNL A   1      41.464  25.523  28.461  1.00  0.00     0.049 A 
ATOM     40  H   UNL A   1      42.234  27.155  29.502  1.00  0.00     0.167 HD
ATOM     41  C   UNL A   1      43.824  30.766  31.379  1.00  0.00     0.031 A 
ATOM     42  C   UNL A   1      42.472  24.646  28.290  1.00  0.00     0.031 A 
ATOM     43  C   UNL A   1      44.954  29.881  31.270  1.00  0.00     0.049 A 
ATOM     44  C   UNL A   1      43.850  25.006  28.763  1.00  0.00     0.074 A 
ATOM     45  C   UNL A   1      46.247  30.071  31.725  1.00  0.00     0.029 A 
ATOM     46  N   UNL A   1      44.920  28.636  30.663  1.00  0.00    -0.354 N 
ATOM     47  N   UNL A   1      44.257  26.091  29.375  1.00  0.00    -0.248 NA
ATOM     48  C   UNL A   1      44.912  24.021  28.510  1.00  0.00     0.031 C 
ATOM     49  C   UNL A   1      47.007  28.954  31.359  1.00  0.00     0.029 A 
ATOM     50  C   UNL A   1      46.175  28.052  30.716  1.00  0.00     0.049 A 
ATOM     51  H   UNL A   1      44.124  28.227  30.254  1.00  0.00     0.167 HD
ATOM     52  C   UNL A   1      45.616  25.913  29.595  1.00  0.00     0.074 A 
ATOM     53  C   UNL A   1      45.962  24.610  29.066  1.00  0.00     0.031 C 
ATOM     54  C   UNL A   1      46.500  26.756  30.182  1.00  0.00     0.031 A 
BRANCH  41  55
ATOM     55  C   UNL A   1      44.033  32.107  32.022  1.00  0.00    -0.014 A 
ATOM     56  C   UNL A   1      44.405  33.230  31.266  1.00  0.00     0.009 A 
ATOM     57  C   UNL A   1      43.824  32.256  33.402  1.00  0.00     0.009 A 
ATOM     58  C   UNL A   1      44.592  34.467  31.886  1.00  0.00     0.001 A 
ATOM     59  C   UNL A   1      43.989  33.498  34.015  1.00  0.00     0.001 A 
ATOM     60  C   UNL A   1      44.380  34.601  33.257  1.00  0.00     0.000 A 
ENDBRANCH  41  55
BRANCH  42  61
ATOM     61  C   UNL A   1      42.220  23.354  27.600  1.00  0.00    -0.014 A 
ATOM     62  C   UNL A   1      42.529  23.204  26.241  1.00  0.00     0.009 A 
ATOM     63  C   UNL A   1      41.670  22.268  28.298  1.00  0.00     0.009 A 
ATOM     64  C   UNL A   1      42.275  21.994  25.589  1.00  0.00     0.001 A 
ATOM     65  C   UNL A   1      41.443  21.053  27.651  1.00  0.00     0.001 A 
ATOM     66  C   UNL A   1      41.738  20.919  26.295  1.00  0.00     0.000 A 
ENDBRANCH  42  61
BRANCH  54  67
ATOM     67  C   UNL A   1      47.917  26.276  30.310  1.00  0.00    -0.014 A 
ATOM     68  C   UNL A   1      48.385  25.710  31.504  1.00  0.00     0.009 A 
ATOM     69  C   UNL A   1      48.783  26.366  29.210  1.00  0.00     0.009 A 
ATOM     70  C   UNL A   1      49.706  25.270  31.605  1.00  0.00     0.001 A 
ATOM     71  C   UNL A   1      50.096  25.904  29.306  1.00  0.00     0.001 A 
ATOM     72  C   UNL A   1      50.559  25.364  30.505  1.00  0.00     0.000 A 
ENDBRANCH  54  67
ENDBRANCH  28  29
ENDBRANCH  21  23
ENDBRANCH  20  21
ENDBRANCH  19  20
ENDBRANCH   1  19
TORSDOF 15
ENDMDL
MODEL 3
REMARK VINA RESULT:      -9.2      3.738      5.879
REMARK SMILES C[C@@H](Sc1ccccc1[N+](=O)[O-])[C@@H](C)C(=O)OCCOC(=O)c1ccc(-c2c3nc(c(-c4ccccc4)c4ccc([nH]4)c(-c4ccccc4)c4nc(c(-c5ccccc5)c5ccc2[nH]5)C=C4)C=C3)cc1
REMARK SMILES IDX 18 1 17 2 15 3 16 4 13 5 14 6 2 7 1 8 3 9 4 10 5 11 9 12
REMARK SMILES IDX 6 13 8 14 7 15 10 16 11 17 12 18 19 19 20 20 21 21 22 22
REMARK SMILES IDX 23 23 24 24 70 25 25 26 69 27 26 28 27 29 28 30 63 31 29 32
REMARK SMILES IDX 68 33 62 34 64 35 30 36 67 37 61 38 60 39 31 41 53 42 38 43
REMARK SMILES IDX 52 44 39 45 42 46 51 47 65 48 40 49 41 50 50 52 66 53 43 54
REMARK SMILES IDX 32 55 33 56 37 57 34 58 36 59 35 60 54 61 55 62 59 63 56 64
REMARK SMILES IDX 58 65 57 66 44 67 45 68 49 69 46 70 48 71 47 72
REMARK H PARENT 64 40 42 51
REMARK Flexibility Score: inf
ROOT
ATOM      1  C   UNL A   1      33.874  33.185  28.244  1.00  0.00     0.274 C 
ENDROOT
BRANCH   1   2
ATOM      2  O   UNL A   1      34.267  31.827  27.955  1.00  0.00    -0.462 OA
BRANCH   2   3
ATOM      3  C   UNL A   1      33.325  31.066  27.341  1.00  0.00     0.309 C 
ATOM      4  O   UNL A   1      32.269  31.490  26.881  1.00  0.00    -0.252 OA
BRANCH   3   5
ATOM      5  C   UNL A   1      33.660  29.584  27.336  1.00  0.00     0.109 C 
ATOM      6  C   UNL A   1      35.189  29.492  27.309  1.00  0.00     0.021 C 
BRANCH   5   7
ATOM      7  C   UNL A   1      32.974  28.748  26.225  1.00  0.00     0.063 C 
ATOM      8  C   UNL A   1      33.994  27.915  25.438  1.00  0.00     0.020 C 
BRANCH   7   9
ATOM      9  S   UNL A   1      31.738  27.591  26.989  1.00  0.00    -0.115 SA
BRANCH   9  10
ATOM     10  C   UNL A   1      31.231  26.570  25.610  1.00  0.00     0.085 A 
ATOM     11  C   UNL A   1      30.614  27.245  24.543  1.00  0.00     0.022 A 
ATOM     12  C   UNL A   1      31.405  25.186  25.477  1.00  0.00     0.282 A 
ATOM     13  C   UNL A   1      30.156  26.555  23.413  1.00  0.00     0.002 A 
ATOM     14  C   UNL A   1      30.942  24.482  24.352  1.00  0.00     0.087 A 
ATOM     15  C   UNL A   1      30.313  25.174  23.321  1.00  0.00     0.007 A 
BRANCH  12  16
ATOM     16  N   UNL A   1      32.081  24.409  26.493  1.00  0.00     0.063 N 
ATOM     17  O   UNL A   1      33.316  24.336  26.407  1.00  0.00    -0.258 OA
ATOM     18  O   UNL A   1      31.394  23.905  27.389  1.00  0.00    -0.258 OA
ENDBRANCH  12  16
ENDBRANCH   9  10
ENDBRANCH   7   9
ENDBRANCH   5   7
ENDBRANCH   3   5
ENDBRANCH   2   3
ENDBRANCH   1   2
BRANCH   1  19
ATOM     19  C   UNL A   1      34.165  33.536  29.704  1.00  0.00     0.275 C 
BRANCH  19  20
ATOM     20  O   UNL A   1      34.415  32.327  30.438  1.00  0.00    -0.458 OA
BRANCH  20  21
ATOM     21  C   UNL A   1      35.330  32.429  31.428  1.00  0.00     0.338 C 
ATOM     22  O   UNL A   1      35.198  33.010  32.492  1.00  0.00    -0.246 OA
BRANCH  21  23
ATOM     23  C   UNL A   1      36.584  31.760  31.014  1.00  0.00     0.060 A 
ATOM     24  C   UNL A   1      37.430  31.136  31.937  1.00  0.00     0.016 A 
ATOM     25  C   UNL A   1      36.941  31.806  29.666  1.00  0.00     0.016 A 
ATOM     26  C   UNL A   1      38.648  30.595  31.524  1.00  0.00     0.010 A 
ATOM     27  C   UNL A   1      38.129  31.208  29.242  1.00  0.00     0.010 A 
ATOM     28  C   UNL A   1      39.002  30.616  30.170  1.00  0.00    -0.014 A 
BRANCH  28  29
ATOM     29  C   UNL A   1      40.290  30.046  29.699  1.00  0.00     0.031 A 
ATOM     30  C   UNL A   1      41.497  30.932  29.573  1.00  0.00     0.074 A 
ATOM     31  C   UNL A   1      40.365  28.752  29.333  1.00  0.00     0.049 A 
ATOM     32  N   UNL A   1      42.647  30.689  28.998  1.00  0.00    -0.248 NA
ATOM     33  C   UNL A   1      41.390  32.276  30.165  1.00  0.00     0.031 C 
ATOM     34  C   UNL A   1      39.283  27.772  29.440  1.00  0.00     0.029 A 
ATOM     35  N   UNL A   1      41.401  28.045  28.776  1.00  0.00    -0.354 N 
ATOM     36  C   UNL A   1      43.384  31.860  29.120  1.00  0.00     0.074 A 
ATOM     37  C   UNL A   1      42.551  32.815  29.818  1.00  0.00     0.031 C 
ATOM     38  C   UNL A   1      39.712  26.591  28.967  1.00  0.00     0.029 A 
ATOM     39  C   UNL A   1      41.073  26.749  28.465  1.00  0.00     0.049 A 
ATOM     40  H   UNL A   1      42.293  28.430  28.616  1.00  0.00     0.167 HD
ATOM     41  C   UNL A   1      44.640  32.115  28.685  1.00  0.00     0.031 A 
ATOM     42  C   UNL A   1      41.773  25.804  27.810  1.00  0.00     0.031 A 
ATOM     43  C   UNL A   1      45.474  31.161  28.003  1.00  0.00     0.049 A 
ATOM     44  C   UNL A   1      43.141  26.130  27.286  1.00  0.00     0.074 A 
ATOM     45  C   UNL A   1      46.768  31.322  27.538  1.00  0.00     0.029 A 
ATOM     46  N   UNL A   1      45.094  29.866  27.692  1.00  0.00    -0.354 N 
ATOM     47  N   UNL A   1      43.821  27.246  27.389  1.00  0.00    -0.248 NA
ATOM     48  C   UNL A   1      43.835  25.066  26.546  1.00  0.00     0.031 C 
ATOM     49  C   UNL A   1      47.157  30.134  26.910  1.00  0.00     0.029 A 
ATOM     50  C   UNL A   1      46.122  29.220  27.026  1.00  0.00     0.049 A 
ATOM     51  H   UNL A   1      44.223  29.464  27.913  1.00  0.00     0.167 HD
ATOM     52  C   UNL A   1      45.027  27.015  26.741  1.00  0.00     0.074 A 
ATOM     53  C   UNL A   1      44.993  25.648  26.264  1.00  0.00     0.031 C 
ATOM     54  C   UNL A   1      46.069  27.861  26.556  1.00  0.00     0.031 A 
BRANCH  41  55
ATOM     55  C   UNL A   1      45.178  33.500  28.904  1.00  0.00    -0.014 A 
ATOM     56  C   UNL A   1      45.894  33.831  30.066  1.00  0.00     0.009 A 
ATOM     57  C   UNL A   1      44.991  34.482  27.918  1.00  0.00     0.009 A 
ATOM     58  C   UNL A   1      46.386  35.125  30.246  1.00  0.00     0.001 A 
ATOM     59  C   UNL A   1      45.503  35.768  28.091  1.00  0.00     0.001 A 
ATOM     60  C   UNL A   1      46.194  36.091  29.259  1.00  0.00     0.000 A 
ENDBRANCH  41  55
BRANCH  42  61
ATOM     61  C   UNL A   1      41.171  24.466  27.575  1.00  0.00    -0.014 A 
ATOM     62  C   UNL A   1      40.087  24.319  26.699  1.00  0.00     0.009 A 
ATOM     63  C   UNL A   1      41.678  23.331  28.226  1.00  0.00     0.009 A 
ATOM     64  C   UNL A   1      39.509  23.064  26.493  1.00  0.00     0.001 A 
ATOM     65  C   UNL A   1      41.117  22.073  27.998  1.00  0.00     0.001 A 
ATOM     66  C   UNL A   1      40.029  21.941  27.137  1.00  0.00     0.000 A 
ENDBRANCH  42  61
BRANCH  54  67
ATOM     67  C   UNL A   1      47.268  27.317  25.836  1.00  0.00    -0.014 A 
ATOM     68  C   UNL A   1      47.406  27.460  24.447  1.00  0.00     0.009 A 
ATOM     69  C   UNL A   1      48.286  26.681  26.562  1.00  0.00     0.009 A 
ATOM     70  C   UNL A   1      48.529  26.947  23.794  1.00  0.00     0.001 A 
ATOM     71  C   UNL A   1      49.418  26.190  25.910  1.00  0.00     0.001 A 
ATOM     72  C   UNL A   1      49.534  26.316  24.527  1.00  0.00     0.000 A 
ENDBRANCH  54  67
ENDBRANCH  28  29
ENDBRANCH  21  23
ENDBRANCH  20  21
ENDBRANCH  19  20
ENDBRANCH   1  19
TORSDOF 15
ENDMDL
