MODEL 1
REMARK VINA RESULT:     -12.0      0.000      0.000
REMARK SMILES COc1ccc2c(c1)c(CC(=O)OCCOC(=O)c1ccc(-c3c4nc(c(-c5ccccc5)c5ccc([nH]5)c(-c5ccccc5)c5nc(c(-c6ccccc6)c6ccc3[nH]6)C=C5)C=C4)cc1)c(C(F)(F)F)n2C(=O)c1ccc(Cl)cc1
REMARK SMILES IDX 14 1 13 2 11 3 12 4 10 5 9 6 3 7 4 8 8 9 5 10 7 11 6 12
REMARK SMILES IDX 72 13 67 14 2 15 1 16 73 17 74 18 75 19 76 20 81 21 77 22
REMARK SMILES IDX 80 23 78 24 79 25 68 26 69 27 70 28 71 29 15 30 16 31 17 32
REMARK SMILES IDX 18 33 19 34 20 35 66 36 21 37 65 38 22 39 23 40 24 41 59 42
REMARK SMILES IDX 25 43 64 44 58 45 60 46 26 47 63 48 57 49 56 50 27 52 49 53
REMARK SMILES IDX 34 54 48 55 35 56 38 57 47 58 61 59 36 60 37 61 46 63 62 64
REMARK SMILES IDX 39 65 28 66 29 67 33 68 30 69 32 70 31 71 50 72 51 73 55 74
REMARK SMILES IDX 52 75 54 76 53 77 40 78 41 79 45 80 42 81 44 82 43 83
REMARK H PARENT 60 51 38 62
REMARK Flexibility Score: inf
ROOT
ATOM      1  C   UNL A   1      32.617  29.327  24.390  1.00  0.00     0.274 C 
ENDROOT
BRANCH   1   2
ATOM      2  O   UNL A   1      32.505  27.901  24.191  1.00  0.00    -0.462 OA
BRANCH   2   3
ATOM      3  C   UNL A   1      33.419  27.155  24.853  1.00  0.00     0.310 C 
ATOM      4  O   UNL A   1      33.820  27.396  25.988  1.00  0.00    -0.252 OA
BRANCH   3   5
ATOM      5  C   UNL A   1      34.023  26.037  24.056  1.00  0.00     0.161 C 
BRANCH   5   6
ATOM      6  C   UNL A   1      34.012  24.603  24.525  1.00  0.00     0.002 A 
ATOM      7  C   UNL A   1      37.241  22.912  25.818  1.00  0.00     0.119 A 
ATOM      8  C   UNL A   1      36.745  21.624  25.802  1.00  0.00     0.048 A 
ATOM      9  C   UNL A   1      36.382  23.978  25.500  1.00  0.00     0.057 A 
ATOM     10  C   UNL A   1      35.409  21.388  25.464  1.00  0.00     0.031 A 
ATOM     11  C   UNL A   1      35.046  23.776  25.077  1.00  0.00     0.008 A 
ATOM     12  C   UNL A   1      34.557  22.463  25.116  1.00  0.00     0.057 A 
ATOM     13  N   UNL A   1      33.186  22.521  24.827  1.00  0.00    -0.271 N 
ATOM     14  C   UNL A   1      32.944  23.751  24.235  1.00  0.00     0.135 A 
BRANCH   7  15
ATOM     15  O   UNL A   1      38.529  23.263  26.115  1.00  0.00    -0.497 OA
ATOM     16  C   UNL A   1      39.483  22.218  26.281  1.00  0.00     0.278 C 
ENDBRANCH   7  15
BRANCH  13  17
ATOM     17  C   UNL A   1      32.219  21.528  25.122  1.00  0.00     0.262 C 
ATOM     18  O   UNL A   1      31.211  21.853  25.740  1.00  0.00    -0.268 OA
BRANCH  17  19
ATOM     19  C   UNL A   1      32.381  20.102  24.820  1.00  0.00     0.040 A 
ATOM     20  C   UNL A   1      32.599  19.203  25.870  1.00  0.00     0.015 A 
ATOM     21  C   UNL A   1      32.393  19.683  23.487  1.00  0.00     0.015 A 
ATOM     22  C   UNL A   1      32.891  17.873  25.575  1.00  0.00     0.021 A 
ATOM     23  C   UNL A   1      32.682  18.347  23.200  1.00  0.00     0.021 A 
ATOM     24  C   UNL A   1      32.942  17.453  24.243  1.00  0.00     0.041 A 
ATOM     25  Cl  UNL A   1      33.357  15.825  23.884  1.00  0.00    -0.084 Cl
ENDBRANCH  17  19
ENDBRANCH  13  17
BRANCH  14  26
ATOM     26  C   UNL A   1      31.717  24.080  23.446  1.00  0.00     0.432 C 
ATOM     27  F   UNL A   1      31.206  22.978  22.846  1.00  0.00    -0.165 F 
ATOM     28  F   UNL A   1      30.741  24.532  24.290  1.00  0.00    -0.165 F 
ATOM     29  F   UNL A   1      31.847  25.062  22.529  1.00  0.00    -0.165 F 
ENDBRANCH  14  26
ENDBRANCH   5   6
ENDBRANCH   3   5
ENDBRANCH   2   3
ENDBRANCH   1   2
BRANCH   1  30
ATOM     30  C   UNL A   1      31.445  29.852  25.224  1.00  0.00     0.275 C 
BRANCH  30  31
ATOM     31  O   UNL A   1      31.924  30.180  26.538  1.00  0.00    -0.458 OA
BRANCH  31  32
ATOM     32  C   UNL A   1      32.162  31.487  26.804  1.00  0.00     0.338 C 
ATOM     33  O   UNL A   1      31.390  32.422  26.688  1.00  0.00    -0.246 OA
BRANCH  32  34
ATOM     34  C   UNL A   1      33.402  31.501  27.600  1.00  0.00     0.060 A 
ATOM     35  C   UNL A   1      33.928  32.704  28.067  1.00  0.00     0.016 A 
ATOM     36  C   UNL A   1      34.159  30.327  27.641  1.00  0.00     0.016 A 
ATOM     37  C   UNL A   1      35.266  32.751  28.434  1.00  0.00     0.010 A 
ATOM     38  C   UNL A   1      35.508  30.389  27.941  1.00  0.00     0.010 A 
ATOM     39  C   UNL A   1      36.072  31.611  28.286  1.00  0.00    -0.014 A 
BRANCH  39  40
ATOM     40  C   UNL A   1      37.437  31.643  28.781  1.00  0.00     0.031 A 
ATOM     41  C   UNL A   1      38.108  30.334  28.636  1.00  0.00     0.074 A 
ATOM     42  C   UNL A   1      38.152  32.691  29.226  1.00  0.00     0.049 A 
ATOM     43  N   UNL A   1      38.330  29.478  29.574  1.00  0.00    -0.248 NA
ATOM     44  C   UNL A   1      38.440  29.867  27.284  1.00  0.00     0.031 C 
ATOM     45  C   UNL A   1      37.878  34.123  29.152  1.00  0.00     0.029 A 
ATOM     46  N   UNL A   1      39.379  32.639  29.820  1.00  0.00    -0.354 N 
ATOM     47  C   UNL A   1      38.948  28.401  28.960  1.00  0.00     0.074 A 
ATOM     48  C   UNL A   1      38.860  28.629  27.538  1.00  0.00     0.031 C 
ATOM     49  C   UNL A   1      38.993  34.810  29.516  1.00  0.00     0.029 A 
ATOM     50  C   UNL A   1      39.989  33.867  30.007  1.00  0.00     0.049 A 
ATOM     51  H   UNL A   1      39.800  31.791  30.096  1.00  0.00     0.167 HD
ATOM     52  C   UNL A   1      39.647  27.480  29.671  1.00  0.00     0.031 A 
ATOM     53  C   UNL A   1      41.229  34.061  30.518  1.00  0.00     0.031 A 
ATOM     54  C   UNL A   1      39.384  27.576  31.083  1.00  0.00     0.049 A 
ATOM     55  C   UNL A   1      41.582  32.862  31.314  1.00  0.00     0.074 A 
ATOM     56  C   UNL A   1      38.254  27.429  31.865  1.00  0.00     0.029 A 
ATOM     57  N   UNL A   1      40.281  28.286  31.844  1.00  0.00    -0.354 N 
ATOM     58  N   UNL A   1      41.002  32.535  32.432  1.00  0.00    -0.248 NA
ATOM     59  C   UNL A   1      42.372  31.812  30.693  1.00  0.00     0.031 C 
ATOM     60  C   UNL A   1      38.358  28.442  32.864  1.00  0.00     0.029 A 
ATOM     61  C   UNL A   1      39.566  29.118  32.673  1.00  0.00     0.049 A 
ATOM     62  H   UNL A   1      41.263  28.212  31.804  1.00  0.00     0.167 HD
ATOM     63  C   UNL A   1      40.982  31.149  32.427  1.00  0.00     0.074 A 
ATOM     64  C   UNL A   1      41.959  30.766  31.413  1.00  0.00     0.031 C 
ATOM     65  C   UNL A   1      39.983  30.455  33.050  1.00  0.00     0.031 A 
BRANCH  52  66
ATOM     66  C   UNL A   1      40.796  26.708  29.096  1.00  0.00    -0.014 A 
ATOM     67  C   UNL A   1      40.644  25.444  28.491  1.00  0.00     0.009 A 
ATOM     68  C   UNL A   1      42.042  27.336  28.949  1.00  0.00     0.009 A 
ATOM     69  C   UNL A   1      41.685  24.817  27.805  1.00  0.00     0.001 A 
ATOM     70  C   UNL A   1      43.075  26.730  28.223  1.00  0.00     0.001 A 
ATOM     71  C   UNL A   1      42.899  25.471  27.656  1.00  0.00     0.000 A 
ENDBRANCH  52  66
BRANCH  53  72
ATOM     72  C   UNL A   1      42.261  35.062  30.178  1.00  0.00    -0.014 A 
ATOM     73  C   UNL A   1      42.509  35.377  28.831  1.00  0.00     0.009 A 
ATOM     74  C   UNL A   1      43.226  35.433  31.130  1.00  0.00     0.009 A 
ATOM     75  C   UNL A   1      43.713  35.975  28.443  1.00  0.00     0.001 A 
ATOM     76  C   UNL A   1      44.431  36.030  30.741  1.00  0.00     0.001 A 
ATOM     77  C   UNL A   1      44.683  36.280  29.394  1.00  0.00     0.000 A 
ENDBRANCH  53  72
BRANCH  65  78
ATOM     78  C   UNL A   1      39.076  31.216  34.000  1.00  0.00    -0.014 A 
ATOM     79  C   UNL A   1      39.315  31.110  35.380  1.00  0.00     0.009 A 
ATOM     80  C   UNL A   1      37.933  31.925  33.587  1.00  0.00     0.009 A 
ATOM     81  C   UNL A   1      38.451  31.693  36.312  1.00  0.00     0.001 A 
ATOM     82  C   UNL A   1      37.084  32.537  34.517  1.00  0.00     0.001 A 
ATOM     83  C   UNL A   1      37.340  32.414  35.880  1.00  0.00     0.000 A 
ENDBRANCH  65  78
ENDBRANCH  39  40
ENDBRANCH  32  34
ENDBRANCH  31  32
ENDBRANCH  30  31
ENDBRANCH   1  30
TORSDOF 16
ENDMDL
MODEL 2
REMARK VINA RESULT:     -11.9      2.454      5.958
REMARK SMILES COc1ccc2c(c1)c(CC(=O)OCCOC(=O)c1ccc(-c3c4nc(c(-c5ccccc5)c5ccc([nH]5)c(-c5ccccc5)c5nc(c(-c6ccccc6)c6ccc3[nH]6)C=C5)C=C4)cc1)c(C(F)(F)F)n2C(=O)c1ccc(Cl)cc1
REMARK SMILES IDX 14 1 13 2 11 3 12 4 10 5 9 6 3 7 4 8 8 9 5 10 7 11 6 12
REMARK SMILES IDX 72 13 67 14 2 15 1 16 73 17 74 18 75 19 76 20 81 21 77 22
REMARK SMILES IDX 80 23 78 24 79 25 68 26 69 27 70 28 71 29 15 30 16 31 17 32
REMARK SMILES IDX 18 33 19 34 20 35 66 36 21 37 65 38 22 39 23 40 24 41 59 42
REMARK SMILES IDX 25 43 64 44 58 45 60 46 26 47 63 48 57 49 56 50 27 52 49 53
REMARK SMILES IDX 34 54 48 55 35 56 38 57 47 58 61 59 36 60 37 61 46 63 62 64
REMARK SMILES IDX 39 65 28 66 29 67 33 68 30 69 32 70 31 71 50 72 51 73 55 74
REMARK SMILES IDX 52 75 54 76 53 77 40 78 41 79 45 80 42 81 44 82 43 83
REMARK H PARENT 60 51 38 62
REMARK Flexibility Score: inf
ROOT
ATOM      1  C   UNL A   1      33.082  29.598  26.210  1.00  0.00     0.274 C 
ENDROOT
BRANCH   1   2
ATOM      2  O   UNL A   1      33.530  28.287  26.621  1.00  0.00    -0.462 OA
BRANCH   2   3
ATOM      3  C   UNL A   1      33.545  27.353  25.643  1.00  0.00     0.310 C 
ATOM      4  O   UNL A   1      33.799  27.587  24.464  1.00  0.00    -0.252 OA
BRANCH   3   5
ATOM      5  C   UNL A   1      33.112  25.982  26.067  1.00  0.00     0.161 C 
BRANCH   5   6
ATOM      6  C   UNL A   1      33.560  24.728  25.358  1.00  0.00     0.002 A 
ATOM      7  C   UNL A   1      37.250  23.578  25.499  1.00  0.00     0.119 A 
ATOM      8  C   UNL A   1      37.146  22.639  24.493  1.00  0.00     0.048 A 
ATOM      9  C   UNL A   1      36.093  24.256  25.921  1.00  0.00     0.057 A 
ATOM     10  C   UNL A   1      35.908  22.377  23.899  1.00  0.00     0.031 A 
ATOM     11  C   UNL A   1      34.837  24.078  25.292  1.00  0.00     0.008 A 
ATOM     12  C   UNL A   1      34.753  23.084  24.308  1.00  0.00     0.057 A 
ATOM     13  N   UNL A   1      33.402  22.965  23.953  1.00  0.00    -0.271 N 
ATOM     14  C   UNL A   1      32.759  24.111  24.394  1.00  0.00     0.135 A 
BRANCH   7  15
ATOM     15  O   UNL A   1      38.406  23.930  26.140  1.00  0.00    -0.497 OA
ATOM     16  C   UNL A   1      39.299  22.888  26.523  1.00  0.00     0.278 C 
ENDBRANCH   7  15
BRANCH  13  17
ATOM     17  C   UNL A   1      32.795  21.862  23.302  1.00  0.00     0.262 C 
ATOM     18  O   UNL A   1      32.286  22.036  22.199  1.00  0.00    -0.268 OA
BRANCH  17  19
ATOM     19  C   UNL A   1      32.647  20.530  23.897  1.00  0.00     0.040 A 
ATOM     20  C   UNL A   1      32.823  20.376  25.277  1.00  0.00     0.015 A 
ATOM     21  C   UNL A   1      32.414  19.431  23.066  1.00  0.00     0.015 A 
ATOM     22  C   UNL A   1      32.821  19.095  25.823  1.00  0.00     0.021 A 
ATOM     23  C   UNL A   1      32.409  18.150  23.622  1.00  0.00     0.021 A 
ATOM     24  C   UNL A   1      32.625  17.988  24.993  1.00  0.00     0.041 A 
ATOM     25  Cl  UNL A   1      32.679  16.406  25.665  1.00  0.00    -0.084 Cl
ENDBRANCH  17  19
ENDBRANCH  13  17
BRANCH  14  26
ATOM     26  C   UNL A   1      31.417  24.564  23.913  1.00  0.00     0.432 C 
ATOM     27  F   UNL A   1      31.423  24.792  22.578  1.00  0.00    -0.165 F 
ATOM     28  F   UNL A   1      30.501  23.571  24.119  1.00  0.00    -0.165 F 
ATOM     29  F   UNL A   1      30.894  25.638  24.541  1.00  0.00    -0.165 F 
ENDBRANCH  14  26
ENDBRANCH   5   6
ENDBRANCH   3   5
ENDBRANCH   2   3
ENDBRANCH   1   2
BRANCH   1  30
ATOM     30  C   UNL A   1      33.272  30.615  27.338  1.00  0.00     0.275 C 
BRANCH  30  31
ATOM     31  O   UNL A   1      34.588  31.181  27.232  1.00  0.00    -0.458 OA
BRANCH  31  32
ATOM     32  C   UNL A   1      35.056  31.867  28.302  1.00  0.00     0.338 C 
ATOM     33  O   UNL A   1      34.503  32.766  28.910  1.00  0.00    -0.246 OA
BRANCH  32  34
ATOM     34  C   UNL A   1      36.190  31.072  28.806  1.00  0.00     0.060 A 
ATOM     35  C   UNL A   1      37.346  31.702  29.264  1.00  0.00     0.016 A 
ATOM     36  C   UNL A   1      36.175  29.696  28.563  1.00  0.00     0.016 A 
ATOM     37  C   UNL A   1      38.524  30.970  29.331  1.00  0.00     0.010 A 
ATOM     38  C   UNL A   1      37.362  28.985  28.565  1.00  0.00     0.010 A 
ATOM     39  C   UNL A   1      38.543  29.635  28.898  1.00  0.00    -0.014 A 
BRANCH  39  40
ATOM     40  C   UNL A   1      39.751  28.850  29.084  1.00  0.00     0.031 A 
ATOM     41  C   UNL A   1      40.053  28.630  30.514  1.00  0.00     0.074 A 
ATOM     42  C   UNL A   1      40.516  28.242  28.160  1.00  0.00     0.049 A 
ATOM     43  N   UNL A   1      40.953  29.235  31.209  1.00  0.00    -0.248 NA
ATOM     44  C   UNL A   1      39.169  27.747  31.285  1.00  0.00     0.031 C 
ATOM     45  C   UNL A   1      40.271  27.996  26.741  1.00  0.00     0.029 A 
ATOM     46  N   UNL A   1      41.723  27.644  28.376  1.00  0.00    -0.354 N 
ATOM     47  C   UNL A   1      40.843  28.725  32.492  1.00  0.00     0.074 A 
ATOM     48  C   UNL A   1      39.642  27.926  32.517  1.00  0.00     0.031 C 
ATOM     49  C   UNL A   1      41.214  27.139  26.269  1.00  0.00     0.029 A 
ATOM     50  C   UNL A   1      42.215  26.920  27.304  1.00  0.00     0.049 A 
ATOM     51  H   UNL A   1      42.208  27.720  29.230  1.00  0.00     0.167 HD
ATOM     52  C   UNL A   1      41.845  28.854  33.399  1.00  0.00     0.031 A 
ATOM     53  C   UNL A   1      43.359  26.193  27.303  1.00  0.00     0.031 A 
ATOM     54  C   UNL A   1      42.824  29.825  32.987  1.00  0.00     0.049 A 
ATOM     55  C   UNL A   1      44.228  26.717  28.382  1.00  0.00     0.074 A 
ATOM     56  C   UNL A   1      42.786  31.181  32.728  1.00  0.00     0.029 A 
ATOM     57  N   UNL A   1      43.958  29.353  32.369  1.00  0.00    -0.354 N 
ATOM     58  N   UNL A   1      44.789  27.890  28.358  1.00  0.00    -0.248 NA
ATOM     59  C   UNL A   1      44.213  26.062  29.680  1.00  0.00     0.031 C 
ATOM     60  C   UNL A   1      43.637  31.369  31.598  1.00  0.00     0.029 A 
ATOM     61  C   UNL A   1      44.187  30.131  31.258  1.00  0.00     0.049 A 
ATOM     62  H   UNL A   1      44.509  28.593  32.667  1.00  0.00     0.167 HD
ATOM     63  C   UNL A   1      44.796  28.306  29.680  1.00  0.00     0.074 A 
ATOM     64  C   UNL A   1      44.565  27.091  30.454  1.00  0.00     0.031 C 
ATOM     65  C   UNL A   1      44.717  29.632  30.003  1.00  0.00     0.031 A 
BRANCH  52  66
ATOM     66  C   UNL A   1      42.075  27.865  34.502  1.00  0.00    -0.014 A 
ATOM     67  C   UNL A   1      41.658  28.089  35.830  1.00  0.00     0.009 A 
ATOM     68  C   UNL A   1      42.527  26.575  34.188  1.00  0.00     0.009 A 
ATOM     69  C   UNL A   1      41.720  27.093  36.806  1.00  0.00     0.001 A 
ATOM     70  C   UNL A   1      42.548  25.561  35.153  1.00  0.00     0.001 A 
ATOM     71  C   UNL A   1      42.150  25.821  36.462  1.00  0.00     0.000 A 
ENDBRANCH  52  66
BRANCH  53  72
ATOM     72  C   UNL A   1      43.680  24.911  26.641  1.00  0.00    -0.014 A 
ATOM     73  C   UNL A   1      44.242  24.913  25.354  1.00  0.00     0.009 A 
ATOM     74  C   UNL A   1      43.117  23.713  27.114  1.00  0.00     0.009 A 
ATOM     75  C   UNL A   1      44.177  23.777  24.540  1.00  0.00     0.001 A 
ATOM     76  C   UNL A   1      43.051  22.576  26.298  1.00  0.00     0.001 A 
ATOM     77  C   UNL A   1      43.561  22.617  25.002  1.00  0.00     0.000 A 
ENDBRANCH  53  72
BRANCH  65  78
ATOM     78  C   UNL A   1      44.932  30.647  28.896  1.00  0.00    -0.014 A 
ATOM     79  C   UNL A   1      46.186  31.270  28.795  1.00  0.00     0.009 A 
ATOM     80  C   UNL A   1      43.910  31.091  28.037  1.00  0.00     0.009 A 
ATOM     81  C   UNL A   1      46.415  32.294  27.871  1.00  0.00     0.001 A 
ATOM     82  C   UNL A   1      44.146  32.094  27.088  1.00  0.00     0.001 A 
ATOM     83  C   UNL A   1      45.397  32.700  27.011  1.00  0.00     0.000 A 
ENDBRANCH  65  78
ENDBRANCH  39  40
ENDBRANCH  32  34
ENDBRANCH  31  32
ENDBRANCH  30  31
ENDBRANCH   1  30
TORSDOF 16
ENDMDL
MODEL 3
REMARK VINA RESULT:     -11.9      3.256      7.323
REMARK SMILES COc1ccc2c(c1)c(CC(=O)OCCOC(=O)c1ccc(-c3c4nc(c(-c5ccccc5)c5ccc([nH]5)c(-c5ccccc5)c5nc(c(-c6ccccc6)c6ccc3[nH]6)C=C5)C=C4)cc1)c(C(F)(F)F)n2C(=O)c1ccc(Cl)cc1
REMARK SMILES IDX 14 1 13 2 11 3 12 4 10 5 9 6 3 7 4 8 8 9 5 10 7 11 6 12
REMARK SMILES IDX 72 13 67 14 2 15 1 16 73 17 74 18 75 19 76 20 81 21 77 22
REMARK SMILES IDX 80 23 78 24 79 25 68 26 69 27 70 28 71 29 15 30 16 31 17 32
REMARK SMILES IDX 18 33 19 34 20 35 66 36 21 37 65 38 22 39 23 40 24 41 59 42
REMARK SMILES IDX 25 43 64 44 58 45 60 46 26 47 63 48 57 49 56 50 27 52 49 53
REMARK SMILES IDX 34 54 48 55 35 56 38 57 47 58 61 59 36 60 37 61 46 63 62 64
REMARK SMILES IDX 39 65 28 66 29 67 33 68 30 69 32 70 31 71 50 72 51 73 55 74
REMARK SMILES IDX 52 75 54 76 53 77 40 78 41 79 45 80 42 81 44 82 43 83
REMARK H PARENT 60 51 38 62
REMARK Flexibility Score: inf
ROOT
ATOM      1  C   UNL A   1      33.545  33.661  27.631  1.00  0.00     0.274 C 
ENDROOT
BRANCH   1   2
ATOM      2  O   UNL A   1      32.517  32.646  27.602  1.00  0.00    -0.462 OA
BRANCH   2   3
ATOM      3  C   UNL A   1      32.941  31.408  27.259  1.00  0.00     0.310 C 
ATOM      4  O   UNL A   1      34.120  31.096  27.111  1.00  0.00    -0.252 OA
BRANCH   3   5
ATOM      5  C   UNL A   1      31.851  30.427  26.948  1.00  0.00     0.161 C 
BRANCH   5   6
ATOM      6  C   UNL A   1      31.770  29.687  25.636  1.00  0.00     0.002 A 
ATOM      7  C   UNL A   1      29.023  30.532  23.047  1.00  0.00     0.119 A 
ATOM      8  C   UNL A   1      29.224  29.418  22.257  1.00  0.00     0.048 A 
ATOM      9  C   UNL A   1      29.880  30.757  24.138  1.00  0.00     0.057 A 
ATOM     10  C   UNL A   1      30.259  28.525  22.548  1.00  0.00     0.031 A 
ATOM     11  C   UNL A   1      30.889  29.837  24.513  1.00  0.00     0.008 A 
ATOM     12  C   UNL A   1      31.099  28.742  23.665  1.00  0.00     0.057 A 
ATOM     13  N   UNL A   1      32.241  28.071  24.127  1.00  0.00    -0.271 N 
ATOM     14  C   UNL A   1      32.465  28.493  25.428  1.00  0.00     0.135 A 
BRANCH   7  15
ATOM     15  O   UNL A   1      28.037  31.463  22.871  1.00  0.00    -0.497 OA
ATOM     16  C   UNL A   1      28.178  32.388  21.797  1.00  0.00     0.278 C 
ENDBRANCH   7  15
BRANCH  13  17
ATOM     17  C   UNL A   1      33.042  27.162  23.391  1.00  0.00     0.262 C 
ATOM     18  O   UNL A   1      33.946  27.607  22.693  1.00  0.00    -0.268 OA
BRANCH  17  19
ATOM     19  C   UNL A   1      32.807  25.716  23.331  1.00  0.00     0.040 A 
ATOM     20  C   UNL A   1      33.876  24.863  23.038  1.00  0.00     0.015 A 
ATOM     21  C   UNL A   1      31.506  25.227  23.488  1.00  0.00     0.015 A 
ATOM     22  C   UNL A   1      33.628  23.506  22.843  1.00  0.00     0.021 A 
ATOM     23  C   UNL A   1      31.267  23.865  23.295  1.00  0.00     0.021 A 
ATOM     24  C   UNL A   1      32.325  23.014  22.962  1.00  0.00     0.041 A 
ATOM     25  Cl  UNL A   1      32.017  21.350  22.666  1.00  0.00    -0.084 Cl
ENDBRANCH  17  19
ENDBRANCH  13  17
BRANCH  14  26
ATOM     26  C   UNL A   1      33.337  27.776  26.410  1.00  0.00     0.432 C 
ATOM     27  F   UNL A   1      33.193  26.433  26.307  1.00  0.00    -0.165 F 
ATOM     28  F   UNL A   1      34.649  28.035  26.127  1.00  0.00    -0.165 F 
ATOM     29  F   UNL A   1      33.195  28.137  27.703  1.00  0.00    -0.165 F 
ENDBRANCH  14  26
ENDBRANCH   5   6
ENDBRANCH   3   5
ENDBRANCH   2   3
ENDBRANCH   1   2
BRANCH   1  30
ATOM     30  C   UNL A   1      33.747  34.189  29.053  1.00  0.00     0.275 C 
BRANCH  30  31
ATOM     31  O   UNL A   1      35.060  33.820  29.500  1.00  0.00    -0.458 OA
BRANCH  31  32
ATOM     32  C   UNL A   1      35.146  32.843  30.435  1.00  0.00     0.338 C 
ATOM     33  O   UNL A   1      34.322  32.551  31.284  1.00  0.00    -0.246 OA
BRANCH  32  34
ATOM     34  C   UNL A   1      36.254  31.979  29.991  1.00  0.00     0.060 A 
ATOM     35  C   UNL A   1      36.042  30.619  29.769  1.00  0.00     0.016 A 
ATOM     36  C   UNL A   1      37.549  32.498  30.060  1.00  0.00     0.016 A 
ATOM     37  C   UNL A   1      37.136  29.764  29.768  1.00  0.00     0.010 A 
ATOM     38  C   UNL A   1      38.631  31.639  30.125  1.00  0.00     0.010 A 
ATOM     39  C   UNL A   1      38.419  30.269  30.033  1.00  0.00    -0.014 A 
BRANCH  39  40
ATOM     40  C   UNL A   1      39.565  29.385  29.912  1.00  0.00     0.031 A 
ATOM     41  C   UNL A   1      40.009  28.873  31.225  1.00  0.00     0.074 A 
ATOM     42  C   UNL A   1      40.161  28.919  28.800  1.00  0.00     0.049 A 
ATOM     43  N   UNL A   1      41.033  29.271  31.897  1.00  0.00    -0.248 NA
ATOM     44  C   UNL A   1      39.143  27.918  31.929  1.00  0.00     0.031 C 
ATOM     45  C   UNL A   1      39.733  28.969  27.405  1.00  0.00     0.029 A 
ATOM     46  N   UNL A   1      41.326  28.212  28.744  1.00  0.00    -0.354 N 
ATOM     47  C   UNL A   1      41.026  28.530  33.067  1.00  0.00     0.074 A 
ATOM     48  C   UNL A   1      39.770  27.823  33.101  1.00  0.00     0.031 C 
ATOM     49  C   UNL A   1      40.535  28.160  26.664  1.00  0.00     0.029 A 
ATOM     50  C   UNL A   1      41.625  27.679  27.502  1.00  0.00     0.049 A 
ATOM     51  H   UNL A   1      41.911  28.089  29.527  1.00  0.00     0.167 HD
ATOM     52  C   UNL A   1      42.133  28.414  33.844  1.00  0.00     0.031 A 
ATOM     53  C   UNL A   1      42.691  26.892  27.219  1.00  0.00     0.031 A 
ATOM     54  C   UNL A   1      43.142  29.380  33.495  1.00  0.00     0.049 A 
ATOM     55  C   UNL A   1      43.722  27.138  28.254  1.00  0.00     0.074 A 
ATOM     56  C   UNL A   1      43.196  30.760  33.497  1.00  0.00     0.029 A 
ATOM     57  N   UNL A   1      44.150  28.963  32.658  1.00  0.00    -0.354 N 
ATOM     58  N   UNL A   1      44.380  28.254  28.373  1.00  0.00    -0.248 NA
ATOM     59  C   UNL A   1      43.798  26.246  29.399  1.00  0.00     0.031 C 
ATOM     60  C   UNL A   1      43.924  31.107  32.320  1.00  0.00     0.029 A 
ATOM     61  C   UNL A   1      44.319  29.925  31.690  1.00  0.00     0.049 A 
ATOM     62  H   UNL A   1      44.661  28.125  32.737  1.00  0.00     0.167 HD
ATOM     63  C   UNL A   1      44.576  28.405  29.736  1.00  0.00     0.074 A 
ATOM     64  C   UNL A   1      44.327  27.080  30.297  1.00  0.00     0.031 C 
ATOM     65  C   UNL A   1      44.653  29.645  30.306  1.00  0.00     0.031 A 
BRANCH  52  66
ATOM     66  C   UNL A   1      42.400  27.217  34.708  1.00  0.00    -0.014 A 
ATOM     67  C   UNL A   1      41.866  27.074  36.004  1.00  0.00     0.009 A 
ATOM     68  C   UNL A   1      43.022  26.091  34.149  1.00  0.00     0.009 A 
ATOM     69  C   UNL A   1      41.975  25.885  36.726  1.00  0.00     0.001 A 
ATOM     70  C   UNL A   1      43.094  24.882  34.852  1.00  0.00     0.001 A 
ATOM     71  C   UNL A   1      42.575  24.781  36.141  1.00  0.00     0.000 A 
ENDBRANCH  52  66
BRANCH  53  72
ATOM     72  C   UNL A   1      42.818  25.744  26.296  1.00  0.00    -0.014 A 
ATOM     73  C   UNL A   1      42.106  24.561  26.553  1.00  0.00     0.009 A 
ATOM     74  C   UNL A   1      43.887  25.687  25.385  1.00  0.00     0.009 A 
ATOM     75  C   UNL A   1      42.497  23.347  25.976  1.00  0.00     0.001 A 
ATOM     76  C   UNL A   1      44.279  24.472  24.809  1.00  0.00     0.001 A 
ATOM     77  C   UNL A   1      43.597  23.298  25.124  1.00  0.00     0.000 A 
ENDBRANCH  53  72
BRANCH  65  78
ATOM     78  C   UNL A   1      44.829  30.838  29.386  1.00  0.00    -0.014 A 
ATOM     79  C   UNL A   1      46.113  31.391  29.248  1.00  0.00     0.009 A 
ATOM     80  C   UNL A   1      43.760  31.502  28.756  1.00  0.00     0.009 A 
ATOM     81  C   UNL A   1      46.323  32.558  28.506  1.00  0.00     0.001 A 
ATOM     82  C   UNL A   1      43.973  32.652  27.986  1.00  0.00     0.001 A 
ATOM     83  C   UNL A   1      45.254  33.184  27.868  1.00  0.00     0.000 A 
ENDBRANCH  65  78
ENDBRANCH  39  40
ENDBRANCH  32  34
ENDBRANCH  31  32
ENDBRANCH  30  31
ENDBRANCH   1  30
TORSDOF 16
ENDMDL
