MODEL 1
REMARK VINA RESULT:      -9.7      0.000      0.000
REMARK SMILES Cc1cc2c(c(C)c1Cl)C=C(C(=O)OCCOC(=O)c1ccc(-c3c4nc(c(-c5ccccc5)c5ccc([nH]5)c(-c5ccccc5)c5nc(c(-c6ccccc6)c6ccc3[nH]6)C=C5)C=C4)cc1)[C@@H](C(F)(F)F)O2
REMARK SMILES IDX 16 1 15 2 14 3 12 4 13 5 11 6 1 7 2 8 3 9 8 10 4 11 6 12
REMARK SMILES IDX 9 13 5 14 73 15 7 16 10 17 68 18 69 19 70 20 71 21 72 22
REMARK SMILES IDX 17 23 18 24 19 25 20 26 21 27 67 28 22 29 66 30 23 31 24 32
REMARK SMILES IDX 25 33 60 34 26 35 65 36 59 37 61 38 27 39 64 40 58 41 57 42
REMARK SMILES IDX 28 44 50 45 35 46 49 47 36 48 39 49 48 50 62 51 37 52 38 53
REMARK SMILES IDX 47 55 63 56 40 57 29 58 30 59 34 60 31 61 33 62 32 63 51 64
REMARK SMILES IDX 52 65 56 66 53 67 55 68 54 69 41 70 42 71 46 72 43 73 45 74
REMARK SMILES IDX 44 75
REMARK H PARENT 61 43 39 54
REMARK Flexibility Score: inf
ROOT
ATOM      1  C   UNL A   1      39.816  19.666  25.874  1.00  0.00     0.275 C 
ENDROOT
BRANCH   1   2
ATOM      2  C   UNL A   1      41.293  19.573  26.256  1.00  0.00     0.275 C 
BRANCH   2   3
ATOM      3  O   UNL A   1      42.033  20.709  25.758  1.00  0.00    -0.459 OA
BRANCH   3   4
ATOM      4  C   UNL A   1      43.317  20.463  25.414  1.00  0.00     0.338 C 
ATOM      5  O   UNL A   1      43.717  19.591  24.658  1.00  0.00    -0.246 OA
BRANCH   4   6
ATOM      6  C   UNL A   1      44.222  21.423  26.074  1.00  0.00     0.087 C 
ATOM      7  C   UNL A   1      47.010  26.256  29.375  1.00  0.00     0.046 C 
ATOM      8  C   UNL A   1      46.188  25.075  28.934  1.00  0.00    -0.028 A 
ATOM      9  C   UNL A   1      46.538  24.451  27.728  1.00  0.00     0.052 A 
ATOM     10  C   UNL A   1      45.054  24.617  29.633  1.00  0.00     0.047 A 
ATOM     11  C   UNL A   1      45.783  23.401  27.214  1.00  0.00     0.128 A 
ATOM     12  C   UNL A   1      44.288  23.534  29.142  1.00  0.00    -0.021 A 
ATOM     13  Cl  UNL A   1      44.592  25.422  31.104  1.00  0.00    -0.084 Cl
ATOM     14  C   UNL A   1      44.657  22.942  27.905  1.00  0.00     0.022 A 
ATOM     15  O   UNL A   1      46.234  22.877  26.035  1.00  0.00    -0.475 OA
ATOM     16  C   UNL A   1      43.096  23.001  29.903  1.00  0.00     0.047 C 
ATOM     17  C   UNL A   1      43.874  21.878  27.284  1.00  0.00     0.027 C 
ATOM     18  C   UNL A   1      45.394  21.946  25.303  1.00  0.00     0.316 C 
BRANCH  18  19
ATOM     19  C   UNL A   1      44.952  22.598  23.982  1.00  0.00     0.430 C 
ATOM     20  F   UNL A   1      45.845  23.528  23.568  1.00  0.00    -0.167 F 
ATOM     21  F   UNL A   1      44.856  21.684  22.986  1.00  0.00    -0.167 F 
ATOM     22  F   UNL A   1      43.749  23.207  24.091  1.00  0.00    -0.167 F 
ENDBRANCH  18  19
ENDBRANCH   4   6
ENDBRANCH   3   4
ENDBRANCH   2   3
ENDBRANCH   1   2
BRANCH   1  23
ATOM     23  O   UNL A   1      39.537  20.953  25.293  1.00  0.00    -0.458 OA
BRANCH  23  24
ATOM     24  C   UNL A   1      38.526  21.644  25.867  1.00  0.00     0.338 C 
ATOM     25  O   UNL A   1      37.347  21.340  25.907  1.00  0.00    -0.246 OA
BRANCH  24  26
ATOM     26  C   UNL A   1      39.051  22.844  26.539  1.00  0.00     0.060 A 
ATOM     27  C   UNL A   1      38.593  24.094  26.138  1.00  0.00     0.016 A 
ATOM     28  C   UNL A   1      40.129  22.751  27.416  1.00  0.00     0.016 A 
ATOM     29  C   UNL A   1      39.310  25.237  26.476  1.00  0.00     0.010 A 
ATOM     30  C   UNL A   1      40.759  23.919  27.869  1.00  0.00     0.010 A 
ATOM     31  C   UNL A   1      40.401  25.179  27.354  1.00  0.00    -0.014 A 
BRANCH  31  32
ATOM     32  C   UNL A   1      41.184  26.413  27.679  1.00  0.00     0.031 A 
ATOM     33  C   UNL A   1      40.657  27.416  28.683  1.00  0.00     0.074 A 
ATOM     34  C   UNL A   1      42.395  26.635  27.121  1.00  0.00     0.049 A 
ATOM     35  N   UNL A   1      41.086  28.627  28.944  1.00  0.00    -0.248 NA
ATOM     36  C   UNL A   1      39.492  27.013  29.489  1.00  0.00     0.031 C 
ATOM     37  C   UNL A   1      43.085  25.740  26.188  1.00  0.00     0.029 A 
ATOM     38  N   UNL A   1      43.280  27.678  27.279  1.00  0.00    -0.354 N 
ATOM     39  C   UNL A   1      40.205  29.151  29.885  1.00  0.00     0.074 A 
ATOM     40  C   UNL A   1      39.216  28.129  30.152  1.00  0.00     0.031 C 
ATOM     41  C   UNL A   1      44.307  26.225  25.928  1.00  0.00     0.029 A 
ATOM     42  C   UNL A   1      44.442  27.531  26.558  1.00  0.00     0.049 A 
ATOM     43  H   UNL A   1      43.097  28.456  27.854  1.00  0.00     0.167 HD
ATOM     44  C   UNL A   1      40.216  30.372  30.472  1.00  0.00     0.031 A 
ATOM     45  C   UNL A   1      45.481  28.367  26.369  1.00  0.00     0.031 A 
ATOM     46  C   UNL A   1      41.236  31.366  30.263  1.00  0.00     0.049 A 
ATOM     47  C   UNL A   1      45.441  29.736  26.982  1.00  0.00     0.074 A 
ATOM     48  C   UNL A   1      41.329  32.633  30.813  1.00  0.00     0.029 A 
ATOM     49  N   UNL A   1      42.356  31.193  29.464  1.00  0.00    -0.354 N 
ATOM     50  N   UNL A   1      44.546  30.253  27.786  1.00  0.00    -0.248 NA
ATOM     51  C   UNL A   1      46.540  30.649  26.633  1.00  0.00     0.031 C 
ATOM     52  C   UNL A   1      42.481  33.244  30.314  1.00  0.00     0.029 A 
ATOM     53  C   UNL A   1      43.135  32.337  29.497  1.00  0.00     0.049 A 
ATOM     54  H   UNL A   1      42.565  30.379  28.951  1.00  0.00     0.167 HD
ATOM     55  C   UNL A   1      44.975  31.548  28.043  1.00  0.00     0.074 A 
ATOM     56  C   UNL A   1      46.223  31.729  27.334  1.00  0.00     0.031 C 
ATOM     57  C   UNL A   1      44.376  32.505  28.790  1.00  0.00     0.031 A 
BRANCH  44  58
ATOM     58  C   UNL A   1      39.077  30.735  31.386  1.00  0.00    -0.014 A 
ATOM     59  C   UNL A   1      39.152  30.535  32.771  1.00  0.00     0.009 A 
ATOM     60  C   UNL A   1      37.949  31.384  30.853  1.00  0.00     0.009 A 
ATOM     61  C   UNL A   1      38.115  30.967  33.603  1.00  0.00     0.001 A 
ATOM     62  C   UNL A   1      36.928  31.838  31.689  1.00  0.00     0.001 A 
ATOM     63  C   UNL A   1      37.011  31.625  33.064  1.00  0.00     0.000 A 
ENDBRANCH  44  58
BRANCH  45  64
ATOM     64  C   UNL A   1      46.616  27.958  25.495  1.00  0.00    -0.014 A 
ATOM     65  C   UNL A   1      47.786  27.418  26.048  1.00  0.00     0.009 A 
ATOM     66  C   UNL A   1      46.530  28.099  24.099  1.00  0.00     0.009 A 
ATOM     67  C   UNL A   1      48.849  27.039  25.224  1.00  0.00     0.001 A 
ATOM     68  C   UNL A   1      47.578  27.684  23.276  1.00  0.00     0.001 A 
ATOM     69  C   UNL A   1      48.740  27.163  23.839  1.00  0.00     0.000 A 
ENDBRANCH  45  64
BRANCH  57  70
ATOM     70  C   UNL A   1      45.073  33.830  28.904  1.00  0.00    -0.014 A 
ATOM     71  C   UNL A   1      46.044  34.052  29.892  1.00  0.00     0.009 A 
ATOM     72  C   UNL A   1      44.798  34.845  27.975  1.00  0.00     0.009 A 
ATOM     73  C   UNL A   1      46.711  35.277  29.960  1.00  0.00     0.001 A 
ATOM     74  C   UNL A   1      45.485  36.057  28.029  1.00  0.00     0.001 A 
ATOM     75  C   UNL A   1      46.436  36.275  29.025  1.00  0.00     0.000 A 
ENDBRANCH  57  70
ENDBRANCH  31  32
ENDBRANCH  24  26
ENDBRANCH  23  24
ENDBRANCH   1  23
TORSDOF 12
ENDMDL
MODEL 2
REMARK VINA RESULT:      -9.6      4.657      7.227
REMARK SMILES Cc1cc2c(c(C)c1Cl)C=C(C(=O)OCCOC(=O)c1ccc(-c3c4nc(c(-c5ccccc5)c5ccc([nH]5)c(-c5ccccc5)c5nc(c(-c6ccccc6)c6ccc3[nH]6)C=C5)C=C4)cc1)[C@@H](C(F)(F)F)O2
REMARK SMILES IDX 16 1 15 2 14 3 12 4 13 5 11 6 1 7 2 8 3 9 8 10 4 11 6 12
REMARK SMILES IDX 9 13 5 14 73 15 7 16 10 17 68 18 69 19 70 20 71 21 72 22
REMARK SMILES IDX 17 23 18 24 19 25 20 26 21 27 67 28 22 29 66 30 23 31 24 32
REMARK SMILES IDX 25 33 60 34 26 35 65 36 59 37 61 38 27 39 64 40 58 41 57 42
REMARK SMILES IDX 28 44 50 45 35 46 49 47 36 48 39 49 48 50 62 51 37 52 38 53
REMARK SMILES IDX 47 55 63 56 40 57 29 58 30 59 34 60 31 61 33 62 32 63 51 64
REMARK SMILES IDX 52 65 56 66 53 67 55 68 54 69 41 70 42 71 46 72 43 73 45 74
REMARK SMILES IDX 44 75
REMARK H PARENT 61 43 39 54
REMARK Flexibility Score: inf
ROOT
ATOM      1  C   UNL A   1      35.991  20.704  25.001  1.00  0.00     0.275 C 
ENDROOT
BRANCH   1   2
ATOM      2  C   UNL A   1      35.107  21.444  26.003  1.00  0.00     0.275 C 
BRANCH   2   3
ATOM      3  O   UNL A   1      34.681  22.721  25.480  1.00  0.00    -0.459 OA
BRANCH   3   4
ATOM      4  C   UNL A   1      33.745  23.367  26.211  1.00  0.00     0.338 C 
ATOM      5  O   UNL A   1      33.400  23.106  27.353  1.00  0.00    -0.246 OA
BRANCH   4   6
ATOM      6  C   UNL A   1      33.173  24.489  25.441  1.00  0.00     0.087 C 
ATOM      7  C   UNL A   1      30.157  29.813  23.299  1.00  0.00     0.046 C 
ATOM      8  C   UNL A   1      31.022  28.820  24.029  1.00  0.00    -0.028 A 
ATOM      9  C   UNL A   1      31.168  27.545  23.463  1.00  0.00     0.052 A 
ATOM     10  C   UNL A   1      31.625  29.086  25.273  1.00  0.00     0.047 A 
ATOM     11  C   UNL A   1      31.890  26.547  24.113  1.00  0.00     0.128 A 
ATOM     12  C   UNL A   1      32.385  28.095  25.937  1.00  0.00    -0.021 A 
ATOM     13  Cl  UNL A   1      31.403  30.652  25.997  1.00  0.00    -0.084 Cl
ATOM     14  C   UNL A   1      32.492  26.807  25.348  1.00  0.00     0.022 A 
ATOM     15  O   UNL A   1      31.962  25.352  23.453  1.00  0.00    -0.475 OA
ATOM     16  C   UNL A   1      33.077  28.379  27.250  1.00  0.00     0.047 C 
ATOM     17  C   UNL A   1      33.184  25.703  26.005  1.00  0.00     0.027 C 
ATOM     18  C   UNL A   1      32.484  24.188  24.146  1.00  0.00     0.316 C 
BRANCH  18  19
ATOM     19  C   UNL A   1      31.352  23.165  24.335  1.00  0.00     0.430 C 
ATOM     20  F   UNL A   1      30.762  23.299  25.546  1.00  0.00    -0.167 F 
ATOM     21  F   UNL A   1      30.376  23.327  23.410  1.00  0.00    -0.167 F 
ATOM     22  F   UNL A   1      31.795  21.890  24.237  1.00  0.00    -0.167 F 
ENDBRANCH  18  19
ENDBRANCH   4   6
ENDBRANCH   3   4
ENDBRANCH   2   3
ENDBRANCH   1   2
BRANCH   1  23
ATOM     23  O   UNL A   1      37.182  21.468  24.736  1.00  0.00    -0.458 OA
BRANCH  23  24
ATOM     24  C   UNL A   1      38.292  21.064  25.396  1.00  0.00     0.338 C 
ATOM     25  O   UNL A   1      38.808  19.961  25.376  1.00  0.00    -0.246 OA
BRANCH  24  26
ATOM     26  C   UNL A   1      38.883  22.196  26.129  1.00  0.00     0.060 A 
ATOM     27  C   UNL A   1      38.290  23.448  26.023  1.00  0.00     0.016 A 
ATOM     28  C   UNL A   1      40.123  22.067  26.751  1.00  0.00     0.016 A 
ATOM     29  C   UNL A   1      39.003  24.586  26.386  1.00  0.00     0.010 A 
ATOM     30  C   UNL A   1      40.773  23.206  27.247  1.00  0.00     0.010 A 
ATOM     31  C   UNL A   1      40.254  24.493  27.013  1.00  0.00    -0.014 A 
BRANCH  31  32
ATOM     32  C   UNL A   1      41.024  25.728  27.364  1.00  0.00     0.031 A 
ATOM     33  C   UNL A   1      40.465  26.727  28.354  1.00  0.00     0.074 A 
ATOM     34  C   UNL A   1      42.251  25.954  26.843  1.00  0.00     0.049 A 
ATOM     35  N   UNL A   1      40.883  27.939  28.631  1.00  0.00    -0.248 NA
ATOM     36  C   UNL A   1      39.276  26.320  29.124  1.00  0.00     0.031 C 
ATOM     37  C   UNL A   1      42.970  25.063  25.929  1.00  0.00     0.029 A 
ATOM     38  N   UNL A   1      43.128  26.998  27.031  1.00  0.00    -0.354 N 
ATOM     39  C   UNL A   1      39.973  28.458  29.547  1.00  0.00     0.074 A 
ATOM     40  C   UNL A   1      38.979  27.433  29.782  1.00  0.00     0.031 C 
ATOM     41  C   UNL A   1      44.199  25.551  25.707  1.00  0.00     0.029 A 
ATOM     42  C   UNL A   1      44.311  26.855  26.345  1.00  0.00     0.049 A 
ATOM     43  H   UNL A   1      42.927  27.775  27.602  1.00  0.00     0.167 HD
ATOM     44  C   UNL A   1      39.964  29.678  30.137  1.00  0.00     0.031 A 
ATOM     45  C   UNL A   1      45.354  27.694  26.189  1.00  0.00     0.031 A 
ATOM     46  C   UNL A   1      40.988  30.674  29.960  1.00  0.00     0.049 A 
ATOM     47  C   UNL A   1      45.293  29.061  26.803  1.00  0.00     0.074 A 
ATOM     48  C   UNL A   1      41.061  31.940  30.516  1.00  0.00     0.029 A 
ATOM     49  N   UNL A   1      42.131  30.506  29.196  1.00  0.00    -0.354 N 
ATOM     50  N   UNL A   1      44.373  29.575  27.582  1.00  0.00    -0.248 NA
ATOM     51  C   UNL A   1      46.399  29.978  26.490  1.00  0.00     0.031 C 
ATOM     52  C   UNL A   1      42.226  32.555  30.054  1.00  0.00     0.029 A 
ATOM     53  C   UNL A   1      42.906  31.652  29.255  1.00  0.00     0.049 A 
ATOM     54  H   UNL A   1      42.358  29.694  28.687  1.00  0.00     0.167 HD
ATOM     55  C   UNL A   1      44.791  30.870  27.855  1.00  0.00     0.074 A 
ATOM     56  C   UNL A   1      46.060  31.055  27.184  1.00  0.00     0.031 C 
ATOM     57  C   UNL A   1      44.168  31.824  28.585  1.00  0.00     0.031 A 
BRANCH  44  58
ATOM     58  C   UNL A   1      38.797  30.036  31.016  1.00  0.00    -0.014 A 
ATOM     59  C   UNL A   1      38.846  29.871  32.407  1.00  0.00     0.009 A 
ATOM     60  C   UNL A   1      37.667  30.646  30.444  1.00  0.00     0.009 A 
ATOM     61  C   UNL A   1      37.782  30.299  33.206  1.00  0.00     0.001 A 
ATOM     62  C   UNL A   1      36.618  31.096  31.247  1.00  0.00     0.001 A 
ATOM     63  C   UNL A   1      36.675  30.919  32.628  1.00  0.00     0.000 A 
ENDBRANCH  44  58
BRANCH  45  64
ATOM     64  C   UNL A   1      46.515  27.289  25.348  1.00  0.00    -0.014 A 
ATOM     65  C   UNL A   1      47.452  26.360  25.823  1.00  0.00     0.009 A 
ATOM     66  C   UNL A   1      46.688  27.827  24.062  1.00  0.00     0.009 A 
ATOM     67  C   UNL A   1      48.542  25.986  25.032  1.00  0.00     0.001 A 
ATOM     68  C   UNL A   1      47.756  27.424  23.259  1.00  0.00     0.001 A 
ATOM     69  C   UNL A   1      48.687  26.510  23.748  1.00  0.00     0.000 A 
ENDBRANCH  45  64
BRANCH  57  70
ATOM     70  C   UNL A   1      44.858  33.150  28.724  1.00  0.00    -0.014 A 
ATOM     71  C   UNL A   1      45.841  33.353  29.703  1.00  0.00     0.009 A 
ATOM     72  C   UNL A   1      44.564  34.186  27.825  1.00  0.00     0.009 A 
ATOM     73  C   UNL A   1      46.502  34.580  29.793  1.00  0.00     0.001 A 
ATOM     74  C   UNL A   1      45.244  35.401  27.900  1.00  0.00     0.001 A 
ATOM     75  C   UNL A   1      46.207  35.600  28.889  1.00  0.00     0.000 A 
ENDBRANCH  57  70
ENDBRANCH  31  32
ENDBRANCH  24  26
ENDBRANCH  23  24
ENDBRANCH   1  23
TORSDOF 12
ENDMDL
MODEL 3
REMARK VINA RESULT:      -9.5      5.489     10.569
REMARK SMILES Cc1cc2c(c(C)c1Cl)C=C(C(=O)OCCOC(=O)c1ccc(-c3c4nc(c(-c5ccccc5)c5ccc([nH]5)c(-c5ccccc5)c5nc(c(-c6ccccc6)c6ccc3[nH]6)C=C5)C=C4)cc1)[C@@H](C(F)(F)F)O2
REMARK SMILES IDX 16 1 15 2 14 3 12 4 13 5 11 6 1 7 2 8 3 9 8 10 4 11 6 12
REMARK SMILES IDX 9 13 5 14 73 15 7 16 10 17 68 18 69 19 70 20 71 21 72 22
REMARK SMILES IDX 17 23 18 24 19 25 20 26 21 27 67 28 22 29 66 30 23 31 24 32
REMARK SMILES IDX 25 33 60 34 26 35 65 36 59 37 61 38 27 39 64 40 58 41 57 42
REMARK SMILES IDX 28 44 50 45 35 46 49 47 36 48 39 49 48 50 62 51 37 52 38 53
REMARK SMILES IDX 47 55 63 56 40 57 29 58 30 59 34 60 31 61 33 62 32 63 51 64
REMARK SMILES IDX 52 65 56 66 53 67 55 68 54 69 41 70 42 71 46 72 43 73 45 74
REMARK SMILES IDX 44 75
REMARK H PARENT 61 43 39 54
REMARK Flexibility Score: inf
ROOT
ATOM      1  C   UNL A   1      31.759  30.086  25.421  1.00  0.00     0.275 C 
ENDROOT
BRANCH   1   2
ATOM      2  C   UNL A   1      31.433  28.655  24.997  1.00  0.00     0.275 C 
BRANCH   2   3
ATOM      3  O   UNL A   1      32.378  27.717  25.557  1.00  0.00    -0.459 OA
BRANCH   3   4
ATOM      4  C   UNL A   1      33.233  27.154  24.674  1.00  0.00     0.338 C 
ATOM      5  O   UNL A   1      33.941  27.738  23.868  1.00  0.00    -0.246 OA
BRANCH   4   6
ATOM      6  C   UNL A   1      33.226  25.685  24.813  1.00  0.00     0.087 C 
ATOM      7  C   UNL A   1      34.352  19.302  24.648  1.00  0.00     0.046 C 
ATOM      8  C   UNL A   1      34.440  20.795  24.820  1.00  0.00    -0.028 A 
ATOM      9  C   UNL A   1      33.247  21.530  24.760  1.00  0.00     0.052 A 
ATOM     10  C   UNL A   1      35.658  21.487  24.965  1.00  0.00     0.047 A 
ATOM     11  C   UNL A   1      33.251  22.920  24.834  1.00  0.00     0.128 A 
ATOM     12  C   UNL A   1      35.683  22.897  25.069  1.00  0.00    -0.021 A 
ATOM     13  Cl  UNL A   1      37.142  20.580  24.990  1.00  0.00    -0.084 Cl
ATOM     14  C   UNL A   1      34.458  23.611  24.979  1.00  0.00     0.022 A 
ATOM     15  O   UNL A   1      32.022  23.514  24.770  1.00  0.00    -0.475 OA
ATOM     16  C   UNL A   1      36.978  23.652  25.271  1.00  0.00     0.047 C 
ATOM     17  C   UNL A   1      34.401  25.069  24.992  1.00  0.00     0.027 C 
ATOM     18  C   UNL A   1      31.937  24.954  24.603  1.00  0.00     0.316 C 
BRANCH  18  19
ATOM     19  C   UNL A   1      31.332  25.265  23.224  1.00  0.00     0.430 C 
ATOM     20  F   UNL A   1      30.598  24.227  22.760  1.00  0.00    -0.167 F 
ATOM     21  F   UNL A   1      30.500  26.334  23.276  1.00  0.00    -0.167 F 
ATOM     22  F   UNL A   1      32.283  25.537  22.300  1.00  0.00    -0.167 F 
ENDBRANCH  18  19
ENDBRANCH   4   6
ENDBRANCH   3   4
ENDBRANCH   2   3
ENDBRANCH   1   2
BRANCH   1  23
ATOM     23  O   UNL A   1      32.302  30.094  26.754  1.00  0.00    -0.458 OA
BRANCH  23  24
ATOM     24  C   UNL A   1      32.918  31.240  27.125  1.00  0.00     0.338 C 
ATOM     25  O   UNL A   1      32.431  32.355  27.200  1.00  0.00    -0.246 OA
BRANCH  24  26
ATOM     26  C   UNL A   1      34.308  30.962  27.523  1.00  0.00     0.060 A 
ATOM     27  C   UNL A   1      34.721  29.640  27.640  1.00  0.00     0.016 A 
ATOM     28  C   UNL A   1      35.136  31.989  27.969  1.00  0.00     0.016 A 
ATOM     29  C   UNL A   1      35.879  29.336  28.349  1.00  0.00     0.010 A 
ATOM     30  C   UNL A   1      36.372  31.679  28.554  1.00  0.00     0.010 A 
ATOM     31  C   UNL A   1      36.734  30.344  28.814  1.00  0.00    -0.014 A 
BRANCH  31  32
ATOM     32  C   UNL A   1      37.957  30.000  29.607  1.00  0.00     0.031 A 
ATOM     33  C   UNL A   1      39.097  29.237  28.968  1.00  0.00     0.074 A 
ATOM     34  C   UNL A   1      38.090  30.403  30.890  1.00  0.00     0.049 A 
ATOM     35  N   UNL A   1      40.138  28.677  29.537  1.00  0.00    -0.248 NA
ATOM     36  C   UNL A   1      39.061  29.069  27.505  1.00  0.00     0.031 C 
ATOM     37  C   UNL A   1      37.120  31.206  31.640  1.00  0.00     0.029 A 
ATOM     38  N   UNL A   1      39.114  30.213  31.790  1.00  0.00    -0.354 N 
ATOM     39  C   UNL A   1      40.834  28.035  28.516  1.00  0.00     0.074 A 
ATOM     40  C   UNL A   1      40.101  28.274  27.292  1.00  0.00     0.031 C 
ATOM     41  C   UNL A   1      37.629  31.509  32.842  1.00  0.00     0.029 A 
ATOM     42  C   UNL A   1      38.896  30.811  33.009  1.00  0.00     0.049 A 
ATOM     43  H   UNL A   1      39.926  29.697  31.580  1.00  0.00     0.167 HD
ATOM     44  C   UNL A   1      41.977  27.312  28.591  1.00  0.00     0.031 A 
ATOM     45  C   UNL A   1      39.597  30.765  34.159  1.00  0.00     0.031 A 
ATOM     46  C   UNL A   1      42.747  27.132  29.794  1.00  0.00     0.049 A 
ATOM     47  C   UNL A   1      40.827  29.909  34.233  1.00  0.00     0.074 A 
ATOM     48  C   UNL A   1      43.918  26.413  29.966  1.00  0.00     0.029 A 
ATOM     49  N   UNL A   1      42.443  27.700  31.021  1.00  0.00    -0.354 N 
ATOM     50  N   UNL A   1      41.412  29.223  33.283  1.00  0.00    -0.248 NA
ATOM     51  C   UNL A   1      41.474  29.794  35.548  1.00  0.00     0.031 C 
ATOM     52  C   UNL A   1      44.299  26.510  31.306  1.00  0.00     0.029 A 
ATOM     53  C   UNL A   1      43.396  27.334  31.956  1.00  0.00     0.049 A 
ATOM     54  H   UNL A   1      41.665  28.277  31.200  1.00  0.00     0.167 HD
ATOM     55  C   UNL A   1      42.498  28.600  33.883  1.00  0.00     0.074 A 
ATOM     56  C   UNL A   1      42.508  29.011  35.271  1.00  0.00     0.031 C 
ATOM     57  C   UNL A   1      43.397  27.751  33.333  1.00  0.00     0.031 A 
BRANCH  44  58
ATOM     58  C   UNL A   1      42.470  26.626  27.347  1.00  0.00    -0.014 A 
ATOM     59  C   UNL A   1      43.447  27.204  26.525  1.00  0.00     0.009 A 
ATOM     60  C   UNL A   1      42.017  25.328  27.053  1.00  0.00     0.009 A 
ATOM     61  C   UNL A   1      43.951  26.502  25.427  1.00  0.00     0.001 A 
ATOM     62  C   UNL A   1      42.542  24.618  25.972  1.00  0.00     0.001 A 
ATOM     63  C   UNL A   1      43.506  25.208  25.157  1.00  0.00     0.000 A 
ENDBRANCH  44  58
BRANCH  45  64
ATOM     64  C   UNL A   1      39.104  31.495  35.361  1.00  0.00    -0.014 A 
ATOM     65  C   UNL A   1      39.494  32.820  35.601  1.00  0.00     0.009 A 
ATOM     66  C   UNL A   1      38.236  30.869  36.271  1.00  0.00     0.009 A 
ATOM     67  C   UNL A   1      39.032  33.500  36.732  1.00  0.00     0.001 A 
ATOM     68  C   UNL A   1      37.746  31.562  37.378  1.00  0.00     0.001 A 
ATOM     69  C   UNL A   1      38.151  32.874  37.613  1.00  0.00     0.000 A 
ENDBRANCH  45  64
BRANCH  57  70
ATOM     70  C   UNL A   1      44.487  27.226  34.222  1.00  0.00    -0.014 A 
ATOM     71  C   UNL A   1      44.335  26.014  34.911  1.00  0.00     0.009 A 
ATOM     72  C   UNL A   1      45.701  27.922  34.322  1.00  0.00     0.009 A 
ATOM     73  C   UNL A   1      45.373  25.520  35.703  1.00  0.00     0.001 A 
ATOM     74  C   UNL A   1      46.746  27.412  35.092  1.00  0.00     0.001 A 
ATOM     75  C   UNL A   1      46.579  26.215  35.787  1.00  0.00     0.000 A 
ENDBRANCH  57  70
ENDBRANCH  31  32
ENDBRANCH  24  26
ENDBRANCH  23  24
ENDBRANCH   1  23
TORSDOF 12
ENDMDL
