MODEL 1
REMARK VINA RESULT:     -11.3      0.000      0.000
REMARK SMILES COc1cccc(N2/C(=[NH+]/C(=O)CCC(=O)OCCOC(=O)c3ccc(-c4c5nc(c(-c6ccccc6)c6ccc([nH]6)c(-c6ccccc6)c6nc(c(-c7ccccc7)c7ccc4[nH]7)C=C6)C=C5)cc3)S[C@@H]3CS(=O)(=O)C[C@H]32)c1
REMARK SMILES IDX 18 1 17 2 15 3 16 4 14 5 13 6 11 7 8 8 9 9 78 10 10 11 71 12
REMARK SMILES IDX 72 13 77 14 73 16 74 17 12 18 75 19 76 20 7 21 3 22 4 23
REMARK SMILES IDX 79 24 5 25 6 26 2 27 1 28 19 29 20 30 21 31 22 32 23 33
REMARK SMILES IDX 24 34 70 35 25 36 69 37 26 38 27 39 28 40 63 41 29 42 68 43
REMARK SMILES IDX 62 44 64 45 30 46 67 47 61 48 60 49 31 51 53 52 38 53 52 54
REMARK SMILES IDX 39 55 42 56 51 57 65 58 40 59 41 60 50 62 66 63 43 64 32 65
REMARK SMILES IDX 33 66 37 67 34 68 36 69 35 70 54 71 55 72 59 73 56 74 58 75
REMARK SMILES IDX 57 76 44 77 45 78 49 79 46 80 48 81 47 82
REMARK H PARENT 10 15 64 50 42 61
REMARK Flexibility Score: inf
ROOT
ATOM      1  C   UNL A   1      41.808  19.111  25.794  1.00  0.00     0.274 C 
ENDROOT
BRANCH   1   2
ATOM      2  O   UNL A   1      41.628  20.235  26.658  1.00  0.00    -0.462 OA
BRANCH   2   3
ATOM      3  C   UNL A   1      41.183  21.388  26.129  1.00  0.00     0.306 C 
ATOM      4  O   UNL A   1      41.816  22.123  25.385  1.00  0.00    -0.252 OA
BRANCH   3   5
ATOM      5  C   UNL A   1      39.779  21.650  26.601  1.00  0.00     0.135 C 
BRANCH   5   6
ATOM      6  C   UNL A   1      38.736  21.030  25.680  1.00  0.00     0.139 C 
BRANCH   6   7
ATOM      7  C   UNL A   1      37.497  21.868  25.380  1.00  0.00     0.308 C 
ATOM      8  N   UNL A   1      33.868  21.275  25.535  1.00  0.00    -0.216 N 
ATOM      9  C   UNL A   1      35.194  21.731  25.668  1.00  0.00     0.319 C 
ATOM     10  C   UNL A   1      32.862  22.183  26.094  1.00  0.00     0.212 C 
ATOM     11  N   UNL A   1      36.295  21.196  25.255  1.00  0.00    -0.204 N 
ATOM     12  S   UNL A   1      35.127  23.304  26.559  1.00  0.00    -0.029 SA
ATOM     13  C   UNL A   1      33.481  23.570  25.898  1.00  0.00     0.120 C 
ATOM     14  C   UNL A   1      31.506  22.308  25.434  1.00  0.00     0.188 C 
ATOM     15  H   UNL A   1      36.279  20.299  24.849  1.00  0.00     0.316 HD
ATOM     16  C   UNL A   1      32.545  24.569  26.517  1.00  0.00     0.156 C 
ATOM     17  S   UNL A   1      30.944  23.909  26.040  1.00  0.00     0.155 S 
ATOM     18  O   UNL A   1      37.651  23.062  25.121  1.00  0.00    -0.247 OA
ATOM     19  O   UNL A   1      30.439  24.672  24.920  1.00  0.00    -0.229 OA
ATOM     20  O   UNL A   1      30.173  23.694  27.247  1.00  0.00    -0.229 OA
BRANCH   8  21
ATOM     21  C   UNL A   1      33.428  20.054  25.007  1.00  0.00     0.132 A 
ATOM     22  C   UNL A   1      32.796  17.704  25.285  1.00  0.00     0.123 A 
ATOM     23  C   UNL A   1      32.425  17.642  23.944  1.00  0.00     0.047 A 
ATOM     24  C   UNL A   1      33.239  18.921  25.824  1.00  0.00     0.098 A 
ATOM     25  C   UNL A   1      32.535  18.773  23.137  1.00  0.00     0.008 A 
ATOM     26  C   UNL A   1      33.051  19.963  23.661  1.00  0.00     0.052 A 
BRANCH  22  27
ATOM     27  O   UNL A   1      32.608  16.563  26.017  1.00  0.00    -0.497 OA
ATOM     28  C   UNL A   1      32.922  15.336  25.360  1.00  0.00     0.278 C 
ENDBRANCH  22  27
ENDBRANCH   8  21
ENDBRANCH   6   7
ENDBRANCH   5   6
ENDBRANCH   3   5
ENDBRANCH   2   3
ENDBRANCH   1   2
BRANCH   1  29
ATOM     29  C   UNL A   1      43.296  18.809  25.628  1.00  0.00     0.275 C 
BRANCH  29  30
ATOM     30  O   UNL A   1      43.736  19.420  24.416  1.00  0.00    -0.458 OA
BRANCH  30  31
ATOM     31  C   UNL A   1      45.041  19.752  24.357  1.00  0.00     0.338 C 
ATOM     32  O   UNL A   1      45.987  19.122  23.943  1.00  0.00    -0.246 OA
BRANCH  31  33
ATOM     33  C   UNL A   1      45.083  21.142  24.792  1.00  0.00     0.060 A 
ATOM     34  C   UNL A   1      44.862  22.145  23.846  1.00  0.00     0.016 A 
ATOM     35  C   UNL A   1      45.275  21.421  26.143  1.00  0.00     0.016 A 
ATOM     36  C   UNL A   1      44.859  23.466  24.256  1.00  0.00     0.010 A 
ATOM     37  C   UNL A   1      45.257  22.744  26.554  1.00  0.00     0.010 A 
ATOM     38  C   UNL A   1      45.073  23.766  25.605  1.00  0.00    -0.014 A 
BRANCH  38  39
ATOM     39  C   UNL A   1      45.223  25.169  26.014  1.00  0.00     0.031 A 
ATOM     40  C   UNL A   1      46.582  25.789  25.949  1.00  0.00     0.074 A 
ATOM     41  C   UNL A   1      44.143  25.857  26.418  1.00  0.00     0.049 A 
ATOM     42  N   UNL A   1      46.965  26.981  26.316  1.00  0.00    -0.248 NA
ATOM     43  C   UNL A   1      47.662  24.945  25.408  1.00  0.00     0.031 C 
ATOM     44  C   UNL A   1      42.777  25.331  26.473  1.00  0.00     0.029 A 
ATOM     45  N   UNL A   1      44.029  27.145  26.861  1.00  0.00    -0.354 N 
ATOM     46  C   UNL A   1      48.330  27.026  26.066  1.00  0.00     0.074 A 
ATOM     47  C   UNL A   1      48.717  25.731  25.556  1.00  0.00     0.031 C 
ATOM     48  C   UNL A   1      41.959  26.295  26.925  1.00  0.00     0.029 A 
ATOM     49  C   UNL A   1      42.752  27.479  27.235  1.00  0.00     0.049 A 
ATOM     50  H   UNL A   1      44.789  27.771  26.907  1.00  0.00     0.167 HD
ATOM     51  C   UNL A   1      49.177  28.063  26.246  1.00  0.00     0.031 A 
ATOM     52  C   UNL A   1      42.291  28.612  27.794  1.00  0.00     0.031 A 
ATOM     53  C   UNL A   1      48.765  29.335  26.778  1.00  0.00     0.049 A 
ATOM     54  C   UNL A   1      43.265  29.728  28.045  1.00  0.00     0.074 A 
ATOM     55  C   UNL A   1      49.526  30.465  27.008  1.00  0.00     0.029 A 
ATOM     56  N   UNL A   1      47.467  29.634  27.172  1.00  0.00    -0.354 N 
ATOM     57  N   UNL A   1      44.553  29.772  27.794  1.00  0.00    -0.248 NA
ATOM     58  C   UNL A   1      42.723  30.951  28.646  1.00  0.00     0.031 C 
ATOM     59  C   UNL A   1      48.700  31.427  27.599  1.00  0.00     0.029 A 
ATOM     60  C   UNL A   1      47.409  30.923  27.671  1.00  0.00     0.049 A 
ATOM     61  H   UNL A   1      46.700  29.020  27.106  1.00  0.00     0.167 HD
ATOM     62  C   UNL A   1      44.974  31.035  28.188  1.00  0.00     0.074 A 
ATOM     63  C   UNL A   1      43.795  31.730  28.670  1.00  0.00     0.031 C 
ATOM     64  C   UNL A   1      46.219  31.575  28.156  1.00  0.00     0.031 A 
BRANCH  51  65
ATOM     65  C   UNL A   1      50.626  27.833  25.912  1.00  0.00    -0.014 A 
ATOM     66  C   UNL A   1      51.534  27.348  26.868  1.00  0.00     0.009 A 
ATOM     67  C   UNL A   1      51.095  28.124  24.622  1.00  0.00     0.009 A 
ATOM     68  C   UNL A   1      52.888  27.205  26.552  1.00  0.00     0.001 A 
ATOM     69  C   UNL A   1      52.442  27.947  24.299  1.00  0.00     0.001 A 
ATOM     70  C   UNL A   1      53.340  27.500  25.267  1.00  0.00     0.000 A 
ENDBRANCH  51  65
BRANCH  52  71
ATOM     71  C   UNL A   1      40.858  28.720  28.170  1.00  0.00    -0.014 A 
ATOM     72  C   UNL A   1      39.909  29.216  27.264  1.00  0.00     0.009 A 
ATOM     73  C   UNL A   1      40.427  28.303  29.441  1.00  0.00     0.009 A 
ATOM     74  C   UNL A   1      38.564  29.310  27.630  1.00  0.00     0.001 A 
ATOM     75  C   UNL A   1      39.078  28.367  29.792  1.00  0.00     0.001 A 
ATOM     76  C   UNL A   1      38.149  28.880  28.890  1.00  0.00     0.000 A 
ENDBRANCH  52  71
BRANCH  64  77
ATOM     77  C   UNL A   1      46.349  32.995  28.634  1.00  0.00    -0.014 A 
ATOM     78  C   UNL A   1      46.585  33.292  29.985  1.00  0.00     0.009 A 
ATOM     79  C   UNL A   1      46.261  34.046  27.708  1.00  0.00     0.009 A 
ATOM     80  C   UNL A   1      46.686  34.620  30.406  1.00  0.00     0.001 A 
ATOM     81  C   UNL A   1      46.399  35.369  28.127  1.00  0.00     0.001 A 
ATOM     82  C   UNL A   1      46.598  35.656  29.476  1.00  0.00     0.000 A 
ENDBRANCH  64  77
ENDBRANCH  38  39
ENDBRANCH  31  33
ENDBRANCH  30  31
ENDBRANCH  29  30
ENDBRANCH   1  29
TORSDOF 15
ENDMDL
MODEL 2
REMARK VINA RESULT:     -11.1      4.770      9.857
REMARK SMILES COc1cccc(N2/C(=[NH+]/C(=O)CCC(=O)OCCOC(=O)c3ccc(-c4c5nc(c(-c6ccccc6)c6ccc([nH]6)c(-c6ccccc6)c6nc(c(-c7ccccc7)c7ccc4[nH]7)C=C6)C=C5)cc3)S[C@@H]3CS(=O)(=O)C[C@H]32)c1
REMARK SMILES IDX 18 1 17 2 15 3 16 4 14 5 13 6 11 7 8 8 9 9 78 10 10 11 71 12
REMARK SMILES IDX 72 13 77 14 73 16 74 17 12 18 75 19 76 20 7 21 3 22 4 23
REMARK SMILES IDX 79 24 5 25 6 26 2 27 1 28 19 29 20 30 21 31 22 32 23 33
REMARK SMILES IDX 24 34 70 35 25 36 69 37 26 38 27 39 28 40 63 41 29 42 68 43
REMARK SMILES IDX 62 44 64 45 30 46 67 47 61 48 60 49 31 51 53 52 38 53 52 54
REMARK SMILES IDX 39 55 42 56 51 57 65 58 40 59 41 60 50 62 66 63 43 64 32 65
REMARK SMILES IDX 33 66 37 67 34 68 36 69 35 70 54 71 55 72 59 73 56 74 58 75
REMARK SMILES IDX 57 76 44 77 45 78 49 79 46 80 48 81 47 82
REMARK H PARENT 10 15 64 50 42 61
REMARK Flexibility Score: inf
ROOT
ATOM      1  C   UNL A   1      34.007  34.929  30.150  1.00  0.00     0.274 C 
ENDROOT
BRANCH   1   2
ATOM      2  O   UNL A   1      33.582  33.770  29.430  1.00  0.00    -0.462 OA
BRANCH   2   3
ATOM      3  C   UNL A   1      34.206  33.462  28.279  1.00  0.00     0.306 C 
ATOM      4  O   UNL A   1      34.717  34.261  27.509  1.00  0.00    -0.252 OA
BRANCH   3   5
ATOM      5  C   UNL A   1      34.176  31.972  28.073  1.00  0.00     0.135 C 
BRANCH   5   6
ATOM      6  C   UNL A   1      32.892  31.510  27.398  1.00  0.00     0.139 C 
BRANCH   6   7
ATOM      7  C   UNL A   1      32.900  30.113  26.784  1.00  0.00     0.308 C 
ATOM      8  N   UNL A   1      31.412  28.593  23.781  1.00  0.00    -0.216 N 
ATOM      9  C   UNL A   1      32.245  29.078  24.808  1.00  0.00     0.319 C 
ATOM     10  C   UNL A   1      32.085  27.694  22.838  1.00  0.00     0.212 C 
ATOM     11  N   UNL A   1      31.959  29.847  25.806  1.00  0.00    -0.204 N 
ATOM     12  S   UNL A   1      33.899  28.407  24.512  1.00  0.00    -0.029 SA
ATOM     13  C   UNL A   1      33.145  26.998  23.697  1.00  0.00     0.120 C 
ATOM     14  C   UNL A   1      31.324  26.541  22.218  1.00  0.00     0.188 C 
ATOM     15  H   UNL A   1      31.063  30.249  25.871  1.00  0.00     0.316 HD
ATOM     16  C   UNL A   1      33.941  26.106  22.789  1.00  0.00     0.156 C 
ATOM     17  S   UNL A   1      32.660  25.440  21.719  1.00  0.00     0.155 S 
ATOM     18  O   UNL A   1      33.634  29.262  27.286  1.00  0.00    -0.247 OA
ATOM     19  O   UNL A   1      32.337  24.100  22.156  1.00  0.00    -0.229 OA
ATOM     20  O   UNL A   1      33.017  25.748  20.351  1.00  0.00    -0.229 OA
BRANCH   8  21
ATOM     21  C   UNL A   1      30.074  28.922  23.532  1.00  0.00     0.132 A 
ATOM     22  C   UNL A   1      28.343  30.553  22.946  1.00  0.00     0.123 A 
ATOM     23  C   UNL A   1      27.391  29.537  22.914  1.00  0.00     0.047 A 
ATOM     24  C   UNL A   1      29.686  30.235  23.195  1.00  0.00     0.098 A 
ATOM     25  C   UNL A   1      27.769  28.220  23.173  1.00  0.00     0.008 A 
ATOM     26  C   UNL A   1      29.095  27.920  23.498  1.00  0.00     0.052 A 
BRANCH  22  27
ATOM     27  O   UNL A   1      27.896  31.808  22.630  1.00  0.00    -0.497 OA
ATOM     28  C   UNL A   1      28.847  32.864  22.763  1.00  0.00     0.278 C 
ENDBRANCH  22  27
ENDBRANCH   8  21
ENDBRANCH   6   7
ENDBRANCH   5   6
ENDBRANCH   3   5
ENDBRANCH   2   3
ENDBRANCH   1   2
BRANCH   1  29
ATOM     29  C   UNL A   1      34.589  34.524  31.502  1.00  0.00     0.275 C 
BRANCH  29  30
ATOM     30  O   UNL A   1      35.791  33.792  31.262  1.00  0.00    -0.458 OA
BRANCH  30  31
ATOM     31  C   UNL A   1      35.984  32.699  32.026  1.00  0.00     0.338 C 
ATOM     32  O   UNL A   1      35.317  32.254  32.932  1.00  0.00    -0.246 OA
BRANCH  31  33
ATOM     33  C   UNL A   1      37.145  32.044  31.438  1.00  0.00     0.060 A 
ATOM     34  C   UNL A   1      38.051  31.404  32.286  1.00  0.00     0.016 A 
ATOM     35  C   UNL A   1      37.279  32.023  30.052  1.00  0.00     0.016 A 
ATOM     36  C   UNL A   1      39.135  30.744  31.736  1.00  0.00     0.010 A 
ATOM     37  C   UNL A   1      38.357  31.350  29.502  1.00  0.00     0.010 A 
ATOM     38  C   UNL A   1      39.297  30.733  30.346  1.00  0.00    -0.014 A 
BRANCH  38  39
ATOM     39  C   UNL A   1      40.525  30.167  29.771  1.00  0.00     0.031 A 
ATOM     40  C   UNL A   1      41.724  31.052  29.641  1.00  0.00     0.074 A 
ATOM     41  C   UNL A   1      40.545  28.879  29.394  1.00  0.00     0.049 A 
ATOM     42  N   UNL A   1      42.888  30.794  29.111  1.00  0.00    -0.248 NA
ATOM     43  C   UNL A   1      41.589  32.420  30.172  1.00  0.00     0.031 C 
ATOM     44  C   UNL A   1      39.426  27.943  29.524  1.00  0.00     0.029 A 
ATOM     45  N   UNL A   1      41.542  28.139  28.822  1.00  0.00    -0.354 N 
ATOM     46  C   UNL A   1      43.618  31.969  29.227  1.00  0.00     0.074 A 
ATOM     47  C   UNL A   1      42.755  32.953  29.841  1.00  0.00     0.031 C 
ATOM     48  C   UNL A   1      39.803  26.747  29.044  1.00  0.00     0.029 A 
ATOM     49  C   UNL A   1      41.165  26.853  28.532  1.00  0.00     0.049 A 
ATOM     50  H   UNL A   1      42.442  28.495  28.638  1.00  0.00     0.167 HD
ATOM     51  C   UNL A   1      44.897  32.197  28.856  1.00  0.00     0.031 A 
ATOM     52  C   UNL A   1      41.844  25.883  27.895  1.00  0.00     0.031 A 
ATOM     53  C   UNL A   1      45.724  31.203  28.225  1.00  0.00     0.049 A 
ATOM     54  C   UNL A   1      43.242  26.180  27.433  1.00  0.00     0.074 A 
ATOM     55  C   UNL A   1      47.034  31.308  27.802  1.00  0.00     0.029 A 
ATOM     56  N   UNL A   1      45.303  29.914  27.921  1.00  0.00    -0.354 N 
ATOM     57  N   UNL A   1      43.935  27.289  27.558  1.00  0.00    -0.248 NA
ATOM     58  C   UNL A   1      43.955  25.095  26.752  1.00  0.00     0.031 C 
ATOM     59  C   UNL A   1      47.386  30.103  27.185  1.00  0.00     0.029 A 
ATOM     60  C   UNL A   1      46.320  29.222  27.289  1.00  0.00     0.049 A 
ATOM     61  H   UNL A   1      44.412  29.547  28.125  1.00  0.00     0.167 HD
ATOM     62  C   UNL A   1      45.174  27.029  26.989  1.00  0.00     0.074 A 
ATOM     63  C   UNL A   1      45.141  25.649  26.542  1.00  0.00     0.031 C 
ATOM     64  C   UNL A   1      46.244  27.852  26.846  1.00  0.00     0.031 A 
BRANCH  51  65
ATOM     65  C   UNL A   1      45.441  33.582  29.079  1.00  0.00    -0.014 A 
ATOM     66  C   UNL A   1      46.094  33.933  30.272  1.00  0.00     0.009 A 
ATOM     67  C   UNL A   1      45.282  34.559  28.084  1.00  0.00     0.009 A 
ATOM     68  C   UNL A   1      46.533  35.242  30.482  1.00  0.00     0.001 A 
ATOM     69  C   UNL A   1      45.753  35.858  28.282  1.00  0.00     0.001 A 
ATOM     70  C   UNL A   1      46.366  36.203  29.486  1.00  0.00     0.000 A 
ENDBRANCH  51  65
BRANCH  52  71
ATOM     71  C   UNL A   1      41.196  24.570  27.643  1.00  0.00    -0.014 A 
ATOM     72  C   UNL A   1      40.135  24.451  26.734  1.00  0.00     0.009 A 
ATOM     73  C   UNL A   1      41.657  23.417  28.300  1.00  0.00     0.009 A 
ATOM     74  C   UNL A   1      39.536  23.209  26.504  1.00  0.00     0.001 A 
ATOM     75  C   UNL A   1      41.079  22.172  28.043  1.00  0.00     0.001 A 
ATOM     76  C   UNL A   1      40.013  22.071  27.153  1.00  0.00     0.000 A 
ENDBRANCH  52  71
BRANCH  64  77
ATOM     77  C   UNL A   1      47.467  27.260  26.202  1.00  0.00    -0.014 A 
ATOM     78  C   UNL A   1      47.664  27.319  24.814  1.00  0.00     0.009 A 
ATOM     79  C   UNL A   1      48.448  26.659  27.007  1.00  0.00     0.009 A 
ATOM     80  C   UNL A   1      48.801  26.747  24.240  1.00  0.00     0.001 A 
ATOM     81  C   UNL A   1      49.600  26.122  26.433  1.00  0.00     0.001 A 
ATOM     82  C   UNL A   1      49.769  26.154  25.050  1.00  0.00     0.000 A 
ENDBRANCH  64  77
ENDBRANCH  38  39
ENDBRANCH  31  33
ENDBRANCH  30  31
ENDBRANCH  29  30
ENDBRANCH   1  29
TORSDOF 15
ENDMDL
MODEL 3
REMARK VINA RESULT:     -10.9      4.906      8.528
REMARK SMILES COc1cccc(N2/C(=[NH+]/C(=O)CCC(=O)OCCOC(=O)c3ccc(-c4c5nc(c(-c6ccccc6)c6ccc([nH]6)c(-c6ccccc6)c6nc(c(-c7ccccc7)c7ccc4[nH]7)C=C6)C=C5)cc3)S[C@@H]3CS(=O)(=O)C[C@H]32)c1
REMARK SMILES IDX 18 1 17 2 15 3 16 4 14 5 13 6 11 7 8 8 9 9 78 10 10 11 71 12
REMARK SMILES IDX 72 13 77 14 73 16 74 17 12 18 75 19 76 20 7 21 3 22 4 23
REMARK SMILES IDX 79 24 5 25 6 26 2 27 1 28 19 29 20 30 21 31 22 32 23 33
REMARK SMILES IDX 24 34 70 35 25 36 69 37 26 38 27 39 28 40 63 41 29 42 68 43
REMARK SMILES IDX 62 44 64 45 30 46 67 47 61 48 60 49 31 51 53 52 38 53 52 54
REMARK SMILES IDX 39 55 42 56 51 57 65 58 40 59 41 60 50 62 66 63 43 64 32 65
REMARK SMILES IDX 33 66 37 67 34 68 36 69 35 70 54 71 55 72 59 73 56 74 58 75
REMARK SMILES IDX 57 76 44 77 45 78 49 79 46 80 48 81 47 82
REMARK H PARENT 10 15 64 50 42 61
REMARK Flexibility Score: inf
ROOT
ATOM      1  C   UNL A   1      42.951  21.737  25.993  1.00  0.00     0.274 C 
ENDROOT
BRANCH   1   2
ATOM      2  O   UNL A   1      41.674  21.153  25.724  1.00  0.00    -0.462 OA
BRANCH   2   3
ATOM      3  C   UNL A   1      40.793  21.042  26.735  1.00  0.00     0.306 C 
ATOM      4  O   UNL A   1      40.914  20.319  27.711  1.00  0.00    -0.252 OA
BRANCH   3   5
ATOM      5  C   UNL A   1      39.616  21.945  26.477  1.00  0.00     0.135 C 
BRANCH   5   6
ATOM      6  C   UNL A   1      38.569  21.286  25.589  1.00  0.00     0.139 C 
BRANCH   6   7
ATOM      7  C   UNL A   1      37.292  22.079  25.326  1.00  0.00     0.308 C 
ATOM      8  N   UNL A   1      33.693  21.341  25.546  1.00  0.00    -0.216 N 
ATOM      9  C   UNL A   1      35.002  21.847  25.660  1.00  0.00     0.319 C 
ATOM     10  C   UNL A   1      32.664  22.200  26.140  1.00  0.00     0.212 C 
ATOM     11  N   UNL A   1      36.115  21.361  25.216  1.00  0.00    -0.204 N 
ATOM     12  S   UNL A   1      34.893  23.403  26.576  1.00  0.00    -0.029 SA
ATOM     13  C   UNL A   1      33.224  23.614  25.952  1.00  0.00     0.120 C 
ATOM     14  C   UNL A   1      31.291  22.281  25.509  1.00  0.00     0.188 C 
ATOM     15  H   UNL A   1      36.125  20.470  24.797  1.00  0.00     0.316 HD
ATOM     16  C   UNL A   1      32.263  24.566  26.605  1.00  0.00     0.156 C 
ATOM     17  S   UNL A   1      30.679  23.849  26.151  1.00  0.00     0.155 S 
ATOM     18  O   UNL A   1      37.393  23.281  25.083  1.00  0.00    -0.247 OA
ATOM     19  O   UNL A   1      30.121  24.608  25.053  1.00  0.00    -0.229 OA
ATOM     20  O   UNL A   1      29.943  23.587  27.370  1.00  0.00    -0.229 OA
BRANCH   8  21
ATOM     21  C   UNL A   1      33.290  20.111  25.009  1.00  0.00     0.132 A 
ATOM     22  C   UNL A   1      32.757  17.734  25.264  1.00  0.00     0.123 A 
ATOM     23  C   UNL A   1      32.360  17.677  23.930  1.00  0.00     0.047 A 
ATOM     24  C   UNL A   1      33.163  18.960  25.812  1.00  0.00     0.098 A 
ATOM     25  C   UNL A   1      32.409  18.823  23.138  1.00  0.00     0.008 A 
ATOM     26  C   UNL A   1      32.889  20.024  23.670  1.00  0.00     0.052 A 
BRANCH  22  27
ATOM     27  O   UNL A   1      32.629  16.576  25.982  1.00  0.00    -0.497 OA
ATOM     28  C   UNL A   1      32.733  15.362  25.240  1.00  0.00     0.278 C 
ENDBRANCH  22  27
ENDBRANCH   8  21
ENDBRANCH   6   7
ENDBRANCH   5   6
ENDBRANCH   3   5
ENDBRANCH   2   3
ENDBRANCH   1   2
BRANCH   1  29
ATOM     29  C   UNL A   1      43.058  23.101  25.314  1.00  0.00     0.275 C 
BRANCH  29  30
ATOM     30  O   UNL A   1      42.507  24.076  26.198  1.00  0.00    -0.458 OA
BRANCH  30  31
ATOM     31  C   UNL A   1      42.476  25.343  25.740  1.00  0.00     0.338 C 
ATOM     32  O   UNL A   1      42.527  25.764  24.607  1.00  0.00    -0.246 OA
BRANCH  31  33
ATOM     33  C   UNL A   1      42.226  26.152  26.926  1.00  0.00     0.060 A 
ATOM     34  C   UNL A   1      41.415  25.628  27.934  1.00  0.00     0.016 A 
ATOM     35  C   UNL A   1      42.855  27.389  27.044  1.00  0.00     0.016 A 
ATOM     36  C   UNL A   1      41.205  26.370  29.082  1.00  0.00     0.010 A 
ATOM     37  C   UNL A   1      42.655  28.125  28.201  1.00  0.00     0.010 A 
ATOM     38  C   UNL A   1      41.810  27.625  29.207  1.00  0.00    -0.014 A 
BRANCH  38  39
ATOM     39  C   UNL A   1      41.466  28.477  30.353  1.00  0.00     0.031 A 
ATOM     40  C   UNL A   1      40.306  29.413  30.222  1.00  0.00     0.074 A 
ATOM     41  C   UNL A   1      42.185  28.385  31.483  1.00  0.00     0.049 A 
ATOM     42  N   UNL A   1      39.859  30.298  31.070  1.00  0.00    -0.248 NA
ATOM     43  C   UNL A   1      39.554  29.350  28.957  1.00  0.00     0.031 C 
ATOM     44  C   UNL A   1      43.307  27.470  31.699  1.00  0.00     0.029 A 
ATOM     45  N   UNL A   1      42.077  29.074  32.659  1.00  0.00    -0.354 N 
ATOM     46  C   UNL A   1      38.786  30.909  30.436  1.00  0.00     0.074 A 
ATOM     47  C   UNL A   1      38.673  30.324  29.120  1.00  0.00     0.031 C 
ATOM     48  C   UNL A   1      43.785  27.655  32.940  1.00  0.00     0.029 A 
ATOM     49  C   UNL A   1      43.035  28.731  33.578  1.00  0.00     0.049 A 
ATOM     50  H   UNL A   1      41.380  29.750  32.829  1.00  0.00     0.167 HD
ATOM     51  C   UNL A   1      37.968  31.871  30.920  1.00  0.00     0.031 A 
ATOM     52  C   UNL A   1      43.289  29.257  34.790  1.00  0.00     0.031 A 
ATOM     53  C   UNL A   1      38.121  32.450  32.228  1.00  0.00     0.049 A 
ATOM     54  C   UNL A   1      42.407  30.370  35.280  1.00  0.00     0.074 A 
ATOM     55  C   UNL A   1      37.359  33.429  32.836  1.00  0.00     0.029 A 
ATOM     56  N   UNL A   1      39.119  32.097  33.128  1.00  0.00    -0.354 N 
ATOM     57  N   UNL A   1      41.383  30.936  34.684  1.00  0.00    -0.248 NA
ATOM     58  C   UNL A   1      42.707  30.910  36.610  1.00  0.00     0.031 C 
ATOM     59  C   UNL A   1      37.935  33.714  34.078  1.00  0.00     0.029 A 
ATOM     60  C   UNL A   1      39.011  32.861  34.276  1.00  0.00     0.049 A 
ATOM     61  H   UNL A   1      39.803  31.407  32.972  1.00  0.00     0.167 HD
ATOM     62  C   UNL A   1      40.903  31.887  35.574  1.00  0.00     0.074 A 
ATOM     63  C   UNL A   1      41.736  31.799  36.758  1.00  0.00     0.031 C 
ATOM     64  C   UNL A   1      39.870  32.755  35.430  1.00  0.00     0.031 A 
BRANCH  51  65
ATOM     65  C   UNL A   1      36.886  32.377  30.006  1.00  0.00    -0.014 A 
ATOM     66  C   UNL A   1      37.047  33.553  29.254  1.00  0.00     0.009 A 
ATOM     67  C   UNL A   1      35.675  31.674  29.909  1.00  0.00     0.009 A 
ATOM     68  C   UNL A   1      36.003  34.038  28.463  1.00  0.00     0.001 A 
ATOM     69  C   UNL A   1      34.645  32.143  29.090  1.00  0.00     0.001 A 
ATOM     70  C   UNL A   1      34.805  33.330  28.378  1.00  0.00     0.000 A 
ENDBRANCH  51  65
BRANCH  52  71
ATOM     71  C   UNL A   1      44.434  28.751  35.590  1.00  0.00    -0.014 A 
ATOM     72  C   UNL A   1      45.709  29.320  35.466  1.00  0.00     0.009 A 
ATOM     73  C   UNL A   1      44.247  27.702  36.506  1.00  0.00     0.009 A 
ATOM     74  C   UNL A   1      46.777  28.837  36.227  1.00  0.00     0.001 A 
ATOM     75  C   UNL A   1      45.307  27.243  37.289  1.00  0.00     0.001 A 
ATOM     76  C   UNL A   1      46.574  27.804  37.142  1.00  0.00     0.000 A 
ENDBRANCH  52  71
BRANCH  64  77
ATOM     77  C   UNL A   1      39.578  33.654  36.599  1.00  0.00    -0.014 A 
ATOM     78  C   UNL A   1      40.022  34.984  36.628  1.00  0.00     0.009 A 
ATOM     79  C   UNL A   1      38.821  33.163  37.675  1.00  0.00     0.009 A 
ATOM     80  C   UNL A   1      39.751  35.793  37.733  1.00  0.00     0.001 A 
ATOM     81  C   UNL A   1      38.521  33.985  38.761  1.00  0.00     0.001 A 
ATOM     82  C   UNL A   1      38.997  35.294  38.795  1.00  0.00     0.000 A 
ENDBRANCH  64  77
ENDBRANCH  38  39
ENDBRANCH  31  33
ENDBRANCH  30  31
ENDBRANCH  29  30
ENDBRANCH   1  29
TORSDOF 15
ENDMDL
