MODEL 1
REMARK VINA RESULT:     -14.1      0.000      0.000
REMARK SMILES CCC(=O)N1CCC[C@](C[C@H]2CC(c3ccc(C)cc3)=NO2)(C(=O)OCCOC(=O)c2ccc(-c3c4nc(c(-c5ccccc5)c5ccc([nH]5)c(-c5ccccc5)c5nc(c(-c6ccccc6)c6ccc3[nH]6)C=C5)C=C4)cc2)C1
REMARK SMILES IDX 26 1 25 2 23 3 24 4 9 5 5 6 6 7 79 8 7 9 8 10 3 11 4 12 2 13
REMARK SMILES IDX 1 14 10 15 11 16 12 17 22 18 13 19 21 20 14 21 15 22 20 23
REMARK SMILES IDX 16 24 19 25 17 26 18 27 27 28 28 29 29 30 30 31 31 32 32 33
REMARK SMILES IDX 78 34 33 35 77 36 34 37 35 38 36 39 71 40 37 41 76 42 70 43
REMARK SMILES IDX 72 44 38 45 75 46 69 47 68 48 39 50 61 51 46 52 60 53 47 54
REMARK SMILES IDX 50 55 59 56 73 57 48 58 49 59 58 61 74 62 51 63 40 64 41 65
REMARK SMILES IDX 45 66 42 67 44 68 43 69 62 70 63 71 67 72 64 73 66 74 65 75
REMARK SMILES IDX 52 76 53 77 57 78 54 79 56 80 55 81
REMARK H PARENT 72 49 50 60
REMARK Flexibility Score: inf
ROOT
ATOM      1  C   UNL A   1      33.095  30.357  27.141  1.00  0.00     0.274 C 
ENDROOT
BRANCH   1   2
ATOM      2  O   UNL A   1      33.095  29.452  26.020  1.00  0.00    -0.462 OA
BRANCH   2   3
ATOM      3  C   UNL A   1      31.855  28.690  25.781  1.00  0.00     0.314 C 
ATOM      4  O   UNL A   1      31.416  28.540  26.958  1.00  0.00    -0.252 OA
BRANCH   3   5
ATOM      5  C   UNL A   1      31.044  28.116  23.797  1.00  0.00     0.089 C 
ATOM      6  N   UNL A   1      28.728  29.515  23.049  1.00  0.00    -0.342 N 
ATOM      7  C   UNL A   1      27.781  28.397  23.141  1.00  0.00     0.119 C 
ATOM      8  C   UNL A   1      30.104  29.161  22.664  1.00  0.00     0.138 C 
ATOM      9  C   UNL A   1      28.298  27.111  23.759  1.00  0.00     0.023 C 
ATOM     10  C   UNL A   1      29.787  26.832  23.501  1.00  0.00     0.022 C 
BRANCH   6  11
ATOM     11  C   UNL A   1      28.163  30.777  23.161  1.00  0.00     0.222 C 
ATOM     12  O   UNL A   1      27.087  30.919  23.762  1.00  0.00    -0.275 OA
BRANCH  11  13
ATOM     13  C   UNL A   1      28.665  32.025  22.441  1.00  0.00     0.097 C 
ATOM     14  C   UNL A   1      28.988  33.364  23.054  1.00  0.00     0.014 C 
ENDBRANCH  11  13
ENDBRANCH   6  11
BRANCH   5  15
ATOM     15  C   UNL A   1      32.066  27.403  22.379  1.00  0.00     0.069 C 
BRANCH  15  16
ATOM     16  C   UNL A   1      33.238  26.338  22.325  1.00  0.00     0.212 C 
ATOM     17  C   UNL A   1      33.457  25.307  23.424  1.00  0.00     0.108 C 
ATOM     18  O   UNL A   1      33.348  25.647  21.077  1.00  0.00    -0.392 OA
ATOM     19  C   UNL A   1      33.351  24.070  22.600  1.00  0.00     0.091 C 
ATOM     20  N   UNL A   1      33.347  24.254  21.319  1.00  0.00    -0.090 NA
BRANCH  19  21
ATOM     21  C   UNL A   1      33.299  22.731  23.209  1.00  0.00    -0.001 A 
ATOM     22  C   UNL A   1      32.302  21.820  22.852  1.00  0.00     0.010 A 
ATOM     23  C   UNL A   1      34.300  22.357  24.105  1.00  0.00     0.010 A 
ATOM     24  C   UNL A   1      32.316  20.527  23.384  1.00  0.00     0.004 A 
ATOM     25  C   UNL A   1      34.286  21.079  24.668  1.00  0.00     0.004 A 
ATOM     26  C   UNL A   1      33.298  20.151  24.307  1.00  0.00    -0.051 A 
ATOM     27  C   UNL A   1      33.291  18.786  24.934  1.00  0.00     0.044 C 
ENDBRANCH  19  21
ENDBRANCH  15  16
ENDBRANCH   5  15
ENDBRANCH   3   5
ENDBRANCH   2   3
ENDBRANCH   1   2
BRANCH   1  28
ATOM     28  C   UNL A   1      34.535  30.600  27.617  1.00  0.00     0.275 C 
BRANCH  28  29
ATOM     29  O   UNL A   1      34.914  31.990  27.795  1.00  0.00    -0.458 OA
BRANCH  29  30
ATOM     30  C   UNL A   1      34.313  32.859  28.657  1.00  0.00     0.338 C 
ATOM     31  O   UNL A   1      33.390  33.586  28.328  1.00  0.00    -0.246 OA
BRANCH  30  32
ATOM     32  C   UNL A   1      35.139  33.218  29.833  1.00  0.00     0.060 A 
ATOM     33  C   UNL A   1      36.471  34.337  29.403  1.00  0.00     0.016 A 
ATOM     34  C   UNL A   1      35.389  32.017  31.133  1.00  0.00     0.016 A 
ATOM     35  C   UNL A   1      38.110  34.137  30.159  1.00  0.00     0.010 A 
ATOM     36  C   UNL A   1      37.000  31.836  31.901  1.00  0.00     0.010 A 
ATOM     37  C   UNL A   1      38.392  32.796  31.289  1.00  0.00    -0.014 A 
BRANCH  37  38
ATOM     38  C   UNL A   1      39.651  32.026  31.191  1.00  0.00     0.031 A 
ATOM     39  C   UNL A   1      39.576  30.816  30.352  1.00  0.00     0.074 A 
ATOM     40  C   UNL A   1      40.775  32.478  31.823  1.00  0.00     0.049 A 
ATOM     41  N   UNL A   1      40.068  29.679  30.699  1.00  0.00    -0.248 NA
ATOM     42  C   UNL A   1      38.749  30.690  29.140  1.00  0.00     0.031 C 
ATOM     43  C   UNL A   1      42.180  32.082  31.722  1.00  0.00     0.029 A 
ATOM     44  N   UNL A   1      40.842  33.409  32.848  1.00  0.00    -0.354 N 
ATOM     45  C   UNL A   1      40.040  28.911  29.554  1.00  0.00     0.074 A 
ATOM     46  C   UNL A   1      38.960  29.425  28.779  1.00  0.00     0.031 C 
ATOM     47  C   UNL A   1      42.864  32.540  32.797  1.00  0.00     0.029 A 
ATOM     48  C   UNL A   1      41.933  33.226  33.678  1.00  0.00     0.049 A 
ATOM     49  H   UNL A   1      40.180  34.127  32.973  1.00  0.00     0.167 HD
ATOM     50  C   UNL A   1      41.142  28.187  29.222  1.00  0.00     0.031 A 
ATOM     51  C   UNL A   1      41.717  32.969  35.003  1.00  0.00     0.031 A 
ATOM     52  C   UNL A   1      42.138  28.307  30.286  1.00  0.00     0.049 A 
ATOM     53  C   UNL A   1      41.870  31.481  35.237  1.00  0.00     0.074 A 
ATOM     54  C   UNL A   1      43.310  29.033  30.399  1.00  0.00     0.029 A 
ATOM     55  N   UNL A   1      41.754  27.981  31.578  1.00  0.00    -0.354 N 
ATOM     56  N   UNL A   1      41.812  30.597  34.273  1.00  0.00    -0.248 NA
ATOM     57  C   UNL A   1      42.185  30.874  36.525  1.00  0.00     0.031 C 
ATOM     58  C   UNL A   1      43.592  29.182  31.792  1.00  0.00     0.029 A 
ATOM     59  C   UNL A   1      42.595  28.546  32.513  1.00  0.00     0.049 A 
ATOM     60  H   UNL A   1      40.979  27.416  31.801  1.00  0.00     0.167 HD
ATOM     61  C   UNL A   1      42.184  29.373  34.745  1.00  0.00     0.074 A 
ATOM     62  C   UNL A   1      42.370  29.589  36.171  1.00  0.00     0.031 C 
ATOM     63  C   UNL A   1      42.355  28.289  33.931  1.00  0.00     0.031 A 
BRANCH  50  64
ATOM     64  C   UNL A   1      41.448  27.653  27.841  1.00  0.00    -0.014 A 
ATOM     65  C   UNL A   1      41.914  28.549  26.864  1.00  0.00     0.009 A 
ATOM     66  C   UNL A   1      41.281  26.321  27.414  1.00  0.00     0.009 A 
ATOM     67  C   UNL A   1      42.178  28.149  25.547  1.00  0.00     0.001 A 
ATOM     68  C   UNL A   1      41.541  25.911  26.096  1.00  0.00     0.001 A 
ATOM     69  C   UNL A   1      41.991  26.828  25.162  1.00  0.00     0.000 A 
ENDBRANCH  50  64
BRANCH  51  70
ATOM     70  C   UNL A   1      40.724  33.903  35.634  1.00  0.00    -0.014 A 
ATOM     71  C   UNL A   1      39.536  33.313  36.137  1.00  0.00     0.009 A 
ATOM     72  C   UNL A   1      41.033  35.199  36.060  1.00  0.00     0.009 A 
ATOM     73  C   UNL A   1      38.789  33.916  37.153  1.00  0.00     0.001 A 
ATOM     74  C   UNL A   1      40.258  35.819  37.061  1.00  0.00     0.001 A 
ATOM     75  C   UNL A   1      39.156  35.168  37.622  1.00  0.00     0.000 A 
ENDBRANCH  51  70
BRANCH  63  76
ATOM     76  C   UNL A   1      42.375  26.849  34.389  1.00  0.00    -0.014 A 
ATOM     77  C   UNL A   1      43.447  25.976  34.191  1.00  0.00     0.009 A 
ATOM     78  C   UNL A   1      41.311  26.360  35.187  1.00  0.00     0.009 A 
ATOM     79  C   UNL A   1      43.416  24.665  34.677  1.00  0.00     0.001 A 
ATOM     80  C   UNL A   1      41.318  25.089  35.754  1.00  0.00     0.001 A 
ATOM     81  C   UNL A   1      42.359  24.226  35.468  1.00  0.00     0.000 A 
ENDBRANCH  63  76
ENDBRANCH  37  38
ENDBRANCH  30  32
ENDBRANCH  29  30
ENDBRANCH  28  29
ENDBRANCH   1  28
TORSDOF 16
ENDMDL
MODEL 2
REMARK VINA RESULT:     -13.9      4.360      9.751
REMARK SMILES CCC(=O)N1CCC[C@](C[C@H]2CC(c3ccc(C)cc3)=NO2)(C(=O)OCCOC(=O)c2ccc(-c3c4nc(c(-c5ccccc5)c5ccc([nH]5)c(-c5ccccc5)c5nc(c(-c6ccccc6)c6ccc3[nH]6)C=C5)C=C4)cc2)C1
REMARK SMILES IDX 26 1 25 2 23 3 24 4 9 5 5 6 6 7 79 8 7 9 8 10 3 11 4 12 2 13
REMARK SMILES IDX 1 14 10 15 11 16 12 17 22 18 13 19 21 20 14 21 15 22 20 23
REMARK SMILES IDX 16 24 19 25 17 26 18 27 27 28 28 29 29 30 30 31 31 32 32 33
REMARK SMILES IDX 78 34 33 35 77 36 34 37 35 38 36 39 71 40 37 41 76 42 70 43
REMARK SMILES IDX 72 44 38 45 75 46 69 47 68 48 39 50 61 51 46 52 60 53 47 54
REMARK SMILES IDX 50 55 59 56 73 57 48 58 49 59 58 61 74 62 51 63 40 64 41 65
REMARK SMILES IDX 45 66 42 67 44 68 43 69 62 70 63 71 67 72 64 73 66 74 65 75
REMARK SMILES IDX 52 76 53 77 57 78 54 79 56 80 55 81
REMARK H PARENT 72 49 50 60
REMARK Flexibility Score: inf
ROOT
ATOM      1  C   UNL A   1      37.448  23.235  26.102  1.00  0.00     0.274 C 
ENDROOT
BRANCH   1   2
ATOM      2  O   UNL A   1      37.052  21.921  25.663  1.00  0.00    -0.462 OA
BRANCH   2   3
ATOM      3  C   UNL A   1      35.970  21.852  24.663  1.00  0.00     0.314 C 
ATOM      4  O   UNL A   1      36.585  22.156  23.599  1.00  0.00    -0.252 OA
BRANCH   3   5
ATOM      5  C   UNL A   1      33.870  21.252  25.058  1.00  0.00     0.089 C 
ATOM      6  N   UNL A   1      33.180  18.730  24.037  1.00  0.00    -0.342 N 
ATOM      7  C   UNL A   1      32.267  19.185  22.981  1.00  0.00     0.119 C 
ATOM      8  C   UNL A   1      33.237  19.572  25.243  1.00  0.00     0.138 C 
ATOM      9  C   UNL A   1      32.222  20.678  22.712  1.00  0.00     0.023 C 
ATOM     10  C   UNL A   1      32.458  21.558  23.949  1.00  0.00     0.022 C 
BRANCH   6  11
ATOM     11  C   UNL A   1      33.734  17.475  23.836  1.00  0.00     0.222 C 
ATOM     12  O   UNL A   1      33.862  17.035  22.683  1.00  0.00    -0.275 OA
BRANCH  11  13
ATOM     13  C   UNL A   1      34.051  16.474  24.944  1.00  0.00     0.097 C 
ATOM     14  C   UNL A   1      35.396  15.879  25.278  1.00  0.00     0.014 C 
ENDBRANCH  11  13
ENDBRANCH   6  11
BRANCH   5  15
ATOM     15  C   UNL A   1      32.829  21.864  26.507  1.00  0.00     0.069 C 
BRANCH  15  16
ATOM     16  C   UNL A   1      32.404  23.312  26.995  1.00  0.00     0.212 C 
ATOM     17  C   UNL A   1      32.650  24.560  26.158  1.00  0.00     0.108 C 
ATOM     18  O   UNL A   1      31.064  23.397  27.488  1.00  0.00    -0.392 OA
ATOM     19  C   UNL A   1      31.243  25.040  26.048  1.00  0.00     0.091 C 
ATOM     20  N   UNL A   1      30.390  24.442  26.814  1.00  0.00    -0.090 NA
BRANCH  19  21
ATOM     21  C   UNL A   1      30.867  26.150  25.157  1.00  0.00    -0.001 A 
ATOM     22  C   UNL A   1      29.739  26.062  24.339  1.00  0.00     0.010 A 
ATOM     23  C   UNL A   1      31.620  27.324  25.187  1.00  0.00     0.010 A 
ATOM     24  C   UNL A   1      29.355  27.157  23.559  1.00  0.00     0.004 A 
ATOM     25  C   UNL A   1      31.259  28.401  24.373  1.00  0.00     0.004 A 
ATOM     26  C   UNL A   1      30.120  28.329  23.558  1.00  0.00    -0.051 A 
ATOM     27  C   UNL A   1      29.756  29.491  22.679  1.00  0.00     0.044 C 
ENDBRANCH  19  21
ENDBRANCH  15  16
ENDBRANCH   5  15
ENDBRANCH   3   5
ENDBRANCH   2   3
ENDBRANCH   1   2
BRANCH   1  28
ATOM     28  C   UNL A   1      38.969  23.280  26.310  1.00  0.00     0.275 C 
BRANCH  28  29
ATOM     29  O   UNL A   1      39.567  22.076  26.857  1.00  0.00    -0.458 OA
BRANCH  29  30
ATOM     30  C   UNL A   1      40.607  21.396  26.294  1.00  0.00     0.338 C 
ATOM     31  O   UNL A   1      40.512  20.241  25.911  1.00  0.00    -0.246 OA
BRANCH  30  32
ATOM     32  C   UNL A   1      41.941  21.948  26.620  1.00  0.00     0.060 A 
ATOM     33  C   UNL A   1      42.317  21.814  28.366  1.00  0.00     0.016 A 
ATOM     34  C   UNL A   1      42.567  23.344  25.694  1.00  0.00     0.016 A 
ATOM     35  C   UNL A   1      43.175  23.167  29.221  1.00  0.00     0.010 A 
ATOM     36  C   UNL A   1      43.438  24.669  26.533  1.00  0.00     0.010 A 
ATOM     37  C   UNL A   1      43.593  24.641  28.324  1.00  0.00    -0.014 A 
BRANCH  37  38
ATOM     38  C   UNL A   1      43.378  25.958  28.963  1.00  0.00     0.031 A 
ATOM     39  C   UNL A   1      42.085  26.595  28.653  1.00  0.00     0.074 A 
ATOM     40  C   UNL A   1      44.329  26.471  29.799  1.00  0.00     0.049 A 
ATOM     41  N   UNL A   1      41.963  27.837  28.339  1.00  0.00    -0.248 NA
ATOM     42  C   UNL A   1      40.824  25.865  28.439  1.00  0.00     0.031 C 
ATOM     43  C   UNL A   1      44.305  27.595  30.734  1.00  0.00     0.029 A 
ATOM     44  N   UNL A   1      45.658  26.086  29.892  1.00  0.00    -0.354 N 
ATOM     45  C   UNL A   1      40.609  28.091  28.405  1.00  0.00     0.074 A 
ATOM     46  C   UNL A   1      39.975  26.845  28.131  1.00  0.00     0.031 C 
ATOM     47  C   UNL A   1      45.571  27.953  31.054  1.00  0.00     0.029 A 
ATOM     48  C   UNL A   1      46.491  27.106  30.313  1.00  0.00     0.049 A 
ATOM     49  H   UNL A   1      45.977  25.179  29.679  1.00  0.00     0.167 HD
ATOM     50  C   UNL A   1      40.182  29.216  29.039  1.00  0.00     0.031 A 
ATOM     51  C   UNL A   1      47.499  27.517  29.486  1.00  0.00     0.031 A 
ATOM     52  C   UNL A   1      41.341  30.013  29.440  1.00  0.00     0.049 A 
ATOM     53  C   UNL A   1      47.060  28.785  28.784  1.00  0.00     0.074 A 
ATOM     54  C   UNL A   1      41.969  30.214  30.656  1.00  0.00     0.029 A 
ATOM     55  N   UNL A   1      42.260  30.365  28.462  1.00  0.00    -0.354 N 
ATOM     56  N   UNL A   1      45.808  29.156  28.697  1.00  0.00    -0.248 NA
ATOM     57  C   UNL A   1      47.970  29.772  28.213  1.00  0.00     0.031 C 
ATOM     58  C   UNL A   1      43.305  30.643  30.385  1.00  0.00     0.029 A 
ATOM     59  C   UNL A   1      43.478  30.702  29.012  1.00  0.00     0.049 A 
ATOM     60  H   UNL A   1      42.067  30.376  27.497  1.00  0.00     0.167 HD
ATOM     61  C   UNL A   1      45.735  30.423  28.197  1.00  0.00     0.074 A 
ATOM     62  C   UNL A   1      47.114  30.752  27.873  1.00  0.00     0.031 C 
ATOM     63  C   UNL A   1      44.563  31.123  28.130  1.00  0.00     0.031 A 
BRANCH  50  64
ATOM     64  C   UNL A   1      38.784  29.437  29.571  1.00  0.00    -0.014 A 
ATOM     65  C   UNL A   1      38.558  29.269  30.949  1.00  0.00     0.009 A 
ATOM     66  C   UNL A   1      37.651  29.773  28.806  1.00  0.00     0.009 A 
ATOM     67  C   UNL A   1      37.286  29.409  31.520  1.00  0.00     0.001 A 
ATOM     68  C   UNL A   1      36.373  29.913  29.369  1.00  0.00     0.001 A 
ATOM     69  C   UNL A   1      36.191  29.731  30.729  1.00  0.00     0.000 A 
ENDBRANCH  50  64
BRANCH  51  70
ATOM     70  C   UNL A   1      48.300  26.381  28.918  1.00  0.00    -0.014 A 
ATOM     71  C   UNL A   1      48.174  26.156  27.524  1.00  0.00     0.009 A 
ATOM     72  C   UNL A   1      49.384  25.786  29.574  1.00  0.00     0.009 A 
ATOM     73  C   UNL A   1      49.178  25.520  26.787  1.00  0.00     0.001 A 
ATOM     74  C   UNL A   1      50.378  25.115  28.833  1.00  0.00     0.001 A 
ATOM     75  C   UNL A   1      50.286  25.006  27.442  1.00  0.00     0.000 A 
ENDBRANCH  51  70
BRANCH  63  76
ATOM     76  C   UNL A   1      44.320  32.333  27.259  1.00  0.00    -0.014 A 
ATOM     77  C   UNL A   1      44.294  32.305  25.862  1.00  0.00     0.009 A 
ATOM     78  C   UNL A   1      43.965  33.564  27.865  1.00  0.00     0.009 A 
ATOM     79  C   UNL A   1      44.023  33.457  25.117  1.00  0.00     0.001 A 
ATOM     80  C   UNL A   1      43.600  34.688  27.129  1.00  0.00     0.001 A 
ATOM     81  C   UNL A   1      43.665  34.644  25.749  1.00  0.00     0.000 A 
ENDBRANCH  63  76
ENDBRANCH  37  38
ENDBRANCH  30  32
ENDBRANCH  29  30
ENDBRANCH  28  29
ENDBRANCH   1  28
TORSDOF 16
ENDMDL
MODEL 3
REMARK VINA RESULT:     -13.9      5.291      9.439
REMARK SMILES CCC(=O)N1CCC[C@](C[C@H]2CC(c3ccc(C)cc3)=NO2)(C(=O)OCCOC(=O)c2ccc(-c3c4nc(c(-c5ccccc5)c5ccc([nH]5)c(-c5ccccc5)c5nc(c(-c6ccccc6)c6ccc3[nH]6)C=C5)C=C4)cc2)C1
REMARK SMILES IDX 26 1 25 2 23 3 24 4 9 5 5 6 6 7 79 8 7 9 8 10 3 11 4 12 2 13
REMARK SMILES IDX 1 14 10 15 11 16 12 17 22 18 13 19 21 20 14 21 15 22 20 23
REMARK SMILES IDX 16 24 19 25 17 26 18 27 27 28 28 29 29 30 30 31 31 32 32 33
REMARK SMILES IDX 78 34 33 35 77 36 34 37 35 38 36 39 71 40 37 41 76 42 70 43
REMARK SMILES IDX 72 44 38 45 75 46 69 47 68 48 39 50 61 51 46 52 60 53 47 54
REMARK SMILES IDX 50 55 59 56 73 57 48 58 49 59 58 61 74 62 51 63 40 64 41 65
REMARK SMILES IDX 45 66 42 67 44 68 43 69 62 70 63 71 67 72 64 73 66 74 65 75
REMARK SMILES IDX 52 76 53 77 57 78 54 79 56 80 55 81
REMARK H PARENT 72 49 50 60
REMARK Flexibility Score: inf
ROOT
ATOM      1  C   UNL A   1      38.301  22.088  25.577  1.00  0.00     0.274 C 
ENDROOT
BRANCH   1   2
ATOM      2  O   UNL A   1      37.309  21.103  25.230  1.00  0.00    -0.462 OA
BRANCH   2   3
ATOM      3  C   UNL A   1      36.108  21.588  24.525  1.00  0.00     0.314 C 
ATOM      4  O   UNL A   1      36.616  22.309  23.618  1.00  0.00    -0.252 OA
BRANCH   3   5
ATOM      5  C   UNL A   1      34.012  21.025  24.989  1.00  0.00     0.089 C 
ATOM      6  N   UNL A   1      33.229  18.536  23.952  1.00  0.00    -0.342 N 
ATOM      7  C   UNL A   1      32.287  19.029  22.940  1.00  0.00     0.119 C 
ATOM      8  C   UNL A   1      33.350  19.355  25.170  1.00  0.00     0.138 C 
ATOM      9  C   UNL A   1      32.265  20.527  22.698  1.00  0.00     0.023 C 
ATOM     10  C   UNL A   1      32.566  21.380  23.940  1.00  0.00     0.022 C 
BRANCH   6  11
ATOM     11  C   UNL A   1      33.748  17.274  23.710  1.00  0.00     0.222 C 
ATOM     12  O   UNL A   1      33.889  16.879  22.542  1.00  0.00    -0.275 OA
BRANCH  11  13
ATOM     13  C   UNL A   1      34.006  16.216  24.780  1.00  0.00     0.097 C 
ATOM     14  C   UNL A   1      35.337  15.817  25.364  1.00  0.00     0.014 C 
ENDBRANCH  11  13
ENDBRANCH   6  11
BRANCH   5  15
ATOM     15  C   UNL A   1      33.039  21.633  26.487  1.00  0.00     0.069 C 
BRANCH  15  16
ATOM     16  C   UNL A   1      32.695  23.081  27.034  1.00  0.00     0.212 C 
ATOM     17  C   UNL A   1      32.867  24.335  26.189  1.00  0.00     0.108 C 
ATOM     18  O   UNL A   1      31.419  23.180  27.673  1.00  0.00    -0.392 OA
ATOM     19  C   UNL A   1      31.465  24.839  26.241  1.00  0.00     0.091 C 
ATOM     20  N   UNL A   1      30.692  24.243  27.089  1.00  0.00    -0.090 NA
BRANCH  19  21
ATOM     21  C   UNL A   1      31.012  25.965  25.409  1.00  0.00    -0.001 A 
ATOM     22  C   UNL A   1      31.502  27.256  25.620  1.00  0.00     0.010 A 
ATOM     23  C   UNL A   1      30.128  25.716  24.359  1.00  0.00     0.010 A 
ATOM     24  C   UNL A   1      31.118  28.297  24.770  1.00  0.00     0.004 A 
ATOM     25  C   UNL A   1      29.712  26.767  23.537  1.00  0.00     0.004 A 
ATOM     26  C   UNL A   1      30.209  28.064  23.731  1.00  0.00    -0.051 A 
ATOM     27  C   UNL A   1      29.739  29.183  22.848  1.00  0.00     0.044 C 
ENDBRANCH  19  21
ENDBRANCH  15  16
ENDBRANCH   5  15
ENDBRANCH   3   5
ENDBRANCH   2   3
ENDBRANCH   1   2
BRANCH   1  28
ATOM     28  C   UNL A   1      39.481  21.414  26.291  1.00  0.00     0.275 C 
BRANCH  28  29
ATOM     29  O   UNL A   1      40.735  21.398  25.559  1.00  0.00    -0.458 OA
BRANCH  29  30
ATOM     30  C   UNL A   1      41.815  22.181  25.844  1.00  0.00     0.338 C 
ATOM     31  O   UNL A   1      42.875  22.089  25.247  1.00  0.00    -0.246 OA
BRANCH  30  32
ATOM     32  C   UNL A   1      41.790  22.781  27.198  1.00  0.00     0.060 A 
ATOM     33  C   UNL A   1      41.519  24.551  27.145  1.00  0.00     0.016 A 
ATOM     34  C   UNL A   1      42.820  22.090  28.486  1.00  0.00     0.016 A 
ATOM     35  C   UNL A   1      42.419  25.645  28.281  1.00  0.00     0.010 A 
ATOM     36  C   UNL A   1      43.688  23.168  29.626  1.00  0.00     0.010 A 
ATOM     37  C   UNL A   1      43.603  24.951  29.408  1.00  0.00    -0.014 A 
BRANCH  37  38
ATOM     38  C   UNL A   1      44.897  25.639  29.606  1.00  0.00     0.031 A 
ATOM     39  C   UNL A   1      45.945  25.286  28.632  1.00  0.00     0.074 A 
ATOM     40  C   UNL A   1      45.033  26.554  30.612  1.00  0.00     0.049 A 
ATOM     41  N   UNL A   1      47.162  25.027  28.959  1.00  0.00    -0.248 NA
ATOM     42  C   UNL A   1      45.695  24.963  27.217  1.00  0.00     0.031 C 
ATOM     43  C   UNL A   1      46.074  27.540  30.903  1.00  0.00     0.029 A 
ATOM     44  N   UNL A   1      44.216  26.705  31.722  1.00  0.00    -0.354 N 
ATOM     45  C   UNL A   1      47.861  25.025  27.771  1.00  0.00     0.074 A 
ATOM     46  C   UNL A   1      46.913  24.654  26.773  1.00  0.00     0.031 C 
ATOM     47  C   UNL A   1      45.970  27.950  32.190  1.00  0.00     0.029 A 
ATOM     48  C   UNL A   1      44.879  27.224  32.819  1.00  0.00     0.049 A 
ATOM     49  H   UNL A   1      43.260  26.468  31.729  1.00  0.00     0.167 HD
ATOM     50  C   UNL A   1      49.047  25.687  27.706  1.00  0.00     0.031 A 
ATOM     51  C   UNL A   1      44.943  26.479  33.963  1.00  0.00     0.031 A 
ATOM     52  C   UNL A   1      49.391  26.193  29.034  1.00  0.00     0.049 A 
ATOM     53  C   UNL A   1      46.303  25.815  34.031  1.00  0.00     0.074 A 
ATOM     54  C   UNL A   1      49.334  27.452  29.604  1.00  0.00     0.029 A 
ATOM     55  N   UNL A   1      49.433  25.290  30.086  1.00  0.00    -0.354 N 
ATOM     56  N   UNL A   1      47.081  25.672  32.988  1.00  0.00    -0.248 NA
ATOM     57  C   UNL A   1      46.934  25.346  35.260  1.00  0.00     0.031 C 
ATOM     58  C   UNL A   1      49.288  27.282  31.022  1.00  0.00     0.029 A 
ATOM     59  C   UNL A   1      49.319  25.925  31.303  1.00  0.00     0.049 A 
ATOM     60  H   UNL A   1      49.534  24.316  29.977  1.00  0.00     0.167 HD
ATOM     61  C   UNL A   1      48.309  25.231  33.384  1.00  0.00     0.074 A 
ATOM     62  C   UNL A   1      48.156  25.005  34.812  1.00  0.00     0.031 C 
ATOM     63  C   UNL A   1      49.368  25.130  32.527  1.00  0.00     0.031 A 
BRANCH  50  64
ATOM     64  C   UNL A   1      49.718  26.147  26.431  1.00  0.00    -0.014 A 
ATOM     65  C   UNL A   1      48.970  26.913  25.520  1.00  0.00     0.009 A 
ATOM     66  C   UNL A   1      51.039  25.855  26.039  1.00  0.00     0.009 A 
ATOM     67  C   UNL A   1      49.497  27.341  24.295  1.00  0.00     0.001 A 
ATOM     68  C   UNL A   1      51.575  26.278  24.813  1.00  0.00     0.001 A 
ATOM     69  C   UNL A   1      50.801  27.024  23.939  1.00  0.00     0.000 A 
ENDBRANCH  50  64
BRANCH  51  70
ATOM     70  C   UNL A   1      43.617  25.903  34.370  1.00  0.00    -0.014 A 
ATOM     71  C   UNL A   1      43.523  24.489  34.393  1.00  0.00     0.009 A 
ATOM     72  C   UNL A   1      42.626  26.628  35.043  1.00  0.00     0.009 A 
ATOM     73  C   UNL A   1      42.591  23.825  35.195  1.00  0.00     0.001 A 
ATOM     74  C   UNL A   1      41.665  25.955  35.825  1.00  0.00     0.001 A 
ATOM     75  C   UNL A   1      41.665  24.561  35.920  1.00  0.00     0.000 A 
ENDBRANCH  51  70
BRANCH  63  76
ATOM     76  C   UNL A   1      50.611  24.306  32.771  1.00  0.00    -0.014 A 
ATOM     77  C   UNL A   1      51.909  24.821  32.770  1.00  0.00     0.009 A 
ATOM     78  C   UNL A   1      50.478  22.949  33.158  1.00  0.00     0.009 A 
ATOM     79  C   UNL A   1      53.014  24.008  33.044  1.00  0.00     0.001 A 
ATOM     80  C   UNL A   1      51.566  22.161  33.525  1.00  0.00     0.001 A 
ATOM     81  C   UNL A   1      52.842  22.684  33.432  1.00  0.00     0.000 A 
ENDBRANCH  63  76
ENDBRANCH  37  38
ENDBRANCH  30  32
ENDBRANCH  29  30
ENDBRANCH  28  29
ENDBRANCH   1  28
TORSDOF 16
ENDMDL
