MODEL 1
REMARK VINA RESULT:     -11.6      0.000      0.000
REMARK SMILES O=C(OCCOC(=O)[C@H]1[C@H]2CC[C@H](CC2)[C@@H]1C(=O)Nc1ccc(Cc2ccncc2)cc1)c1ccc(-c2c3nc(c(-c4ccccc4)c4ccc([nH]4)c(-c4ccccc4)c4nc(c(-c5ccccc5)c5ccc2[nH]5)C=C4)C=C3)cc1
REMARK SMILES IDX 5 1 4 2 3 3 2 4 1 5 33 6 34 7 80 8 35 9 79 10 36 11 37 12
REMARK SMILES IDX 38 13 73 14 39 15 78 16 72 17 74 18 40 19 77 20 71 21 70 22
REMARK SMILES IDX 41 24 63 25 48 26 62 27 49 28 52 29 61 30 75 31 50 32 51 33
REMARK SMILES IDX 60 35 76 36 53 37 42 38 43 39 47 40 44 41 46 42 45 43 64 44
REMARK SMILES IDX 65 45 69 46 66 47 68 48 67 49 54 50 55 51 59 52 56 53 58 54
REMARK SMILES IDX 57 55 6 56 7 57 8 58 9 59 10 60 16 61 15 62 11 63 13 64
REMARK SMILES IDX 14 65 12 66 17 67 18 68 19 69 20 71 21 72 32 73 22 74 31 75
REMARK SMILES IDX 23 76 24 77 25 78 26 79 30 80 27 81 29 82 28 83
REMARK H PARENT 74 23 52 34 19 70
REMARK Flexibility Score: inf
ROOT
ATOM      1  C   UNL A   1      32.553  30.644  26.891  1.00  0.00     0.274 C 
ENDROOT
BRANCH   1   2
ATOM      2  C   UNL A   1      31.622  31.843  27.054  1.00  0.00     0.275 C 
BRANCH   2   3
ATOM      3  O   UNL A   1      32.303  33.115  27.089  1.00  0.00    -0.458 OA
BRANCH   3   4
ATOM      4  C   UNL A   1      32.947  33.776  28.082  1.00  0.00     0.338 C 
ATOM      5  O   UNL A   1      32.449  34.838  28.461  1.00  0.00    -0.246 OA
BRANCH   4   6
ATOM      6  C   UNL A   1      34.244  33.362  28.740  1.00  0.00     0.060 A 
ATOM      7  C   UNL A   1      34.399  32.684  29.955  1.00  0.00     0.016 A 
ATOM      8  C   UNL A   1      35.424  33.607  28.000  1.00  0.00     0.016 A 
ATOM      9  C   UNL A   1      35.656  32.168  30.358  1.00  0.00     0.010 A 
ATOM     10  C   UNL A   1      36.676  33.091  28.396  1.00  0.00     0.010 A 
ATOM     11  C   UNL A   1      36.804  32.326  29.566  1.00  0.00    -0.014 A 
BRANCH  11  12
ATOM     12  C   UNL A   1      38.153  31.871  30.053  1.00  0.00     0.031 A 
ATOM     13  C   UNL A   1      38.632  30.559  29.554  1.00  0.00     0.074 A 
ATOM     14  C   UNL A   1      38.960  32.550  30.900  1.00  0.00     0.049 A 
ATOM     15  N   UNL A   1      39.778  29.982  29.777  1.00  0.00    -0.248 NA
ATOM     16  C   UNL A   1      37.698  29.792  28.714  1.00  0.00     0.031 C 
ATOM     17  C   UNL A   1      38.582  33.786  31.518  1.00  0.00     0.029 A 
ATOM     18  N   UNL A   1      40.215  32.348  31.432  1.00  0.00    -0.354 N 
ATOM     19  C   UNL A   1      39.719  28.795  29.079  1.00  0.00     0.074 A 
ATOM     20  C   UNL A   1      38.398  28.695  28.495  1.00  0.00     0.031 C 
ATOM     21  C   UNL A   1      39.535  34.283  32.306  1.00  0.00     0.029 A 
ATOM     22  C   UNL A   1      40.630  33.351  32.299  1.00  0.00     0.049 A 
ATOM     23  H   UNL A   1      40.769  31.563  31.217  1.00  0.00     0.167 HD
ATOM     24  C   UNL A   1      40.700  27.885  28.919  1.00  0.00     0.031 A 
ATOM     25  C   UNL A   1      41.740  33.526  33.039  1.00  0.00     0.031 A 
ATOM     26  C   UNL A   1      41.969  27.956  29.582  1.00  0.00     0.049 A 
ATOM     27  C   UNL A   1      42.771  32.459  32.925  1.00  0.00     0.074 A 
ATOM     28  C   UNL A   1      43.022  27.067  29.521  1.00  0.00     0.029 A 
ATOM     29  N   UNL A   1      42.345  28.967  30.462  1.00  0.00    -0.354 N 
ATOM     30  N   UNL A   1      42.718  31.371  32.196  1.00  0.00    -0.248 NA
ATOM     31  C   UNL A   1      44.001  32.625  33.702  1.00  0.00     0.031 C 
ATOM     32  C   UNL A   1      44.013  27.510  30.404  1.00  0.00     0.029 A 
ATOM     33  C   UNL A   1      43.608  28.711  30.967  1.00  0.00     0.049 A 
ATOM     34  H   UNL A   1      41.792  29.749  30.692  1.00  0.00     0.167 HD
ATOM     35  C   UNL A   1      43.916  30.725  32.407  1.00  0.00     0.074 A 
ATOM     36  C   UNL A   1      44.685  31.557  33.318  1.00  0.00     0.031 C 
ATOM     37  C   UNL A   1      44.337  29.550  31.888  1.00  0.00     0.031 A 
BRANCH  24  38
ATOM     38  C   UNL A   1      40.348  26.739  28.024  1.00  0.00    -0.014 A 
ATOM     39  C   UNL A   1      39.696  25.603  28.541  1.00  0.00     0.009 A 
ATOM     40  C   UNL A   1      40.817  26.721  26.706  1.00  0.00     0.009 A 
ATOM     41  C   UNL A   1      39.583  24.446  27.771  1.00  0.00     0.001 A 
ATOM     42  C   UNL A   1      40.672  25.572  25.927  1.00  0.00     0.001 A 
ATOM     43  C   UNL A   1      40.074  24.432  26.465  1.00  0.00     0.000 A 
ENDBRANCH  24  38
BRANCH  25  44
ATOM     44  C   UNL A   1      41.930  34.716  33.930  1.00  0.00    -0.014 A 
ATOM     45  C   UNL A   1      42.526  35.894  33.450  1.00  0.00     0.009 A 
ATOM     46  C   UNL A   1      41.518  34.686  35.275  1.00  0.00     0.009 A 
ATOM     47  C   UNL A   1      42.735  36.992  34.296  1.00  0.00     0.001 A 
ATOM     48  C   UNL A   1      41.698  35.795  36.110  1.00  0.00     0.001 A 
ATOM     49  C   UNL A   1      42.316  36.944  35.624  1.00  0.00     0.000 A 
ENDBRANCH  25  44
BRANCH  37  50
ATOM     50  C   UNL A   1      45.719  29.132  32.275  1.00  0.00    -0.014 A 
ATOM     51  C   UNL A   1      46.838  29.525  31.528  1.00  0.00     0.009 A 
ATOM     52  C   UNL A   1      45.891  28.328  33.411  1.00  0.00     0.009 A 
ATOM     53  C   UNL A   1      48.109  29.092  31.898  1.00  0.00     0.001 A 
ATOM     54  C   UNL A   1      47.166  27.926  33.797  1.00  0.00     0.001 A 
ATOM     55  C   UNL A   1      48.272  28.300  33.035  1.00  0.00     0.000 A 
ENDBRANCH  37  50
ENDBRANCH  11  12
ENDBRANCH   4   6
ENDBRANCH   3   4
ENDBRANCH   2   3
ENDBRANCH   1   2
BRANCH   1  56
ATOM     56  O   UNL A   1      31.802  29.435  26.999  1.00  0.00    -0.462 OA
BRANCH  56  57
ATOM     57  C   UNL A   1      32.221  28.334  26.310  1.00  0.00     0.310 C 
ATOM     58  O   UNL A   1      33.117  27.589  26.663  1.00  0.00    -0.252 OA
BRANCH  57  59
ATOM     59  C   UNL A   1      31.430  28.183  25.004  1.00  0.00     0.115 C 
ATOM     60  C   UNL A   1      32.108  28.911  23.841  1.00  0.00     0.004 C 
ATOM     61  C   UNL A   1      31.354  26.714  24.554  1.00  0.00     0.096 C 
ATOM     62  C   UNL A   1      33.507  28.245  23.623  1.00  0.00     0.005 C 
ATOM     63  C   UNL A   1      31.102  28.833  22.669  1.00  0.00     0.005 C 
ATOM     64  C   UNL A   1      31.843  26.497  23.076  1.00  0.00     0.002 C 
ATOM     65  C   UNL A   1      33.334  26.850  23.045  1.00  0.00     0.005 C 
ATOM     66  C   UNL A   1      31.064  27.415  22.123  1.00  0.00     0.005 C 
BRANCH  61  67
ATOM     67  C   UNL A   1      29.961  26.108  24.675  1.00  0.00     0.228 C 
ATOM     68  O   UNL A   1      28.942  26.726  24.366  1.00  0.00    -0.274 OA
ATOM     69  N   UNL A   1      29.907  24.755  24.924  1.00  0.00    -0.326 N 
ATOM     70  H   UNL A   1      29.047  24.294  24.785  1.00  0.00     0.169 HD
BRANCH  69  71
ATOM     71  C   UNL A   1      30.996  23.992  25.361  1.00  0.00     0.041 A 
ATOM     72  C   UNL A   1      31.368  24.060  26.698  1.00  0.00     0.026 A 
ATOM     73  C   UNL A   1      31.604  23.072  24.501  1.00  0.00     0.026 A 
ATOM     74  C   UNL A   1      32.275  23.126  27.195  1.00  0.00     0.006 A 
ATOM     75  C   UNL A   1      32.497  22.134  24.996  1.00  0.00     0.006 A 
ATOM     76  C   UNL A   1      32.847  22.161  26.348  1.00  0.00    -0.043 A 
BRANCH  76  77
ATOM     77  C   UNL A   1      33.987  21.293  26.829  1.00  0.00     0.071 C 
BRANCH  77  78
ATOM     78  C   UNL A   1      35.262  21.721  26.142  1.00  0.00    -0.041 A 
ATOM     79  C   UNL A   1      35.672  23.059  26.196  1.00  0.00     0.024 A 
ATOM     80  C   UNL A   1      35.973  20.843  25.323  1.00  0.00     0.024 A 
ATOM     81  C   UNL A   1      36.741  23.463  25.416  1.00  0.00     0.111 A 
ATOM     82  C   UNL A   1      37.042  21.339  24.594  1.00  0.00     0.111 A 
ATOM     83  N   UNL A   1      37.441  22.630  24.621  1.00  0.00    -0.265 NA
ENDBRANCH  77  78
ENDBRANCH  76  77
ENDBRANCH  69  71
ENDBRANCH  61  67
ENDBRANCH  57  59
ENDBRANCH  56  57
ENDBRANCH   1  56
TORSDOF 15
ENDMDL
MODEL 2
REMARK VINA RESULT:     -11.5      3.239      8.510
REMARK SMILES O=C(OCCOC(=O)[C@H]1[C@H]2CC[C@H](CC2)[C@@H]1C(=O)Nc1ccc(Cc2ccncc2)cc1)c1ccc(-c2c3nc(c(-c4ccccc4)c4ccc([nH]4)c(-c4ccccc4)c4nc(c(-c5ccccc5)c5ccc2[nH]5)C=C4)C=C3)cc1
REMARK SMILES IDX 5 1 4 2 3 3 2 4 1 5 33 6 34 7 80 8 35 9 79 10 36 11 37 12
REMARK SMILES IDX 38 13 73 14 39 15 78 16 72 17 74 18 40 19 77 20 71 21 70 22
REMARK SMILES IDX 41 24 63 25 48 26 62 27 49 28 52 29 61 30 75 31 50 32 51 33
REMARK SMILES IDX 60 35 76 36 53 37 42 38 43 39 47 40 44 41 46 42 45 43 64 44
REMARK SMILES IDX 65 45 69 46 66 47 68 48 67 49 54 50 55 51 59 52 56 53 58 54
REMARK SMILES IDX 57 55 6 56 7 57 8 58 9 59 10 60 16 61 15 62 11 63 13 64
REMARK SMILES IDX 14 65 12 66 17 67 18 68 19 69 20 71 21 72 32 73 22 74 31 75
REMARK SMILES IDX 23 76 24 77 25 78 26 79 30 80 27 81 29 82 28 83
REMARK H PARENT 74 23 52 34 19 70
REMARK Flexibility Score: inf
ROOT
ATOM      1  C   UNL A   1      37.858  21.214  25.147  1.00  0.00     0.274 C 
ENDROOT
BRANCH   1   2
ATOM      2  C   UNL A   1      38.408  19.799  24.985  1.00  0.00     0.275 C 
BRANCH   2   3
ATOM      3  O   UNL A   1      39.415  19.446  25.957  1.00  0.00    -0.458 OA
BRANCH   3   4
ATOM      4  C   UNL A   1      40.739  19.719  26.035  1.00  0.00     0.338 C 
ATOM      5  O   UNL A   1      41.517  18.810  25.736  1.00  0.00    -0.246 OA
BRANCH   4   6
ATOM      6  C   UNL A   1      41.361  21.018  26.498  1.00  0.00     0.060 A 
ATOM      7  C   UNL A   1      41.956  22.003  25.702  1.00  0.00     0.016 A 
ATOM      8  C   UNL A   1      41.246  21.306  27.878  1.00  0.00     0.016 A 
ATOM      9  C   UNL A   1      42.311  23.268  26.235  1.00  0.00     0.010 A 
ATOM     10  C   UNL A   1      41.593  22.566  28.410  1.00  0.00     0.010 A 
ATOM     11  C   UNL A   1      42.097  23.584  27.585  1.00  0.00    -0.014 A 
BRANCH  11  12
ATOM     12  C   UNL A   1      42.575  24.887  28.164  1.00  0.00     0.031 A 
ATOM     13  C   UNL A   1      41.558  25.954  28.333  1.00  0.00     0.074 A 
ATOM     14  C   UNL A   1      43.844  25.168  28.541  1.00  0.00     0.049 A 
ATOM     15  N   UNL A   1      41.709  27.133  28.863  1.00  0.00    -0.248 NA
ATOM     16  C   UNL A   1      40.208  25.663  27.826  1.00  0.00     0.031 C 
ATOM     17  C   UNL A   1      44.935  24.258  28.355  1.00  0.00     0.029 A 
ATOM     18  N   UNL A   1      44.480  26.247  29.115  1.00  0.00    -0.354 N 
ATOM     19  C   UNL A   1      40.464  27.719  28.784  1.00  0.00     0.074 A 
ATOM     20  C   UNL A   1      39.592  26.802  28.082  1.00  0.00     0.031 C 
ATOM     21  C   UNL A   1      46.092  24.737  28.809  1.00  0.00     0.029 A 
ATOM     22  C   UNL A   1      45.845  26.065  29.302  1.00  0.00     0.049 A 
ATOM     23  H   UNL A   1      44.010  27.074  29.371  1.00  0.00     0.167 HD
ATOM     24  C   UNL A   1      40.081  28.910  29.284  1.00  0.00     0.031 A 
ATOM     25  C   UNL A   1      46.820  26.856  29.786  1.00  0.00     0.031 A 
ATOM     26  C   UNL A   1      40.982  29.845  29.894  1.00  0.00     0.049 A 
ATOM     27  C   UNL A   1      46.394  28.207  30.243  1.00  0.00     0.074 A 
ATOM     28  C   UNL A   1      40.707  31.099  30.401  1.00  0.00     0.029 A 
ATOM     29  N   UNL A   1      42.350  29.639  30.047  1.00  0.00    -0.354 N 
ATOM     30  N   UNL A   1      45.186  28.714  30.220  1.00  0.00    -0.248 NA
ATOM     31  C   UNL A   1      47.426  29.088  30.792  1.00  0.00     0.031 C 
ATOM     32  C   UNL A   1      41.916  31.672  30.811  1.00  0.00     0.029 A 
ATOM     33  C   UNL A   1      42.936  30.753  30.623  1.00  0.00     0.049 A 
ATOM     34  H   UNL A   1      42.830  28.821  29.783  1.00  0.00     0.167 HD
ATOM     35  C   UNL A   1      45.301  29.972  30.771  1.00  0.00     0.074 A 
ATOM     36  C   UNL A   1      46.697  30.140  31.138  1.00  0.00     0.031 C 
ATOM     37  C   UNL A   1      44.333  30.897  30.956  1.00  0.00     0.031 A 
BRANCH  24  38
ATOM     38  C   UNL A   1      38.630  29.224  29.109  1.00  0.00    -0.014 A 
ATOM     39  C   UNL A   1      38.172  29.861  27.940  1.00  0.00     0.009 A 
ATOM     40  C   UNL A   1      37.747  29.038  30.179  1.00  0.00     0.009 A 
ATOM     41  C   UNL A   1      36.874  30.366  27.876  1.00  0.00     0.001 A 
ATOM     42  C   UNL A   1      36.439  29.516  30.098  1.00  0.00     0.001 A 
ATOM     43  C   UNL A   1      36.010  30.194  28.957  1.00  0.00     0.000 A 
ENDBRANCH  24  38
BRANCH  25  44
ATOM     44  C   UNL A   1      48.249  26.412  29.858  1.00  0.00    -0.014 A 
ATOM     45  C   UNL A   1      48.743  25.733  30.984  1.00  0.00     0.009 A 
ATOM     46  C   UNL A   1      49.140  26.667  28.799  1.00  0.00     0.009 A 
ATOM     47  C   UNL A   1      50.089  25.352  31.062  1.00  0.00     0.001 A 
ATOM     48  C   UNL A   1      50.477  26.257  28.865  1.00  0.00     0.001 A 
ATOM     49  C   UNL A   1      50.954  25.609  30.001  1.00  0.00     0.000 A 
ENDBRANCH  25  44
BRANCH  37  50
ATOM     50  C   UNL A   1      44.768  32.159  31.629  1.00  0.00    -0.014 A 
ATOM     51  C   UNL A   1      44.747  32.287  33.025  1.00  0.00     0.009 A 
ATOM     52  C   UNL A   1      45.203  33.232  30.840  1.00  0.00     0.009 A 
ATOM     53  C   UNL A   1      45.129  33.488  33.619  1.00  0.00     0.001 A 
ATOM     54  C   UNL A   1      45.617  34.419  31.438  1.00  0.00     0.001 A 
ATOM     55  C   UNL A   1      45.570  34.548  32.826  1.00  0.00     0.000 A 
ENDBRANCH  37  50
ENDBRANCH  11  12
ENDBRANCH   4   6
ENDBRANCH   3   4
ENDBRANCH   2   3
ENDBRANCH   1   2
BRANCH   1  56
ATOM     56  O   UNL A   1      36.983  21.516  24.061  1.00  0.00    -0.462 OA
BRANCH  56  57
ATOM     57  C   UNL A   1      35.992  22.436  24.247  1.00  0.00     0.310 C 
ATOM     58  O   UNL A   1      36.161  23.640  24.314  1.00  0.00    -0.252 OA
BRANCH  57  59
ATOM     59  C   UNL A   1      34.633  21.740  24.400  1.00  0.00     0.115 C 
ATOM     60  C   UNL A   1      34.410  21.233  25.826  1.00  0.00     0.004 C 
ATOM     61  C   UNL A   1      33.467  22.711  24.144  1.00  0.00     0.096 C 
ATOM     62  C   UNL A   1      34.409  22.480  26.772  1.00  0.00     0.005 C 
ATOM     63  C   UNL A   1      33.110  20.397  25.763  1.00  0.00     0.005 C 
ATOM     64  C   UNL A   1      32.423  22.742  25.318  1.00  0.00     0.002 C 
ATOM     65  C   UNL A   1      33.151  23.302  26.545  1.00  0.00     0.005 C 
ATOM     66  C   UNL A   1      31.915  21.322  25.609  1.00  0.00     0.005 C 
BRANCH  61  67
ATOM     67  C   UNL A   1      32.706  22.427  22.854  1.00  0.00     0.228 C 
ATOM     68  O   UNL A   1      32.506  21.285  22.442  1.00  0.00    -0.274 OA
ATOM     69  N   UNL A   1      32.048  23.497  22.290  1.00  0.00    -0.326 N 
ATOM     70  H   UNL A   1      31.373  23.310  21.597  1.00  0.00     0.169 HD
BRANCH  69  71
ATOM     71  C   UNL A   1      32.277  24.833  22.638  1.00  0.00     0.041 A 
ATOM     72  C   UNL A   1      33.498  25.411  22.311  1.00  0.00     0.026 A 
ATOM     73  C   UNL A   1      31.245  25.611  23.173  1.00  0.00     0.026 A 
ATOM     74  C   UNL A   1      33.642  26.792  22.421  1.00  0.00     0.006 A 
ATOM     75  C   UNL A   1      31.382  26.986  23.272  1.00  0.00     0.006 A 
ATOM     76  C   UNL A   1      32.587  27.588  22.904  1.00  0.00    -0.043 A 
BRANCH  76  77
ATOM     77  C   UNL A   1      32.810  29.047  23.230  1.00  0.00     0.071 C 
BRANCH  77  78
ATOM     78  C   UNL A   1      32.854  29.220  24.730  1.00  0.00    -0.041 A 
ATOM     79  C   UNL A   1      33.822  28.548  25.485  1.00  0.00     0.024 A 
ATOM     80  C   UNL A   1      31.854  29.921  25.406  1.00  0.00     0.024 A 
ATOM     81  C   UNL A   1      33.734  28.579  26.866  1.00  0.00     0.111 A 
ATOM     82  C   UNL A   1      31.863  29.908  26.792  1.00  0.00     0.111 A 
ATOM     83  N   UNL A   1      32.779  29.251  27.537  1.00  0.00    -0.265 NA
ENDBRANCH  77  78
ENDBRANCH  76  77
ENDBRANCH  69  71
ENDBRANCH  61  67
ENDBRANCH  57  59
ENDBRANCH  56  57
ENDBRANCH   1  56
TORSDOF 15
ENDMDL
MODEL 3
REMARK VINA RESULT:     -11.4      2.323      6.658
REMARK SMILES O=C(OCCOC(=O)[C@H]1[C@H]2CC[C@H](CC2)[C@@H]1C(=O)Nc1ccc(Cc2ccncc2)cc1)c1ccc(-c2c3nc(c(-c4ccccc4)c4ccc([nH]4)c(-c4ccccc4)c4nc(c(-c5ccccc5)c5ccc2[nH]5)C=C4)C=C3)cc1
REMARK SMILES IDX 5 1 4 2 3 3 2 4 1 5 33 6 34 7 80 8 35 9 79 10 36 11 37 12
REMARK SMILES IDX 38 13 73 14 39 15 78 16 72 17 74 18 40 19 77 20 71 21 70 22
REMARK SMILES IDX 41 24 63 25 48 26 62 27 49 28 52 29 61 30 75 31 50 32 51 33
REMARK SMILES IDX 60 35 76 36 53 37 42 38 43 39 47 40 44 41 46 42 45 43 64 44
REMARK SMILES IDX 65 45 69 46 66 47 68 48 67 49 54 50 55 51 59 52 56 53 58 54
REMARK SMILES IDX 57 55 6 56 7 57 8 58 9 59 10 60 16 61 15 62 11 63 13 64
REMARK SMILES IDX 14 65 12 66 17 67 18 68 19 69 20 71 21 72 32 73 22 74 31 75
REMARK SMILES IDX 23 76 24 77 25 78 26 79 30 80 27 81 29 82 28 83
REMARK H PARENT 74 23 52 34 19 70
REMARK Flexibility Score: inf
ROOT
ATOM      1  C   UNL A   1      32.090  28.381  27.383  1.00  0.00     0.274 C 
ENDROOT
BRANCH   1   2
ATOM      2  C   UNL A   1      32.081  29.904  27.283  1.00  0.00     0.275 C 
BRANCH   2   3
ATOM      3  O   UNL A   1      33.388  30.489  27.103  1.00  0.00    -0.458 OA
BRANCH   3   4
ATOM      4  C   UNL A   1      34.341  30.876  27.985  1.00  0.00     0.338 C 
ATOM      5  O   UNL A   1      34.079  31.841  28.705  1.00  0.00    -0.246 OA
BRANCH   4   6
ATOM      6  C   UNL A   1      35.717  30.267  28.141  1.00  0.00     0.060 A 
ATOM      7  C   UNL A   1      36.754  30.265  27.201  1.00  0.00     0.016 A 
ATOM      8  C   UNL A   1      36.016  29.722  29.412  1.00  0.00     0.016 A 
ATOM      9  C   UNL A   1      38.064  29.848  27.548  1.00  0.00     0.010 A 
ATOM     10  C   UNL A   1      37.320  29.311  29.761  1.00  0.00     0.010 A 
ATOM     11  C   UNL A   1      38.377  29.406  28.842  1.00  0.00    -0.014 A 
BRANCH  11  12
ATOM     12  C   UNL A   1      39.742  28.865  29.170  1.00  0.00     0.031 A 
ATOM     13  C   UNL A   1      40.652  29.765  29.919  1.00  0.00     0.074 A 
ATOM     14  C   UNL A   1      40.207  27.637  28.843  1.00  0.00     0.049 A 
ATOM     15  N   UNL A   1      41.847  29.508  30.369  1.00  0.00    -0.248 NA
ATOM     16  C   UNL A   1      40.165  31.129  30.177  1.00  0.00     0.031 C 
ATOM     17  C   UNL A   1      39.461  26.704  28.051  1.00  0.00     0.029 A 
ATOM     18  N   UNL A   1      41.372  26.937  29.068  1.00  0.00    -0.354 N 
ATOM     19  C   UNL A   1      42.246  30.669  30.994  1.00  0.00     0.074 A 
ATOM     20  C   UNL A   1      41.206  31.656  30.795  1.00  0.00     0.031 C 
ATOM     21  C   UNL A   1      40.107  25.554  27.861  1.00  0.00     0.029 A 
ATOM     22  C   UNL A   1      41.390  25.670  28.499  1.00  0.00     0.049 A 
ATOM     23  H   UNL A   1      42.125  27.302  29.588  1.00  0.00     0.167 HD
ATOM     24  C   UNL A   1      43.376  30.878  31.700  1.00  0.00     0.031 A 
ATOM     25  C   UNL A   1      42.319  24.697  28.450  1.00  0.00     0.031 A 
ATOM     26  C   UNL A   1      44.437  29.920  31.807  1.00  0.00     0.049 A 
ATOM     27  C   UNL A   1      43.598  24.986  29.153  1.00  0.00     0.074 A 
ATOM     28  C   UNL A   1      45.643  30.042  32.466  1.00  0.00     0.029 A 
ATOM     29  N   UNL A   1      44.431  28.664  31.205  1.00  0.00    -0.354 N 
ATOM     30  N   UNL A   1      43.926  26.075  29.801  1.00  0.00    -0.248 NA
ATOM     31  C   UNL A   1      44.625  23.942  29.136  1.00  0.00     0.031 C 
ATOM     32  C   UNL A   1      46.389  28.885  32.218  1.00  0.00     0.029 A 
ATOM     33  C   UNL A   1      45.624  28.010  31.461  1.00  0.00     0.049 A 
ATOM     34  H   UNL A   1      43.688  28.297  30.674  1.00  0.00     0.167 HD
ATOM     35  C   UNL A   1      45.193  25.848  30.293  1.00  0.00     0.074 A 
ATOM     36  C   UNL A   1      45.565  24.504  29.883  1.00  0.00     0.031 C 
ATOM     37  C   UNL A   1      45.971  26.680  31.021  1.00  0.00     0.031 A 
BRANCH  24  38
ATOM     38  C   UNL A   1      43.475  32.229  32.334  1.00  0.00    -0.014 A 
ATOM     39  C   UNL A   1      44.127  33.285  31.669  1.00  0.00     0.009 A 
ATOM     40  C   UNL A   1      43.069  32.402  33.662  1.00  0.00     0.009 A 
ATOM     41  C   UNL A   1      44.429  34.464  32.348  1.00  0.00     0.001 A 
ATOM     42  C   UNL A   1      43.345  33.596  34.329  1.00  0.00     0.001 A 
ATOM     43  C   UNL A   1      44.039  34.617  33.679  1.00  0.00     0.000 A 
ENDBRANCH  24  38
BRANCH  25  44
ATOM     44  C   UNL A   1      42.086  23.403  27.731  1.00  0.00    -0.014 A 
ATOM     45  C   UNL A   1      42.631  23.172  26.458  1.00  0.00     0.009 A 
ATOM     46  C   UNL A   1      41.309  22.383  28.311  1.00  0.00     0.009 A 
ATOM     47  C   UNL A   1      42.381  21.975  25.773  1.00  0.00     0.001 A 
ATOM     48  C   UNL A   1      41.086  21.175  27.639  1.00  0.00     0.001 A 
ATOM     49  C   UNL A   1      41.613  20.975  26.366  1.00  0.00     0.000 A 
ENDBRANCH  25  44
BRANCH  37  50
ATOM     50  C   UNL A   1      47.290  26.121  31.448  1.00  0.00    -0.014 A 
ATOM     51  C   UNL A   1      47.454  25.514  32.701  1.00  0.00     0.009 A 
ATOM     52  C   UNL A   1      48.380  26.210  30.571  1.00  0.00     0.009 A 
ATOM     53  C   UNL A   1      48.704  25.031  33.081  1.00  0.00     0.001 A 
ATOM     54  C   UNL A   1      49.619  25.696  30.941  1.00  0.00     0.001 A 
ATOM     55  C   UNL A   1      49.782  25.115  32.199  1.00  0.00     0.000 A 
ENDBRANCH  37  50
ENDBRANCH  11  12
ENDBRANCH   4   6
ENDBRANCH   3   4
ENDBRANCH   2   3
ENDBRANCH   1   2
BRANCH   1  56
ATOM     56  O   UNL A   1      33.299  27.870  26.822  1.00  0.00    -0.462 OA
BRANCH  56  57
ATOM     57  C   UNL A   1      33.224  26.894  25.871  1.00  0.00     0.310 C 
ATOM     58  O   UNL A   1      33.973  25.938  25.792  1.00  0.00    -0.252 OA
BRANCH  57  59
ATOM     59  C   UNL A   1      32.085  27.189  24.885  1.00  0.00     0.115 C 
ATOM     60  C   UNL A   1      32.479  28.257  23.863  1.00  0.00     0.004 C 
ATOM     61  C   UNL A   1      31.732  25.952  24.042  1.00  0.00     0.096 C 
ATOM     62  C   UNL A   1      33.682  27.693  23.036  1.00  0.00     0.005 C 
ATOM     63  C   UNL A   1      31.180  28.576  23.086  1.00  0.00     0.005 C 
ATOM     64  C   UNL A   1      31.757  26.233  22.496  1.00  0.00     0.002 C 
ATOM     65  C   UNL A   1      33.208  26.569  22.129  1.00  0.00     0.005 C 
ATOM     66  C   UNL A   1      30.841  27.419  22.161  1.00  0.00     0.005 C 
BRANCH  61  67
ATOM     67  C   UNL A   1      30.374  25.348  24.380  1.00  0.00     0.228 C 
ATOM     68  O   UNL A   1      29.340  26.015  24.403  1.00  0.00    -0.274 OA
ATOM     69  N   UNL A   1      30.318  23.973  24.431  1.00  0.00    -0.326 N 
ATOM     70  H   UNL A   1      29.429  23.546  24.421  1.00  0.00     0.169 HD
BRANCH  69  71
ATOM     71  C   UNL A   1      31.442  23.141  24.495  1.00  0.00     0.041 A 
ATOM     72  C   UNL A   1      32.009  22.876  25.736  1.00  0.00     0.026 A 
ATOM     73  C   UNL A   1      31.895  22.477  23.351  1.00  0.00     0.026 A 
ATOM     74  C   UNL A   1      32.958  21.861  25.841  1.00  0.00     0.006 A 
ATOM     75  C   UNL A   1      32.830  21.459  23.455  1.00  0.00     0.006 A 
ATOM     76  C   UNL A   1      33.377  21.149  24.702  1.00  0.00    -0.043 A 
BRANCH  76  77
ATOM     77  C   UNL A   1      34.556  20.206  24.775  1.00  0.00     0.071 C 
BRANCH  77  78
ATOM     78  C   UNL A   1      34.051  18.782  24.805  1.00  0.00    -0.041 A 
ATOM     79  C   UNL A   1      34.726  17.784  24.092  1.00  0.00     0.024 A 
ATOM     80  C   UNL A   1      32.835  18.459  25.409  1.00  0.00     0.024 A 
ATOM     81  C   UNL A   1      34.150  16.530  23.988  1.00  0.00     0.111 A 
ATOM     82  C   UNL A   1      32.350  17.168  25.264  1.00  0.00     0.111 A 
ATOM     83  N   UNL A   1      32.979  16.197  24.566  1.00  0.00    -0.265 NA
ENDBRANCH  77  78
ENDBRANCH  76  77
ENDBRANCH  69  71
ENDBRANCH  61  67
ENDBRANCH  57  59
ENDBRANCH  56  57
ENDBRANCH   1  56
TORSDOF 15
ENDMDL
