MODEL 1
REMARK VINA RESULT:     -12.9      0.000      0.000
REMARK SMILES O=C(OCCOC(=O)[C@@H](Cc1c[nH]c2ccccc12)Nc1ncnc2ccccc12)c1ccc(-c2c3nc(c(-c4ccccc4)c4ccc([nH]4)c(-c4ccccc4)c4nc(c(-c5ccccc5)c5ccc2[nH]5)C=C4)C=C3)cc1
REMARK SMILES IDX 4 1 3 2 2 3 1 4 31 5 32 6 78 7 33 8 77 9 34 10 35 11 36 12
REMARK SMILES IDX 71 13 37 14 76 15 70 16 72 17 38 18 75 19 69 20 68 21 39 23
REMARK SMILES IDX 61 24 46 25 60 26 47 27 50 28 59 29 73 30 48 31 49 32 58 34
REMARK SMILES IDX 74 35 51 36 40 37 41 38 45 39 42 40 44 41 43 42 62 43 63 44
REMARK SMILES IDX 67 45 64 46 66 47 65 48 52 49 53 50 57 51 54 52 56 53 55 54
REMARK SMILES IDX 5 55 6 56 7 57 8 58 9 59 10 60 11 61 12 62 19 63 13 64 14 65
REMARK SMILES IDX 18 66 15 68 17 69 16 70 20 71 21 73 22 74 30 75 23 76 25 77
REMARK SMILES IDX 29 78 24 79 26 80 28 81 27 82
REMARK H PARENT 72 22 50 33 13 67 20 72
REMARK Flexibility Score: inf
ROOT
ATOM      1  C   UNL A   1      41.705  21.092  26.072  1.00  0.00     0.275 C 
ENDROOT
BRANCH   1   2
ATOM      2  O   UNL A   1      42.577  21.992  26.722  1.00  0.00    -0.458 OA
BRANCH   2   3
ATOM      3  C   UNL A   1      42.682  23.252  26.288  1.00  0.00     0.338 C 
ATOM      4  O   UNL A   1      42.847  23.494  25.095  1.00  0.00    -0.246 OA
BRANCH   3   5
ATOM      5  C   UNL A   1      42.701  24.414  27.230  1.00  0.00     0.060 A 
ATOM      6  C   UNL A   1      43.612  25.989  26.989  1.00  0.00     0.016 A 
ATOM      7  C   UNL A   1      41.108  24.459  28.043  1.00  0.00     0.016 A 
ATOM      8  C   UNL A   1      42.834  27.594  27.575  1.00  0.00     0.010 A 
ATOM      9  C   UNL A   1      40.413  25.990  28.591  1.00  0.00     0.010 A 
ATOM     10  C   UNL A   1      41.279  27.537  28.516  1.00  0.00    -0.014 A 
BRANCH  10  11
ATOM     11  C   UNL A   1      40.993  28.542  29.612  1.00  0.00     0.031 A 
ATOM     12  C   UNL A   1      39.759  29.471  29.598  1.00  0.00     0.074 A 
ATOM     13  C   UNL A   1      41.706  28.422  30.745  1.00  0.00     0.049 A 
ATOM     14  N   UNL A   1      39.271  30.215  30.571  1.00  0.00    -0.248 NA
ATOM     15  C   UNL A   1      38.955  29.614  28.374  1.00  0.00     0.031 C 
ATOM     16  C   UNL A   1      42.885  27.576  30.900  1.00  0.00     0.029 A 
ATOM     17  N   UNL A   1      41.504  28.927  32.001  1.00  0.00    -0.354 N 
ATOM     18  C   UNL A   1      38.144  30.867  30.053  1.00  0.00     0.074 A 
ATOM     19  C   UNL A   1      37.989  30.445  28.701  1.00  0.00     0.031 C 
ATOM     20  C   UNL A   1      43.155  27.427  32.199  1.00  0.00     0.029 A 
ATOM     21  C   UNL A   1      42.370  28.406  32.933  1.00  0.00     0.049 A 
ATOM     22  H   UNL A   1      40.811  29.593  32.215  1.00  0.00     0.167 HD
ATOM     23  C   UNL A   1      37.327  31.792  30.608  1.00  0.00     0.031 A 
ATOM     24  C   UNL A   1      42.608  28.762  34.207  1.00  0.00     0.031 A 
ATOM     25  C   UNL A   1      37.564  32.335  31.907  1.00  0.00     0.049 A 
ATOM     26  C   UNL A   1      41.829  29.918  34.744  1.00  0.00     0.074 A 
ATOM     27  C   UNL A   1      36.918  33.376  32.543  1.00  0.00     0.029 A 
ATOM     28  N   UNL A   1      38.581  31.902  32.744  1.00  0.00    -0.354 N 
ATOM     29  N   UNL A   1      40.820  30.555  34.198  1.00  0.00    -0.248 NA
ATOM     30  C   UNL A   1      42.256  30.450  36.041  1.00  0.00     0.031 C 
ATOM     31  C   UNL A   1      37.619  33.642  33.722  1.00  0.00     0.029 A 
ATOM     32  C   UNL A   1      38.621  32.693  33.870  1.00  0.00     0.049 A 
ATOM     33  H   UNL A   1      39.182  31.145  32.560  1.00  0.00     0.167 HD
ATOM     34  C   UNL A   1      40.493  31.571  35.079  1.00  0.00     0.074 A 
ATOM     35  C   UNL A   1      41.393  31.442  36.210  1.00  0.00     0.031 C 
ATOM     36  C   UNL A   1      39.541  32.529  34.965  1.00  0.00     0.031 A 
BRANCH  23  37
ATOM     37  C   UNL A   1      36.251  32.390  29.726  1.00  0.00    -0.014 A 
ATOM     38  C   UNL A   1      34.957  31.845  29.633  1.00  0.00     0.009 A 
ATOM     39  C   UNL A   1      36.575  33.484  28.906  1.00  0.00     0.009 A 
ATOM     40  C   UNL A   1      34.037  32.351  28.706  1.00  0.00     0.001 A 
ATOM     41  C   UNL A   1      35.643  34.008  28.006  1.00  0.00     0.001 A 
ATOM     42  C   UNL A   1      34.381  33.433  27.895  1.00  0.00     0.000 A 
ENDBRANCH  23  37
BRANCH  24  43
ATOM     43  C   UNL A   1      43.768  28.161  34.927  1.00  0.00    -0.014 A 
ATOM     44  C   UNL A   1      45.058  28.700  34.846  1.00  0.00     0.009 A 
ATOM     45  C   UNL A   1      43.559  27.048  35.767  1.00  0.00     0.009 A 
ATOM     46  C   UNL A   1      46.100  28.149  35.601  1.00  0.00     0.001 A 
ATOM     47  C   UNL A   1      44.583  26.540  36.564  1.00  0.00     0.001 A 
ATOM     48  C   UNL A   1      45.858  27.086  36.474  1.00  0.00     0.000 A 
ENDBRANCH  24  43
BRANCH  36  49
ATOM     49  C   UNL A   1      39.385  33.463  36.121  1.00  0.00    -0.014 A 
ATOM     50  C   UNL A   1      38.550  33.158  37.205  1.00  0.00     0.009 A 
ATOM     51  C   UNL A   1      40.143  34.642  36.140  1.00  0.00     0.009 A 
ATOM     52  C   UNL A   1      38.449  34.047  38.273  1.00  0.00     0.001 A 
ATOM     53  C   UNL A   1      40.072  35.506  37.227  1.00  0.00     0.001 A 
ATOM     54  C   UNL A   1      39.215  35.214  38.286  1.00  0.00     0.000 A 
ENDBRANCH  36  49
ENDBRANCH  10  11
ENDBRANCH   3   5
ENDBRANCH   2   3
ENDBRANCH   1   2
BRANCH   1  55
ATOM     55  C   UNL A   1      40.290  21.144  26.688  1.00  0.00     0.274 C 
BRANCH  55  56
ATOM     56  O   UNL A   1      39.254  21.984  26.049  1.00  0.00    -0.461 OA
BRANCH  56  57
ATOM     57  C   UNL A   1      38.053  21.525  25.561  1.00  0.00     0.329 C 
ATOM     58  O   UNL A   1      37.946  20.443  25.001  1.00  0.00    -0.250 OA
BRANCH  57  59
ATOM     59  C   UNL A   1      36.795  22.552  25.850  1.00  0.00     0.195 C 
BRANCH  59  60
ATOM     60  C   UNL A   1      36.303  23.827  24.569  1.00  0.00     0.074 C 
BRANCH  60  61
ATOM     61  C   UNL A   1      34.507  24.003  23.361  1.00  0.00    -0.020 A 
ATOM     62  C   UNL A   1      33.702  23.189  22.478  1.00  0.00     0.087 A 
ATOM     63  C   UNL A   1      33.422  25.394  23.187  1.00  0.00     0.003 A 
ATOM     64  N   UNL A   1      32.720  23.876  21.773  1.00  0.00    -0.361 N 
ATOM     65  C   UNL A   1      32.484  25.146  22.207  1.00  0.00     0.046 A 
ATOM     66  C   UNL A   1      33.304  26.734  23.783  1.00  0.00     0.010 A 
ATOM     67  H   UNL A   1      32.232  23.475  21.017  1.00  0.00     0.166 HD
ATOM     68  C   UNL A   1      31.523  26.103  21.800  1.00  0.00     0.026 A 
ATOM     69  C   UNL A   1      32.376  27.693  23.396  1.00  0.00     0.001 A 
ATOM     70  C   UNL A   1      31.485  27.371  22.404  1.00  0.00     0.002 A 
ENDBRANCH  60  61
ENDBRANCH  59  60
BRANCH  59  71
ATOM     71  N   UNL A   1      35.641  21.799  26.411  1.00  0.00    -0.356 N 
ATOM     72  H   UNL A   1      35.810  21.416  27.302  1.00  0.00     0.163 HD
BRANCH  71  73
ATOM     73  C   UNL A   1      34.391  21.535  25.926  1.00  0.00     0.137 A 
ATOM     74  N   UNL A   1      34.400  20.392  25.217  1.00  0.00    -0.219 NA
ATOM     75  C   UNL A   1      33.211  22.298  26.063  1.00  0.00     0.043 A 
ATOM     76  C   UNL A   1      33.229  19.948  24.749  1.00  0.00     0.224 A 
ATOM     77  C   UNL A   1      32.040  21.681  25.591  1.00  0.00     0.076 A 
ATOM     78  C   UNL A   1      33.087  23.616  26.572  1.00  0.00     0.014 A 
ATOM     79  N   UNL A   1      32.039  20.515  24.945  1.00  0.00    -0.236 NA
ATOM     80  C   UNL A   1      30.812  22.309  25.780  1.00  0.00     0.029 A 
ATOM     81  C   UNL A   1      31.857  24.260  26.690  1.00  0.00     0.001 A 
ATOM     82  C   UNL A   1      30.706  23.585  26.335  1.00  0.00     0.002 A 
ENDBRANCH  71  73
ENDBRANCH  59  71
ENDBRANCH  57  59
ENDBRANCH  56  57
ENDBRANCH  55  56
ENDBRANCH   1  55
TORSDOF 15
ENDMDL
MODEL 2
REMARK VINA RESULT:     -12.8      2.136      2.986
REMARK SMILES O=C(OCCOC(=O)[C@@H](Cc1c[nH]c2ccccc12)Nc1ncnc2ccccc12)c1ccc(-c2c3nc(c(-c4ccccc4)c4ccc([nH]4)c(-c4ccccc4)c4nc(c(-c5ccccc5)c5ccc2[nH]5)C=C4)C=C3)cc1
REMARK SMILES IDX 4 1 3 2 2 3 1 4 31 5 32 6 78 7 33 8 77 9 34 10 35 11 36 12
REMARK SMILES IDX 71 13 37 14 76 15 70 16 72 17 38 18 75 19 69 20 68 21 39 23
REMARK SMILES IDX 61 24 46 25 60 26 47 27 50 28 59 29 73 30 48 31 49 32 58 34
REMARK SMILES IDX 74 35 51 36 40 37 41 38 45 39 42 40 44 41 43 42 62 43 63 44
REMARK SMILES IDX 67 45 64 46 66 47 65 48 52 49 53 50 57 51 54 52 56 53 55 54
REMARK SMILES IDX 5 55 6 56 7 57 8 58 9 59 10 60 11 61 12 62 19 63 13 64 14 65
REMARK SMILES IDX 18 66 15 68 17 69 16 70 20 71 21 73 22 74 30 75 23 76 25 77
REMARK SMILES IDX 29 78 24 79 26 80 28 81 27 82
REMARK H PARENT 72 22 50 33 13 67 20 72
REMARK Flexibility Score: inf
ROOT
ATOM      1  C   UNL A   1      38.207  22.422  25.620  1.00  0.00     0.275 C 
ENDROOT
BRANCH   1   2
ATOM      2  O   UNL A   1      39.245  21.808  26.354  1.00  0.00    -0.458 OA
BRANCH   2   3
ATOM      3  C   UNL A   1      40.501  22.245  26.228  1.00  0.00     0.338 C 
ATOM      4  O   UNL A   1      41.372  21.524  25.746  1.00  0.00    -0.246 OA
BRANCH   3   5
ATOM      5  C   UNL A   1      40.931  23.580  26.747  1.00  0.00     0.060 A 
ATOM      6  C   UNL A   1      41.571  24.978  25.743  1.00  0.00     0.016 A 
ATOM      7  C   UNL A   1      39.913  23.943  28.173  1.00  0.00     0.016 A 
ATOM      8  C   UNL A   1      41.117  26.734  26.227  1.00  0.00     0.010 A 
ATOM      9  C   UNL A   1      39.517  25.612  28.603  1.00  0.00     0.010 A 
ATOM     10  C   UNL A   1      40.198  27.023  27.769  1.00  0.00    -0.014 A 
BRANCH  10  11
ATOM     11  C   UNL A   1      40.436  28.267  28.599  1.00  0.00     0.031 A 
ATOM     12  C   UNL A   1      39.360  29.353  28.812  1.00  0.00     0.074 A 
ATOM     13  C   UNL A   1      41.534  28.276  29.373  1.00  0.00     0.049 A 
ATOM     14  N   UNL A   1      39.349  30.351  29.674  1.00  0.00    -0.248 NA
ATOM     15  C   UNL A   1      38.143  29.361  27.985  1.00  0.00     0.031 C 
ATOM     16  C   UNL A   1      42.623  27.308  29.286  1.00  0.00     0.029 A 
ATOM     17  N   UNL A   1      41.884  29.057  30.442  1.00  0.00    -0.354 N 
ATOM     18  C   UNL A   1      38.151  31.048  29.468  1.00  0.00     0.074 A 
ATOM     19  C   UNL A   1      37.442  30.382  28.426  1.00  0.00     0.031 C 
ATOM     20  C   UNL A   1      43.381  27.393  30.382  1.00  0.00     0.029 A 
ATOM     21  C   UNL A   1      43.017  28.614  31.082  1.00  0.00     0.049 A 
ATOM     22  H   UNL A   1      41.376  29.853  30.723  1.00  0.00     0.167 HD
ATOM     23  C   UNL A   1      37.682  32.185  30.033  1.00  0.00     0.031 A 
ATOM     24  C   UNL A   1      43.767  29.186  32.039  1.00  0.00     0.031 A 
ATOM     25  C   UNL A   1      38.453  32.943  30.966  1.00  0.00     0.049 A 
ATOM     26  C   UNL A   1      43.340  30.537  32.516  1.00  0.00     0.074 A 
ATOM     27  C   UNL A   1      38.180  34.182  31.512  1.00  0.00     0.029 A 
ATOM     28  N   UNL A   1      39.690  32.541  31.443  1.00  0.00    -0.354 N 
ATOM     29  N   UNL A   1      42.238  31.195  32.244  1.00  0.00    -0.248 NA
ATOM     30  C   UNL A   1      44.282  31.255  33.379  1.00  0.00     0.031 C 
ATOM     31  C   UNL A   1      39.309  34.576  32.234  1.00  0.00     0.029 A 
ATOM     32  C   UNL A   1      40.227  33.534  32.232  1.00  0.00     0.049 A 
ATOM     33  H   UNL A   1      40.121  31.678  31.246  1.00  0.00     0.167 HD
ATOM     34  C   UNL A   1      42.354  32.411  32.895  1.00  0.00     0.074 A 
ATOM     35  C   UNL A   1      43.621  32.382  33.601  1.00  0.00     0.031 C 
ATOM     36  C   UNL A   1      41.496  33.461  32.907  1.00  0.00     0.031 A 
BRANCH  23  37
ATOM     37  C   UNL A   1      36.382  32.745  29.497  1.00  0.00    -0.014 A 
ATOM     38  C   UNL A   1      36.300  33.429  28.270  1.00  0.00     0.009 A 
ATOM     39  C   UNL A   1      35.224  32.655  30.289  1.00  0.00     0.009 A 
ATOM     40  C   UNL A   1      35.105  34.045  27.877  1.00  0.00     0.001 A 
ATOM     41  C   UNL A   1      34.026  33.242  29.878  1.00  0.00     0.001 A 
ATOM     42  C   UNL A   1      33.970  33.949  28.681  1.00  0.00     0.000 A 
ENDBRANCH  23  37
BRANCH  24  43
ATOM     43  C   UNL A   1      45.079  28.575  32.400  1.00  0.00    -0.014 A 
ATOM     44  C   UNL A   1      45.244  27.786  33.544  1.00  0.00     0.009 A 
ATOM     45  C   UNL A   1      46.180  28.742  31.536  1.00  0.00     0.009 A 
ATOM     46  C   UNL A   1      46.475  27.168  33.801  1.00  0.00     0.001 A 
ATOM     47  C   UNL A   1      47.384  28.079  31.760  1.00  0.00     0.001 A 
ATOM     48  C   UNL A   1      47.534  27.297  32.900  1.00  0.00     0.000 A 
ENDBRANCH  24  43
BRANCH  36  49
ATOM     49  C   UNL A   1      41.874  34.628  33.760  1.00  0.00    -0.014 A 
ATOM     50  C   UNL A   1      41.525  34.690  35.117  1.00  0.00     0.009 A 
ATOM     51  C   UNL A   1      42.647  35.652  33.194  1.00  0.00     0.009 A 
ATOM     52  C   UNL A   1      41.915  35.788  35.881  1.00  0.00     0.001 A 
ATOM     53  C   UNL A   1      43.070  36.724  33.972  1.00  0.00     0.001 A 
ATOM     54  C   UNL A   1      42.692  36.798  35.311  1.00  0.00     0.000 A 
ENDBRANCH  36  49
ENDBRANCH  10  11
ENDBRANCH   3   5
ENDBRANCH   2   3
ENDBRANCH   1   2
BRANCH   1  55
ATOM     55  C   UNL A   1      37.552  21.425  24.640  1.00  0.00     0.274 C 
BRANCH  55  56
ATOM     56  O   UNL A   1      36.329  20.704  25.052  1.00  0.00    -0.461 OA
BRANCH  56  57
ATOM     57  C   UNL A   1      35.044  21.076  24.733  1.00  0.00     0.329 C 
ATOM     58  O   UNL A   1      34.114  20.283  24.736  1.00  0.00    -0.250 OA
BRANCH  57  59
ATOM     59  C   UNL A   1      34.894  22.685  24.399  1.00  0.00     0.195 C 
BRANCH  59  60
ATOM     60  C   UNL A   1      33.988  23.250  22.861  1.00  0.00     0.074 C 
BRANCH  60  61
ATOM     61  C   UNL A   1      33.049  25.150  22.386  1.00  0.00    -0.020 A 
ATOM     62  C   UNL A   1      33.330  26.345  21.622  1.00  0.00     0.087 A 
ATOM     63  C   UNL A   1      31.451  25.746  22.867  1.00  0.00     0.003 A 
ATOM     64  N   UNL A   1      32.440  27.395  21.818  1.00  0.00    -0.361 N 
ATOM     65  C   UNL A   1      31.299  27.062  22.484  1.00  0.00     0.046 A 
ATOM     66  C   UNL A   1      30.290  25.212  23.597  1.00  0.00     0.010 A 
ATOM     67  H   UNL A   1      32.621  28.309  21.500  1.00  0.00     0.166 HD
ATOM     68  C   UNL A   1      30.147  27.826  22.792  1.00  0.00     0.026 A 
ATOM     69  C   UNL A   1      29.154  25.943  23.918  1.00  0.00     0.001 A 
ATOM     70  C   UNL A   1      29.086  27.252  23.511  1.00  0.00     0.002 A 
ENDBRANCH  60  61
ENDBRANCH  59  60
BRANCH  59  71
ATOM     71  N   UNL A   1      34.499  23.426  25.627  1.00  0.00    -0.356 N 
ATOM     72  H   UNL A   1      35.209  23.479  26.307  1.00  0.00     0.163 HD
BRANCH  71  73
ATOM     73  C   UNL A   1      33.337  24.046  25.993  1.00  0.00     0.137 A 
ATOM     74  N   UNL A   1      32.410  23.132  26.330  1.00  0.00    -0.219 NA
ATOM     75  C   UNL A   1      33.043  25.426  26.018  1.00  0.00     0.043 A 
ATOM     76  C   UNL A   1      31.242  23.583  26.799  1.00  0.00     0.224 A 
ATOM     77  C   UNL A   1      31.810  25.766  26.603  1.00  0.00     0.076 A 
ATOM     78  C   UNL A   1      33.817  26.486  25.483  1.00  0.00     0.014 A 
ATOM     79  N   UNL A   1      30.916  24.860  26.998  1.00  0.00    -0.236 NA
ATOM     80  C   UNL A   1      31.479  27.107  26.770  1.00  0.00     0.029 A 
ATOM     81  C   UNL A   1      33.439  27.823  25.596  1.00  0.00     0.001 A 
ATOM     82  C   UNL A   1      32.284  28.139  26.285  1.00  0.00     0.002 A 
ENDBRANCH  71  73
ENDBRANCH  59  71
ENDBRANCH  57  59
ENDBRANCH  56  57
ENDBRANCH  55  56
ENDBRANCH   1  55
TORSDOF 15
ENDMDL
MODEL 3
REMARK VINA RESULT:     -12.6      4.244      8.825
REMARK SMILES O=C(OCCOC(=O)[C@@H](Cc1c[nH]c2ccccc12)Nc1ncnc2ccccc12)c1ccc(-c2c3nc(c(-c4ccccc4)c4ccc([nH]4)c(-c4ccccc4)c4nc(c(-c5ccccc5)c5ccc2[nH]5)C=C4)C=C3)cc1
REMARK SMILES IDX 4 1 3 2 2 3 1 4 31 5 32 6 78 7 33 8 77 9 34 10 35 11 36 12
REMARK SMILES IDX 71 13 37 14 76 15 70 16 72 17 38 18 75 19 69 20 68 21 39 23
REMARK SMILES IDX 61 24 46 25 60 26 47 27 50 28 59 29 73 30 48 31 49 32 58 34
REMARK SMILES IDX 74 35 51 36 40 37 41 38 45 39 42 40 44 41 43 42 62 43 63 44
REMARK SMILES IDX 67 45 64 46 66 47 65 48 52 49 53 50 57 51 54 52 56 53 55 54
REMARK SMILES IDX 5 55 6 56 7 57 8 58 9 59 10 60 11 61 12 62 19 63 13 64 14 65
REMARK SMILES IDX 18 66 15 68 17 69 16 70 20 71 21 73 22 74 30 75 23 76 25 77
REMARK SMILES IDX 29 78 24 79 26 80 28 81 27 82
REMARK H PARENT 72 22 50 33 13 67 20 72
REMARK Flexibility Score: inf
ROOT
ATOM      1  C   UNL A   1      33.409  30.203  27.632  1.00  0.00     0.275 C 
ENDROOT
BRANCH   1   2
ATOM      2  O   UNL A   1      33.756  31.571  27.612  1.00  0.00    -0.458 OA
BRANCH   2   3
ATOM      3  C   UNL A   1      34.395  32.114  28.653  1.00  0.00     0.338 C 
ATOM      4  O   UNL A   1      33.977  33.142  29.180  1.00  0.00    -0.246 OA
BRANCH   3   5
ATOM      5  C   UNL A   1      35.687  31.561  29.164  1.00  0.00     0.060 A 
ATOM      6  C   UNL A   1      35.903  30.511  30.653  1.00  0.00     0.016 A 
ATOM      7  C   UNL A   1      36.729  31.258  27.741  1.00  0.00     0.016 A 
ATOM      8  C   UNL A   1      37.185  29.139  30.627  1.00  0.00     0.010 A 
ATOM      9  C   UNL A   1      37.934  29.962  27.759  1.00  0.00     0.010 A 
ATOM     10  C   UNL A   1      38.298  28.988  29.197  1.00  0.00    -0.014 A 
BRANCH  10  11
ATOM     11  C   UNL A   1      39.725  28.513  29.366  1.00  0.00     0.031 A 
ATOM     12  C   UNL A   1      40.228  27.158  28.823  1.00  0.00     0.074 A 
ATOM     13  C   UNL A   1      40.623  29.425  29.775  1.00  0.00     0.049 A 
ATOM     14  N   UNL A   1      41.467  26.724  28.697  1.00  0.00    -0.248 NA
ATOM     15  C   UNL A   1      39.268  26.144  28.359  1.00  0.00     0.031 C 
ATOM     16  C   UNL A   1      40.288  30.745  30.301  1.00  0.00     0.029 A 
ATOM     17  N   UNL A   1      41.991  29.434  29.732  1.00  0.00    -0.354 N 
ATOM     18  C   UNL A   1      41.390  25.435  28.153  1.00  0.00     0.074 A 
ATOM     19  C   UNL A   1      40.010  25.138  27.951  1.00  0.00     0.031 C 
ATOM     20  C   UNL A   1      41.381  31.511  30.303  1.00  0.00     0.029 A 
ATOM     21  C   UNL A   1      42.530  30.650  30.079  1.00  0.00     0.049 A 
ATOM     22  H   UNL A   1      42.532  28.651  29.477  1.00  0.00     0.167 HD
ATOM     23  C   UNL A   1      42.358  24.526  27.893  1.00  0.00     0.031 A 
ATOM     24  C   UNL A   1      43.801  31.010  30.325  1.00  0.00     0.031 A 
ATOM     25  C   UNL A   1      43.726  24.755  28.235  1.00  0.00     0.049 A 
ATOM     26  C   UNL A   1      44.840  29.940  30.222  1.00  0.00     0.074 A 
ATOM     27  C   UNL A   1      44.793  23.882  28.171  1.00  0.00     0.029 A 
ATOM     28  N   UNL A   1      44.193  25.946  28.766  1.00  0.00    -0.354 N 
ATOM     29  N   UNL A   1      44.715  28.714  29.772  1.00  0.00    -0.248 NA
ATOM     30  C   UNL A   1      46.177  30.276  30.717  1.00  0.00     0.031 C 
ATOM     31  C   UNL A   1      45.885  24.514  28.769  1.00  0.00     0.029 A 
ATOM     32  C   UNL A   1      45.525  25.816  29.092  1.00  0.00     0.049 A 
ATOM     33  H   UNL A   1      43.656  26.761  28.891  1.00  0.00     0.167 HD
ATOM     34  C   UNL A   1      45.957  28.124  29.937  1.00  0.00     0.074 A 
ATOM     35  C   UNL A   1      46.826  29.141  30.498  1.00  0.00     0.031 C 
ATOM     36  C   UNL A   1      46.345  26.856  29.656  1.00  0.00     0.031 A 
BRANCH  23  37
ATOM     37  C   UNL A   1      41.921  23.162  27.405  1.00  0.00    -0.014 A 
ATOM     38  C   UNL A   1      41.225  22.251  28.221  1.00  0.00     0.009 A 
ATOM     39  C   UNL A   1      42.293  22.751  26.113  1.00  0.00     0.009 A 
ATOM     40  C   UNL A   1      40.958  20.952  27.770  1.00  0.00     0.001 A 
ATOM     41  C   UNL A   1      41.995  21.466  25.654  1.00  0.00     0.001 A 
ATOM     42  C   UNL A   1      41.342  20.562  26.487  1.00  0.00     0.000 A 
ENDBRANCH  23  37
BRANCH  24  43
ATOM     43  C   UNL A   1      44.079  32.357  30.901  1.00  0.00    -0.014 A 
ATOM     44  C   UNL A   1      44.061  32.597  32.281  1.00  0.00     0.009 A 
ATOM     45  C   UNL A   1      44.431  33.417  30.041  1.00  0.00     0.009 A 
ATOM     46  C   UNL A   1      44.406  33.859  32.780  1.00  0.00     0.001 A 
ATOM     47  C   UNL A   1      44.832  34.654  30.543  1.00  0.00     0.001 A 
ATOM     48  C   UNL A   1      44.810  34.877  31.914  1.00  0.00     0.000 A 
ENDBRANCH  24  43
BRANCH  36  49
ATOM     49  C   UNL A   1      47.784  26.526  29.890  1.00  0.00    -0.014 A 
ATOM     50  C   UNL A   1      48.217  25.921  31.078  1.00  0.00     0.009 A 
ATOM     51  C   UNL A   1      48.706  26.779  28.864  1.00  0.00     0.009 A 
ATOM     52  C   UNL A   1      49.565  25.612  31.246  1.00  0.00     0.001 A 
ATOM     53  C   UNL A   1      50.043  26.430  29.019  1.00  0.00     0.001 A 
ATOM     54  C   UNL A   1      50.473  25.860  30.216  1.00  0.00     0.000 A 
ENDBRANCH  36  49
ENDBRANCH  10  11
ENDBRANCH   3   5
ENDBRANCH   2   3
ENDBRANCH   1   2
BRANCH   1  55
ATOM     55  C   UNL A   1      31.929  29.998  27.242  1.00  0.00     0.274 C 
BRANCH  55  56
ATOM     56  O   UNL A   1      31.501  28.695  26.690  1.00  0.00    -0.461 OA
BRANCH  56  57
ATOM     57  C   UNL A   1      32.039  28.090  25.579  1.00  0.00     0.329 C 
ATOM     58  O   UNL A   1      31.928  28.567  24.458  1.00  0.00    -0.250 OA
BRANCH  57  59
ATOM     59  C   UNL A   1      32.869  26.707  25.924  1.00  0.00     0.195 C 
BRANCH  59  60
ATOM     60  C   UNL A   1      31.959  25.181  26.516  1.00  0.00     0.074 C 
BRANCH  60  61
ATOM     61  C   UNL A   1      32.634  23.132  26.759  1.00  0.00    -0.020 A 
ATOM     62  C   UNL A   1      33.187  22.280  27.787  1.00  0.00     0.087 A 
ATOM     63  C   UNL A   1      32.618  21.813  25.574  1.00  0.00     0.003 A 
ATOM     64  N   UNL A   1      33.649  21.045  27.346  1.00  0.00    -0.361 N 
ATOM     65  C   UNL A   1      33.275  20.711  26.079  1.00  0.00     0.046 A 
ATOM     66  C   UNL A   1      32.128  21.622  24.200  1.00  0.00     0.010 A 
ATOM     67  H   UNL A   1      34.203  20.456  27.908  1.00  0.00     0.166 HD
ATOM     68  C   UNL A   1      33.480  19.526  25.331  1.00  0.00     0.026 A 
ATOM     69  C   UNL A   1      32.323  20.473  23.443  1.00  0.00     0.001 A 
ATOM     70  C   UNL A   1      32.999  19.426  24.015  1.00  0.00     0.002 A 
ENDBRANCH  60  61
ENDBRANCH  59  60
BRANCH  59  71
ATOM     71  N   UNL A   1      33.861  26.427  24.851  1.00  0.00    -0.356 N 
ATOM     72  H   UNL A   1      34.397  27.211  24.589  1.00  0.00     0.163 HD
BRANCH  71  73
ATOM     73  C   UNL A   1      34.171  25.290  24.159  1.00  0.00     0.137 A 
ATOM     74  N   UNL A   1      33.381  25.177  23.076  1.00  0.00    -0.219 NA
ATOM     75  C   UNL A   1      35.133  24.304  24.466  1.00  0.00     0.043 A 
ATOM     76  C   UNL A   1      33.621  24.160  22.243  1.00  0.00     0.224 A 
ATOM     77  C   UNL A   1      35.336  23.333  23.470  1.00  0.00     0.076 A 
ATOM     78  C   UNL A   1      35.871  24.159  25.668  1.00  0.00     0.014 A 
ATOM     79  N   UNL A   1      34.595  23.258  22.364  1.00  0.00    -0.236 NA
ATOM     80  C   UNL A   1      36.338  22.382  23.635  1.00  0.00     0.029 A 
ATOM     81  C   UNL A   1      36.824  23.158  25.846  1.00  0.00     0.001 A 
ATOM     82  C   UNL A   1      37.093  22.291  24.805  1.00  0.00     0.002 A 
ENDBRANCH  71  73
ENDBRANCH  59  71
ENDBRANCH  57  59
ENDBRANCH  56  57
ENDBRANCH  55  56
ENDBRANCH   1  55
TORSDOF 15
ENDMDL
