MODEL 1
REMARK VINA RESULT:     -11.3      0.000      0.000
REMARK SMILES COc1cc(OC)cc(-c2cc3nc(C)c(CCC(=O)OCCOC(=O)c4ccc(-c5c6nc(c(-c7ccccc7)c7ccc([nH]7)c(-c7ccccc7)c7nc(c(-c8ccccc8)c8ccc5[nH]8)C=C7)C=C6)cc4)c(C)n3n2)c1
REMARK SMILES IDX 22 1 21 2 19 3 20 4 18 5 17 6 16 7 10 8 11 9 78 10 12 11
REMARK SMILES IDX 77 12 13 13 75 14 14 15 76 16 15 17 9 18 3 19 4 20 79 21
REMARK SMILES IDX 5 22 8 23 2 24 1 25 6 26 7 27 23 28 24 29 25 30 26 31 27 32
REMARK SMILES IDX 28 33 74 34 29 35 73 36 30 37 31 38 32 39 67 40 33 41 72 42
REMARK SMILES IDX 66 43 68 44 34 45 71 46 65 47 64 48 35 50 57 51 42 52 56 53
REMARK SMILES IDX 43 54 46 55 55 56 69 57 44 58 45 59 54 61 70 62 47 63 36 64
REMARK SMILES IDX 37 65 41 66 38 67 40 68 39 69 58 70 59 71 63 72 60 73 62 74
REMARK SMILES IDX 61 75 48 76 49 77 53 78 50 79 52 80 51 81
REMARK H PARENT 68 49 46 60
REMARK Flexibility Score: inf
ROOT
ATOM      1  C   UNL A   1      37.204  34.174  32.409  1.00  0.00     0.274 C 
ENDROOT
BRANCH   1   2
ATOM      2  O   UNL A   1      36.159  33.243  32.767  1.00  0.00    -0.462 OA
BRANCH   2   3
ATOM      3  C   UNL A   1      35.256  32.938  31.799  1.00  0.00     0.306 C 
ATOM      4  O   UNL A   1      34.092  33.331  31.795  1.00  0.00    -0.252 OA
BRANCH   3   5
ATOM      5  C   UNL A   1      35.806  32.023  30.708  1.00  0.00     0.127 C 
BRANCH   5   6
ATOM      6  C   UNL A   1      35.932  32.539  29.260  1.00  0.00     0.051 C 
BRANCH   6   7
ATOM      7  C   UNL A   1      35.104  31.755  28.279  1.00  0.00    -0.005 A 
ATOM      8  C   UNL A   1      33.335  28.084  26.506  1.00  0.00     0.095 A 
ATOM      9  C   UNL A   1      32.416  29.148  26.601  1.00  0.00     0.080 A 
ATOM     10  N   UNL A   1      34.583  28.486  26.757  1.00  0.00    -0.166 NA
ATOM     11  C   UNL A   1      33.156  30.229  27.024  1.00  0.00     0.156 A 
ATOM     12  N   UNL A   1      34.467  29.778  27.143  1.00  0.00    -0.219 N 
ATOM     13  N   UNL A   1      32.815  31.520  27.291  1.00  0.00    -0.234 NA
ATOM     14  C   UNL A   1      35.465  30.576  27.721  1.00  0.00     0.046 A 
ATOM     15  C   UNL A   1      33.731  32.253  27.858  1.00  0.00     0.045 A 
ATOM     16  C   UNL A   1      36.829  29.947  27.776  1.00  0.00     0.067 C 
ATOM     17  C   UNL A   1      33.414  33.734  27.948  1.00  0.00     0.067 C 
BRANCH   8  18
ATOM     18  C   UNL A   1      33.095  26.700  26.149  1.00  0.00     0.009 A 
ATOM     19  C   UNL A   1      31.981  24.595  26.550  1.00  0.00     0.123 A 
ATOM     20  C   UNL A   1      32.849  23.986  25.638  1.00  0.00     0.092 A 
ATOM     21  C   UNL A   1      32.113  25.958  26.817  1.00  0.00     0.057 A 
ATOM     22  C   UNL A   1      33.832  24.725  24.974  1.00  0.00     0.123 A 
ATOM     23  C   UNL A   1      33.943  26.090  25.220  1.00  0.00     0.057 A 
BRANCH  19  24
ATOM     24  O   UNL A   1      31.098  23.750  27.165  1.00  0.00    -0.497 OA
ATOM     25  C   UNL A   1      30.386  22.864  26.309  1.00  0.00     0.278 C 
ENDBRANCH  19  24
BRANCH  22  26
ATOM     26  O   UNL A   1      34.628  24.008  24.123  1.00  0.00    -0.497 OA
ATOM     27  C   UNL A   1      33.948  23.230  23.142  1.00  0.00     0.278 C 
ENDBRANCH  22  26
ENDBRANCH   8  18
ENDBRANCH   6   7
ENDBRANCH   5   6
ENDBRANCH   3   5
ENDBRANCH   2   3
ENDBRANCH   1   2
BRANCH   1  28
ATOM     28  C   UNL A   1      38.598  33.596  32.664  1.00  0.00     0.275 C 
BRANCH  28  29
ATOM     29  O   UNL A   1      39.635  34.094  31.803  1.00  0.00    -0.458 OA
BRANCH  29  30
ATOM     30  C   UNL A   1      39.644  33.552  30.568  1.00  0.00     0.338 C 
ATOM     31  O   UNL A   1      39.113  33.979  29.564  1.00  0.00    -0.246 OA
BRANCH  30  32
ATOM     32  C   UNL A   1      40.133  32.180  30.560  1.00  0.00     0.060 A 
ATOM     33  C   UNL A   1      41.524  32.024  30.459  1.00  0.00     0.016 A 
ATOM     34  C   UNL A   1      39.250  31.111  30.403  1.00  0.00     0.016 A 
ATOM     35  C   UNL A   1      42.040  30.794  30.131  1.00  0.00     0.010 A 
ATOM     36  C   UNL A   1      39.766  29.882  30.065  1.00  0.00     0.010 A 
ATOM     37  C   UNL A   1      41.149  29.743  29.914  1.00  0.00    -0.014 A 
BRANCH  37  38
ATOM     38  C   UNL A   1      41.717  28.424  29.748  1.00  0.00     0.031 A 
ATOM     39  C   UNL A   1      42.439  27.945  30.952  1.00  0.00     0.074 A 
ATOM     40  C   UNL A   1      41.432  27.647  28.693  1.00  0.00     0.049 A 
ATOM     41  N   UNL A   1      43.681  27.610  31.066  1.00  0.00    -0.248 NA
ATOM     42  C   UNL A   1      41.703  27.989  32.229  1.00  0.00     0.031 C 
ATOM     43  C   UNL A   1      40.465  27.917  27.628  1.00  0.00     0.029 A 
ATOM     44  N   UNL A   1      41.839  26.375  28.446  1.00  0.00    -0.354 N 
ATOM     45  C   UNL A   1      43.839  27.234  32.398  1.00  0.00     0.074 A 
ATOM     46  C   UNL A   1      42.663  27.678  33.096  1.00  0.00     0.031 C 
ATOM     47  C   UNL A   1      40.181  26.756  26.997  1.00  0.00     0.029 A 
ATOM     48  C   UNL A   1      41.033  25.708  27.540  1.00  0.00     0.049 A 
ATOM     49  H   UNL A   1      42.629  25.968  28.869  1.00  0.00     0.167 HD
ATOM     50  C   UNL A   1      44.788  26.339  32.782  1.00  0.00     0.031 A 
ATOM     51  C   UNL A   1      41.007  24.375  27.322  1.00  0.00     0.031 A 
ATOM     52  C   UNL A   1      45.793  26.157  31.770  1.00  0.00     0.049 A 
ATOM     53  C   UNL A   1      42.241  23.787  27.891  1.00  0.00     0.074 A 
ATOM     54  C   UNL A   1      46.758  26.946  31.182  1.00  0.00     0.029 A 
ATOM     55  N   UNL A   1      45.641  25.055  30.965  1.00  0.00    -0.354 N 
ATOM     56  N   UNL A   1      43.429  23.993  27.402  1.00  0.00    -0.248 NA
ATOM     57  C   UNL A   1      42.217  23.255  29.246  1.00  0.00     0.031 C 
ATOM     58  C   UNL A   1      46.880  26.462  29.847  1.00  0.00     0.029 A 
ATOM     59  C   UNL A   1      45.997  25.390  29.688  1.00  0.00     0.049 A 
ATOM     60  H   UNL A   1      45.327  24.169  31.259  1.00  0.00     0.167 HD
ATOM     61  C   UNL A   1      44.268  24.031  28.506  1.00  0.00     0.074 A 
ATOM     62  C   UNL A   1      43.500  23.412  29.580  1.00  0.00     0.031 C 
ATOM     63  C   UNL A   1      45.379  24.825  28.508  1.00  0.00     0.031 A 
BRANCH  50  64
ATOM     64  C   UNL A   1      44.544  25.296  33.851  1.00  0.00    -0.014 A 
ATOM     65  C   UNL A   1      45.306  25.360  35.031  1.00  0.00     0.009 A 
ATOM     66  C   UNL A   1      43.829  24.101  33.632  1.00  0.00     0.009 A 
ATOM     67  C   UNL A   1      45.420  24.258  35.888  1.00  0.00     0.001 A 
ATOM     68  C   UNL A   1      43.902  23.015  34.508  1.00  0.00     0.001 A 
ATOM     69  C   UNL A   1      44.726  23.082  35.620  1.00  0.00     0.000 A 
ENDBRANCH  50  64
BRANCH  51  70
ATOM     70  C   UNL A   1      39.876  23.554  26.853  1.00  0.00    -0.014 A 
ATOM     71  C   UNL A   1      38.639  24.139  26.557  1.00  0.00     0.009 A 
ATOM     72  C   UNL A   1      40.079  22.211  26.484  1.00  0.00     0.009 A 
ATOM     73  C   UNL A   1      37.644  23.409  25.894  1.00  0.00     0.001 A 
ATOM     74  C   UNL A   1      39.084  21.481  25.828  1.00  0.00     0.001 A 
ATOM     75  C   UNL A   1      37.871  22.085  25.522  1.00  0.00     0.000 A 
ENDBRANCH  51  70
BRANCH  63  76
ATOM     76  C   UNL A   1      45.829  25.380  27.182  1.00  0.00    -0.014 A 
ATOM     77  C   UNL A   1      45.368  26.609  26.679  1.00  0.00     0.009 A 
ATOM     78  C   UNL A   1      46.842  24.709  26.482  1.00  0.00     0.009 A 
ATOM     79  C   UNL A   1      45.880  27.133  25.489  1.00  0.00     0.001 A 
ATOM     80  C   UNL A   1      47.369  25.244  25.305  1.00  0.00     0.001 A 
ATOM     81  C   UNL A   1      46.883  26.451  24.805  1.00  0.00     0.000 A 
ENDBRANCH  63  76
ENDBRANCH  37  38
ENDBRANCH  30  32
ENDBRANCH  29  30
ENDBRANCH  28  29
ENDBRANCH   1  28
TORSDOF 16
ENDMDL
MODEL 2
REMARK VINA RESULT:     -11.2      1.330      1.928
REMARK SMILES COc1cc(OC)cc(-c2cc3nc(C)c(CCC(=O)OCCOC(=O)c4ccc(-c5c6nc(c(-c7ccccc7)c7ccc([nH]7)c(-c7ccccc7)c7nc(c(-c8ccccc8)c8ccc5[nH]8)C=C7)C=C6)cc4)c(C)n3n2)c1
REMARK SMILES IDX 22 1 21 2 19 3 20 4 18 5 17 6 16 7 10 8 11 9 78 10 12 11
REMARK SMILES IDX 77 12 13 13 75 14 14 15 76 16 15 17 9 18 3 19 4 20 79 21
REMARK SMILES IDX 5 22 8 23 2 24 1 25 6 26 7 27 23 28 24 29 25 30 26 31 27 32
REMARK SMILES IDX 28 33 74 34 29 35 73 36 30 37 31 38 32 39 67 40 33 41 72 42
REMARK SMILES IDX 66 43 68 44 34 45 71 46 65 47 64 48 35 50 57 51 42 52 56 53
REMARK SMILES IDX 43 54 46 55 55 56 69 57 44 58 45 59 54 61 70 62 47 63 36 64
REMARK SMILES IDX 37 65 41 66 38 67 40 68 39 69 58 70 59 71 63 72 60 73 62 74
REMARK SMILES IDX 61 75 48 76 49 77 53 78 50 79 52 80 51 81
REMARK H PARENT 68 49 46 60
REMARK Flexibility Score: inf
ROOT
ATOM      1  C   UNL A   1      38.003  33.273  33.430  1.00  0.00     0.274 C 
ENDROOT
BRANCH   1   2
ATOM      2  O   UNL A   1      36.564  33.161  33.367  1.00  0.00    -0.462 OA
BRANCH   2   3
ATOM      3  C   UNL A   1      36.064  32.137  32.627  1.00  0.00     0.306 C 
ATOM      4  O   UNL A   1      36.488  30.985  32.670  1.00  0.00    -0.252 OA
BRANCH   3   5
ATOM      5  C   UNL A   1      34.929  32.548  31.693  1.00  0.00     0.127 C 
BRANCH   5   6
ATOM      6  C   UNL A   1      35.210  33.493  30.507  1.00  0.00     0.051 C 
BRANCH   6   7
ATOM      7  C   UNL A   1      34.470  33.107  29.256  1.00  0.00    -0.005 A 
ATOM      8  C   UNL A   1      32.270  30.359  26.544  1.00  0.00     0.095 A 
ATOM      9  C   UNL A   1      31.676  31.634  26.636  1.00  0.00     0.080 A 
ATOM     10  N   UNL A   1      33.478  30.335  27.110  1.00  0.00    -0.166 NA
ATOM     11  C   UNL A   1      32.553  32.388  27.383  1.00  0.00     0.156 A 
ATOM     12  N   UNL A   1      33.623  31.552  27.685  1.00  0.00    -0.219 N 
ATOM     13  N   UNL A   1      32.517  33.684  27.798  1.00  0.00    -0.234 NA
ATOM     14  C   UNL A   1      34.625  31.942  28.585  1.00  0.00     0.046 A 
ATOM     15  C   UNL A   1      33.429  34.040  28.659  1.00  0.00     0.045 A 
ATOM     16  C   UNL A   1      35.712  30.928  28.804  1.00  0.00     0.067 C 
ATOM     17  C   UNL A   1      33.510  35.528  28.941  1.00  0.00     0.067 C 
BRANCH   8  18
ATOM     18  C   UNL A   1      31.761  29.160  25.908  1.00  0.00     0.009 A 
ATOM     19  C   UNL A   1      30.642  28.083  24.059  1.00  0.00     0.123 A 
ATOM     20  C   UNL A   1      30.545  26.917  24.823  1.00  0.00     0.092 A 
ATOM     21  C   UNL A   1      31.243  29.216  24.608  1.00  0.00     0.057 A 
ATOM     22  C   UNL A   1      31.058  26.862  26.123  1.00  0.00     0.123 A 
ATOM     23  C   UNL A   1      31.682  27.984  26.658  1.00  0.00     0.057 A 
BRANCH  19  24
ATOM     24  O   UNL A   1      30.058  28.018  22.823  1.00  0.00    -0.497 OA
ATOM     25  C   UNL A   1      28.945  28.880  22.614  1.00  0.00     0.278 C 
ENDBRANCH  19  24
BRANCH  22  26
ATOM     26  O   UNL A   1      30.882  25.670  26.771  1.00  0.00    -0.497 OA
ATOM     27  C   UNL A   1      30.837  24.511  25.944  1.00  0.00     0.278 C 
ENDBRANCH  22  26
ENDBRANCH   8  18
ENDBRANCH   6   7
ENDBRANCH   5   6
ENDBRANCH   3   5
ENDBRANCH   2   3
ENDBRANCH   1   2
BRANCH   1  28
ATOM     28  C   UNL A   1      38.547  34.257  32.391  1.00  0.00     0.275 C 
BRANCH  28  29
ATOM     29  O   UNL A   1      38.589  33.764  31.042  1.00  0.00    -0.458 OA
BRANCH  29  30
ATOM     30  C   UNL A   1      39.830  33.639  30.531  1.00  0.00     0.338 C 
ATOM     31  O   UNL A   1      40.462  34.462  29.902  1.00  0.00    -0.246 OA
BRANCH  30  32
ATOM     32  C   UNL A   1      40.303  32.262  30.536  1.00  0.00     0.060 A 
ATOM     33  C   UNL A   1      41.676  32.084  30.297  1.00  0.00     0.016 A 
ATOM     34  C   UNL A   1      39.400  31.199  30.522  1.00  0.00     0.016 A 
ATOM     35  C   UNL A   1      42.144  30.833  29.975  1.00  0.00     0.010 A 
ATOM     36  C   UNL A   1      39.868  29.948  30.189  1.00  0.00     0.010 A 
ATOM     37  C   UNL A   1      41.227  29.785  29.901  1.00  0.00    -0.014 A 
BRANCH  37  38
ATOM     38  C   UNL A   1      41.764  28.453  29.738  1.00  0.00     0.031 A 
ATOM     39  C   UNL A   1      42.467  27.956  30.947  1.00  0.00     0.074 A 
ATOM     40  C   UNL A   1      41.466  27.682  28.681  1.00  0.00     0.049 A 
ATOM     41  N   UNL A   1      43.700  27.591  31.068  1.00  0.00    -0.248 NA
ATOM     42  C   UNL A   1      41.725  28.019  32.219  1.00  0.00     0.031 C 
ATOM     43  C   UNL A   1      40.512  27.975  27.611  1.00  0.00     0.029 A 
ATOM     44  N   UNL A   1      41.844  26.401  28.437  1.00  0.00    -0.354 N 
ATOM     45  C   UNL A   1      43.842  27.212  32.401  1.00  0.00     0.074 A 
ATOM     46  C   UNL A   1      42.672  27.684  33.092  1.00  0.00     0.031 C 
ATOM     47  C   UNL A   1      40.203  26.822  26.979  1.00  0.00     0.029 A 
ATOM     48  C   UNL A   1      41.026  25.754  27.527  1.00  0.00     0.049 A 
ATOM     49  H   UNL A   1      42.621  25.975  28.865  1.00  0.00     0.167 HD
ATOM     50  C   UNL A   1      44.766  26.294  32.790  1.00  0.00     0.031 A 
ATOM     51  C   UNL A   1      40.970  24.422  27.309  1.00  0.00     0.031 A 
ATOM     52  C   UNL A   1      45.772  26.088  31.784  1.00  0.00     0.049 A 
ATOM     53  C   UNL A   1      42.186  23.804  27.884  1.00  0.00     0.074 A 
ATOM     54  C   UNL A   1      46.759  26.853  31.202  1.00  0.00     0.029 A 
ATOM     55  N   UNL A   1      45.597  24.990  30.978  1.00  0.00    -0.354 N 
ATOM     56  N   UNL A   1      43.381  23.981  27.402  1.00  0.00    -0.248 NA
ATOM     57  C   UNL A   1      42.141  23.272  29.240  1.00  0.00     0.031 C 
ATOM     58  C   UNL A   1      46.877  26.366  29.867  1.00  0.00     0.029 A 
ATOM     59  C   UNL A   1      45.969  25.316  29.703  1.00  0.00     0.049 A 
ATOM     60  H   UNL A   1      45.261  24.111  31.270  1.00  0.00     0.167 HD
ATOM     61  C   UNL A   1      44.214  23.999  28.511  1.00  0.00     0.074 A 
ATOM     62  C   UNL A   1      43.426  23.398  29.581  1.00  0.00     0.031 C 
ATOM     63  C   UNL A   1      45.345  24.765  28.519  1.00  0.00     0.031 A 
BRANCH  50  64
ATOM     64  C   UNL A   1      44.490  25.257  33.858  1.00  0.00    -0.014 A 
ATOM     65  C   UNL A   1      45.066  25.440  35.128  1.00  0.00     0.009 A 
ATOM     66  C   UNL A   1      43.952  23.982  33.592  1.00  0.00     0.009 A 
ATOM     67  C   UNL A   1      45.179  24.381  36.037  1.00  0.00     0.001 A 
ATOM     68  C   UNL A   1      44.020  22.935  34.514  1.00  0.00     0.001 A 
ATOM     69  C   UNL A   1      44.666  23.126  35.725  1.00  0.00     0.000 A 
ENDBRANCH  50  64
BRANCH  51  70
ATOM     70  C   UNL A   1      39.821  23.628  26.833  1.00  0.00    -0.014 A 
ATOM     71  C   UNL A   1      38.608  24.246  26.508  1.00  0.00     0.009 A 
ATOM     72  C   UNL A   1      39.989  22.274  26.488  1.00  0.00     0.009 A 
ATOM     73  C   UNL A   1      37.602  23.537  25.839  1.00  0.00     0.001 A 
ATOM     74  C   UNL A   1      38.983  21.564  25.827  1.00  0.00     0.001 A 
ATOM     75  C   UNL A   1      37.794  22.200  25.491  1.00  0.00     0.000 A 
ENDBRANCH  51  70
BRANCH  63  76
ATOM     76  C   UNL A   1      45.816  25.309  27.196  1.00  0.00    -0.014 A 
ATOM     77  C   UNL A   1      45.313  26.501  26.644  1.00  0.00     0.009 A 
ATOM     78  C   UNL A   1      46.885  24.673  26.551  1.00  0.00     0.009 A 
ATOM     79  C   UNL A   1      45.842  27.020  25.460  1.00  0.00     0.001 A 
ATOM     80  C   UNL A   1      47.429  25.204  25.380  1.00  0.00     0.001 A 
ATOM     81  C   UNL A   1      46.903  26.373  24.830  1.00  0.00     0.000 A 
ENDBRANCH  63  76
ENDBRANCH  37  38
ENDBRANCH  30  32
ENDBRANCH  29  30
ENDBRANCH  28  29
ENDBRANCH   1  28
TORSDOF 16
ENDMDL
MODEL 3
REMARK VINA RESULT:     -11.1      3.614      9.699
REMARK SMILES COc1cc(OC)cc(-c2cc3nc(C)c(CCC(=O)OCCOC(=O)c4ccc(-c5c6nc(c(-c7ccccc7)c7ccc([nH]7)c(-c7ccccc7)c7nc(c(-c8ccccc8)c8ccc5[nH]8)C=C7)C=C6)cc4)c(C)n3n2)c1
REMARK SMILES IDX 22 1 21 2 19 3 20 4 18 5 17 6 16 7 10 8 11 9 78 10 12 11
REMARK SMILES IDX 77 12 13 13 75 14 14 15 76 16 15 17 9 18 3 19 4 20 79 21
REMARK SMILES IDX 5 22 8 23 2 24 1 25 6 26 7 27 23 28 24 29 25 30 26 31 27 32
REMARK SMILES IDX 28 33 74 34 29 35 73 36 30 37 31 38 32 39 67 40 33 41 72 42
REMARK SMILES IDX 66 43 68 44 34 45 71 46 65 47 64 48 35 50 57 51 42 52 56 53
REMARK SMILES IDX 43 54 46 55 55 56 69 57 44 58 45 59 54 61 70 62 47 63 36 64
REMARK SMILES IDX 37 65 41 66 38 67 40 68 39 69 58 70 59 71 63 72 60 73 62 74
REMARK SMILES IDX 61 75 48 76 49 77 53 78 50 79 52 80 51 81
REMARK H PARENT 68 49 46 60
REMARK Flexibility Score: inf
ROOT
ATOM      1  C   UNL A   1      45.833  23.412  26.446  1.00  0.00     0.274 C 
ENDROOT
BRANCH   1   2
ATOM      2  O   UNL A   1      44.784  22.420  26.413  1.00  0.00    -0.462 OA
BRANCH   2   3
ATOM      3  C   UNL A   1      43.854  22.549  25.430  1.00  0.00     0.306 C 
ATOM      4  O   UNL A   1      43.998  22.126  24.286  1.00  0.00    -0.252 OA
BRANCH   3   5
ATOM      5  C   UNL A   1      42.600  23.305  25.862  1.00  0.00     0.127 C 
BRANCH   5   6
ATOM      6  C   UNL A   1      41.776  22.806  27.067  1.00  0.00     0.051 C 
BRANCH   6   7
ATOM      7  C   UNL A   1      40.335  22.543  26.728  1.00  0.00    -0.005 A 
ATOM      8  C   UNL A   1      36.318  23.530  25.105  1.00  0.00     0.095 A 
ATOM      9  C   UNL A   1      36.752  22.237  24.751  1.00  0.00     0.080 A 
ATOM     10  N   UNL A   1      37.105  24.079  26.033  1.00  0.00    -0.166 NA
ATOM     11  C   UNL A   1      37.923  22.046  25.448  1.00  0.00     0.156 A 
ATOM     12  N   UNL A   1      38.126  23.205  26.191  1.00  0.00    -0.219 N 
ATOM     13  N   UNL A   1      38.790  20.997  25.506  1.00  0.00    -0.234 NA
ATOM     14  C   UNL A   1      39.322  23.426  26.889  1.00  0.00     0.046 A 
ATOM     15  C   UNL A   1      39.915  21.211  26.127  1.00  0.00     0.045 A 
ATOM     16  C   UNL A   1      39.385  24.724  27.644  1.00  0.00     0.067 C 
ATOM     17  C   UNL A   1      40.767  19.980  26.372  1.00  0.00     0.067 C 
BRANCH   8  18
ATOM     18  C   UNL A   1      35.160  24.265  24.634  1.00  0.00     0.009 A 
ATOM     19  C   UNL A   1      33.271  25.704  25.072  1.00  0.00     0.123 A 
ATOM     20  C   UNL A   1      32.796  25.437  23.785  1.00  0.00     0.092 A 
ATOM     21  C   UNL A   1      34.454  25.105  25.504  1.00  0.00     0.057 A 
ATOM     22  C   UNL A   1      33.497  24.595  22.916  1.00  0.00     0.123 A 
ATOM     23  C   UNL A   1      34.692  24.021  23.340  1.00  0.00     0.057 A 
BRANCH  19  24
ATOM     24  O   UNL A   1      32.465  26.505  25.834  1.00  0.00    -0.497 OA
ATOM     25  C   UNL A   1      31.081  26.489  25.504  1.00  0.00     0.278 C 
ENDBRANCH  19  24
BRANCH  22  26
ATOM     26  O   UNL A   1      32.916  24.401  21.693  1.00  0.00    -0.497 OA
ATOM     27  C   UNL A   1      32.554  25.580  20.981  1.00  0.00     0.278 C 
ENDBRANCH  22  26
ENDBRANCH   8  18
ENDBRANCH   6   7
ENDBRANCH   5   6
ENDBRANCH   3   5
ENDBRANCH   2   3
ENDBRANCH   1   2
BRANCH   1  28
ATOM     28  C   UNL A   1      45.833  24.201  27.758  1.00  0.00     0.275 C 
BRANCH  28  29
ATOM     29  O   UNL A   1      44.573  24.247  28.446  1.00  0.00    -0.458 OA
BRANCH  29  30
ATOM     30  C   UNL A   1      44.595  24.933  29.607  1.00  0.00     0.338 C 
ATOM     31  O   UNL A   1      44.932  24.533  30.702  1.00  0.00    -0.246 OA
BRANCH  30  32
ATOM     32  C   UNL A   1      43.878  26.198  29.525  1.00  0.00     0.060 A 
ATOM     33  C   UNL A   1      43.977  27.034  30.649  1.00  0.00     0.016 A 
ATOM     34  C   UNL A   1      42.955  26.428  28.504  1.00  0.00     0.016 A 
ATOM     35  C   UNL A   1      43.097  28.079  30.787  1.00  0.00     0.010 A 
ATOM     36  C   UNL A   1      42.067  27.469  28.648  1.00  0.00     0.010 A 
ATOM     37  C   UNL A   1      42.136  28.268  29.795  1.00  0.00    -0.014 A 
BRANCH  37  38
ATOM     38  C   UNL A   1      41.341  29.473  29.870  1.00  0.00     0.031 A 
ATOM     39  C   UNL A   1      42.126  30.705  29.614  1.00  0.00     0.074 A 
ATOM     40  C   UNL A   1      40.002  29.447  29.950  1.00  0.00     0.049 A 
ATOM     41  N   UNL A   1      42.313  31.716  30.396  1.00  0.00    -0.248 NA
ATOM     42  C   UNL A   1      42.926  30.739  28.377  1.00  0.00     0.031 C 
ATOM     43  C   UNL A   1      39.132  28.273  29.869  1.00  0.00     0.029 A 
ATOM     44  N   UNL A   1      39.136  30.492  29.961  1.00  0.00    -0.354 N 
ATOM     45  C   UNL A   1      43.118  32.595  29.674  1.00  0.00     0.074 A 
ATOM     46  C   UNL A   1      43.621  31.861  28.544  1.00  0.00     0.031 C 
ATOM     47  C   UNL A   1      37.875  28.685  29.591  1.00  0.00     0.029 A 
ATOM     48  C   UNL A   1      37.848  30.140  29.597  1.00  0.00     0.049 A 
ATOM     49  H   UNL A   1      39.398  31.410  30.203  1.00  0.00     0.167 HD
ATOM     50  C   UNL A   1      43.090  33.936  29.892  1.00  0.00     0.031 A 
ATOM     51  C   UNL A   1      36.858  30.987  29.238  1.00  0.00     0.031 A 
ATOM     52  C   UNL A   1      42.470  34.261  31.148  1.00  0.00     0.049 A 
ATOM     53  C   UNL A   1      37.228  32.350  29.682  1.00  0.00     0.074 A 
ATOM     54  C   UNL A   1      42.755  34.039  32.478  1.00  0.00     0.029 A 
ATOM     55  N   UNL A   1      41.151  34.641  31.085  1.00  0.00    -0.354 N 
ATOM     56  N   UNL A   1      37.284  32.710  30.931  1.00  0.00    -0.248 NA
ATOM     57  C   UNL A   1      37.909  33.241  28.752  1.00  0.00     0.031 C 
ATOM     58  C   UNL A   1      41.488  33.934  33.123  1.00  0.00     0.029 A 
ATOM     59  C   UNL A   1      40.491  34.115  32.161  1.00  0.00     0.049 A 
ATOM     60  H   UNL A   1      40.749  35.200  30.382  1.00  0.00     0.167 HD
ATOM     61  C   UNL A   1      38.341  33.605  30.997  1.00  0.00     0.074 A 
ATOM     62  C   UNL A   1      38.574  34.013  29.616  1.00  0.00     0.031 C 
ATOM     63  C   UNL A   1      39.106  33.695  32.125  1.00  0.00     0.031 A 
BRANCH  50  64
ATOM     64  C   UNL A   1      43.187  34.950  28.772  1.00  0.00    -0.014 A 
ATOM     65  C   UNL A   1      43.388  36.300  29.111  1.00  0.00     0.009 A 
ATOM     66  C   UNL A   1      42.798  34.690  27.443  1.00  0.00     0.009 A 
ATOM     67  C   UNL A   1      43.121  37.329  28.199  1.00  0.00     0.001 A 
ATOM     68  C   UNL A   1      42.576  35.710  26.516  1.00  0.00     0.001 A 
ATOM     69  C   UNL A   1      42.704  37.034  26.905  1.00  0.00     0.000 A 
ENDBRANCH  50  64
BRANCH  51  70
ATOM     70  C   UNL A   1      35.722  30.723  28.336  1.00  0.00    -0.014 A 
ATOM     71  C   UNL A   1      35.599  29.494  27.677  1.00  0.00     0.009 A 
ATOM     72  C   UNL A   1      34.630  31.610  28.292  1.00  0.00     0.009 A 
ATOM     73  C   UNL A   1      34.412  29.155  27.014  1.00  0.00     0.001 A 
ATOM     74  C   UNL A   1      33.449  31.275  27.625  1.00  0.00     0.001 A 
ATOM     75  C   UNL A   1      33.336  30.041  26.996  1.00  0.00     0.000 A 
ENDBRANCH  51  70
BRANCH  63  76
ATOM     76  C   UNL A   1      38.568  33.049  33.374  1.00  0.00    -0.014 A 
ATOM     77  C   UNL A   1      38.763  31.687  33.668  1.00  0.00     0.009 A 
ATOM     78  C   UNL A   1      37.959  33.861  34.341  1.00  0.00     0.009 A 
ATOM     79  C   UNL A   1      38.326  31.148  34.881  1.00  0.00     0.001 A 
ATOM     80  C   UNL A   1      37.544  33.326  35.562  1.00  0.00     0.001 A 
ATOM     81  C   UNL A   1      37.721  31.969  35.829  1.00  0.00     0.000 A 
ENDBRANCH  63  76
ENDBRANCH  37  38
ENDBRANCH  30  32
ENDBRANCH  29  30
ENDBRANCH  28  29
ENDBRANCH   1  28
TORSDOF 16
ENDMDL
