MODEL 1
REMARK VINA RESULT:     -11.3      0.000      0.000
REMARK SMILES C#Cc1ccc2c(c1)C=C(C(=O)OCCOC(=O)c1ccc(-c3c4nc(c(-c5ccccc5)c5ccc([nH]5)c(-c5ccccc5)c5nc(c(-c6ccccc6)c6ccc3[nH]6)C=C5)C=C4)cc1)[C@@H](C(F)(F)F)O2
REMARK SMILES IDX 15 1 14 2 13 3 11 4 12 5 10 6 3 7 4 8 8 9 5 10 7 11 6 12
REMARK SMILES IDX 9 13 72 14 67 15 2 16 1 17 68 18 69 19 70 20 71 21 16 22
REMARK SMILES IDX 17 23 18 24 19 25 20 26 66 27 21 28 65 29 22 30 23 31 24 32
REMARK SMILES IDX 59 33 25 34 64 35 58 36 60 37 26 38 63 39 57 40 56 41 27 43
REMARK SMILES IDX 49 44 34 45 48 46 35 47 38 48 47 49 61 50 36 51 37 52 46 54
REMARK SMILES IDX 62 55 39 56 28 57 29 58 33 59 30 60 32 61 31 62 50 63 51 64
REMARK SMILES IDX 55 65 52 66 54 67 53 68 40 69 41 70 45 71 42 72 44 73 43 74
REMARK H PARENT 60 42 38 53
REMARK Flexibility Score: inf
ROOT
ATOM      1  C   UNL A   1      36.018  20.621  24.999  1.00  0.00     0.275 C 
ENDROOT
BRANCH   1   2
ATOM      2  C   UNL A   1      34.521  20.898  25.166  1.00  0.00     0.275 C 
BRANCH   2   3
ATOM      3  O   UNL A   1      34.250  22.312  25.298  1.00  0.00    -0.459 OA
BRANCH   3   4
ATOM      4  C   UNL A   1      33.319  22.814  24.453  1.00  0.00     0.338 C 
ATOM      5  O   UNL A   1      32.944  22.308  23.407  1.00  0.00    -0.246 OA
BRANCH   4   6
ATOM      6  C   UNL A   1      32.763  24.084  24.969  1.00  0.00     0.087 C 
ATOM      7  C   UNL A   1      33.587  28.422  26.898  1.00  0.00     0.025 A 
ATOM      8  C   UNL A   1      32.241  28.522  27.249  1.00  0.00     0.021 A 
ATOM      9  C   UNL A   1      34.029  27.305  26.195  1.00  0.00     0.029 A 
ATOM     10  C   UNL A   1      31.339  27.508  26.894  1.00  0.00     0.048 A 
ATOM     11  C   UNL A   1      33.128  26.282  25.865  1.00  0.00     0.018 A 
ATOM     12  C   UNL A   1      31.784  26.379  26.204  1.00  0.00     0.128 A 
ATOM     13  C   UNL A   1      33.610  25.090  25.211  1.00  0.00     0.027 C 
ATOM     14  O   UNL A   1      30.858  25.422  25.893  1.00  0.00    -0.475 OA
ATOM     15  C   UNL A   1      31.315  24.141  25.357  1.00  0.00     0.316 C 
BRANCH   7  16
ATOM     16  C   UNL A   1      34.528  29.434  27.270  1.00  0.00    -0.070 C 
ATOM     17  C   UNL A   1      35.301  30.284  27.624  1.00  0.00     0.010 C 
ENDBRANCH   7  16
BRANCH  15  18
ATOM     18  C   UNL A   1      30.984  23.033  26.370  1.00  0.00     0.430 C 
ATOM     19  F   UNL A   1      29.855  23.312  27.061  1.00  0.00    -0.167 F 
ATOM     20  F   UNL A   1      30.776  21.841  25.758  1.00  0.00    -0.167 F 
ATOM     21  F   UNL A   1      31.979  22.853  27.269  1.00  0.00    -0.167 F 
ENDBRANCH  15  18
ENDBRANCH   4   6
ENDBRANCH   3   4
ENDBRANCH   2   3
ENDBRANCH   1   2
BRANCH   1  22
ATOM     22  O   UNL A   1      36.807  21.571  25.737  1.00  0.00    -0.458 OA
BRANCH  22  23
ATOM     23  C   UNL A   1      38.130  21.305  25.761  1.00  0.00     0.338 C 
ATOM     24  O   UNL A   1      38.712  20.362  25.252  1.00  0.00    -0.246 OA
BRANCH  23  25
ATOM     25  C   UNL A   1      38.845  22.425  26.380  1.00  0.00     0.060 A 
ATOM     26  C   UNL A   1      40.049  22.260  27.044  1.00  0.00     0.016 A 
ATOM     27  C   UNL A   1      38.363  23.700  26.124  1.00  0.00     0.016 A 
ATOM     28  C   UNL A   1      40.748  23.401  27.456  1.00  0.00     0.010 A 
ATOM     29  C   UNL A   1      39.153  24.817  26.341  1.00  0.00     0.010 A 
ATOM     30  C   UNL A   1      40.329  24.695  27.073  1.00  0.00    -0.014 A 
BRANCH  30  31
ATOM     31  C   UNL A   1      41.087  25.919  27.456  1.00  0.00     0.031 A 
ATOM     32  C   UNL A   1      42.458  26.195  26.875  1.00  0.00     0.074 A 
ATOM     33  C   UNL A   1      40.547  26.777  28.345  1.00  0.00     0.049 A 
ATOM     34  N   UNL A   1      43.225  27.244  27.052  1.00  0.00    -0.248 NA
ATOM     35  C   UNL A   1      43.071  25.164  26.019  1.00  0.00     0.031 C 
ATOM     36  C   UNL A   1      39.277  26.575  29.047  1.00  0.00     0.029 A 
ATOM     37  N   UNL A   1      40.976  28.004  28.788  1.00  0.00    -0.354 N 
ATOM     38  C   UNL A   1      44.393  26.985  26.342  1.00  0.00     0.074 A 
ATOM     39  C   UNL A   1      44.285  25.650  25.811  1.00  0.00     0.031 C 
ATOM     40  C   UNL A   1      38.980  27.679  29.746  1.00  0.00     0.029 A 
ATOM     41  C   UNL A   1      40.068  28.640  29.603  1.00  0.00     0.049 A 
ATOM     42  H   UNL A   1      41.847  28.391  28.545  1.00  0.00     0.167 HD
ATOM     43  C   UNL A   1      45.440  27.806  26.103  1.00  0.00     0.031 A 
ATOM     44  C   UNL A   1      40.095  29.867  30.162  1.00  0.00     0.031 A 
ATOM     45  C   UNL A   1      45.521  29.152  26.596  1.00  0.00     0.049 A 
ATOM     46  C   UNL A   1      41.266  30.766  29.876  1.00  0.00     0.074 A 
ATOM     47  C   UNL A   1      46.503  30.093  26.350  1.00  0.00     0.029 A 
ATOM     48  N   UNL A   1      44.585  29.749  27.425  1.00  0.00    -0.354 N 
ATOM     49  N   UNL A   1      42.311  30.540  29.116  1.00  0.00    -0.248 NA
ATOM     50  C   UNL A   1      41.259  32.092  30.507  1.00  0.00     0.031 C 
ATOM     51  C   UNL A   1      46.208  31.230  27.101  1.00  0.00     0.029 A 
ATOM     52  C   UNL A   1      44.989  31.036  27.732  1.00  0.00     0.049 A 
ATOM     53  H   UNL A   1      43.758  29.323  27.747  1.00  0.00     0.167 HD
ATOM     54  C   UNL A   1      43.071  31.702  29.157  1.00  0.00     0.074 A 
ATOM     55  C   UNL A   1      42.355  32.639  29.998  1.00  0.00     0.031 C 
ATOM     56  C   UNL A   1      44.259  31.962  28.560  1.00  0.00     0.031 A 
BRANCH  43  57
ATOM     57  C   UNL A   1      46.569  27.308  25.235  1.00  0.00    -0.014 A 
ATOM     58  C   UNL A   1      47.511  26.408  25.759  1.00  0.00     0.009 A 
ATOM     59  C   UNL A   1      46.778  27.828  23.946  1.00  0.00     0.009 A 
ATOM     60  C   UNL A   1      48.652  26.068  25.029  1.00  0.00     0.001 A 
ATOM     61  C   UNL A   1      47.898  27.454  23.202  1.00  0.00     0.001 A 
ATOM     62  C   UNL A   1      48.844  26.589  23.751  1.00  0.00     0.000 A 
ENDBRANCH  43  57
BRANCH  44  63
ATOM     63  C   UNL A   1      38.942  30.318  30.992  1.00  0.00    -0.014 A 
ATOM     64  C   UNL A   1      38.910  30.065  32.374  1.00  0.00     0.009 A 
ATOM     65  C   UNL A   1      37.832  30.940  30.398  1.00  0.00     0.009 A 
ATOM     66  C   UNL A   1      37.782  30.385  33.133  1.00  0.00     0.001 A 
ATOM     67  C   UNL A   1      36.721  31.297  31.168  1.00  0.00     0.001 A 
ATOM     68  C   UNL A   1      36.691  31.006  32.531  1.00  0.00     0.000 A 
ENDBRANCH  44  63
BRANCH  56  69
ATOM     69  C   UNL A   1      44.879  33.319  28.763  1.00  0.00    -0.014 A 
ATOM     70  C   UNL A   1      44.638  34.338  27.826  1.00  0.00     0.009 A 
ATOM     71  C   UNL A   1      45.813  33.543  29.784  1.00  0.00     0.009 A 
ATOM     72  C   UNL A   1      45.346  35.539  27.886  1.00  0.00     0.001 A 
ATOM     73  C   UNL A   1      46.488  34.762  29.867  1.00  0.00     0.001 A 
ATOM     74  C   UNL A   1      46.267  35.751  28.909  1.00  0.00     0.000 A 
ENDBRANCH  56  69
ENDBRANCH  30  31
ENDBRANCH  23  25
ENDBRANCH  22  23
ENDBRANCH   1  22
TORSDOF 13
ENDMDL
MODEL 2
REMARK VINA RESULT:     -11.3      5.310      8.937
REMARK SMILES C#Cc1ccc2c(c1)C=C(C(=O)OCCOC(=O)c1ccc(-c3c4nc(c(-c5ccccc5)c5ccc([nH]5)c(-c5ccccc5)c5nc(c(-c6ccccc6)c6ccc3[nH]6)C=C5)C=C4)cc1)[C@@H](C(F)(F)F)O2
REMARK SMILES IDX 15 1 14 2 13 3 11 4 12 5 10 6 3 7 4 8 8 9 5 10 7 11 6 12
REMARK SMILES IDX 9 13 72 14 67 15 2 16 1 17 68 18 69 19 70 20 71 21 16 22
REMARK SMILES IDX 17 23 18 24 19 25 20 26 66 27 21 28 65 29 22 30 23 31 24 32
REMARK SMILES IDX 59 33 25 34 64 35 58 36 60 37 26 38 63 39 57 40 56 41 27 43
REMARK SMILES IDX 49 44 34 45 48 46 35 47 38 48 47 49 61 50 36 51 37 52 46 54
REMARK SMILES IDX 62 55 39 56 28 57 29 58 33 59 30 60 32 61 31 62 50 63 51 64
REMARK SMILES IDX 55 65 52 66 54 67 53 68 40 69 41 70 45 71 42 72 44 73 43 74
REMARK H PARENT 60 42 38 53
REMARK Flexibility Score: inf
ROOT
ATOM      1  C   UNL A   1      33.721  33.751  28.182  1.00  0.00     0.275 C 
ENDROOT
BRANCH   1   2
ATOM      2  C   UNL A   1      34.319  34.832  29.087  1.00  0.00     0.275 C 
BRANCH   2   3
ATOM      3  O   UNL A   1      34.044  34.573  30.483  1.00  0.00    -0.459 OA
BRANCH   3   4
ATOM      4  C   UNL A   1      34.728  33.545  31.036  1.00  0.00     0.338 C 
ATOM      5  O   UNL A   1      34.363  32.381  31.095  1.00  0.00    -0.246 OA
BRANCH   4   6
ATOM      6  C   UNL A   1      36.035  33.998  31.561  1.00  0.00     0.087 C 
ATOM      7  C   UNL A   1      40.833  34.022  31.119  1.00  0.00     0.025 A 
ATOM      8  C   UNL A   1      40.951  34.498  32.425  1.00  0.00     0.021 A 
ATOM      9  C   UNL A   1      39.566  33.831  30.573  1.00  0.00     0.029 A 
ATOM     10  C   UNL A   1      39.805  34.787  33.179  1.00  0.00     0.048 A 
ATOM     11  C   UNL A   1      38.424  34.098  31.341  1.00  0.00     0.018 A 
ATOM     12  C   UNL A   1      38.536  34.581  32.640  1.00  0.00     0.128 A 
ATOM     13  C   UNL A   1      37.117  33.818  30.798  1.00  0.00     0.027 C 
ATOM     14  O   UNL A   1      37.457  34.874  33.428  1.00  0.00    -0.475 OA
ATOM     15  C   UNL A   1      36.123  34.482  32.979  1.00  0.00     0.316 C 
BRANCH   7  16
ATOM     16  C   UNL A   1      41.988  33.699  30.339  1.00  0.00    -0.070 C 
ATOM     17  C   UNL A   1      42.963  33.471  29.672  1.00  0.00     0.010 C 
ENDBRANCH   7  16
BRANCH  15  18
ATOM     18  C   UNL A   1      35.565  33.424  33.945  1.00  0.00     0.430 C 
ATOM     19  F   UNL A   1      36.003  32.183  33.629  1.00  0.00    -0.167 F 
ATOM     20  F   UNL A   1      35.956  33.656  35.223  1.00  0.00    -0.167 F 
ATOM     21  F   UNL A   1      34.213  33.393  33.939  1.00  0.00    -0.167 F 
ENDBRANCH  15  18
ENDBRANCH   4   6
ENDBRANCH   3   4
ENDBRANCH   2   3
ENDBRANCH   1   2
BRANCH   1  22
ATOM     22  O   UNL A   1      34.745  32.887  27.657  1.00  0.00    -0.458 OA
BRANCH  22  23
ATOM     23  C   UNL A   1      34.543  31.573  27.884  1.00  0.00     0.338 C 
ATOM     24  O   UNL A   1      33.516  30.935  27.720  1.00  0.00    -0.246 OA
BRANCH  23  25
ATOM     25  C   UNL A   1      35.815  30.933  28.231  1.00  0.00     0.060 A 
ATOM     26  C   UNL A   1      37.036  31.562  28.049  1.00  0.00     0.016 A 
ATOM     27  C   UNL A   1      35.750  29.733  28.923  1.00  0.00     0.016 A 
ATOM     28  C   UNL A   1      38.186  30.952  28.563  1.00  0.00     0.010 A 
ATOM     29  C   UNL A   1      36.850  29.246  29.610  1.00  0.00     0.010 A 
ATOM     30  C   UNL A   1      38.103  29.808  29.387  1.00  0.00    -0.014 A 
BRANCH  30  31
ATOM     31  C   UNL A   1      39.309  29.174  29.987  1.00  0.00     0.031 A 
ATOM     32  C   UNL A   1      39.983  27.996  29.316  1.00  0.00     0.074 A 
ATOM     33  C   UNL A   1      39.791  29.649  31.155  1.00  0.00     0.049 A 
ATOM     34  N   UNL A   1      41.078  27.368  29.670  1.00  0.00    -0.248 NA
ATOM     35  C   UNL A   1      39.342  27.419  28.120  1.00  0.00     0.031 C 
ATOM     36  C   UNL A   1      39.177  30.716  31.948  1.00  0.00     0.029 A 
ATOM     37  N   UNL A   1      40.923  29.323  31.862  1.00  0.00    -0.354 N 
ATOM     38  C   UNL A   1      41.239  26.335  28.752  1.00  0.00     0.074 A 
ATOM     39  C   UNL A   1      40.089  26.351  27.884  1.00  0.00     0.031 C 
ATOM     40  C   UNL A   1      39.988  31.027  32.969  1.00  0.00     0.029 A 
ATOM     41  C   UNL A   1      41.143  30.138  32.948  1.00  0.00     0.049 A 
ATOM     42  H   UNL A   1      41.519  28.580  31.614  1.00  0.00     0.167 HD
ATOM     43  C   UNL A   1      42.278  25.483  28.606  1.00  0.00     0.031 A 
ATOM     44  C   UNL A   1      42.168  30.179  33.824  1.00  0.00     0.031 A 
ATOM     45  C   UNL A   1      43.443  25.503  29.446  1.00  0.00     0.049 A 
ATOM     46  C   UNL A   1      43.316  29.227  33.638  1.00  0.00     0.074 A 
ATOM     47  C   UNL A   1      44.585  24.732  29.337  1.00  0.00     0.029 A 
ATOM     48  N   UNL A   1      43.617  26.335  30.539  1.00  0.00    -0.354 N 
ATOM     49  N   UNL A   1      43.498  28.329  32.700  1.00  0.00    -0.248 NA
ATOM     50  C   UNL A   1      44.410  29.303  34.616  1.00  0.00     0.031 C 
ATOM     51  C   UNL A   1      45.413  25.036  30.417  1.00  0.00     0.029 A 
ATOM     52  C   UNL A   1      44.834  26.069  31.138  1.00  0.00     0.049 A 
ATOM     53  H   UNL A   1      42.972  27.014  30.843  1.00  0.00     0.167 HD
ATOM     54  C   UNL A   1      44.733  27.750  32.959  1.00  0.00     0.074 A 
ATOM     55  C   UNL A   1      45.269  28.417  34.128  1.00  0.00     0.031 C 
ATOM     56  C   UNL A   1      45.361  26.750  32.294  1.00  0.00     0.031 A 
BRANCH  43  57
ATOM     57  C   UNL A   1      42.245  24.485  27.476  1.00  0.00    -0.014 A 
ATOM     58  C   UNL A   1      41.699  23.208  27.685  1.00  0.00     0.009 A 
ATOM     59  C   UNL A   1      42.870  24.757  26.248  1.00  0.00     0.009 A 
ATOM     60  C   UNL A   1      41.810  22.217  26.707  1.00  0.00     0.001 A 
ATOM     61  C   UNL A   1      42.944  23.778  25.255  1.00  0.00     0.001 A 
ATOM     62  C   UNL A   1      42.430  22.503  25.493  1.00  0.00     0.000 A 
ENDBRANCH  43  57
BRANCH  44  63
ATOM     63  C   UNL A   1      42.161  31.202  34.908  1.00  0.00    -0.014 A 
ATOM     64  C   UNL A   1      41.492  30.960  36.120  1.00  0.00     0.009 A 
ATOM     65  C   UNL A   1      42.762  32.456  34.713  1.00  0.00     0.009 A 
ATOM     66  C   UNL A   1      41.388  31.957  37.091  1.00  0.00     0.001 A 
ATOM     67  C   UNL A   1      42.693  33.439  35.705  1.00  0.00     0.001 A 
ATOM     68  C   UNL A   1      41.993  33.195  36.885  1.00  0.00     0.000 A 
ENDBRANCH  44  63
BRANCH  56  69
ATOM     69  C   UNL A   1      46.712  26.304  32.782  1.00  0.00    -0.014 A 
ATOM     70  C   UNL A   1      47.872  26.848  32.204  1.00  0.00     0.009 A 
ATOM     71  C   UNL A   1      46.840  25.248  33.696  1.00  0.00     0.009 A 
ATOM     72  C   UNL A   1      49.129  26.319  32.502  1.00  0.00     0.001 A 
ATOM     73  C   UNL A   1      48.102  24.750  34.025  1.00  0.00     0.001 A 
ATOM     74  C   UNL A   1      49.243  25.273  33.416  1.00  0.00     0.000 A 
ENDBRANCH  56  69
ENDBRANCH  30  31
ENDBRANCH  23  25
ENDBRANCH  22  23
ENDBRANCH   1  22
TORSDOF 13
ENDMDL
MODEL 3
REMARK VINA RESULT:     -11.1      3.715      8.681
REMARK SMILES C#Cc1ccc2c(c1)C=C(C(=O)OCCOC(=O)c1ccc(-c3c4nc(c(-c5ccccc5)c5ccc([nH]5)c(-c5ccccc5)c5nc(c(-c6ccccc6)c6ccc3[nH]6)C=C5)C=C4)cc1)[C@@H](C(F)(F)F)O2
REMARK SMILES IDX 15 1 14 2 13 3 11 4 12 5 10 6 3 7 4 8 8 9 5 10 7 11 6 12
REMARK SMILES IDX 9 13 72 14 67 15 2 16 1 17 68 18 69 19 70 20 71 21 16 22
REMARK SMILES IDX 17 23 18 24 19 25 20 26 66 27 21 28 65 29 22 30 23 31 24 32
REMARK SMILES IDX 59 33 25 34 64 35 58 36 60 37 26 38 63 39 57 40 56 41 27 43
REMARK SMILES IDX 49 44 34 45 48 46 35 47 38 48 47 49 61 50 36 51 37 52 46 54
REMARK SMILES IDX 62 55 39 56 28 57 29 58 33 59 30 60 32 61 31 62 50 63 51 64
REMARK SMILES IDX 55 65 52 66 54 67 53 68 40 69 41 70 45 71 42 72 44 73 43 74
REMARK H PARENT 60 42 38 53
REMARK Flexibility Score: inf
ROOT
ATOM      1  C   UNL A   1      31.431  29.937  25.501  1.00  0.00     0.275 C 
ENDROOT
BRANCH   1   2
ATOM      2  C   UNL A   1      31.279  29.030  24.276  1.00  0.00     0.275 C 
BRANCH   2   3
ATOM      3  O   UNL A   1      32.184  27.904  24.330  1.00  0.00    -0.459 OA
BRANCH   3   4
ATOM      4  C   UNL A   1      31.608  26.682  24.247  1.00  0.00     0.338 C 
ATOM      5  O   UNL A   1      30.415  26.438  24.336  1.00  0.00    -0.246 OA
BRANCH   4   6
ATOM      6  C   UNL A   1      32.621  25.633  23.999  1.00  0.00     0.087 C 
ATOM      7  C   UNL A   1      36.879  23.704  25.169  1.00  0.00     0.025 A 
ATOM      8  C   UNL A   1      36.875  22.975  23.980  1.00  0.00     0.021 A 
ATOM      9  C   UNL A   1      35.785  24.507  25.482  1.00  0.00     0.029 A 
ATOM     10  C   UNL A   1      35.779  23.046  23.109  1.00  0.00     0.048 A 
ATOM     11  C   UNL A   1      34.703  24.594  24.594  1.00  0.00     0.018 A 
ATOM     12  C   UNL A   1      34.690  23.863  23.412  1.00  0.00     0.128 A 
ATOM     13  C   UNL A   1      33.613  25.494  24.885  1.00  0.00     0.027 C 
ATOM     14  O   UNL A   1      33.654  23.896  22.520  1.00  0.00    -0.475 OA
ATOM     15  C   UNL A   1      32.595  24.887  22.697  1.00  0.00     0.316 C 
BRANCH   7  16
ATOM     16  C   UNL A   1      37.997  23.664  26.061  1.00  0.00    -0.070 C 
ATOM     17  C   UNL A   1      38.953  23.667  26.790  1.00  0.00     0.010 C 
ENDBRANCH   7  16
BRANCH  15  18
ATOM     18  C   UNL A   1      32.630  25.868  21.514  1.00  0.00     0.430 C 
ATOM     19  F   UNL A   1      32.943  25.240  20.357  1.00  0.00    -0.167 F 
ATOM     20  F   UNL A   1      31.426  26.460  21.318  1.00  0.00    -0.167 F 
ATOM     21  F   UNL A   1      33.536  26.856  21.700  1.00  0.00    -0.167 F 
ENDBRANCH  15  18
ENDBRANCH   4   6
ENDBRANCH   3   4
ENDBRANCH   2   3
ENDBRANCH   1   2
BRANCH   1  22
ATOM     22  O   UNL A   1      32.817  30.151  25.821  1.00  0.00    -0.458 OA
BRANCH  22  23
ATOM     23  C   UNL A   1      33.036  31.059  26.794  1.00  0.00     0.338 C 
ATOM     24  O   UNL A   1      32.236  31.838  27.283  1.00  0.00    -0.246 OA
BRANCH  23  25
ATOM     25  C   UNL A   1      34.390  30.888  27.330  1.00  0.00     0.060 A 
ATOM     26  C   UNL A   1      35.179  31.961  27.710  1.00  0.00     0.016 A 
ATOM     27  C   UNL A   1      34.797  29.593  27.615  1.00  0.00     0.016 A 
ATOM     28  C   UNL A   1      36.387  31.704  28.368  1.00  0.00     0.010 A 
ATOM     29  C   UNL A   1      35.878  29.353  28.447  1.00  0.00     0.010 A 
ATOM     30  C   UNL A   1      36.732  30.398  28.782  1.00  0.00    -0.014 A 
BRANCH  30  31
ATOM     31  C   UNL A   1      37.988  30.110  29.530  1.00  0.00     0.031 A 
ATOM     32  C   UNL A   1      38.156  30.559  30.967  1.00  0.00     0.074 A 
ATOM     33  C   UNL A   1      38.991  29.458  28.907  1.00  0.00     0.049 A 
ATOM     34  N   UNL A   1      39.157  30.334  31.783  1.00  0.00    -0.248 NA
ATOM     35  C   UNL A   1      37.095  31.391  31.563  1.00  0.00     0.031 C 
ATOM     36  C   UNL A   1      38.989  29.057  27.498  1.00  0.00     0.029 A 
ATOM     37  N   UNL A   1      40.191  28.986  29.381  1.00  0.00    -0.354 N 
ATOM     38  C   UNL A   1      38.843  30.999  32.963  1.00  0.00     0.074 A 
ATOM     39  C   UNL A   1      37.614  31.716  32.737  1.00  0.00     0.031 C 
ATOM     40  C   UNL A   1      40.077  28.314  27.250  1.00  0.00     0.029 A 
ATOM     41  C   UNL A   1      40.890  28.243  28.458  1.00  0.00     0.049 A 
ATOM     42  H   UNL A   1      40.517  29.161  30.293  1.00  0.00     0.167 HD
ATOM     43  C   UNL A   1      39.489  30.972  34.150  1.00  0.00     0.031 A 
ATOM     44  C   UNL A   1      42.050  27.563  28.572  1.00  0.00     0.031 A 
ATOM     45  C   UNL A   1      40.689  30.218  34.383  1.00  0.00     0.049 A 
ATOM     46  C   UNL A   1      42.747  27.541  29.903  1.00  0.00     0.074 A 
ATOM     47  C   UNL A   1      41.382  30.062  35.569  1.00  0.00     0.029 A 
ATOM     48  N   UNL A   1      41.367  29.491  33.418  1.00  0.00    -0.354 N 
ATOM     49  N   UNL A   1      42.377  28.090  31.036  1.00  0.00    -0.248 NA
ATOM     50  C   UNL A   1      44.009  26.792  29.983  1.00  0.00     0.031 C 
ATOM     51  C   UNL A   1      42.528  29.314  35.302  1.00  0.00     0.029 A 
ATOM     52  C   UNL A   1      42.494  28.916  33.975  1.00  0.00     0.049 A 
ATOM     53  H   UNL A   1      41.088  29.398  32.478  1.00  0.00     0.167 HD
ATOM     54  C   UNL A   1      43.346  27.736  31.966  1.00  0.00     0.074 A 
ATOM     55  C   UNL A   1      44.305  26.902  31.272  1.00  0.00     0.031 C 
ATOM     56  C   UNL A   1      43.434  28.078  33.274  1.00  0.00     0.031 A 
BRANCH  43  57
ATOM     57  C   UNL A   1      38.902  31.733  35.313  1.00  0.00    -0.014 A 
ATOM     58  C   UNL A   1      39.232  33.084  35.503  1.00  0.00     0.009 A 
ATOM     59  C   UNL A   1      38.133  31.083  36.292  1.00  0.00     0.009 A 
ATOM     60  C   UNL A   1      38.836  33.757  36.662  1.00  0.00     0.001 A 
ATOM     61  C   UNL A   1      37.703  31.769  37.430  1.00  0.00     0.001 A 
ATOM     62  C   UNL A   1      38.070  33.100  37.622  1.00  0.00     0.000 A 
ENDBRANCH  43  57
BRANCH  44  63
ATOM     63  C   UNL A   1      42.572  26.809  27.397  1.00  0.00    -0.014 A 
ATOM     64  C   UNL A   1      42.233  25.458  27.204  1.00  0.00     0.009 A 
ATOM     65  C   UNL A   1      43.469  27.410  26.501  1.00  0.00     0.009 A 
ATOM     66  C   UNL A   1      42.810  24.718  26.170  1.00  0.00     0.001 A 
ATOM     67  C   UNL A   1      44.012  26.678  25.441  1.00  0.00     0.001 A 
ATOM     68  C   UNL A   1      43.695  25.330  25.285  1.00  0.00     0.000 A 
ENDBRANCH  44  63
BRANCH  56  69
ATOM     69  C   UNL A   1      44.595  27.550  34.074  1.00  0.00    -0.014 A 
ATOM     70  C   UNL A   1      44.467  26.330  34.758  1.00  0.00     0.009 A 
ATOM     71  C   UNL A   1      45.747  28.324  34.275  1.00  0.00     0.009 A 
ATOM     72  C   UNL A   1      45.452  25.912  35.655  1.00  0.00     0.001 A 
ATOM     73  C   UNL A   1      46.751  27.882  35.140  1.00  0.00     0.001 A 
ATOM     74  C   UNL A   1      46.594  26.687  35.841  1.00  0.00     0.000 A 
ENDBRANCH  56  69
ENDBRANCH  30  31
ENDBRANCH  23  25
ENDBRANCH  22  23
ENDBRANCH   1  22
TORSDOF 13
ENDMDL
