MODEL 1
REMARK VINA RESULT:      -9.7      0.000      0.000
REMARK SMILES C[N@H+]1CCO[C@@H](COc2ccc(C(=O)OCCOC(=O)c3ccc(-c4c5nc(c(-c6ccccc6)c6ccc([nH]6)c(-c6ccccc6)c6nc(c(-c7ccccc7)c7ccc4[nH]7)C=C6)C=C5)cc3)cc2N)C1
REMARK SMILES IDX 16 1 15 2 13 3 14 4 12 5 9 6 10 7 70 8 11 9 69 10 8 11 7 12
REMARK SMILES IDX 6 13 1 14 2 15 3 16 72 17 4 19 5 20 71 21 17 24 18 25 19 26
REMARK SMILES IDX 20 27 21 28 22 29 68 30 23 31 67 32 24 33 25 34 26 35 61 36
REMARK SMILES IDX 27 37 66 38 60 39 62 40 28 41 65 42 59 43 58 44 29 46 51 47
REMARK SMILES IDX 36 48 50 49 37 50 40 51 49 52 63 53 38 54 39 55 48 57 64 58
REMARK SMILES IDX 41 59 30 60 31 61 35 62 32 63 34 64 33 65 52 66 53 67 57 68
REMARK SMILES IDX 54 69 56 70 55 71 42 72 43 73 47 74 44 75 46 76 45 77
REMARK H PARENT 2 18 71 22 71 23 62 45 40 56
REMARK Flexibility Score: inf
ROOT
ATOM      1  C   UNL A   1      42.490  18.981  26.795  1.00  0.00     0.275 C 
ENDROOT
BRANCH   1   2
ATOM      2  O   UNL A   1      41.598  19.977  26.262  1.00  0.00    -0.458 OA
BRANCH   2   3
ATOM      3  C   UNL A   1      41.684  21.204  26.824  1.00  0.00     0.338 C 
ATOM      4  O   UNL A   1      42.674  21.691  27.349  1.00  0.00    -0.246 OA
BRANCH   3   5
ATOM      5  C   UNL A   1      40.413  21.959  26.673  1.00  0.00     0.062 A 
ATOM      6  C   UNL A   1      38.070  23.351  26.150  1.00  0.00     0.142 A 
ATOM      7  C   UNL A   1      38.209  22.051  25.669  1.00  0.00     0.049 A 
ATOM      8  C   UNL A   1      39.017  23.914  27.026  1.00  0.00     0.075 A 
ATOM      9  C   UNL A   1      39.392  21.366  25.912  1.00  0.00     0.019 A 
ATOM     10  C   UNL A   1      40.208  23.219  27.252  1.00  0.00     0.045 A 
BRANCH   6  11
ATOM     11  O   UNL A   1      37.020  24.135  25.749  1.00  0.00    -0.488 OA
BRANCH  11  12
ATOM     12  C   UNL A   1      36.243  23.514  24.705  1.00  0.00     0.267 C 
BRANCH  12  13
ATOM     13  C   UNL A   1      34.718  23.709  24.856  1.00  0.00     0.210 C 
ATOM     14  C   UNL A   1      34.583  20.382  24.904  1.00  0.00     0.332 C 
ATOM     15  N   UNL A   1      33.548  21.393  25.044  1.00  0.00    -0.333 N 
ATOM     16  C   UNL A   1      33.291  21.759  26.442  1.00  0.00     0.290 C 
ATOM     17  C   UNL A   1      33.788  22.616  24.253  1.00  0.00     0.298 C 
ATOM     18  H   UNL A   1      32.718  20.940  24.662  1.00  0.00     0.348 HD
ATOM     19  C   UNL A   1      34.326  22.736  27.012  1.00  0.00     0.222 C 
ATOM     20  O   UNL A   1      34.383  23.944  26.244  1.00  0.00    -0.363 OA
ENDBRANCH  12  13
ENDBRANCH  11  12
ENDBRANCH   6  11
BRANCH   8  21
ATOM     21  N   UNL A   1      38.882  25.233  27.459  1.00  0.00    -0.396 N 
ATOM     22  H   UNL A   1      38.775  25.427  28.418  1.00  0.00     0.156 HD
ATOM     23  H   UNL A   1      38.895  25.969  26.805  1.00  0.00     0.156 HD
ENDBRANCH   8  21
ENDBRANCH   3   5
ENDBRANCH   2   3
ENDBRANCH   1   2
BRANCH   1  24
ATOM     24  C   UNL A   1      43.353  18.392  25.680  1.00  0.00     0.275 C 
BRANCH  24  25
ATOM     25  O   UNL A   1      43.510  19.338  24.604  1.00  0.00    -0.458 OA
BRANCH  25  26
ATOM     26  C   UNL A   1      44.787  19.624  24.260  1.00  0.00     0.338 C 
ATOM     27  O   UNL A   1      45.595  18.898  23.708  1.00  0.00    -0.246 OA
BRANCH  26  28
ATOM     28  C   UNL A   1      45.067  21.031  24.579  1.00  0.00     0.060 A 
ATOM     29  C   UNL A   1      45.712  21.321  25.780  1.00  0.00     0.016 A 
ATOM     30  C   UNL A   1      44.600  22.061  23.765  1.00  0.00     0.016 A 
ATOM     31  C   UNL A   1      45.870  22.639  26.197  1.00  0.00     0.010 A 
ATOM     32  C   UNL A   1      44.794  23.391  24.164  1.00  0.00     0.010 A 
ATOM     33  C   UNL A   1      45.413  23.689  25.393  1.00  0.00    -0.014 A 
BRANCH  33  34
ATOM     34  C   UNL A   1      45.525  25.087  25.879  1.00  0.00     0.031 A 
ATOM     35  C   UNL A   1      46.844  25.806  25.796  1.00  0.00     0.074 A 
ATOM     36  C   UNL A   1      44.440  25.739  26.341  1.00  0.00     0.049 A 
ATOM     37  N   UNL A   1      47.175  26.983  26.265  1.00  0.00    -0.248 NA
ATOM     38  C   UNL A   1      47.933  25.109  25.094  1.00  0.00     0.031 C 
ATOM     39  C   UNL A   1      43.083  25.191  26.406  1.00  0.00     0.029 A 
ATOM     40  N   UNL A   1      44.307  27.014  26.831  1.00  0.00    -0.354 N 
ATOM     41  C   UNL A   1      48.517  27.150  25.948  1.00  0.00     0.074 A 
ATOM     42  C   UNL A   1      48.941  25.954  25.252  1.00  0.00     0.031 C 
ATOM     43  C   UNL A   1      42.251  26.136  26.874  1.00  0.00     0.029 A 
ATOM     44  C   UNL A   1      43.024  27.328  27.207  1.00  0.00     0.049 A 
ATOM     45  H   UNL A   1      45.060  27.643  26.907  1.00  0.00     0.167 HD
ATOM     46  C   UNL A   1      49.325  28.206  26.211  1.00  0.00     0.031 A 
ATOM     47  C   UNL A   1      42.530  28.442  27.781  1.00  0.00     0.031 A 
ATOM     48  C   UNL A   1      48.903  29.406  26.882  1.00  0.00     0.049 A 
ATOM     49  C   UNL A   1      43.459  29.571  28.122  1.00  0.00     0.074 A 
ATOM     50  C   UNL A   1      49.658  30.515  27.224  1.00  0.00     0.029 A 
ATOM     51  N   UNL A   1      47.606  29.661  27.297  1.00  0.00    -0.354 N 
ATOM     52  N   UNL A   1      44.744  29.685  27.884  1.00  0.00    -0.248 NA
ATOM     53  C   UNL A   1      42.872  30.721  28.826  1.00  0.00     0.031 C 
ATOM     54  C   UNL A   1      48.821  31.431  27.870  1.00  0.00     0.029 A 
ATOM     55  C   UNL A   1      47.539  30.907  27.894  1.00  0.00     0.049 A 
ATOM     56  H   UNL A   1      46.845  29.046  27.183  1.00  0.00     0.167 HD
ATOM     57  C   UNL A   1      45.114  30.920  28.397  1.00  0.00     0.074 A 
ATOM     58  C   UNL A   1      43.917  31.528  28.940  1.00  0.00     0.031 C 
ATOM     59  C   UNL A   1      46.340  31.498  28.424  1.00  0.00     0.031 A 
BRANCH  46  60
ATOM     60  C   UNL A   1      50.764  28.090  25.801  1.00  0.00    -0.014 A 
ATOM     61  C   UNL A   1      51.197  28.507  24.535  1.00  0.00     0.009 A 
ATOM     62  C   UNL A   1      51.705  27.581  26.712  1.00  0.00     0.009 A 
ATOM     63  C   UNL A   1      52.543  28.395  24.178  1.00  0.00     0.001 A 
ATOM     64  C   UNL A   1      53.052  27.491  26.360  1.00  0.00     0.001 A 
ATOM     65  C   UNL A   1      53.470  27.891  25.092  1.00  0.00     0.000 A 
ENDBRANCH  46  60
BRANCH  47  66
ATOM     66  C   UNL A   1      41.084  28.533  28.114  1.00  0.00    -0.014 A 
ATOM     67  C   UNL A   1      40.181  29.118  27.214  1.00  0.00     0.009 A 
ATOM     68  C   UNL A   1      40.606  28.058  29.345  1.00  0.00     0.009 A 
ATOM     69  C   UNL A   1      38.830  29.244  27.551  1.00  0.00     0.001 A 
ATOM     70  C   UNL A   1      39.252  28.161  29.667  1.00  0.00     0.001 A 
ATOM     71  C   UNL A   1      38.367  28.762  28.773  1.00  0.00     0.000 A 
ENDBRANCH  47  66
BRANCH  59  72
ATOM     72  C   UNL A   1      46.434  32.867  29.030  1.00  0.00    -0.014 A 
ATOM     73  C   UNL A   1      46.240  34.018  28.252  1.00  0.00     0.009 A 
ATOM     74  C   UNL A   1      46.697  33.003  30.402  1.00  0.00     0.009 A 
ATOM     75  C   UNL A   1      46.338  35.284  28.833  1.00  0.00     0.001 A 
ATOM     76  C   UNL A   1      46.773  34.270  30.983  1.00  0.00     0.001 A 
ATOM     77  C   UNL A   1      46.601  35.408  30.197  1.00  0.00     0.000 A 
ENDBRANCH  59  72
ENDBRANCH  33  34
ENDBRANCH  26  28
ENDBRANCH  25  26
ENDBRANCH  24  25
ENDBRANCH   1  24
TORSDOF 15
ENDMDL
MODEL 2
REMARK VINA RESULT:      -9.6      4.521      6.778
REMARK SMILES C[N@H+]1CCO[C@@H](COc2ccc(C(=O)OCCOC(=O)c3ccc(-c4c5nc(c(-c6ccccc6)c6ccc([nH]6)c(-c6ccccc6)c6nc(c(-c7ccccc7)c7ccc4[nH]7)C=C6)C=C5)cc3)cc2N)C1
REMARK SMILES IDX 16 1 15 2 13 3 14 4 12 5 9 6 10 7 70 8 11 9 69 10 8 11 7 12
REMARK SMILES IDX 6 13 1 14 2 15 3 16 72 17 4 19 5 20 71 21 17 24 18 25 19 26
REMARK SMILES IDX 20 27 21 28 22 29 68 30 23 31 67 32 24 33 25 34 26 35 61 36
REMARK SMILES IDX 27 37 66 38 60 39 62 40 28 41 65 42 59 43 58 44 29 46 51 47
REMARK SMILES IDX 36 48 50 49 37 50 40 51 49 52 63 53 38 54 39 55 48 57 64 58
REMARK SMILES IDX 41 59 30 60 31 61 35 62 32 63 34 64 33 65 52 66 53 67 57 68
REMARK SMILES IDX 54 69 56 70 55 71 42 72 43 73 47 74 44 75 46 76 45 77
REMARK H PARENT 2 18 71 22 71 23 62 45 40 56
REMARK Flexibility Score: inf
ROOT
ATOM      1  C   UNL A   1      42.609  20.317  26.123  1.00  0.00     0.275 C 
ENDROOT
BRANCH   1   2
ATOM      2  O   UNL A   1      41.248  20.650  25.798  1.00  0.00    -0.458 OA
BRANCH   2   3
ATOM      3  C   UNL A   1      40.513  21.173  26.806  1.00  0.00     0.338 C 
ATOM      4  O   UNL A   1      40.756  21.082  28.000  1.00  0.00    -0.246 OA
BRANCH   3   5
ATOM      5  C   UNL A   1      39.366  21.963  26.287  1.00  0.00     0.062 A 
ATOM      6  C   UNL A   1      37.161  23.477  25.549  1.00  0.00     0.142 A 
ATOM      7  C   UNL A   1      38.148  24.058  26.342  1.00  0.00     0.049 A 
ATOM      8  C   UNL A   1      37.332  22.200  24.984  1.00  0.00     0.075 A 
ATOM      9  C   UNL A   1      39.239  23.290  26.730  1.00  0.00     0.019 A 
ATOM     10  C   UNL A   1      38.427  21.434  25.391  1.00  0.00     0.045 A 
BRANCH   6  11
ATOM     11  O   UNL A   1      35.972  24.124  25.330  1.00  0.00    -0.488 OA
BRANCH  11  12
ATOM     12  C   UNL A   1      34.921  23.637  26.188  1.00  0.00     0.267 C 
BRANCH  12  13
ATOM     13  C   UNL A   1      33.619  24.465  26.118  1.00  0.00     0.210 C 
ATOM     14  C   UNL A   1      33.358  23.262  23.023  1.00  0.00     0.332 C 
ATOM     15  N   UNL A   1      32.484  24.126  23.801  1.00  0.00    -0.333 N 
ATOM     16  C   UNL A   1      31.454  23.383  24.538  1.00  0.00     0.290 C 
ATOM     17  C   UNL A   1      33.195  25.027  24.728  1.00  0.00     0.298 C 
ATOM     18  H   UNL A   1      32.032  24.707  23.095  1.00  0.00     0.348 HD
ATOM     19  C   UNL A   1      31.976  22.743  25.829  1.00  0.00     0.222 C 
ATOM     20  O   UNL A   1      32.527  23.726  26.713  1.00  0.00    -0.363 OA
ENDBRANCH  12  13
ENDBRANCH  11  12
ENDBRANCH   6  11
BRANCH   8  21
ATOM     21  N   UNL A   1      36.312  21.619  24.231  1.00  0.00    -0.396 N 
ATOM     22  H   UNL A   1      35.402  21.992  24.264  1.00  0.00     0.156 HD
ATOM     23  H   UNL A   1      36.502  20.835  23.666  1.00  0.00     0.156 HD
ENDBRANCH   8  21
ENDBRANCH   3   5
ENDBRANCH   2   3
ENDBRANCH   1   2
BRANCH   1  24
ATOM     24  C   UNL A   1      43.571  21.269  25.413  1.00  0.00     0.275 C 
BRANCH  24  25
ATOM     25  O   UNL A   1      42.928  22.529  25.135  1.00  0.00    -0.458 OA
BRANCH  25  26
ATOM     26  C   UNL A   1      43.750  23.601  25.070  1.00  0.00     0.338 C 
ATOM     27  O   UNL A   1      44.565  23.870  24.205  1.00  0.00    -0.246 OA
BRANCH  26  28
ATOM     28  C   UNL A   1      43.461  24.498  26.199  1.00  0.00     0.060 A 
ATOM     29  C   UNL A   1      42.697  24.007  27.255  1.00  0.00     0.016 A 
ATOM     30  C   UNL A   1      43.836  25.839  26.167  1.00  0.00     0.016 A 
ATOM     31  C   UNL A   1      42.274  24.853  28.275  1.00  0.00     0.010 A 
ATOM     32  C   UNL A   1      43.445  26.686  27.213  1.00  0.00     0.010 A 
ATOM     33  C   UNL A   1      42.643  26.202  28.265  1.00  0.00    -0.014 A 
BRANCH  33  34
ATOM     34  C   UNL A   1      42.129  27.111  29.321  1.00  0.00     0.031 A 
ATOM     35  C   UNL A   1      42.906  27.293  30.597  1.00  0.00     0.074 A 
ATOM     36  C   UNL A   1      41.000  27.819  29.122  1.00  0.00     0.049 A 
ATOM     37  N   UNL A   1      42.575  27.951  31.679  1.00  0.00    -0.248 NA
ATOM     38  C   UNL A   1      44.228  26.651  30.662  1.00  0.00     0.031 C 
ATOM     39  C   UNL A   1      40.189  27.800  27.904  1.00  0.00     0.029 A 
ATOM     40  N   UNL A   1      40.350  28.708  29.942  1.00  0.00    -0.354 N 
ATOM     41  C   UNL A   1      43.629  27.771  32.566  1.00  0.00     0.074 A 
ATOM     42  C   UNL A   1      44.608  26.938  31.899  1.00  0.00     0.031 C 
ATOM     43  C   UNL A   1      39.169  28.663  28.043  1.00  0.00     0.029 A 
ATOM     44  C   UNL A   1      39.215  29.242  29.382  1.00  0.00     0.049 A 
ATOM     45  H   UNL A   1      40.665  28.939  30.845  1.00  0.00     0.167 HD
ATOM     46  C   UNL A   1      43.771  28.254  33.823  1.00  0.00     0.031 A 
ATOM     47  C   UNL A   1      38.299  30.083  29.899  1.00  0.00     0.031 A 
ATOM     48  C   UNL A   1      42.812  29.100  34.483  1.00  0.00     0.049 A 
ATOM     49  C   UNL A   1      38.445  30.552  31.318  1.00  0.00     0.074 A 
ATOM     50  C   UNL A   1      42.853  29.612  35.769  1.00  0.00     0.029 A 
ATOM     51  N   UNL A   1      41.648  29.572  33.900  1.00  0.00    -0.354 N 
ATOM     52  N   UNL A   1      39.411  30.312  32.172  1.00  0.00    -0.248 NA
ATOM     53  C   UNL A   1      37.366  31.397  31.850  1.00  0.00     0.031 C 
ATOM     54  C   UNL A   1      41.697  30.374  35.972  1.00  0.00     0.029 A 
ATOM     55  C   UNL A   1      40.960  30.367  34.800  1.00  0.00     0.049 A 
ATOM     56  H   UNL A   1      41.354  29.373  32.982  1.00  0.00     0.167 HD
ATOM     57  C   UNL A   1      39.061  30.986  33.334  1.00  0.00     0.074 A 
ATOM     58  C   UNL A   1      37.807  31.660  33.071  1.00  0.00     0.031 C 
ATOM     59  C   UNL A   1      39.717  31.034  34.520  1.00  0.00     0.031 A 
BRANCH  46  60
ATOM     60  C   UNL A   1      45.000  27.846  34.584  1.00  0.00    -0.014 A 
ATOM     61  C   UNL A   1      45.031  26.665  35.338  1.00  0.00     0.009 A 
ATOM     62  C   UNL A   1      46.153  28.645  34.516  1.00  0.00     0.009 A 
ATOM     63  C   UNL A   1      46.187  26.303  36.032  1.00  0.00     0.001 A 
ATOM     64  C   UNL A   1      47.313  28.268  35.193  1.00  0.00     0.001 A 
ATOM     65  C   UNL A   1      47.329  27.102  35.956  1.00  0.00     0.000 A 
ENDBRANCH  46  60
BRANCH  47  66
ATOM     66  C   UNL A   1      37.129  30.506  29.085  1.00  0.00    -0.014 A 
ATOM     67  C   UNL A   1      37.005  31.835  28.653  1.00  0.00     0.009 A 
ATOM     68  C   UNL A   1      36.118  29.588  28.760  1.00  0.00     0.009 A 
ATOM     69  C   UNL A   1      35.881  32.240  27.928  1.00  0.00     0.001 A 
ATOM     70  C   UNL A   1      35.009  29.989  28.013  1.00  0.00     0.001 A 
ATOM     71  C   UNL A   1      34.888  31.316  27.606  1.00  0.00     0.000 A 
ENDBRANCH  47  66
BRANCH  59  72
ATOM     72  C   UNL A   1      39.104  31.872  35.603  1.00  0.00    -0.014 A 
ATOM     73  C   UNL A   1      38.205  31.317  36.526  1.00  0.00     0.009 A 
ATOM     74  C   UNL A   1      39.451  33.227  35.714  1.00  0.00     0.009 A 
ATOM     75  C   UNL A   1      37.640  32.114  37.524  1.00  0.00     0.001 A 
ATOM     76  C   UNL A   1      38.900  34.015  36.726  1.00  0.00     0.001 A 
ATOM     77  C   UNL A   1      37.990  33.460  37.624  1.00  0.00     0.000 A 
ENDBRANCH  59  72
ENDBRANCH  33  34
ENDBRANCH  26  28
ENDBRANCH  25  26
ENDBRANCH  24  25
ENDBRANCH   1  24
TORSDOF 15
ENDMDL
MODEL 3
REMARK VINA RESULT:      -9.6      4.022      9.248
REMARK SMILES C[N@H+]1CCO[C@@H](COc2ccc(C(=O)OCCOC(=O)c3ccc(-c4c5nc(c(-c6ccccc6)c6ccc([nH]6)c(-c6ccccc6)c6nc(c(-c7ccccc7)c7ccc4[nH]7)C=C6)C=C5)cc3)cc2N)C1
REMARK SMILES IDX 16 1 15 2 13 3 14 4 12 5 9 6 10 7 70 8 11 9 69 10 8 11 7 12
REMARK SMILES IDX 6 13 1 14 2 15 3 16 72 17 4 19 5 20 71 21 17 24 18 25 19 26
REMARK SMILES IDX 20 27 21 28 22 29 68 30 23 31 67 32 24 33 25 34 26 35 61 36
REMARK SMILES IDX 27 37 66 38 60 39 62 40 28 41 65 42 59 43 58 44 29 46 51 47
REMARK SMILES IDX 36 48 50 49 37 50 40 51 49 52 63 53 38 54 39 55 48 57 64 58
REMARK SMILES IDX 41 59 30 60 31 61 35 62 32 63 34 64 33 65 52 66 53 67 57 68
REMARK SMILES IDX 54 69 56 70 55 71 42 72 43 73 47 74 44 75 46 76 45 77
REMARK H PARENT 2 18 71 22 71 23 62 45 40 56
REMARK Flexibility Score: inf
ROOT
ATOM      1  C   UNL A   1      34.157  33.791  29.991  1.00  0.00     0.275 C 
ENDROOT
BRANCH   1   2
ATOM      2  O   UNL A   1      34.032  32.482  29.408  1.00  0.00    -0.458 OA
BRANCH   2   3
ATOM      3  C   UNL A   1      34.519  32.348  28.153  1.00  0.00     0.338 C 
ATOM      4  O   UNL A   1      35.401  33.023  27.644  1.00  0.00    -0.246 OA
BRANCH   3   5
ATOM      5  C   UNL A   1      33.890  31.201  27.448  1.00  0.00     0.062 A 
ATOM      6  C   UNL A   1      32.926  29.030  26.013  1.00  0.00     0.142 A 
ATOM      7  C   UNL A   1      34.039  28.862  26.832  1.00  0.00     0.049 A 
ATOM      8  C   UNL A   1      32.185  30.227  26.020  1.00  0.00     0.075 A 
ATOM      9  C   UNL A   1      34.535  29.955  27.530  1.00  0.00     0.019 A 
ATOM     10  C   UNL A   1      32.700  31.323  26.717  1.00  0.00     0.045 A 
BRANCH   6  11
ATOM     11  O   UNL A   1      32.542  28.042  25.144  1.00  0.00    -0.488 OA
BRANCH  11  12
ATOM     12  C   UNL A   1      32.642  26.730  25.733  1.00  0.00     0.267 C 
BRANCH  12  13
ATOM     13  C   UNL A   1      31.286  26.131  26.168  1.00  0.00     0.210 C 
ATOM     14  C   UNL A   1      31.445  24.427  23.310  1.00  0.00     0.332 C 
ATOM     15  N   UNL A   1      30.469  24.418  24.388  1.00  0.00    -0.333 N 
ATOM     16  C   UNL A   1      30.748  23.396  25.404  1.00  0.00     0.290 C 
ATOM     17  C   UNL A   1      30.284  25.726  25.047  1.00  0.00     0.298 C 
ATOM     18  H   UNL A   1      29.595  24.186  23.917  1.00  0.00     0.348 HD
ATOM     19  C   UNL A   1      31.843  23.810  26.395  1.00  0.00     0.222 C 
ATOM     20  O   UNL A   1      31.500  25.024  27.074  1.00  0.00    -0.363 OA
ENDBRANCH  12  13
ENDBRANCH  11  12
ENDBRANCH   6  11
BRANCH   8  21
ATOM     21  N   UNL A   1      31.101  30.391  25.159  1.00  0.00    -0.396 N 
ATOM     22  H   UNL A   1      30.325  30.927  25.441  1.00  0.00     0.156 HD
ATOM     23  H   UNL A   1      31.111  29.971  24.268  1.00  0.00     0.156 HD
ENDBRANCH   8  21
ENDBRANCH   3   5
ENDBRANCH   2   3
ENDBRANCH   1   2
BRANCH   1  24
ATOM     24  C   UNL A   1      34.594  33.682  31.452  1.00  0.00     0.275 C 
BRANCH  24  25
ATOM     25  O   UNL A   1      34.850  32.308  31.805  1.00  0.00    -0.458 OA
BRANCH  25  26
ATOM     26  C   UNL A   1      35.908  32.103  32.622  1.00  0.00     0.338 C 
ATOM     27  O   UNL A   1      35.991  32.338  33.814  1.00  0.00    -0.246 OA
BRANCH  26  28
ATOM     28  C   UNL A   1      36.982  31.445  31.862  1.00  0.00     0.060 A 
ATOM     29  C   UNL A   1      37.965  30.755  32.569  1.00  0.00     0.016 A 
ATOM     30  C   UNL A   1      37.086  31.601  30.482  1.00  0.00     0.016 A 
ATOM     31  C   UNL A   1      39.077  30.241  31.911  1.00  0.00     0.010 A 
ATOM     32  C   UNL A   1      38.186  31.049  29.811  1.00  0.00     0.010 A 
ATOM     33  C   UNL A   1      39.200  30.382  30.525  1.00  0.00    -0.014 A 
BRANCH  33  34
ATOM     34  C   UNL A   1      40.424  29.890  29.843  1.00  0.00     0.031 A 
ATOM     35  C   UNL A   1      41.607  30.804  29.674  1.00  0.00     0.074 A 
ATOM     36  C   UNL A   1      40.505  28.612  29.423  1.00  0.00     0.049 A 
ATOM     37  N   UNL A   1      42.720  30.602  29.015  1.00  0.00    -0.248 NA
ATOM     38  C   UNL A   1      41.528  32.116  30.336  1.00  0.00     0.031 C 
ATOM     39  C   UNL A   1      39.465  27.595  29.590  1.00  0.00     0.029 A 
ATOM     40  N   UNL A   1      41.521  27.947  28.783  1.00  0.00    -0.354 N 
ATOM     41  C   UNL A   1      43.455  31.774  29.150  1.00  0.00     0.074 A 
ATOM     42  C   UNL A   1      42.662  32.683  29.949  1.00  0.00     0.031 C 
ATOM     43  C   UNL A   1      39.910  26.428  29.096  1.00  0.00     0.029 A 
ATOM     44  C   UNL A   1      41.234  26.630  28.517  1.00  0.00     0.049 A 
ATOM     45  H   UNL A   1      42.373  28.373  28.535  1.00  0.00     0.167 HD
ATOM     46  C   UNL A   1      44.681  32.066  28.654  1.00  0.00     0.031 A 
ATOM     47  C   UNL A   1      41.946  25.697  27.857  1.00  0.00     0.031 A 
ATOM     48  C   UNL A   1      45.484  31.159  27.879  1.00  0.00     0.049 A 
ATOM     49  C   UNL A   1      43.274  26.067  27.260  1.00  0.00     0.074 A 
ATOM     50  C   UNL A   1      46.724  31.378  27.305  1.00  0.00     0.029 A 
ATOM     51  N   UNL A   1      45.131  29.852  27.585  1.00  0.00    -0.354 N 
ATOM     52  N   UNL A   1      43.923  27.204  27.332  1.00  0.00    -0.248 NA
ATOM     53  C   UNL A   1      43.959  25.028  26.478  1.00  0.00     0.031 C 
ATOM     54  C   UNL A   1      47.111  30.209  26.640  1.00  0.00     0.029 A 
ATOM     55  C   UNL A   1      46.128  29.253  26.835  1.00  0.00     0.049 A 
ATOM     56  H   UNL A   1      44.296  29.415  27.868  1.00  0.00     0.167 HD
ATOM     57  C   UNL A   1      45.097  27.012  26.616  1.00  0.00     0.074 A 
ATOM     58  C   UNL A   1      45.081  25.646  26.136  1.00  0.00     0.031 C 
ATOM     59  C   UNL A   1      46.098  27.892  26.370  1.00  0.00     0.031 A 
BRANCH  46  60
ATOM     60  C   UNL A   1      45.215  33.447  28.908  1.00  0.00    -0.014 A 
ATOM     61  C   UNL A   1      46.023  33.722  30.020  1.00  0.00     0.009 A 
ATOM     62  C   UNL A   1      44.925  34.479  28.001  1.00  0.00     0.009 A 
ATOM     63  C   UNL A   1      46.513  35.013  30.233  1.00  0.00     0.001 A 
ATOM     64  C   UNL A   1      45.434  35.762  28.205  1.00  0.00     0.001 A 
ATOM     65  C   UNL A   1      46.221  36.031  29.323  1.00  0.00     0.000 A 
ENDBRANCH  46  60
BRANCH  47  66
ATOM     66  C   UNL A   1      41.401  24.325  27.682  1.00  0.00    -0.014 A 
ATOM     67  C   UNL A   1      41.900  23.258  28.444  1.00  0.00     0.009 A 
ATOM     68  C   UNL A   1      40.397  24.073  26.734  1.00  0.00     0.009 A 
ATOM     69  C   UNL A   1      41.418  21.961  28.244  1.00  0.00     0.001 A 
ATOM     70  C   UNL A   1      39.898  22.782  26.556  1.00  0.00     0.001 A 
ATOM     71  C   UNL A   1      40.416  21.726  27.305  1.00  0.00     0.000 A 
ENDBRANCH  47  66
BRANCH  59  72
ATOM     72  C   UNL A   1      47.267  27.390  25.576  1.00  0.00    -0.014 A 
ATOM     73  C   UNL A   1      47.324  27.560  24.184  1.00  0.00     0.009 A 
ATOM     74  C   UNL A   1      48.335  26.761  26.233  1.00  0.00     0.009 A 
ATOM     75  C   UNL A   1      48.418  27.080  23.461  1.00  0.00     0.001 A 
ATOM     76  C   UNL A   1      49.437  26.302  25.510  1.00  0.00     0.001 A 
ATOM     77  C   UNL A   1      49.473  26.455  24.125  1.00  0.00     0.000 A 
ENDBRANCH  59  72
ENDBRANCH  33  34
ENDBRANCH  26  28
ENDBRANCH  25  26
ENDBRANCH  24  25
ENDBRANCH   1  24
TORSDOF 15
ENDMDL
