MODEL 1
REMARK VINA RESULT:     -10.3      0.000      0.000
REMARK SMILES C[C@@H](NC1=[NH+]CCC1)C(=O)OCCOC(=O)c1ccc(-c2c3nc(c(-c4ccccc4)c4ccc([nH]4)c(-c4ccccc4)c4nc(c(-c5ccccc5)c5ccc2[nH]5)C=C4)C=C3)cc1
REMARK SMILES IDX 13 1 12 2 11 3 9 4 10 5 2 6 1 7 3 8 4 9 5 11 8 12 6 13 7 15
REMARK SMILES IDX 14 16 15 17 16 18 17 19 18 20 64 21 19 22 63 23 20 24 21 25
REMARK SMILES IDX 22 26 57 27 23 28 62 29 56 30 58 31 24 32 61 33 55 34 54 35
REMARK SMILES IDX 25 37 47 38 32 39 46 40 33 41 36 42 45 43 59 44 34 45 35 46
REMARK SMILES IDX 44 48 60 49 37 50 26 51 27 52 31 53 28 54 30 55 29 56 48 57
REMARK SMILES IDX 49 58 53 59 50 60 52 61 51 62 38 63 39 64 43 65 40 66 42 67
REMARK SMILES IDX 41 68
REMARK H PARENT 3 10 5 14 58 36 36 47
REMARK Flexibility Score: inf
ROOT
ATOM      1  C   UNL A   1      36.084  34.314  33.634  1.00  0.00     0.275 C 
ENDROOT
BRANCH   1   2
ATOM      2  C   UNL A   1      34.789  35.135  33.692  1.00  0.00     0.274 C 
BRANCH   2   3
ATOM      3  O   UNL A   1      34.922  36.443  33.100  1.00  0.00    -0.459 OA
BRANCH   3   4
ATOM      4  C   UNL A   1      33.766  37.037  32.697  1.00  0.00     0.350 C 
ATOM      5  O   UNL A   1      33.503  38.224  32.872  1.00  0.00    -0.247 OA
BRANCH   4   6
ATOM      6  C   UNL A   1      32.786  36.064  32.036  1.00  0.00     0.279 C 
ATOM      7  C   UNL A   1      31.428  36.083  32.739  1.00  0.00     0.071 C 
BRANCH   6   8
ATOM      8  N   UNL A   1      32.573  36.284  30.607  1.00  0.00    -0.265 N 
ATOM      9  C   UNL A   1      33.280  35.776  29.563  1.00  0.00     0.243 C 
ATOM     10  H   UNL A   1      31.822  36.875  30.369  1.00  0.00     0.305 HD
ATOM     11  N   UNL A   1      33.602  36.559  28.573  1.00  0.00    -0.279 N 
ATOM     12  C   UNL A   1      33.683  34.338  29.401  1.00  0.00     0.131 C 
ATOM     13  C   UNL A   1      34.402  35.726  27.656  1.00  0.00     0.234 C 
ATOM     14  H   UNL A   1      33.361  37.507  28.462  1.00  0.00     0.304 HD
ATOM     15  C   UNL A   1      34.865  34.544  28.488  1.00  0.00     0.058 C 
ENDBRANCH   6   8
ENDBRANCH   4   6
ENDBRANCH   3   4
ENDBRANCH   2   3
ENDBRANCH   1   2
BRANCH   1  16
ATOM     16  O   UNL A   1      35.836  32.899  33.740  1.00  0.00    -0.458 OA
BRANCH  16  17
ATOM     17  C   UNL A   1      35.338  32.323  32.621  1.00  0.00     0.338 C 
ATOM     18  O   UNL A   1      34.201  32.418  32.190  1.00  0.00    -0.246 OA
BRANCH  17  19
ATOM     19  C   UNL A   1      36.422  31.685  31.852  1.00  0.00     0.060 A 
ATOM     20  C   UNL A   1      37.424  31.027  32.576  1.00  0.00     0.016 A 
ATOM     21  C   UNL A   1      36.495  31.771  30.462  1.00  0.00     0.016 A 
ATOM     22  C   UNL A   1      38.501  30.447  31.918  1.00  0.00     0.010 A 
ATOM     23  C   UNL A   1      37.592  31.206  29.800  1.00  0.00     0.010 A 
ATOM     24  C   UNL A   1      38.603  30.555  30.527  1.00  0.00    -0.014 A 
BRANCH  24  25
ATOM     25  C   UNL A   1      39.831  30.071  29.858  1.00  0.00     0.031 A 
ATOM     26  C   UNL A   1      41.007  30.995  29.732  1.00  0.00     0.074 A 
ATOM     27  C   UNL A   1      39.909  28.804  29.416  1.00  0.00     0.049 A 
ATOM     28  N   UNL A   1      42.161  30.790  29.152  1.00  0.00    -0.248 NA
ATOM     29  C   UNL A   1      40.866  32.324  30.349  1.00  0.00     0.031 C 
ATOM     30  C   UNL A   1      38.857  27.796  29.546  1.00  0.00     0.029 A 
ATOM     31  N   UNL A   1      40.926  28.150  28.769  1.00  0.00    -0.354 N 
ATOM     32  C   UNL A   1      42.878  31.968  29.317  1.00  0.00     0.074 A 
ATOM     33  C   UNL A   1      42.026  32.887  30.041  1.00  0.00     0.031 C 
ATOM     34  C   UNL A   1      39.283  26.649  28.991  1.00  0.00     0.029 A 
ATOM     35  C   UNL A   1      40.618  26.855  28.434  1.00  0.00     0.049 A 
ATOM     36  H   UNL A   1      41.794  28.569  28.565  1.00  0.00     0.167 HD
ATOM     37  C   UNL A   1      44.133  32.257  28.901  1.00  0.00     0.031 A 
ATOM     38  C   UNL A   1      41.324  25.949  27.732  1.00  0.00     0.031 A 
ATOM     39  C   UNL A   1      44.973  31.346  28.172  1.00  0.00     0.049 A 
ATOM     40  C   UNL A   1      42.686  26.322  27.212  1.00  0.00     0.074 A 
ATOM     41  C   UNL A   1      46.258  31.546  27.699  1.00  0.00     0.029 A 
ATOM     42  N   UNL A   1      44.607  30.059  27.809  1.00  0.00    -0.354 N 
ATOM     43  N   UNL A   1      43.351  27.442  27.366  1.00  0.00    -0.248 NA
ATOM     44  C   UNL A   1      43.393  25.305  26.421  1.00  0.00     0.031 C 
ATOM     45  C   UNL A   1      46.652  30.395  27.007  1.00  0.00     0.029 A 
ATOM     46  C   UNL A   1      45.632  29.461  27.097  1.00  0.00     0.049 A 
ATOM     47  H   UNL A   1      43.746  29.634  28.025  1.00  0.00     0.167 HD
ATOM     48  C   UNL A   1      44.561  27.257  26.710  1.00  0.00     0.074 A 
ATOM     49  C   UNL A   1      44.545  25.912  26.172  1.00  0.00     0.031 C 
ATOM     50  C   UNL A   1      45.595  28.123  26.567  1.00  0.00     0.031 A 
BRANCH  37  51
ATOM     51  C   UNL A   1      44.649  33.639  29.184  1.00  0.00    -0.014 A 
ATOM     52  C   UNL A   1      45.413  33.914  30.329  1.00  0.00     0.009 A 
ATOM     53  C   UNL A   1      44.381  34.677  28.278  1.00  0.00     0.009 A 
ATOM     54  C   UNL A   1      45.871  35.210  30.576  1.00  0.00     0.001 A 
ATOM     55  C   UNL A   1      44.862  35.965  28.515  1.00  0.00     0.001 A 
ATOM     56  C   UNL A   1      45.599  36.233  29.667  1.00  0.00     0.000 A 
ENDBRANCH  37  51
BRANCH  38  57
ATOM     57  C   UNL A   1      40.744  24.611  27.447  1.00  0.00    -0.014 A 
ATOM     58  C   UNL A   1      41.306  23.451  28.000  1.00  0.00     0.009 A 
ATOM     59  C   UNL A   1      39.625  24.489  26.607  1.00  0.00     0.009 A 
ATOM     60  C   UNL A   1      40.775  22.195  27.698  1.00  0.00     0.001 A 
ATOM     61  C   UNL A   1      39.079  23.235  26.330  1.00  0.00     0.001 A 
ATOM     62  C   UNL A   1      39.658  22.088  26.868  1.00  0.00     0.000 A 
ENDBRANCH  38  57
BRANCH  50  63
ATOM     63  C   UNL A   1      46.804  27.629  25.824  1.00  0.00    -0.014 A 
ATOM     64  C   UNL A   1      47.831  26.938  26.485  1.00  0.00     0.009 A 
ATOM     65  C   UNL A   1      46.895  27.826  24.438  1.00  0.00     0.009 A 
ATOM     66  C   UNL A   1      48.942  26.480  25.774  1.00  0.00     0.001 A 
ATOM     67  C   UNL A   1      47.994  27.344  23.726  1.00  0.00     0.001 A 
ATOM     68  C   UNL A   1      49.020  26.680  24.395  1.00  0.00     0.000 A 
ENDBRANCH  50  63
ENDBRANCH  24  25
ENDBRANCH  17  19
ENDBRANCH  16  17
ENDBRANCH   1  16
TORSDOF 12
ENDMDL
MODEL 2
REMARK VINA RESULT:     -10.1      4.809     11.550
REMARK SMILES C[C@@H](NC1=[NH+]CCC1)C(=O)OCCOC(=O)c1ccc(-c2c3nc(c(-c4ccccc4)c4ccc([nH]4)c(-c4ccccc4)c4nc(c(-c5ccccc5)c5ccc2[nH]5)C=C4)C=C3)cc1
REMARK SMILES IDX 13 1 12 2 11 3 9 4 10 5 2 6 1 7 3 8 4 9 5 11 8 12 6 13 7 15
REMARK SMILES IDX 14 16 15 17 16 18 17 19 18 20 64 21 19 22 63 23 20 24 21 25
REMARK SMILES IDX 22 26 57 27 23 28 62 29 56 30 58 31 24 32 61 33 55 34 54 35
REMARK SMILES IDX 25 37 47 38 32 39 46 40 33 41 36 42 45 43 59 44 34 45 35 46
REMARK SMILES IDX 44 48 60 49 37 50 26 51 27 52 31 53 28 54 30 55 29 56 48 57
REMARK SMILES IDX 49 58 53 59 50 60 52 61 51 62 38 63 39 64 43 65 40 66 42 67
REMARK SMILES IDX 41 68
REMARK H PARENT 3 10 5 14 58 36 36 47
REMARK Flexibility Score: inf
ROOT
ATOM      1  C   UNL A   1      41.881  20.417  26.970  1.00  0.00     0.275 C 
ENDROOT
BRANCH   1   2
ATOM      2  C   UNL A   1      42.175  19.136  26.178  1.00  0.00     0.274 C 
BRANCH   2   3
ATOM      3  O   UNL A   1      42.880  19.382  24.946  1.00  0.00    -0.459 OA
BRANCH   3   4
ATOM      4  C   UNL A   1      44.153  18.903  24.879  1.00  0.00     0.350 C 
ATOM      5  O   UNL A   1      44.593  18.012  25.599  1.00  0.00    -0.247 OA
BRANCH   4   6
ATOM      6  C   UNL A   1      45.014  19.623  23.837  1.00  0.00     0.279 C 
ATOM      7  C   UNL A   1      45.098  18.821  22.538  1.00  0.00     0.071 C 
BRANCH   6   8
ATOM      8  N   UNL A   1      44.582  20.983  23.518  1.00  0.00    -0.265 N 
ATOM      9  C   UNL A   1      44.616  22.084  24.313  1.00  0.00     0.243 C 
ATOM     10  H   UNL A   1      44.221  21.118  22.612  1.00  0.00     0.305 HD
ATOM     11  N   UNL A   1      43.585  22.880  24.338  1.00  0.00    -0.279 N 
ATOM     12  C   UNL A   1      45.789  22.527  25.141  1.00  0.00     0.131 C 
ATOM     13  C   UNL A   1      43.916  23.923  25.328  1.00  0.00     0.234 C 
ATOM     14  H   UNL A   1      42.759  22.802  23.809  1.00  0.00     0.304 HD
ATOM     15  C   UNL A   1      45.038  23.337  26.166  1.00  0.00     0.058 C 
ENDBRANCH   6   8
ENDBRANCH   4   6
ENDBRANCH   3   4
ENDBRANCH   2   3
ENDBRANCH   1   2
BRANCH   1  16
ATOM     16  O   UNL A   1      41.612  21.539  26.107  1.00  0.00    -0.458 OA
BRANCH  16  17
ATOM     17  C   UNL A   1      40.412  22.134  26.304  1.00  0.00     0.338 C 
ATOM     18  O   UNL A   1      39.311  21.628  26.170  1.00  0.00    -0.246 OA
BRANCH  17  19
ATOM     19  C   UNL A   1      40.598  23.470  26.899  1.00  0.00     0.060 A 
ATOM     20  C   UNL A   1      40.243  24.577  26.119  1.00  0.00     0.016 A 
ATOM     21  C   UNL A   1      41.157  23.646  28.165  1.00  0.00     0.016 A 
ATOM     22  C   UNL A   1      40.440  25.866  26.599  1.00  0.00     0.010 A 
ATOM     23  C   UNL A   1      41.375  24.945  28.640  1.00  0.00     0.010 A 
ATOM     24  C   UNL A   1      41.029  26.057  27.853  1.00  0.00    -0.014 A 
BRANCH  24  25
ATOM     25  C   UNL A   1      41.375  27.430  28.282  1.00  0.00     0.031 A 
ATOM     26  C   UNL A   1      42.811  27.866  28.253  1.00  0.00     0.074 A 
ATOM     27  C   UNL A   1      40.408  28.292  28.642  1.00  0.00     0.049 A 
ATOM     28  N   UNL A   1      43.337  29.005  28.620  1.00  0.00    -0.248 NA
ATOM     29  C   UNL A   1      43.782  26.889  27.734  1.00  0.00     0.031 C 
ATOM     30  C   UNL A   1      38.974  28.005  28.642  1.00  0.00     0.029 A 
ATOM     31  N   UNL A   1      40.492  29.590  29.076  1.00  0.00    -0.354 N 
ATOM     32  C   UNL A   1      44.702  28.878  28.395  1.00  0.00     0.074 A 
ATOM     33  C   UNL A   1      44.924  27.548  27.870  1.00  0.00     0.031 C 
ATOM     34  C   UNL A   1      38.312  29.096  29.061  1.00  0.00     0.029 A 
ATOM     35  C   UNL A   1      39.276  30.141  29.395  1.00  0.00     0.049 A 
ATOM     36  H   UNL A   1      41.344  30.080  29.152  1.00  0.00     0.167 HD
ATOM     37  C   UNL A   1      45.680  29.788  28.608  1.00  0.00     0.031 A 
ATOM     38  C   UNL A   1      38.979  31.343  29.923  1.00  0.00     0.031 A 
ATOM     39  C   UNL A   1      45.457  31.105  29.139  1.00  0.00     0.049 A 
ATOM     40  C   UNL A   1      40.094  32.308  30.225  1.00  0.00     0.074 A 
ATOM     41  C   UNL A   1      46.383  32.100  29.399  1.00  0.00     0.029 A 
ATOM     42  N   UNL A   1      44.216  31.609  29.496  1.00  0.00    -0.354 N 
ATOM     43  N   UNL A   1      41.382  32.174  30.016  1.00  0.00    -0.248 NA
ATOM     44  C   UNL A   1      39.713  33.590  30.835  1.00  0.00     0.031 C 
ATOM     45  C   UNL A   1      45.708  33.190  29.958  1.00  0.00     0.029 A 
ATOM     46  C   UNL A   1      44.354  32.893  29.996  1.00  0.00     0.049 A 
ATOM     47  H   UNL A   1      43.363  31.126  29.407  1.00  0.00     0.167 HD
ATOM     48  C   UNL A   1      41.961  33.360  30.449  1.00  0.00     0.074 A 
ATOM     49  C   UNL A   1      40.883  34.208  30.916  1.00  0.00     0.031 C 
ATOM     50  C   UNL A   1      43.269  33.717  30.458  1.00  0.00     0.031 A 
BRANCH  37  51
ATOM     51  C   UNL A   1      47.089  29.363  28.310  1.00  0.00    -0.014 A 
ATOM     52  C   UNL A   1      47.674  29.596  27.054  1.00  0.00     0.009 A 
ATOM     53  C   UNL A   1      47.850  28.738  29.309  1.00  0.00     0.009 A 
ATOM     54  C   UNL A   1      48.982  29.181  26.798  1.00  0.00     0.001 A 
ATOM     55  C   UNL A   1      49.166  28.347  29.058  1.00  0.00     0.001 A 
ATOM     56  C   UNL A   1      49.728  28.561  27.801  1.00  0.00     0.000 A 
ENDBRANCH  37  51
BRANCH  38  57
ATOM     57  C   UNL A   1      37.569  31.692  30.236  1.00  0.00    -0.014 A 
ATOM     58  C   UNL A   1      37.018  31.401  31.492  1.00  0.00     0.009 A 
ATOM     59  C   UNL A   1      36.762  32.310  29.267  1.00  0.00     0.009 A 
ATOM     60  C   UNL A   1      35.681  31.702  31.765  1.00  0.00     0.001 A 
ATOM     61  C   UNL A   1      35.434  32.634  29.551  1.00  0.00     0.001 A 
ATOM     62  C   UNL A   1      34.892  32.322  30.796  1.00  0.00     0.000 A 
ENDBRANCH  38  57
BRANCH  50  63
ATOM     63  C   UNL A   1      43.600  35.094  30.962  1.00  0.00    -0.014 A 
ATOM     64  C   UNL A   1      43.879  35.324  32.318  1.00  0.00     0.009 A 
ATOM     65  C   UNL A   1      43.671  36.164  30.058  1.00  0.00     0.009 A 
ATOM     66  C   UNL A   1      44.194  36.610  32.763  1.00  0.00     0.001 A 
ATOM     67  C   UNL A   1      44.011  37.443  30.502  1.00  0.00     0.001 A 
ATOM     68  C   UNL A   1      44.264  37.666  31.854  1.00  0.00     0.000 A 
ENDBRANCH  50  63
ENDBRANCH  24  25
ENDBRANCH  17  19
ENDBRANCH  16  17
ENDBRANCH   1  16
TORSDOF 12
ENDMDL
MODEL 3
REMARK VINA RESULT:     -10.1      0.990      6.461
REMARK SMILES C[C@@H](NC1=[NH+]CCC1)C(=O)OCCOC(=O)c1ccc(-c2c3nc(c(-c4ccccc4)c4ccc([nH]4)c(-c4ccccc4)c4nc(c(-c5ccccc5)c5ccc2[nH]5)C=C4)C=C3)cc1
REMARK SMILES IDX 13 1 12 2 11 3 9 4 10 5 2 6 1 7 3 8 4 9 5 11 8 12 6 13 7 15
REMARK SMILES IDX 14 16 15 17 16 18 17 19 18 20 64 21 19 22 63 23 20 24 21 25
REMARK SMILES IDX 22 26 57 27 23 28 62 29 56 30 58 31 24 32 61 33 55 34 54 35
REMARK SMILES IDX 25 37 47 38 32 39 46 40 33 41 36 42 45 43 59 44 34 45 35 46
REMARK SMILES IDX 44 48 60 49 37 50 26 51 27 52 31 53 28 54 30 55 29 56 48 57
REMARK SMILES IDX 49 58 53 59 50 60 52 61 51 62 38 63 39 64 43 65 40 66 42 67
REMARK SMILES IDX 41 68
REMARK H PARENT 3 10 5 14 58 36 36 47
REMARK Flexibility Score: inf
ROOT
ATOM      1  C   UNL A   1      36.249  34.605  33.298  1.00  0.00     0.275 C 
ENDROOT
BRANCH   1   2
ATOM      2  C   UNL A   1      34.892  35.282  33.531  1.00  0.00     0.274 C 
BRANCH   2   3
ATOM      3  O   UNL A   1      34.778  36.560  32.874  1.00  0.00    -0.459 OA
BRANCH   3   4
ATOM      4  C   UNL A   1      33.536  36.896  32.430  1.00  0.00     0.350 C 
ATOM      5  O   UNL A   1      33.119  38.047  32.352  1.00  0.00    -0.247 OA
BRANCH   4   6
ATOM      6  C   UNL A   1      32.673  35.681  32.078  1.00  0.00     0.279 C 
ATOM      7  C   UNL A   1      31.275  35.798  32.688  1.00  0.00     0.071 C 
BRANCH   6   8
ATOM      8  N   UNL A   1      32.535  35.421  30.645  1.00  0.00    -0.265 N 
ATOM      9  C   UNL A   1      33.478  34.967  29.779  1.00  0.00     0.243 C 
ATOM     10  H   UNL A   1      31.647  35.598  30.259  1.00  0.00     0.305 HD
ATOM     11  N   UNL A   1      33.585  35.524  28.607  1.00  0.00    -0.279 N 
ATOM     12  C   UNL A   1      34.396  33.801  30.020  1.00  0.00     0.131 C 
ATOM     13  C   UNL A   1      34.721  34.850  27.951  1.00  0.00     0.234 C 
ATOM     14  H   UNL A   1      33.025  36.245  28.237  1.00  0.00     0.304 HD
ATOM     15  C   UNL A   1      35.502  34.195  29.076  1.00  0.00     0.058 C 
ENDBRANCH   6   8
ENDBRANCH   4   6
ENDBRANCH   3   4
ENDBRANCH   2   3
ENDBRANCH   1   2
BRANCH   1  16
ATOM     16  O   UNL A   1      36.107  33.238  32.864  1.00  0.00    -0.458 OA
BRANCH  16  17
ATOM     17  C   UNL A   1      36.934  32.358  33.476  1.00  0.00     0.338 C 
ATOM     18  O   UNL A   1      36.858  31.958  34.626  1.00  0.00    -0.246 OA
BRANCH  17  19
ATOM     19  C   UNL A   1      37.869  31.775  32.498  1.00  0.00     0.060 A 
ATOM     20  C   UNL A   1      38.994  31.110  33.001  1.00  0.00     0.016 A 
ATOM     21  C   UNL A   1      37.690  31.919  31.122  1.00  0.00     0.016 A 
ATOM     22  C   UNL A   1      39.943  30.581  32.135  1.00  0.00     0.010 A 
ATOM     23  C   UNL A   1      38.656  31.405  30.250  1.00  0.00     0.010 A 
ATOM     24  C   UNL A   1      39.791  30.746  30.755  1.00  0.00    -0.014 A 
BRANCH  24  25
ATOM     25  C   UNL A   1      40.884  30.317  29.856  1.00  0.00     0.031 A 
ATOM     26  C   UNL A   1      40.801  28.972  29.194  1.00  0.00     0.074 A 
ATOM     27  C   UNL A   1      41.912  31.142  29.594  1.00  0.00     0.049 A 
ATOM     28  N   UNL A   1      41.662  28.384  28.404  1.00  0.00    -0.248 NA
ATOM     29  C   UNL A   1      39.582  28.188  29.452  1.00  0.00     0.031 C 
ATOM     30  C   UNL A   1      42.065  32.498  30.122  1.00  0.00     0.029 A 
ATOM     31  N   UNL A   1      43.023  30.958  28.812  1.00  0.00    -0.354 N 
ATOM     32  C   UNL A   1      41.099  27.156  28.084  1.00  0.00     0.074 A 
ATOM     33  C   UNL A   1      39.829  27.077  28.774  1.00  0.00     0.031 C 
ATOM     34  C   UNL A   1      43.209  33.022  29.651  1.00  0.00     0.029 A 
ATOM     35  C   UNL A   1      43.885  32.026  28.823  1.00  0.00     0.049 A 
ATOM     36  H   UNL A   1      43.188  30.137  28.292  1.00  0.00     0.167 HD
ATOM     37  C   UNL A   1      41.597  26.181  27.288  1.00  0.00     0.031 A 
ATOM     38  C   UNL A   1      45.095  32.172  28.251  1.00  0.00     0.031 A 
ATOM     39  C   UNL A   1      42.864  26.258  26.612  1.00  0.00     0.049 A 
ATOM     40  C   UNL A   1      45.662  31.042  27.435  1.00  0.00     0.074 A 
ATOM     41  C   UNL A   1      43.461  25.321  25.788  1.00  0.00     0.029 A 
ATOM     42  N   UNL A   1      43.730  27.338  26.687  1.00  0.00    -0.354 N 
ATOM     43  N   UNL A   1      45.125  29.881  27.146  1.00  0.00    -0.248 NA
ATOM     44  C   UNL A   1      47.002  31.244  26.867  1.00  0.00     0.031 C 
ATOM     45  C   UNL A   1      44.712  25.814  25.402  1.00  0.00     0.029 A 
ATOM     46  C   UNL A   1      44.869  27.081  25.943  1.00  0.00     0.049 A 
ATOM     47  H   UNL A   1      43.561  28.164  27.194  1.00  0.00     0.167 HD
ATOM     48  C   UNL A   1      46.051  29.224  26.347  1.00  0.00     0.074 A 
ATOM     49  C   UNL A   1      47.176  30.122  26.182  1.00  0.00     0.031 C 
ATOM     50  C   UNL A   1      45.978  27.987  25.796  1.00  0.00     0.031 A 
BRANCH  37  51
ATOM     51  C   UNL A   1      40.785  24.926  27.149  1.00  0.00    -0.014 A 
ATOM     52  C   UNL A   1      39.589  24.905  26.414  1.00  0.00     0.009 A 
ATOM     53  C   UNL A   1      41.235  23.740  27.749  1.00  0.00     0.009 A 
ATOM     54  C   UNL A   1      38.846  23.728  26.310  1.00  0.00     0.001 A 
ATOM     55  C   UNL A   1      40.503  22.559  27.623  1.00  0.00     0.001 A 
ATOM     56  C   UNL A   1      39.305  22.555  26.911  1.00  0.00     0.000 A 
ENDBRANCH  37  51
BRANCH  38  57
ATOM     57  C   UNL A   1      45.871  33.422  28.458  1.00  0.00    -0.014 A 
ATOM     58  C   UNL A   1      46.744  33.555  29.547  1.00  0.00     0.009 A 
ATOM     59  C   UNL A   1      45.730  34.497  27.566  1.00  0.00     0.009 A 
ATOM     60  C   UNL A   1      47.443  34.747  29.752  1.00  0.00     0.001 A 
ATOM     61  C   UNL A   1      46.451  35.677  27.757  1.00  0.00     0.001 A 
ATOM     62  C   UNL A   1      47.300  35.805  28.855  1.00  0.00     0.000 A 
ENDBRANCH  38  57
BRANCH  50  63
ATOM     63  C   UNL A   1      47.133  27.547  24.940  1.00  0.00    -0.014 A 
ATOM     64  C   UNL A   1      48.175  26.771  25.469  1.00  0.00     0.009 A 
ATOM     65  C   UNL A   1      47.154  27.884  23.578  1.00  0.00     0.009 A 
ATOM     66  C   UNL A   1      49.234  26.365  24.654  1.00  0.00     0.001 A 
ATOM     67  C   UNL A   1      48.201  27.456  22.760  1.00  0.00     0.001 A 
ATOM     68  C   UNL A   1      49.243  26.705  23.300  1.00  0.00     0.000 A 
ENDBRANCH  50  63
ENDBRANCH  24  25
ENDBRANCH  17  19
ENDBRANCH  16  17
ENDBRANCH   1  16
TORSDOF 12
ENDMDL
