MODEL 1
REMARK VINA RESULT:     -10.9      0.000      0.000
REMARK SMILES COCC[C@]1(C(=O)OCCOC(=O)c2ccc(-c3c4nc(c(-c5ccccc5)c5ccc([nH]5)c(-c5ccccc5)c5nc(c(-c6ccccc6)c6ccc3[nH]6)C=C5)C=C4)cc2)CCCN(C(=O)Cc2c(C)nc(C)[nH]c2=O)C1
REMARK SMILES IDX 9 1 8 2 6 3 7 4 5 5 62 6 78 7 63 8 65 9 64 10 4 11 3 12 2 13
REMARK SMILES IDX 1 14 66 15 67 16 68 17 69 18 70 19 76 20 71 21 72 22 75 23
REMARK SMILES IDX 77 24 73 25 74 27 10 28 11 29 12 30 13 31 14 32 15 33 61 34
REMARK SMILES IDX 16 35 60 36 17 37 18 38 19 39 54 40 20 41 59 42 53 43 55 44
REMARK SMILES IDX 21 45 58 46 52 47 51 48 22 50 44 51 29 52 43 53 30 54 33 55
REMARK SMILES IDX 42 56 56 57 31 58 32 59 41 61 57 62 34 63 23 64 24 65 28 66
REMARK SMILES IDX 25 67 27 68 26 69 45 70 46 71 50 72 47 73 49 74 48 75 35 76
REMARK SMILES IDX 36 77 40 78 37 79 39 80 38 81
REMARK H PARENT 75 26 55 49 33 60
REMARK Flexibility Score: inf
ROOT
ATOM      1  C   UNL A   1      35.713  20.669  24.759  1.00  0.00     0.274 C 
ENDROOT
BRANCH   1   2
ATOM      2  O   UNL A   1      35.557  22.071  25.064  1.00  0.00    -0.462 OA
BRANCH   2   3
ATOM      3  C   UNL A   1      35.033  22.840  24.075  1.00  0.00     0.314 C 
ATOM      4  O   UNL A   1      35.619  23.074  23.021  1.00  0.00    -0.252 OA
BRANCH   3   5
ATOM      5  C   UNL A   1      33.611  23.371  24.370  1.00  0.00     0.088 C 
ATOM      6  C   UNL A   1      32.582  22.268  24.682  1.00  0.00     0.022 C 
ATOM      7  C   UNL A   1      33.820  24.239  25.620  1.00  0.00     0.138 C 
ATOM      8  C   UNL A   1      31.524  22.580  25.754  1.00  0.00     0.023 C 
ATOM      9  N   UNL A   1      32.586  24.857  26.070  1.00  0.00    -0.341 N 
ATOM     10  C   UNL A   1      31.528  23.944  26.459  1.00  0.00     0.119 C 
BRANCH   5  11
ATOM     11  C   UNL A   1      33.253  24.223  23.115  1.00  0.00     0.049 C 
BRANCH  11  12
ATOM     12  C   UNL A   1      33.745  25.654  22.941  1.00  0.00     0.161 C 
BRANCH  12  13
ATOM     13  O   UNL A   1      33.777  26.049  21.585  1.00  0.00    -0.385 OA
ATOM     14  C   UNL A   1      32.727  25.447  20.843  1.00  0.00     0.194 C 
ENDBRANCH  12  13
ENDBRANCH  11  12
ENDBRANCH   5  11
BRANCH   9  15
ATOM     15  C   UNL A   1      32.551  26.245  26.199  1.00  0.00     0.227 C 
ATOM     16  O   UNL A   1      33.589  26.898  26.339  1.00  0.00    -0.275 OA
BRANCH  15  17
ATOM     17  C   UNL A   1      31.197  26.965  26.256  1.00  0.00     0.143 C 
BRANCH  17  18
ATOM     18  C   UNL A   1      30.878  27.801  25.047  1.00  0.00     0.048 A 
ATOM     19  C   UNL A   1      31.143  29.117  24.880  1.00  0.00     0.049 A 
ATOM     20  C   UNL A   1      30.235  27.119  23.894  1.00  0.00     0.254 A 
ATOM     21  C   UNL A   1      31.943  29.941  25.857  1.00  0.00     0.067 C 
ATOM     22  N   UNL A   1      30.691  29.864  23.812  1.00  0.00    -0.240 NA
ATOM     23  N   UNL A   1      29.727  27.935  22.930  1.00  0.00    -0.311 N 
ATOM     24  O   UNL A   1      30.207  25.905  23.761  1.00  0.00    -0.269 OA
ATOM     25  C   UNL A   1      29.976  29.269  22.916  1.00  0.00     0.105 A 
ATOM     26  H   UNL A   1      29.163  27.546  22.222  1.00  0.00     0.171 HD
ATOM     27  C   UNL A   1      29.353  30.052  21.798  1.00  0.00     0.087 C 
ENDBRANCH  17  18
ENDBRANCH  15  17
ENDBRANCH   9  15
ENDBRANCH   3   5
ENDBRANCH   2   3
ENDBRANCH   1   2
BRANCH   1  28
ATOM     28  C   UNL A   1      37.174  20.239  24.857  1.00  0.00     0.275 C 
BRANCH  28  29
ATOM     29  O   UNL A   1      38.040  21.382  25.010  1.00  0.00    -0.458 OA
BRANCH  29  30
ATOM     30  C   UNL A   1      39.085  21.196  25.841  1.00  0.00     0.338 C 
ATOM     31  O   UNL A   1      39.774  20.188  25.950  1.00  0.00    -0.246 OA
BRANCH  30  32
ATOM     32  C   UNL A   1      39.378  22.401  26.631  1.00  0.00     0.060 A 
ATOM     33  C   UNL A   1      38.783  23.605  26.275  1.00  0.00     0.016 A 
ATOM     34  C   UNL A   1      40.461  22.394  27.510  1.00  0.00     0.016 A 
ATOM     35  C   UNL A   1      39.418  24.804  26.601  1.00  0.00     0.010 A 
ATOM     36  C   UNL A   1      40.983  23.608  27.978  1.00  0.00     0.010 A 
ATOM     37  C   UNL A   1      40.532  24.833  27.459  1.00  0.00    -0.014 A 
BRANCH  37  38
ATOM     38  C   UNL A   1      41.255  26.115  27.751  1.00  0.00     0.031 A 
ATOM     39  C   UNL A   1      40.671  27.136  28.711  1.00  0.00     0.074 A 
ATOM     40  C   UNL A   1      42.458  26.381  27.198  1.00  0.00     0.049 A 
ATOM     41  N   UNL A   1      41.044  28.375  28.933  1.00  0.00    -0.248 NA
ATOM     42  C   UNL A   1      39.506  26.721  29.509  1.00  0.00     0.031 C 
ATOM     43  C   UNL A   1      43.196  25.503  26.289  1.00  0.00     0.029 A 
ATOM     44  N   UNL A   1      43.287  27.470  27.342  1.00  0.00    -0.354 N 
ATOM     45  C   UNL A   1      40.107  28.907  29.814  1.00  0.00     0.074 A 
ATOM     46  C   UNL A   1      39.156  27.856  30.097  1.00  0.00     0.031 C 
ATOM     47  C   UNL A   1      44.396  26.040  26.031  1.00  0.00     0.029 A 
ATOM     48  C   UNL A   1      44.470  27.356  26.650  1.00  0.00     0.049 A 
ATOM     49  H   UNL A   1      43.056  28.255  27.890  1.00  0.00     0.167 HD
ATOM     50  C   UNL A   1      40.039  30.158  30.336  1.00  0.00     0.031 A 
ATOM     51  C   UNL A   1      45.487  28.221  26.484  1.00  0.00     0.031 A 
ATOM     52  C   UNL A   1      41.027  31.186  30.132  1.00  0.00     0.049 A 
ATOM     53  C   UNL A   1      45.401  29.593  27.084  1.00  0.00     0.074 A 
ATOM     54  C   UNL A   1      41.043  32.480  30.631  1.00  0.00     0.029 A 
ATOM     55  N   UNL A   1      42.189  31.029  29.396  1.00  0.00    -0.354 N 
ATOM     56  N   UNL A   1      44.455  30.110  27.828  1.00  0.00    -0.248 NA
ATOM     57  C   UNL A   1      46.515  30.507  26.797  1.00  0.00     0.031 C 
ATOM     58  C   UNL A   1      42.206  33.112  30.176  1.00  0.00     0.029 A 
ATOM     59  C   UNL A   1      42.932  32.199  29.431  1.00  0.00     0.049 A 
ATOM     60  H   UNL A   1      42.450  30.208  28.920  1.00  0.00     0.167 HD
ATOM     61  C   UNL A   1      44.860  31.410  28.098  1.00  0.00     0.074 A 
ATOM     62  C   UNL A   1      46.150  31.591  27.467  1.00  0.00     0.031 C 
ATOM     63  C   UNL A   1      44.211  32.372  28.798  1.00  0.00     0.031 A 
BRANCH  50  64
ATOM     64  C   UNL A   1      38.824  30.506  31.155  1.00  0.00    -0.014 A 
ATOM     65  C   UNL A   1      38.802  30.358  32.550  1.00  0.00     0.009 A 
ATOM     66  C   UNL A   1      37.694  31.038  30.512  1.00  0.00     0.009 A 
ATOM     67  C   UNL A   1      37.659  30.702  33.278  1.00  0.00     0.001 A 
ATOM     68  C   UNL A   1      36.565  31.408  31.245  1.00  0.00     0.001 A 
ATOM     69  C   UNL A   1      36.544  31.230  32.627  1.00  0.00     0.000 A 
ENDBRANCH  50  64
BRANCH  51  70
ATOM     70  C   UNL A   1      46.661  27.831  25.659  1.00  0.00    -0.014 A 
ATOM     71  C   UNL A   1      47.787  27.245  26.255  1.00  0.00     0.009 A 
ATOM     72  C   UNL A   1      46.656  28.035  24.269  1.00  0.00     0.009 A 
ATOM     73  C   UNL A   1      48.889  26.881  25.477  1.00  0.00     0.001 A 
ATOM     74  C   UNL A   1      47.744  27.641  23.491  1.00  0.00     0.001 A 
ATOM     75  C   UNL A   1      48.863  27.072  24.096  1.00  0.00     0.000 A 
ENDBRANCH  51  70
BRANCH  63  76
ATOM     76  C   UNL A   1      44.909  33.694  28.938  1.00  0.00    -0.014 A 
ATOM     77  C   UNL A   1      45.792  33.939  30.002  1.00  0.00     0.009 A 
ATOM     78  C   UNL A   1      44.680  34.705  27.993  1.00  0.00     0.009 A 
ATOM     79  C   UNL A   1      46.398  35.189  30.140  1.00  0.00     0.001 A 
ATOM     80  C   UNL A   1      45.307  35.945  28.121  1.00  0.00     0.001 A 
ATOM     81  C   UNL A   1      46.156  36.191  29.200  1.00  0.00     0.000 A 
ENDBRANCH  63  76
ENDBRANCH  37  38
ENDBRANCH  30  32
ENDBRANCH  29  30
ENDBRANCH  28  29
ENDBRANCH   1  28
TORSDOF 17
ENDMDL
MODEL 2
REMARK VINA RESULT:     -10.8      1.457      2.330
REMARK SMILES COCC[C@]1(C(=O)OCCOC(=O)c2ccc(-c3c4nc(c(-c5ccccc5)c5ccc([nH]5)c(-c5ccccc5)c5nc(c(-c6ccccc6)c6ccc3[nH]6)C=C5)C=C4)cc2)CCCN(C(=O)Cc2c(C)nc(C)[nH]c2=O)C1
REMARK SMILES IDX 9 1 8 2 6 3 7 4 5 5 62 6 78 7 63 8 65 9 64 10 4 11 3 12 2 13
REMARK SMILES IDX 1 14 66 15 67 16 68 17 69 18 70 19 76 20 71 21 72 22 75 23
REMARK SMILES IDX 77 24 73 25 74 27 10 28 11 29 12 30 13 31 14 32 15 33 61 34
REMARK SMILES IDX 16 35 60 36 17 37 18 38 19 39 54 40 20 41 59 42 53 43 55 44
REMARK SMILES IDX 21 45 58 46 52 47 51 48 22 50 44 51 29 52 43 53 30 54 33 55
REMARK SMILES IDX 42 56 56 57 31 58 32 59 41 61 57 62 34 63 23 64 24 65 28 66
REMARK SMILES IDX 25 67 27 68 26 69 45 70 46 71 50 72 47 73 49 74 48 75 35 76
REMARK SMILES IDX 36 77 40 78 37 79 39 80 38 81
REMARK H PARENT 75 26 55 49 33 60
REMARK Flexibility Score: inf
ROOT
ATOM      1  C   UNL A   1      36.365  20.298  24.998  1.00  0.00     0.274 C 
ENDROOT
BRANCH   1   2
ATOM      2  O   UNL A   1      36.111  21.471  25.800  1.00  0.00    -0.462 OA
BRANCH   2   3
ATOM      3  C   UNL A   1      35.556  22.527  25.151  1.00  0.00     0.314 C 
ATOM      4  O   UNL A   1      36.196  23.286  24.429  1.00  0.00    -0.252 OA
BRANCH   3   5
ATOM      5  C   UNL A   1      34.033  22.675  25.369  1.00  0.00     0.088 C 
ATOM      6  C   UNL A   1      33.527  22.075  26.695  1.00  0.00     0.022 C 
ATOM      7  C   UNL A   1      33.833  24.198  25.392  1.00  0.00     0.138 C 
ATOM      8  C   UNL A   1      32.400  22.829  27.421  1.00  0.00     0.023 C 
ATOM      9  N   UNL A   1      32.441  24.565  25.578  1.00  0.00    -0.341 N 
ATOM     10  C   UNL A   1      31.831  24.121  26.816  1.00  0.00     0.119 C 
BRANCH   5  11
ATOM     11  C   UNL A   1      33.400  22.017  24.105  1.00  0.00     0.049 C 
BRANCH  11  12
ATOM     12  C   UNL A   1      32.454  20.827  24.200  1.00  0.00     0.161 C 
BRANCH  12  13
ATOM     13  O   UNL A   1      33.110  19.600  23.959  1.00  0.00    -0.385 OA
ATOM     14  C   UNL A   1      32.425  18.516  24.567  1.00  0.00     0.194 C 
ENDBRANCH  12  13
ENDBRANCH  11  12
ENDBRANCH   5  11
BRANCH   9  15
ATOM     15  C   UNL A   1      31.845  25.394  24.628  1.00  0.00     0.227 C 
ATOM     16  O   UNL A   1      31.823  25.082  23.434  1.00  0.00    -0.275 OA
BRANCH  15  17
ATOM     17  C   UNL A   1      31.283  26.755  25.059  1.00  0.00     0.143 C 
BRANCH  17  18
ATOM     18  C   UNL A   1      32.277  27.662  25.730  1.00  0.00     0.048 A 
ATOM     19  C   UNL A   1      33.339  28.267  25.153  1.00  0.00     0.049 A 
ATOM     20  C   UNL A   1      32.065  27.962  27.171  1.00  0.00     0.254 A 
ATOM     21  C   UNL A   1      33.621  28.231  23.673  1.00  0.00     0.067 C 
ATOM     22  N   UNL A   1      34.303  28.966  25.852  1.00  0.00    -0.240 NA
ATOM     23  N   UNL A   1      33.106  28.564  27.810  1.00  0.00    -0.311 N 
ATOM     24  O   UNL A   1      31.012  27.753  27.754  1.00  0.00    -0.269 OA
ATOM     25  C   UNL A   1      34.178  29.050  27.135  1.00  0.00     0.105 A 
ATOM     26  H   UNL A   1      33.078  28.650  28.791  1.00  0.00     0.171 HD
ATOM     27  C   UNL A   1      35.254  29.688  27.963  1.00  0.00     0.087 C 
ENDBRANCH  17  18
ENDBRANCH  15  17
ENDBRANCH   9  15
ENDBRANCH   3   5
ENDBRANCH   2   3
ENDBRANCH   1   2
BRANCH   1  28
ATOM     28  C   UNL A   1      37.852  19.956  24.969  1.00  0.00     0.275 C 
BRANCH  28  29
ATOM     29  O   UNL A   1      38.656  21.128  25.210  1.00  0.00    -0.458 OA
BRANCH  29  30
ATOM     30  C   UNL A   1      39.616  20.977  26.143  1.00  0.00     0.338 C 
ATOM     31  O   UNL A   1      40.274  19.967  26.373  1.00  0.00    -0.246 OA
BRANCH  30  32
ATOM     32  C   UNL A   1      39.857  22.222  26.890  1.00  0.00     0.060 A 
ATOM     33  C   UNL A   1      39.194  23.380  26.504  1.00  0.00     0.016 A 
ATOM     34  C   UNL A   1      40.952  22.301  27.750  1.00  0.00     0.016 A 
ATOM     35  C   UNL A   1      39.769  24.621  26.780  1.00  0.00     0.010 A 
ATOM     36  C   UNL A   1      41.416  23.555  28.169  1.00  0.00     0.010 A 
ATOM     37  C   UNL A   1      40.892  24.737  27.618  1.00  0.00    -0.014 A 
BRANCH  37  38
ATOM     38  C   UNL A   1      41.551  26.064  27.857  1.00  0.00     0.031 A 
ATOM     39  C   UNL A   1      40.931  27.082  28.797  1.00  0.00     0.074 A 
ATOM     40  C   UNL A   1      42.727  26.376  27.271  1.00  0.00     0.049 A 
ATOM     41  N   UNL A   1      41.241  28.346  28.974  1.00  0.00    -0.248 NA
ATOM     42  C   UNL A   1      39.805  26.631  29.631  1.00  0.00     0.031 C 
ATOM     43  C   UNL A   1      43.494  25.510  26.375  1.00  0.00     0.029 A 
ATOM     44  N   UNL A   1      43.499  27.511  27.366  1.00  0.00    -0.354 N 
ATOM     45  C   UNL A   1      40.293  28.854  29.857  1.00  0.00     0.074 A 
ATOM     46  C   UNL A   1      39.405  27.764  30.191  1.00  0.00     0.031 C 
ATOM     47  C   UNL A   1      44.659  26.102  26.076  1.00  0.00     0.029 A 
ATOM     48  C   UNL A   1      44.673  27.439  26.653  1.00  0.00     0.049 A 
ATOM     49  H   UNL A   1      43.236  28.300  27.894  1.00  0.00     0.167 HD
ATOM     50  C   UNL A   1      40.167  30.115  30.342  1.00  0.00     0.031 A 
ATOM     51  C   UNL A   1      45.639  28.352  26.440  1.00  0.00     0.031 A 
ATOM     52  C   UNL A   1      41.094  31.188  30.086  1.00  0.00     0.049 A 
ATOM     53  C   UNL A   1      45.490  29.735  27.000  1.00  0.00     0.074 A 
ATOM     54  C   UNL A   1      41.050  32.495  30.546  1.00  0.00     0.029 A 
ATOM     55  N   UNL A   1      42.249  31.070  29.332  1.00  0.00    -0.354 N 
ATOM     56  N   UNL A   1      44.532  30.224  27.747  1.00  0.00    -0.248 NA
ATOM     57  C   UNL A   1      46.548  30.698  26.663  1.00  0.00     0.031 C 
ATOM     58  C   UNL A   1      42.169  33.175  30.048  1.00  0.00     0.029 A 
ATOM     59  C   UNL A   1      42.929  32.278  29.317  1.00  0.00     0.049 A 
ATOM     60  H   UNL A   1      42.545  30.250  28.876  1.00  0.00     0.167 HD
ATOM     61  C   UNL A   1      44.871  31.552  27.969  1.00  0.00     0.074 A 
ATOM     62  C   UNL A   1      46.138  31.781  27.307  1.00  0.00     0.031 C 
ATOM     63  C   UNL A   1      44.184  32.500  28.652  1.00  0.00     0.031 A 
BRANCH  50  64
ATOM     64  C   UNL A   1      38.951  30.424  31.174  1.00  0.00    -0.014 A 
ATOM     65  C   UNL A   1      38.963  30.319  32.573  1.00  0.00     0.009 A 
ATOM     66  C   UNL A   1      37.782  30.874  30.539  1.00  0.00     0.009 A 
ATOM     67  C   UNL A   1      37.817  30.624  33.314  1.00  0.00     0.001 A 
ATOM     68  C   UNL A   1      36.648  31.206  31.283  1.00  0.00     0.001 A 
ATOM     69  C   UNL A   1      36.663  31.072  32.670  1.00  0.00     0.000 A 
ENDBRANCH  50  64
BRANCH  51  70
ATOM     70  C   UNL A   1      46.817  27.999  25.604  1.00  0.00    -0.014 A 
ATOM     71  C   UNL A   1      48.030  27.629  26.202  1.00  0.00     0.009 A 
ATOM     72  C   UNL A   1      46.728  28.021  24.202  1.00  0.00     0.009 A 
ATOM     73  C   UNL A   1      49.135  27.300  25.413  1.00  0.00     0.001 A 
ATOM     74  C   UNL A   1      47.824  27.661  23.417  1.00  0.00     0.001 A 
ATOM     75  C   UNL A   1      49.028  27.308  24.023  1.00  0.00     0.000 A 
ENDBRANCH  51  70
BRANCH  63  76
ATOM     76  C   UNL A   1      44.813  33.860  28.738  1.00  0.00    -0.014 A 
ATOM     77  C   UNL A   1      44.718  34.772  27.675  1.00  0.00     0.009 A 
ATOM     78  C   UNL A   1      45.509  34.233  29.897  1.00  0.00     0.009 A 
ATOM     79  C   UNL A   1      45.347  36.016  27.755  1.00  0.00     0.001 A 
ATOM     80  C   UNL A   1      46.116  35.486  29.985  1.00  0.00     0.001 A 
ATOM     81  C   UNL A   1      46.045  36.372  28.910  1.00  0.00     0.000 A 
ENDBRANCH  63  76
ENDBRANCH  37  38
ENDBRANCH  30  32
ENDBRANCH  29  30
ENDBRANCH  28  29
ENDBRANCH   1  28
TORSDOF 17
ENDMDL
MODEL 3
REMARK VINA RESULT:     -10.8      0.490      5.781
REMARK SMILES COCC[C@]1(C(=O)OCCOC(=O)c2ccc(-c3c4nc(c(-c5ccccc5)c5ccc([nH]5)c(-c5ccccc5)c5nc(c(-c6ccccc6)c6ccc3[nH]6)C=C5)C=C4)cc2)CCCN(C(=O)Cc2c(C)nc(C)[nH]c2=O)C1
REMARK SMILES IDX 9 1 8 2 6 3 7 4 5 5 62 6 78 7 63 8 65 9 64 10 4 11 3 12 2 13
REMARK SMILES IDX 1 14 66 15 67 16 68 17 69 18 70 19 76 20 71 21 72 22 75 23
REMARK SMILES IDX 77 24 73 25 74 27 10 28 11 29 12 30 13 31 14 32 15 33 61 34
REMARK SMILES IDX 16 35 60 36 17 37 18 38 19 39 54 40 20 41 59 42 53 43 55 44
REMARK SMILES IDX 21 45 58 46 52 47 51 48 22 50 44 51 29 52 43 53 30 54 33 55
REMARK SMILES IDX 42 56 56 57 31 58 32 59 41 61 57 62 34 63 23 64 24 65 28 66
REMARK SMILES IDX 25 67 27 68 26 69 45 70 46 71 50 72 47 73 49 74 48 75 35 76
REMARK SMILES IDX 36 77 40 78 37 79 39 80 38 81
REMARK H PARENT 75 26 55 49 33 60
REMARK Flexibility Score: inf
ROOT
ATOM      1  C   UNL A   1      36.042  20.651  25.046  1.00  0.00     0.274 C 
ENDROOT
BRANCH   1   2
ATOM      2  O   UNL A   1      35.926  22.089  25.099  1.00  0.00    -0.462 OA
BRANCH   2   3
ATOM      3  C   UNL A   1      35.254  22.670  24.072  1.00  0.00     0.314 C 
ATOM      4  O   UNL A   1      35.707  22.755  22.934  1.00  0.00    -0.252 OA
BRANCH   3   5
ATOM      5  C   UNL A   1      33.846  23.186  24.447  1.00  0.00     0.088 C 
ATOM      6  C   UNL A   1      32.882  22.084  24.930  1.00  0.00     0.022 C 
ATOM      7  C   UNL A   1      34.130  24.155  25.604  1.00  0.00     0.138 C 
ATOM      8  C   UNL A   1      31.908  22.453  26.061  1.00  0.00     0.023 C 
ATOM      9  N   UNL A   1      32.919  24.774  26.110  1.00  0.00    -0.341 N 
ATOM     10  C   UNL A   1      31.927  23.868  26.658  1.00  0.00     0.119 C 
BRANCH   5  11
ATOM     11  C   UNL A   1      33.356  23.927  23.166  1.00  0.00     0.049 C 
BRANCH  11  12
ATOM     12  C   UNL A   1      33.711  25.381  22.887  1.00  0.00     0.161 C 
BRANCH  12  13
ATOM     13  O   UNL A   1      33.642  25.696  21.512  1.00  0.00    -0.385 OA
ATOM     14  C   UNL A   1      32.397  26.289  21.176  1.00  0.00     0.194 C 
ENDBRANCH  12  13
ENDBRANCH  11  12
ENDBRANCH   5  11
BRANCH   9  15
ATOM     15  C   UNL A   1      32.850  26.167  26.136  1.00  0.00     0.227 C 
ATOM     16  O   UNL A   1      33.872  26.856  26.076  1.00  0.00    -0.275 OA
BRANCH  15  17
ATOM     17  C   UNL A   1      31.491  26.853  26.327  1.00  0.00     0.143 C 
BRANCH  17  18
ATOM     18  C   UNL A   1      31.004  27.629  25.135  1.00  0.00     0.048 A 
ATOM     19  C   UNL A   1      31.220  28.938  24.877  1.00  0.00     0.049 A 
ATOM     20  C   UNL A   1      30.232  26.886  24.105  1.00  0.00     0.254 A 
ATOM     21  C   UNL A   1      32.122  29.817  25.706  1.00  0.00     0.067 C 
ATOM     22  N   UNL A   1      30.620  29.630  23.844  1.00  0.00    -0.240 NA
ATOM     23  N   UNL A   1      29.589  27.650  23.179  1.00  0.00    -0.311 N 
ATOM     24  O   UNL A   1      30.210  25.666  24.029  1.00  0.00    -0.269 OA
ATOM     25  C   UNL A   1      29.808  28.985  23.075  1.00  0.00     0.105 A 
ATOM     26  H   UNL A   1      28.946  27.221  22.568  1.00  0.00     0.171 HD
ATOM     27  C   UNL A   1      29.032  29.707  22.013  1.00  0.00     0.087 C 
ENDBRANCH  17  18
ENDBRANCH  15  17
ENDBRANCH   9  15
ENDBRANCH   3   5
ENDBRANCH   2   3
ENDBRANCH   1   2
BRANCH   1  28
ATOM     28  C   UNL A   1      37.504  20.212  25.047  1.00  0.00     0.275 C 
BRANCH  28  29
ATOM     29  O   UNL A   1      38.384  21.347  25.164  1.00  0.00    -0.458 OA
BRANCH  29  30
ATOM     30  C   UNL A   1      39.372  21.210  26.070  1.00  0.00     0.338 C 
ATOM     31  O   UNL A   1      40.040  20.205  26.291  1.00  0.00    -0.246 OA
BRANCH  30  32
ATOM     32  C   UNL A   1      39.631  22.464  26.794  1.00  0.00     0.060 A 
ATOM     33  C   UNL A   1      38.915  23.603  26.451  1.00  0.00     0.016 A 
ATOM     34  C   UNL A   1      40.779  22.574  27.578  1.00  0.00     0.016 A 
ATOM     35  C   UNL A   1      39.476  24.859  26.683  1.00  0.00     0.010 A 
ATOM     36  C   UNL A   1      41.239  23.841  27.961  1.00  0.00     0.010 A 
ATOM     37  C   UNL A   1      40.650  25.008  27.443  1.00  0.00    -0.014 A 
BRANCH  37  38
ATOM     38  C   UNL A   1      41.289  26.351  27.632  1.00  0.00     0.031 A 
ATOM     39  C   UNL A   1      42.581  26.705  26.918  1.00  0.00     0.074 A 
ATOM     40  C   UNL A   1      40.719  27.294  28.413  1.00  0.00     0.049 A 
ATOM     41  N   UNL A   1      43.383  27.727  27.109  1.00  0.00    -0.248 NA
ATOM     42  C   UNL A   1      43.046  25.782  25.870  1.00  0.00     0.031 C 
ATOM     43  C   UNL A   1      39.457  27.154  29.142  1.00  0.00     0.029 A 
ATOM     44  N   UNL A   1      41.122  28.577  28.705  1.00  0.00    -0.354 N 
ATOM     45  C   UNL A   1      44.481  27.515  26.280  1.00  0.00     0.074 A 
ATOM     46  C   UNL A   1      44.240  26.276  25.575  1.00  0.00     0.031 C 
ATOM     47  C   UNL A   1      39.146  28.324  29.718  1.00  0.00     0.029 A 
ATOM     48  C   UNL A   1      40.241  29.261  29.508  1.00  0.00     0.049 A 
ATOM     49  H   UNL A   1      41.961  28.968  28.369  1.00  0.00     0.167 HD
ATOM     50  C   UNL A   1      45.593  28.277  26.123  1.00  0.00     0.031 A 
ATOM     51  C   UNL A   1      40.311  30.487  30.061  1.00  0.00     0.031 A 
ATOM     52  C   UNL A   1      45.806  29.555  26.753  1.00  0.00     0.049 A 
ATOM     53  C   UNL A   1      41.541  31.321  29.861  1.00  0.00     0.074 A 
ATOM     54  C   UNL A   1      46.899  30.401  26.642  1.00  0.00     0.029 A 
ATOM     55  N   UNL A   1      44.895  30.188  27.582  1.00  0.00    -0.354 N 
ATOM     56  N   UNL A   1      42.613  31.056  29.156  1.00  0.00    -0.248 NA
ATOM     57  C   UNL A   1      41.577  32.615  30.556  1.00  0.00     0.031 C 
ATOM     58  C   UNL A   1      46.658  31.537  27.426  1.00  0.00     0.029 A 
ATOM     59  C   UNL A   1      45.399  31.415  27.987  1.00  0.00     0.049 A 
ATOM     60  H   UNL A   1      44.020  29.822  27.845  1.00  0.00     0.167 HD
ATOM     61  C   UNL A   1      43.451  32.149  29.324  1.00  0.00     0.074 A 
ATOM     62  C   UNL A   1      42.750  33.094  30.167  1.00  0.00     0.031 C 
ATOM     63  C   UNL A   1      44.698  32.346  28.830  1.00  0.00     0.031 A 
BRANCH  50  64
ATOM     64  C   UNL A   1      46.698  27.729  25.260  1.00  0.00    -0.014 A 
ATOM     65  C   UNL A   1      47.631  26.802  25.750  1.00  0.00     0.009 A 
ATOM     66  C   UNL A   1      46.774  28.120  23.913  1.00  0.00     0.009 A 
ATOM     67  C   UNL A   1      48.638  26.307  24.916  1.00  0.00     0.001 A 
ATOM     68  C   UNL A   1      47.763  27.602  23.075  1.00  0.00     0.001 A 
ATOM     69  C   UNL A   1      48.701  26.703  23.579  1.00  0.00     0.000 A 
ENDBRANCH  50  64
BRANCH  51  70
ATOM     70  C   UNL A   1      39.196  30.979  30.912  1.00  0.00    -0.014 A 
ATOM     71  C   UNL A   1      38.125  31.685  30.345  1.00  0.00     0.009 A 
ATOM     72  C   UNL A   1      39.193  30.735  32.295  1.00  0.00     0.009 A 
ATOM     73  C   UNL A   1      37.080  32.147  31.148  1.00  0.00     0.001 A 
ATOM     74  C   UNL A   1      38.132  31.169  33.089  1.00  0.00     0.001 A 
ATOM     75  C   UNL A   1      37.080  31.881  32.516  1.00  0.00     0.000 A 
ENDBRANCH  51  70
BRANCH  63  76
ATOM     76  C   UNL A   1      45.363  33.648  29.171  1.00  0.00    -0.014 A 
ATOM     77  C   UNL A   1      46.170  33.774  30.313  1.00  0.00     0.009 A 
ATOM     78  C   UNL A   1      45.179  34.762  28.338  1.00  0.00     0.009 A 
ATOM     79  C   UNL A   1      46.744  35.005  30.637  1.00  0.00     0.001 A 
ATOM     80  C   UNL A   1      45.775  35.984  28.652  1.00  0.00     0.001 A 
ATOM     81  C   UNL A   1      46.547  36.108  29.807  1.00  0.00     0.000 A 
ENDBRANCH  63  76
ENDBRANCH  37  38
ENDBRANCH  30  32
ENDBRANCH  29  30
ENDBRANCH  28  29
ENDBRANCH   1  28
TORSDOF 17
ENDMDL
