MODEL 1
REMARK VINA RESULT:      -9.9      0.000      0.000
REMARK SMILES [NH3+][C@H](Cc1cc(F)c(F)c(F)c1)C(=O)OCCOC(=O)c1ccc(-c2c3nc(c(-c4ccccc4)c4ccc([nH]4)c(-c4ccccc4)c4nc(c(-c5ccccc5)c5ccc2[nH]5)C=C4)C=C3)cc1
REMARK SMILES IDX 16 1 15 2 13 3 14 4 2 5 1 6 3 10 4 11 5 12 12 13 6 14 10 15
REMARK SMILES IDX 7 16 8 17 11 18 9 19 17 20 18 21 19 22 20 23 21 24 22 25
REMARK SMILES IDX 68 26 23 27 67 28 24 29 25 30 26 31 61 32 27 33 66 34 60 35
REMARK SMILES IDX 62 36 28 37 65 38 59 39 58 40 29 42 51 43 36 44 50 45 37 46
REMARK SMILES IDX 40 47 49 48 63 49 38 50 39 51 48 53 64 54 41 55 30 56 31 57
REMARK SMILES IDX 35 58 32 59 34 60 33 61 52 62 53 63 57 64 54 65 56 66 55 67
REMARK SMILES IDX 42 68 43 69 47 70 44 71 46 72 45 73
REMARK H PARENT 1 7 1 8 1 9 62 41 40 52
REMARK Flexibility Score: inf
ROOT
ATOM      1  C   UNL A   1      44.087  18.808  24.696  1.00  0.00     0.274 C 
ENDROOT
BRANCH   1   2
ATOM      2  O   UNL A   1      44.751  19.797  23.884  1.00  0.00    -0.458 OA
BRANCH   2   3
ATOM      3  C   UNL A   1      45.483  20.715  24.575  1.00  0.00     0.365 C 
ATOM      4  O   UNL A   1      46.343  20.433  25.405  1.00  0.00    -0.245 OA
BRANCH   3   5
ATOM      5  C   UNL A   1      45.098  22.166  24.246  1.00  0.00     0.296 C 
BRANCH   5   6
ATOM      6  N   UNL A   1      44.542  22.221  22.875  1.00  0.00    -0.346 N 
ATOM      7  H   UNL A   1      43.554  21.966  22.900  1.00  0.00     0.345 HD
ATOM      8  H   UNL A   1      45.048  21.566  22.277  1.00  0.00     0.345 HD
ATOM      9  H   UNL A   1      44.640  23.166  22.506  1.00  0.00     0.345 HD
ENDBRANCH   5   6
BRANCH   5  10
ATOM     10  C   UNL A   1      46.236  23.183  24.486  1.00  0.00     0.113 C 
BRANCH  10  11
ATOM     11  C   UNL A   1      45.722  24.534  24.945  1.00  0.00    -0.035 A 
ATOM     12  C   UNL A   1      44.349  24.828  24.894  1.00  0.00     0.046 A 
ATOM     13  C   UNL A   1      46.604  25.530  25.393  1.00  0.00     0.046 A 
ATOM     14  C   UNL A   1      43.887  26.097  25.251  1.00  0.00     0.162 A 
ATOM     15  C   UNL A   1      46.126  26.796  25.729  1.00  0.00     0.162 A 
ATOM     16  F   UNL A   1      42.574  26.356  25.187  1.00  0.00    -0.204 F 
ATOM     17  C   UNL A   1      44.772  27.085  25.655  1.00  0.00     0.194 A 
ATOM     18  F   UNL A   1      46.998  27.738  26.114  1.00  0.00    -0.204 F 
ATOM     19  F   UNL A   1      44.325  28.309  25.969  1.00  0.00    -0.200 F 
ENDBRANCH  10  11
ENDBRANCH   5  10
ENDBRANCH   3   5
ENDBRANCH   2   3
ENDBRANCH   1   2
BRANCH   1  20
ATOM     20  C   UNL A   1      43.162  19.424  25.754  1.00  0.00     0.275 C 
BRANCH  20  21
ATOM     21  O   UNL A   1      41.898  18.742  25.853  1.00  0.00    -0.458 OA
BRANCH  21  22
ATOM     22  C   UNL A   1      40.815  19.548  25.948  1.00  0.00     0.338 C 
ATOM     23  O   UNL A   1      39.657  19.264  25.697  1.00  0.00    -0.246 OA
BRANCH  22  24
ATOM     24  C   UNL A   1      41.196  20.825  26.570  1.00  0.00     0.060 A 
ATOM     25  C   UNL A   1      41.571  21.874  25.726  1.00  0.00     0.016 A 
ATOM     26  C   UNL A   1      41.247  20.978  27.956  1.00  0.00     0.016 A 
ATOM     27  C   UNL A   1      41.976  23.093  26.261  1.00  0.00     0.010 A 
ATOM     28  C   UNL A   1      41.659  22.201  28.495  1.00  0.00     0.010 A 
ATOM     29  C   UNL A   1      42.020  23.267  27.650  1.00  0.00    -0.014 A 
BRANCH  29  30
ATOM     30  C   UNL A   1      42.425  24.575  28.216  1.00  0.00     0.031 A 
ATOM     31  C   UNL A   1      41.410  25.660  28.420  1.00  0.00     0.074 A 
ATOM     32  C   UNL A   1      43.714  24.780  28.545  1.00  0.00     0.049 A 
ATOM     33  N   UNL A   1      41.594  26.897  28.803  1.00  0.00    -0.248 NA
ATOM     34  C   UNL A   1      40.004  25.309  28.162  1.00  0.00     0.031 C 
ATOM     35  C   UNL A   1      44.783  23.786  28.439  1.00  0.00     0.029 A 
ATOM     36  N   UNL A   1      44.343  25.900  29.028  1.00  0.00    -0.354 N 
ATOM     37  C   UNL A   1      40.335  27.481  28.813  1.00  0.00     0.074 A 
ATOM     38  C   UNL A   1      39.393  26.463  28.394  1.00  0.00     0.031 C 
ATOM     39  C   UNL A   1      45.938  24.343  28.834  1.00  0.00     0.029 A 
ATOM     40  C   UNL A   1      45.700  25.744  29.172  1.00  0.00     0.049 A 
ATOM     41  H   UNL A   1      43.869  26.733  29.249  1.00  0.00     0.167 HD
ATOM     42  C   UNL A   1      39.997  28.751  29.138  1.00  0.00     0.031 A 
ATOM     43  C   UNL A   1      46.652  26.639  29.496  1.00  0.00     0.031 A 
ATOM     44  C   UNL A   1      40.935  29.759  29.560  1.00  0.00     0.049 A 
ATOM     45  C   UNL A   1      46.258  28.063  29.769  1.00  0.00     0.074 A 
ATOM     46  C   UNL A   1      40.682  31.065  29.941  1.00  0.00     0.029 A 
ATOM     47  N   UNL A   1      42.305  29.573  29.647  1.00  0.00    -0.354 N 
ATOM     48  N   UNL A   1      45.062  28.599  29.787  1.00  0.00    -0.248 NA
ATOM     49  C   UNL A   1      47.347  29.008  30.052  1.00  0.00     0.031 C 
ATOM     50  C   UNL A   1      41.906  31.687  30.209  1.00  0.00     0.029 A 
ATOM     51  C   UNL A   1      42.915  30.754  30.039  1.00  0.00     0.049 A 
ATOM     52  H   UNL A   1      42.775  28.729  29.459  1.00  0.00     0.167 HD
ATOM     53  C   UNL A   1      45.254  29.939  30.091  1.00  0.00     0.074 A 
ATOM     54  C   UNL A   1      46.678  30.131  30.273  1.00  0.00     0.031 C 
ATOM     55  C   UNL A   1      44.334  30.928  30.203  1.00  0.00     0.031 A 
BRANCH  42  56
ATOM     56  C   UNL A   1      38.555  29.145  29.014  1.00  0.00    -0.014 A 
ATOM     57  C   UNL A   1      37.693  29.116  30.120  1.00  0.00     0.009 A 
ATOM     58  C   UNL A   1      38.073  29.621  27.784  1.00  0.00     0.009 A 
ATOM     59  C   UNL A   1      36.367  29.540  29.990  1.00  0.00     0.001 A 
ATOM     60  C   UNL A   1      36.754  30.061  27.664  1.00  0.00     0.001 A 
ATOM     61  C   UNL A   1      35.902  30.018  28.765  1.00  0.00     0.000 A 
ENDBRANCH  42  56
BRANCH  43  62
ATOM     62  C   UNL A   1      48.082  26.235  29.509  1.00  0.00    -0.014 A 
ATOM     63  C   UNL A   1      48.843  26.247  28.333  1.00  0.00     0.009 A 
ATOM     64  C   UNL A   1      48.683  25.809  30.705  1.00  0.00     0.009 A 
ATOM     65  C   UNL A   1      50.173  25.817  28.348  1.00  0.00     0.001 A 
ATOM     66  C   UNL A   1      50.019  25.407  30.722  1.00  0.00     0.001 A 
ATOM     67  C   UNL A   1      50.760  25.403  29.543  1.00  0.00     0.000 A 
ENDBRANCH  43  62
BRANCH  55  68
ATOM     68  C   UNL A   1      44.841  32.297  30.544  1.00  0.00    -0.014 A 
ATOM     69  C   UNL A   1      45.269  33.178  29.538  1.00  0.00     0.009 A 
ATOM     70  C   UNL A   1      44.860  32.725  31.880  1.00  0.00     0.009 A 
ATOM     71  C   UNL A   1      45.731  34.453  29.867  1.00  0.00     0.001 A 
ATOM     72  C   UNL A   1      45.300  34.009  32.204  1.00  0.00     0.001 A 
ATOM     73  C   UNL A   1      45.742  34.869  31.198  1.00  0.00     0.000 A 
ENDBRANCH  55  68
ENDBRANCH  29  30
ENDBRANCH  22  24
ENDBRANCH  21  22
ENDBRANCH  20  21
ENDBRANCH   1  20
TORSDOF 14
ENDMDL
MODEL 2
REMARK VINA RESULT:      -9.5      0.612      6.308
REMARK SMILES [NH3+][C@H](Cc1cc(F)c(F)c(F)c1)C(=O)OCCOC(=O)c1ccc(-c2c3nc(c(-c4ccccc4)c4ccc([nH]4)c(-c4ccccc4)c4nc(c(-c5ccccc5)c5ccc2[nH]5)C=C4)C=C3)cc1
REMARK SMILES IDX 16 1 15 2 13 3 14 4 2 5 1 6 3 10 4 11 5 12 12 13 6 14 10 15
REMARK SMILES IDX 7 16 8 17 11 18 9 19 17 20 18 21 19 22 20 23 21 24 22 25
REMARK SMILES IDX 68 26 23 27 67 28 24 29 25 30 26 31 61 32 27 33 66 34 60 35
REMARK SMILES IDX 62 36 28 37 65 38 59 39 58 40 29 42 51 43 36 44 50 45 37 46
REMARK SMILES IDX 40 47 49 48 63 49 38 50 39 51 48 53 64 54 41 55 30 56 31 57
REMARK SMILES IDX 35 58 32 59 34 60 33 61 52 62 53 63 57 64 54 65 56 66 55 67
REMARK SMILES IDX 42 68 43 69 47 70 44 71 46 72 45 73
REMARK H PARENT 1 7 1 8 1 9 62 41 40 52
REMARK Flexibility Score: inf
ROOT
ATOM      1  C   UNL A   1      43.982  18.752  25.038  1.00  0.00     0.274 C 
ENDROOT
BRANCH   1   2
ATOM      2  O   UNL A   1      44.246  19.906  24.216  1.00  0.00    -0.458 OA
BRANCH   2   3
ATOM      3  C   UNL A   1      45.269  20.698  24.643  1.00  0.00     0.365 C 
ATOM      4  O   UNL A   1      46.205  20.309  25.334  1.00  0.00    -0.245 OA
BRANCH   3   5
ATOM      5  C   UNL A   1      45.119  22.164  24.206  1.00  0.00     0.296 C 
BRANCH   5   6
ATOM      6  N   UNL A   1      44.608  22.207  22.818  1.00  0.00    -0.346 N 
ATOM      7  H   UNL A   1      43.648  21.862  22.800  1.00  0.00     0.345 HD
ATOM      8  H   UNL A   1      45.192  21.619  22.222  1.00  0.00     0.345 HD
ATOM      9  H   UNL A   1      44.631  23.168  22.476  1.00  0.00     0.345 HD
ENDBRANCH   5   6
BRANCH   5  10
ATOM     10  C   UNL A   1      46.395  23.009  24.415  1.00  0.00     0.113 C 
BRANCH  10  11
ATOM     11  C   UNL A   1      46.089  24.430  24.848  1.00  0.00    -0.035 A 
ATOM     12  C   UNL A   1      47.121  25.283  25.272  1.00  0.00     0.046 A 
ATOM     13  C   UNL A   1      44.771  24.911  24.871  1.00  0.00     0.046 A 
ATOM     14  C   UNL A   1      46.828  26.567  25.736  1.00  0.00     0.162 A 
ATOM     15  C   UNL A   1      44.495  26.191  25.354  1.00  0.00     0.162 A 
ATOM     16  F   UNL A   1      47.830  27.360  26.143  1.00  0.00    -0.204 F 
ATOM     17  C   UNL A   1      45.518  27.018  25.791  1.00  0.00     0.194 A 
ATOM     18  F   UNL A   1      43.222  26.606  25.403  1.00  0.00    -0.204 F 
ATOM     19  F   UNL A   1      45.241  28.242  26.264  1.00  0.00    -0.200 F 
ENDBRANCH  10  11
ENDBRANCH   5  10
ENDBRANCH   3   5
ENDBRANCH   2   3
ENDBRANCH   1   2
BRANCH   1  20
ATOM     20  C   UNL A   1      43.322  19.108  26.376  1.00  0.00     0.275 C 
BRANCH  20  21
ATOM     21  O   UNL A   1      41.968  18.628  26.474  1.00  0.00    -0.458 OA
BRANCH  21  22
ATOM     22  C   UNL A   1      41.013  19.519  26.121  1.00  0.00     0.338 C 
ATOM     23  O   UNL A   1      39.960  19.290  25.553  1.00  0.00    -0.246 OA
BRANCH  22  24
ATOM     24  C   UNL A   1      41.341  20.845  26.667  1.00  0.00     0.060 A 
ATOM     25  C   UNL A   1      41.783  21.825  25.775  1.00  0.00     0.016 A 
ATOM     26  C   UNL A   1      41.278  21.108  28.036  1.00  0.00     0.016 A 
ATOM     27  C   UNL A   1      42.142  23.087  26.241  1.00  0.00     0.010 A 
ATOM     28  C   UNL A   1      41.644  22.374  28.506  1.00  0.00     0.010 A 
ATOM     29  C   UNL A   1      42.072  23.372  27.611  1.00  0.00    -0.014 A 
BRANCH  29  30
ATOM     30  C   UNL A   1      42.428  24.724  28.100  1.00  0.00     0.031 A 
ATOM     31  C   UNL A   1      43.832  25.031  28.528  1.00  0.00     0.074 A 
ATOM     32  C   UNL A   1      41.477  25.675  28.156  1.00  0.00     0.049 A 
ATOM     33  N   UNL A   1      44.305  26.120  29.078  1.00  0.00    -0.248 NA
ATOM     34  C   UNL A   1      44.837  23.978  28.308  1.00  0.00     0.031 C 
ATOM     35  C   UNL A   1      40.089  25.511  27.722  1.00  0.00     0.029 A 
ATOM     36  N   UNL A   1      41.536  26.968  28.613  1.00  0.00    -0.354 N 
ATOM     37  C   UNL A   1      45.655  25.879  29.290  1.00  0.00     0.074 A 
ATOM     38  C   UNL A   1      45.927  24.539  28.812  1.00  0.00     0.031 C 
ATOM     39  C   UNL A   1      39.424  26.657  27.943  1.00  0.00     0.029 A 
ATOM     40  C   UNL A   1      40.324  27.614  28.579  1.00  0.00     0.049 A 
ATOM     41  H   UNL A   1      42.365  27.391  28.933  1.00  0.00     0.167 HD
ATOM     42  C   UNL A   1      46.582  26.702  29.836  1.00  0.00     0.031 A 
ATOM     43  C   UNL A   1      39.967  28.825  29.047  1.00  0.00     0.031 A 
ATOM     44  C   UNL A   1      46.309  28.035  30.304  1.00  0.00     0.049 A 
ATOM     45  C   UNL A   1      40.998  29.682  29.726  1.00  0.00     0.074 A 
ATOM     46  C   UNL A   1      47.192  28.955  30.844  1.00  0.00     0.029 A 
ATOM     47  N   UNL A   1      45.060  28.635  30.295  1.00  0.00    -0.354 N 
ATOM     48  N   UNL A   1      42.275  29.448  29.910  1.00  0.00    -0.248 NA
ATOM     49  C   UNL A   1      40.535  30.964  30.276  1.00  0.00     0.031 C 
ATOM     50  C   UNL A   1      46.466  30.094  31.211  1.00  0.00     0.029 A 
ATOM     51  C   UNL A   1      45.142  29.899  30.857  1.00  0.00     0.049 A 
ATOM     52  H   UNL A   1      44.238  28.224  29.942  1.00  0.00     0.167 HD
ATOM     53  C   UNL A   1      42.768  30.555  30.587  1.00  0.00     0.074 A 
ATOM     54  C   UNL A   1      41.659  31.471  30.761  1.00  0.00     0.031 C 
ATOM     55  C   UNL A   1      44.026  30.790  31.032  1.00  0.00     0.031 A 
BRANCH  42  56
ATOM     56  C   UNL A   1      47.976  26.173  30.000  1.00  0.00    -0.014 A 
ATOM     57  C   UNL A   1      48.892  26.189  28.938  1.00  0.00     0.009 A 
ATOM     58  C   UNL A   1      48.399  25.718  31.260  1.00  0.00     0.009 A 
ATOM     59  C   UNL A   1      50.203  25.742  29.131  1.00  0.00     0.001 A 
ATOM     60  C   UNL A   1      49.712  25.290  31.453  1.00  0.00     0.001 A 
ATOM     61  C   UNL A   1      50.612  25.299  30.390  1.00  0.00     0.000 A 
ENDBRANCH  42  56
BRANCH  43  62
ATOM     62  C   UNL A   1      38.554  29.272  28.958  1.00  0.00    -0.014 A 
ATOM     63  C   UNL A   1      38.054  29.843  27.779  1.00  0.00     0.009 A 
ATOM     64  C   UNL A   1      37.704  29.150  30.068  1.00  0.00     0.009 A 
ATOM     65  C   UNL A   1      36.737  30.306  27.723  1.00  0.00     0.001 A 
ATOM     66  C   UNL A   1      36.380  29.588  30.000  1.00  0.00     0.001 A 
ATOM     67  C   UNL A   1      35.901  30.174  28.830  1.00  0.00     0.000 A 
ENDBRANCH  43  62
BRANCH  55  68
ATOM     68  C   UNL A   1      44.267  32.089  31.741  1.00  0.00    -0.014 A 
ATOM     69  C   UNL A   1      44.613  33.246  31.026  1.00  0.00     0.009 A 
ATOM     70  C   UNL A   1      44.114  32.167  33.134  1.00  0.00     0.009 A 
ATOM     71  C   UNL A   1      44.826  34.452  31.696  1.00  0.00     0.001 A 
ATOM     72  C   UNL A   1      44.304  33.380  33.798  1.00  0.00     0.001 A 
ATOM     73  C   UNL A   1      44.667  34.519  33.080  1.00  0.00     0.000 A 
ENDBRANCH  55  68
ENDBRANCH  29  30
ENDBRANCH  22  24
ENDBRANCH  21  22
ENDBRANCH  20  21
ENDBRANCH   1  20
TORSDOF 14
ENDMDL
MODEL 3
REMARK VINA RESULT:      -9.4      3.884      8.003
REMARK SMILES [NH3+][C@H](Cc1cc(F)c(F)c(F)c1)C(=O)OCCOC(=O)c1ccc(-c2c3nc(c(-c4ccccc4)c4ccc([nH]4)c(-c4ccccc4)c4nc(c(-c5ccccc5)c5ccc2[nH]5)C=C4)C=C3)cc1
REMARK SMILES IDX 16 1 15 2 13 3 14 4 2 5 1 6 3 10 4 11 5 12 12 13 6 14 10 15
REMARK SMILES IDX 7 16 8 17 11 18 9 19 17 20 18 21 19 22 20 23 21 24 22 25
REMARK SMILES IDX 68 26 23 27 67 28 24 29 25 30 26 31 61 32 27 33 66 34 60 35
REMARK SMILES IDX 62 36 28 37 65 38 59 39 58 40 29 42 51 43 36 44 50 45 37 46
REMARK SMILES IDX 40 47 49 48 63 49 38 50 39 51 48 53 64 54 41 55 30 56 31 57
REMARK SMILES IDX 35 58 32 59 34 60 33 61 52 62 53 63 57 64 54 65 56 66 55 67
REMARK SMILES IDX 42 68 43 69 47 70 44 71 46 72 45 73
REMARK H PARENT 1 7 1 8 1 9 62 41 40 52
REMARK Flexibility Score: inf
ROOT
ATOM      1  C   UNL A   1      44.955  19.933  25.190  1.00  0.00     0.274 C 
ENDROOT
BRANCH   1   2
ATOM      2  O   UNL A   1      43.637  19.641  24.685  1.00  0.00    -0.458 OA
BRANCH   2   3
ATOM      3  C   UNL A   1      42.799  19.037  25.572  1.00  0.00     0.365 C 
ATOM      4  O   UNL A   1      42.774  17.829  25.790  1.00  0.00    -0.245 OA
BRANCH   3   5
ATOM      5  C   UNL A   1      41.838  20.019  26.260  1.00  0.00     0.296 C 
BRANCH   5   6
ATOM      6  N   UNL A   1      42.294  20.252  27.649  1.00  0.00    -0.346 N 
ATOM      7  H   UNL A   1      43.314  20.252  27.675  1.00  0.00     0.345 HD
ATOM      8  H   UNL A   1      41.938  19.509  28.252  1.00  0.00     0.345 HD
ATOM      9  H   UNL A   1      41.944  21.153  27.976  1.00  0.00     0.345 HD
ENDBRANCH   5   6
BRANCH   5  10
ATOM     10  C   UNL A   1      40.352  19.609  26.164  1.00  0.00     0.113 C 
BRANCH  10  11
ATOM     11  C   UNL A   1      39.427  20.800  26.006  1.00  0.00    -0.035 A 
ATOM     12  C   UNL A   1      38.271  20.704  25.213  1.00  0.00     0.046 A 
ATOM     13  C   UNL A   1      39.721  22.030  26.615  1.00  0.00     0.046 A 
ATOM     14  C   UNL A   1      37.459  21.822  25.014  1.00  0.00     0.162 A 
ATOM     15  C   UNL A   1      38.907  23.140  26.391  1.00  0.00     0.162 A 
ATOM     16  F   UNL A   1      36.367  21.708  24.246  1.00  0.00    -0.204 F 
ATOM     17  C   UNL A   1      37.780  23.043  25.589  1.00  0.00     0.194 A 
ATOM     18  F   UNL A   1      39.237  24.311  26.953  1.00  0.00    -0.204 F 
ATOM     19  F   UNL A   1      37.011  24.118  25.371  1.00  0.00    -0.200 F 
ENDBRANCH  10  11
ENDBRANCH   5  10
ENDBRANCH   3   5
ENDBRANCH   2   3
ENDBRANCH   1   2
BRANCH   1  20
ATOM     20  C   UNL A   1      45.279  21.433  25.186  1.00  0.00     0.275 C 
BRANCH  20  21
ATOM     21  O   UNL A   1      44.442  22.186  26.084  1.00  0.00    -0.458 OA
BRANCH  21  22
ATOM     22  C   UNL A   1      43.641  23.102  25.492  1.00  0.00     0.338 C 
ATOM     23  O   UNL A   1      43.162  23.055  24.373  1.00  0.00    -0.246 OA
BRANCH  22  24
ATOM     24  C   UNL A   1      43.271  24.143  26.465  1.00  0.00     0.060 A 
ATOM     25  C   UNL A   1      42.586  23.744  27.615  1.00  0.00     0.016 A 
ATOM     26  C   UNL A   1      43.534  25.492  26.227  1.00  0.00     0.016 A 
ATOM     27  C   UNL A   1      42.180  24.691  28.552  1.00  0.00     0.010 A 
ATOM     28  C   UNL A   1      43.121  26.445  27.165  1.00  0.00     0.010 A 
ATOM     29  C   UNL A   1      42.447  26.048  28.334  1.00  0.00    -0.014 A 
BRANCH  29  30
ATOM     30  C   UNL A   1      42.038  27.050  29.347  1.00  0.00     0.031 A 
ATOM     31  C   UNL A   1      42.804  27.190  30.628  1.00  0.00     0.074 A 
ATOM     32  C   UNL A   1      40.971  27.834  29.104  1.00  0.00     0.049 A 
ATOM     33  N   UNL A   1      42.535  27.934  31.670  1.00  0.00    -0.248 NA
ATOM     34  C   UNL A   1      44.034  26.391  30.755  1.00  0.00     0.031 C 
ATOM     35  C   UNL A   1      40.176  27.825  27.874  1.00  0.00     0.029 A 
ATOM     36  N   UNL A   1      40.367  28.784  29.887  1.00  0.00    -0.354 N 
ATOM     37  C   UNL A   1      43.546  27.680  32.586  1.00  0.00     0.074 A 
ATOM     38  C   UNL A   1      44.434  26.711  31.979  1.00  0.00     0.031 C 
ATOM     39  C   UNL A   1      39.182  28.720  27.990  1.00  0.00     0.029 A 
ATOM     40  C   UNL A   1      39.240  29.326  29.317  1.00  0.00     0.049 A 
ATOM     41  H   UNL A   1      40.707  29.052  30.771  1.00  0.00     0.167 HD
ATOM     42  C   UNL A   1      43.715  28.207  33.822  1.00  0.00     0.031 A 
ATOM     43  C   UNL A   1      38.331  30.180  29.823  1.00  0.00     0.031 A 
ATOM     44  C   UNL A   1      42.833  29.175  34.420  1.00  0.00     0.049 A 
ATOM     45  C   UNL A   1      38.498  30.682  31.229  1.00  0.00     0.074 A 
ATOM     46  C   UNL A   1      42.941  29.790  35.656  1.00  0.00     0.029 A 
ATOM     47  N   UNL A   1      41.679  29.662  33.829  1.00  0.00    -0.354 N 
ATOM     48  N   UNL A   1      39.466  30.445  32.081  1.00  0.00    -0.248 NA
ATOM     49  C   UNL A   1      37.439  31.560  31.749  1.00  0.00     0.031 C 
ATOM     50  C   UNL A   1      41.822  30.610  35.835  1.00  0.00     0.029 A 
ATOM     51  C   UNL A   1      41.044  30.540  34.692  1.00  0.00     0.049 A 
ATOM     52  H   UNL A   1      41.358  29.419  32.930  1.00  0.00     0.167 HD
ATOM     53  C   UNL A   1      39.137  31.148  33.231  1.00  0.00     0.074 A 
ATOM     54  C   UNL A   1      37.894  31.841  32.962  1.00  0.00     0.031 C 
ATOM     55  C   UNL A   1      39.802  31.210  34.410  1.00  0.00     0.031 A 
BRANCH  42  56
ATOM     56  C   UNL A   1      44.876  27.720  34.637  1.00  0.00    -0.014 A 
ATOM     57  C   UNL A   1      44.769  26.588  35.457  1.00  0.00     0.009 A 
ATOM     58  C   UNL A   1      46.119  28.366  34.523  1.00  0.00     0.009 A 
ATOM     59  C   UNL A   1      45.882  26.121  36.164  1.00  0.00     0.001 A 
ATOM     60  C   UNL A   1      47.232  27.886  35.214  1.00  0.00     0.001 A 
ATOM     61  C   UNL A   1      47.112  26.767  36.036  1.00  0.00     0.000 A 
ENDBRANCH  42  56
BRANCH  43  62
ATOM     62  C   UNL A   1      37.139  30.561  29.021  1.00  0.00    -0.014 A 
ATOM     63  C   UNL A   1      36.945  31.885  28.607  1.00  0.00     0.009 A 
ATOM     64  C   UNL A   1      36.174  29.596  28.690  1.00  0.00     0.009 A 
ATOM     65  C   UNL A   1      35.796  32.241  27.897  1.00  0.00     0.001 A 
ATOM     66  C   UNL A   1      35.041  29.949  27.957  1.00  0.00     0.001 A 
ATOM     67  C   UNL A   1      34.848  31.273  27.569  1.00  0.00     0.000 A 
ENDBRANCH  43  62
BRANCH  55  68
ATOM     68  C   UNL A   1      39.200  32.060  35.489  1.00  0.00    -0.014 A 
ATOM     69  C   UNL A   1      39.395  33.450  35.502  1.00  0.00     0.009 A 
ATOM     70  C   UNL A   1      38.402  31.472  36.482  1.00  0.00     0.009 A 
ATOM     71  C   UNL A   1      38.822  34.233  36.507  1.00  0.00     0.001 A 
ATOM     72  C   UNL A   1      37.811  32.260  37.471  1.00  0.00     0.001 A 
ATOM     73  C   UNL A   1      38.028  33.638  37.487  1.00  0.00     0.000 A 
ENDBRANCH  55  68
ENDBRANCH  29  30
ENDBRANCH  22  24
ENDBRANCH  21  22
ENDBRANCH  20  21
ENDBRANCH   1  20
TORSDOF 14
ENDMDL
