MODEL 1
REMARK VINA RESULT:     -11.0      0.000      0.000
REMARK SMILES C[NH+]1CCC(NC(=O)N[C@@H]2C=C[C@H](C(=O)OCCOC(=O)c3ccc(-c4c5nc(c(-c6ccccc6)c6ccc([nH]6)c(-c6ccccc6)c6nc(c(-c7ccccc7)c7ccc4[nH]7)C=C6)C=C5)cc3)C2)CC1
REMARK SMILES IDX 17 1 16 2 14 3 15 4 13 5 10 6 11 7 70 8 12 9 9 10 6 11 7 12
REMARK SMILES IDX 8 14 5 16 1 17 2 18 3 19 72 20 4 22 71 23 18 24 19 25 20 26
REMARK SMILES IDX 21 27 22 28 23 29 69 30 24 31 68 32 25 33 26 34 27 35 62 36
REMARK SMILES IDX 28 37 67 38 61 39 63 40 29 41 66 42 60 43 59 44 30 46 52 47
REMARK SMILES IDX 37 48 51 49 38 50 41 51 50 52 64 53 39 54 40 55 49 57 65 58
REMARK SMILES IDX 42 59 31 60 32 61 36 62 33 63 35 64 34 65 53 66 54 67 58 68
REMARK SMILES IDX 55 69 57 70 56 71 43 72 44 73 48 74 45 75 47 76 46 77
REMARK H PARENT 6 13 9 15 2 21 63 45 41 56
REMARK Flexibility Score: inf
ROOT
ATOM      1  C   UNL A   1      35.494  20.090  24.967  1.00  0.00     0.274 C 
ENDROOT
BRANCH   1   2
ATOM      2  O   UNL A   1      34.491  20.873  25.646  1.00  0.00    -0.462 OA
BRANCH   2   3
ATOM      3  C   UNL A   1      33.772  21.761  24.902  1.00  0.00     0.312 C 
ATOM      4  O   UNL A   1      33.315  21.550  23.787  1.00  0.00    -0.252 OA
BRANCH   3   5
ATOM      5  C   UNL A   1      33.565  23.040  25.702  1.00  0.00     0.124 C 
ATOM      6  C   UNL A   1      32.973  25.031  24.372  1.00  0.00     0.107 C 
ATOM      7  C   UNL A   1      34.362  25.112  24.916  1.00  0.00    -0.006 C 
ATOM      8  C   UNL A   1      32.383  23.843  25.151  1.00  0.00     0.048 C 
ATOM      9  C   UNL A   1      34.703  24.011  25.598  1.00  0.00    -0.014 C 
BRANCH   6  10
ATOM     10  N   UNL A   1      33.125  24.836  22.945  1.00  0.00    -0.332 N 
ATOM     11  N   UNL A   1      32.430  26.848  21.886  1.00  0.00    -0.335 N 
ATOM     12  C   UNL A   1      32.944  25.608  21.858  1.00  0.00     0.315 C 
ATOM     13  H   UNL A   1      32.136  27.187  21.010  1.00  0.00     0.165 HD
ATOM     14  O   UNL A   1      33.251  25.139  20.760  1.00  0.00    -0.249 OA
ATOM     15  H   UNL A   1      33.433  23.930  22.716  1.00  0.00     0.165 HD
BRANCH  11  16
ATOM     16  C   UNL A   1      32.233  27.768  22.979  1.00  0.00     0.095 C 
ATOM     17  C   UNL A   1      31.646  30.479  26.054  1.00  0.00     0.332 C 
ATOM     18  N   UNL A   1      31.961  30.082  24.675  1.00  0.00    -0.337 N 
ATOM     19  C   UNL A   1      30.779  29.439  24.076  1.00  0.00     0.264 C 
ATOM     20  C   UNL A   1      33.185  29.261  24.671  1.00  0.00     0.264 C 
ATOM     21  H   UNL A   1      32.170  30.888  24.087  1.00  0.00     0.347 HD
ATOM     22  C   UNL A   1      31.067  28.722  22.758  1.00  0.00     0.086 C 
ATOM     23  C   UNL A   1      33.464  28.598  23.318  1.00  0.00     0.086 C 
ENDBRANCH  11  16
ENDBRANCH   6  10
ENDBRANCH   3   5
ENDBRANCH   2   3
ENDBRANCH   1   2
BRANCH   1  24
ATOM     24  C   UNL A   1      36.680  20.971  24.582  1.00  0.00     0.275 C 
BRANCH  24  25
ATOM     25  O   UNL A   1      37.276  21.503  25.778  1.00  0.00    -0.458 OA
BRANCH  25  26
ATOM     26  C   UNL A   1      38.584  21.232  25.969  1.00  0.00     0.338 C 
ATOM     27  O   UNL A   1      39.186  20.205  25.701  1.00  0.00    -0.246 OA
BRANCH  26  28
ATOM     28  C   UNL A   1      39.242  22.436  26.495  1.00  0.00     0.060 A 
ATOM     29  C   UNL A   1      38.728  23.670  26.120  1.00  0.00     0.016 A 
ATOM     30  C   UNL A   1      40.417  22.363  27.244  1.00  0.00     0.016 A 
ATOM     31  C   UNL A   1      39.435  24.828  26.412  1.00  0.00     0.010 A 
ATOM     32  C   UNL A   1      41.074  23.546  27.620  1.00  0.00     0.010 A 
ATOM     33  C   UNL A   1      40.599  24.794  27.182  1.00  0.00    -0.014 A 
BRANCH  33  34
ATOM     34  C   UNL A   1      41.303  26.075  27.459  1.00  0.00     0.031 A 
ATOM     35  C   UNL A   1      40.722  27.061  28.435  1.00  0.00     0.074 A 
ATOM     36  C   UNL A   1      42.525  26.311  26.938  1.00  0.00     0.049 A 
ATOM     37  N   UNL A   1      41.145  28.260  28.747  1.00  0.00    -0.248 NA
ATOM     38  C   UNL A   1      39.517  26.640  29.166  1.00  0.00     0.031 C 
ATOM     39  C   UNL A   1      43.277  25.385  26.090  1.00  0.00     0.029 A 
ATOM     40  N   UNL A   1      43.372  27.383  27.088  1.00  0.00    -0.354 N 
ATOM     41  C   UNL A   1      40.230  28.757  29.665  1.00  0.00     0.074 A 
ATOM     42  C   UNL A   1      39.241  27.722  29.881  1.00  0.00     0.031 C 
ATOM     43  C   UNL A   1      44.496  25.897  25.852  1.00  0.00     0.029 A 
ATOM     44  C   UNL A   1      44.577  27.225  26.445  1.00  0.00     0.049 A 
ATOM     45  H   UNL A   1      43.138  28.186  27.606  1.00  0.00     0.167 HD
ATOM     46  C   UNL A   1      40.205  29.974  30.257  1.00  0.00     0.031 A 
ATOM     47  C   UNL A   1      45.621  28.066  26.316  1.00  0.00     0.031 A 
ATOM     48  C   UNL A   1      41.200  30.994  30.068  1.00  0.00     0.049 A 
ATOM     49  C   UNL A   1      45.531  29.439  26.918  1.00  0.00     0.074 A 
ATOM     50  C   UNL A   1      41.226  32.280  30.581  1.00  0.00     0.029 A 
ATOM     51  N   UNL A   1      42.355  30.839  29.320  1.00  0.00    -0.354 N 
ATOM     52  N   UNL A   1      44.605  29.941  27.696  1.00  0.00    -0.248 NA
ATOM     53  C   UNL A   1      46.617  30.376  26.591  1.00  0.00     0.031 C 
ATOM     54  C   UNL A   1      42.377  32.918  30.107  1.00  0.00     0.029 A 
ATOM     55  C   UNL A   1      43.089  32.013  29.335  1.00  0.00     0.049 A 
ATOM     56  H   UNL A   1      42.616  30.016  28.846  1.00  0.00     0.167 HD
ATOM     57  C   UNL A   1      44.988  31.251  27.944  1.00  0.00     0.074 A 
ATOM     58  C   UNL A   1      46.252  31.457  27.268  1.00  0.00     0.031 C 
ATOM     59  C   UNL A   1      44.340  32.206  28.653  1.00  0.00     0.031 A 
BRANCH  46  60
ATOM     60  C   UNL A   1      39.007  30.303  31.098  1.00  0.00    -0.014 A 
ATOM     61  C   UNL A   1      37.838  30.841  30.545  1.00  0.00     0.009 A 
ATOM     62  C   UNL A   1      39.053  30.033  32.476  1.00  0.00     0.009 A 
ATOM     63  C   UNL A   1      36.740  31.123  31.364  1.00  0.00     0.001 A 
ATOM     64  C   UNL A   1      37.949  30.298  33.287  1.00  0.00     0.001 A 
ATOM     65  C   UNL A   1      36.796  30.848  32.731  1.00  0.00     0.000 A 
ENDBRANCH  46  60
BRANCH  47  66
ATOM     66  C   UNL A   1      46.812  27.673  25.516  1.00  0.00    -0.014 A 
ATOM     67  C   UNL A   1      46.864  27.918  24.135  1.00  0.00     0.009 A 
ATOM     68  C   UNL A   1      47.893  27.016  26.127  1.00  0.00     0.009 A 
ATOM     69  C   UNL A   1      47.963  27.497  23.383  1.00  0.00     0.001 A 
ATOM     70  C   UNL A   1      49.003  26.623  25.379  1.00  0.00     0.001 A 
ATOM     71  C   UNL A   1      49.034  26.855  24.006  1.00  0.00     0.000 A 
ENDBRANCH  47  66
BRANCH  59  72
ATOM     72  C   UNL A   1      44.986  33.558  28.727  1.00  0.00    -0.014 A 
ATOM     73  C   UNL A   1      44.671  34.556  27.791  1.00  0.00     0.009 A 
ATOM     74  C   UNL A   1      45.886  33.849  29.763  1.00  0.00     0.009 A 
ATOM     75  C   UNL A   1      45.268  35.814  27.878  1.00  0.00     0.001 A 
ATOM     76  C   UNL A   1      46.463  35.117  29.859  1.00  0.00     0.001 A 
ATOM     77  C   UNL A   1      46.159  36.095  28.912  1.00  0.00     0.000 A 
ENDBRANCH  59  72
ENDBRANCH  33  34
ENDBRANCH  26  28
ENDBRANCH  25  26
ENDBRANCH  24  25
ENDBRANCH   1  24
TORSDOF 13
ENDMDL
MODEL 2
REMARK VINA RESULT:     -10.8      2.428      6.362
REMARK SMILES C[NH+]1CCC(NC(=O)N[C@@H]2C=C[C@H](C(=O)OCCOC(=O)c3ccc(-c4c5nc(c(-c6ccccc6)c6ccc([nH]6)c(-c6ccccc6)c6nc(c(-c7ccccc7)c7ccc4[nH]7)C=C6)C=C5)cc3)C2)CC1
REMARK SMILES IDX 17 1 16 2 14 3 15 4 13 5 10 6 11 7 70 8 12 9 9 10 6 11 7 12
REMARK SMILES IDX 8 14 5 16 1 17 2 18 3 19 72 20 4 22 71 23 18 24 19 25 20 26
REMARK SMILES IDX 21 27 22 28 23 29 69 30 24 31 68 32 25 33 26 34 27 35 62 36
REMARK SMILES IDX 28 37 67 38 61 39 63 40 29 41 66 42 60 43 59 44 30 46 52 47
REMARK SMILES IDX 37 48 51 49 38 50 41 51 50 52 64 53 39 54 40 55 49 57 65 58
REMARK SMILES IDX 42 59 31 60 32 61 36 62 33 63 35 64 34 65 53 66 54 67 58 68
REMARK SMILES IDX 55 69 57 70 56 71 43 72 44 73 48 74 45 75 47 76 46 77
REMARK H PARENT 6 13 9 15 2 21 63 45 41 56
REMARK Flexibility Score: inf
ROOT
ATOM      1  C   UNL A   1      38.498  21.194  25.749  1.00  0.00     0.274 C 
ENDROOT
BRANCH   1   2
ATOM      2  O   UNL A   1      37.517  21.536  24.750  1.00  0.00    -0.462 OA
BRANCH   2   3
ATOM      3  C   UNL A   1      36.303  21.980  25.183  1.00  0.00     0.312 C 
ATOM      4  O   UNL A   1      35.644  21.482  26.086  1.00  0.00    -0.252 OA
BRANCH   3   5
ATOM      5  C   UNL A   1      35.918  23.236  24.413  1.00  0.00     0.124 C 
ATOM      6  C   UNL A   1      33.939  24.433  25.268  1.00  0.00     0.107 C 
ATOM      7  C   UNL A   1      33.664  23.751  23.967  1.00  0.00    -0.006 C 
ATOM      8  C   UNL A   1      35.471  24.346  25.368  1.00  0.00     0.048 C 
ATOM      9  C   UNL A   1      34.723  23.061  23.525  1.00  0.00    -0.014 C 
BRANCH   6  10
ATOM     10  N   UNL A   1      33.199  23.684  26.263  1.00  0.00    -0.332 N 
ATOM     11  N   UNL A   1      31.185  24.877  26.680  1.00  0.00    -0.335 N 
ATOM     12  C   UNL A   1      31.999  23.823  26.855  1.00  0.00     0.315 C 
ATOM     13  H   UNL A   1      30.469  24.954  27.351  1.00  0.00     0.165 HD
ATOM     14  O   UNL A   1      31.630  22.935  27.626  1.00  0.00    -0.249 OA
ATOM     15  H   UNL A   1      33.686  22.890  26.579  1.00  0.00     0.165 HD
BRANCH  11  16
ATOM     16  C   UNL A   1      31.180  25.914  25.678  1.00  0.00     0.095 C 
ATOM     17  C   UNL A   1      31.119  28.953  22.865  1.00  0.00     0.332 C 
ATOM     18  N   UNL A   1      30.640  28.231  24.052  1.00  0.00    -0.337 N 
ATOM     19  C   UNL A   1      31.684  28.261  25.089  1.00  0.00     0.264 C 
ATOM     20  C   UNL A   1      30.194  26.883  23.657  1.00  0.00     0.264 C 
ATOM     21  H   UNL A   1      29.823  28.680  24.464  1.00  0.00     0.347 HD
ATOM     22  C   UNL A   1      31.429  27.303  26.252  1.00  0.00     0.086 C 
ATOM     23  C   UNL A   1      29.903  25.968  24.851  1.00  0.00     0.086 C 
ENDBRANCH  11  16
ENDBRANCH   6  10
ENDBRANCH   3   5
ENDBRANCH   2   3
ENDBRANCH   1   2
BRANCH   1  24
ATOM     24  C   UNL A   1      39.200  19.891  25.376  1.00  0.00     0.275 C 
BRANCH  24  25
ATOM     25  O   UNL A   1      40.121  19.538  26.423  1.00  0.00    -0.458 OA
BRANCH  25  26
ATOM     26  C   UNL A   1      41.434  19.633  26.126  1.00  0.00     0.338 C 
ATOM     27  O   UNL A   1      42.134  18.819  25.546  1.00  0.00    -0.246 OA
BRANCH  26  28
ATOM     28  C   UNL A   1      41.915  20.957  26.542  1.00  0.00     0.060 A 
ATOM     29  C   UNL A   1      41.877  21.264  27.896  1.00  0.00     0.016 A 
ATOM     30  C   UNL A   1      42.284  21.929  25.612  1.00  0.00     0.016 A 
ATOM     31  C   UNL A   1      42.117  22.564  28.314  1.00  0.00     0.010 A 
ATOM     32  C   UNL A   1      42.622  23.219  26.055  1.00  0.00     0.010 A 
ATOM     33  C   UNL A   1      42.515  23.555  27.414  1.00  0.00    -0.014 A 
BRANCH  33  34
ATOM     34  C   UNL A   1      42.759  24.928  27.935  1.00  0.00     0.031 A 
ATOM     35  C   UNL A   1      44.165  25.423  28.132  1.00  0.00     0.074 A 
ATOM     36  C   UNL A   1      41.731  25.783  28.116  1.00  0.00     0.049 A 
ATOM     37  N   UNL A   1      44.577  26.554  28.647  1.00  0.00    -0.248 NA
ATOM     38  C   UNL A   1      45.250  24.539  27.678  1.00  0.00     0.031 C 
ATOM     39  C   UNL A   1      40.325  25.492  27.829  1.00  0.00     0.029 A 
ATOM     40  N   UNL A   1      41.717  27.092  28.536  1.00  0.00    -0.354 N 
ATOM     41  C   UNL A   1      45.964  26.494  28.632  1.00  0.00     0.074 A 
ATOM     42  C   UNL A   1      46.327  25.226  28.034  1.00  0.00     0.031 C 
ATOM     43  C   UNL A   1      39.598  26.605  28.016  1.00  0.00     0.029 A 
ATOM     44  C   UNL A   1      40.464  27.659  28.528  1.00  0.00     0.049 A 
ATOM     45  H   UNL A   1      42.526  27.577  28.816  1.00  0.00     0.167 HD
ATOM     46  C   UNL A   1      46.853  27.403  29.096  1.00  0.00     0.031 A 
ATOM     47  C   UNL A   1      40.049  28.879  28.918  1.00  0.00     0.031 A 
ATOM     48  C   UNL A   1      46.498  28.675  29.664  1.00  0.00     0.049 A 
ATOM     49  C   UNL A   1      41.047  29.838  29.501  1.00  0.00     0.074 A 
ATOM     50  C   UNL A   1      47.330  29.636  30.214  1.00  0.00     0.029 A 
ATOM     51  N   UNL A   1      45.208  29.171  29.741  1.00  0.00    -0.354 N 
ATOM     52  N   UNL A   1      42.349  29.725  29.585  1.00  0.00    -0.248 NA
ATOM     53  C   UNL A   1      40.510  31.079  30.079  1.00  0.00     0.031 C 
ATOM     54  C   UNL A   1      46.536  30.696  30.663  1.00  0.00     0.029 A 
ATOM     55  C   UNL A   1      45.216  30.413  30.352  1.00  0.00     0.049 A 
ATOM     56  H   UNL A   1      44.404  28.709  29.410  1.00  0.00     0.167 HD
ATOM     57  C   UNL A   1      42.787  30.872  30.231  1.00  0.00     0.074 A 
ATOM     58  C   UNL A   1      41.617  31.689  30.483  1.00  0.00     0.031 C 
ATOM     59  C   UNL A   1      44.045  31.210  30.602  1.00  0.00     0.031 A 
BRANCH  46  60
ATOM     60  C   UNL A   1      48.301  27.010  29.090  1.00  0.00    -0.014 A 
ATOM     61  C   UNL A   1      48.872  26.267  30.131  1.00  0.00     0.009 A 
ATOM     62  C   UNL A   1      49.097  27.374  27.991  1.00  0.00     0.009 A 
ATOM     63  C   UNL A   1      50.223  25.913  30.081  1.00  0.00     0.001 A 
ATOM     64  C   UNL A   1      50.440  27.004  27.935  1.00  0.00     0.001 A 
ATOM     65  C   UNL A   1      51.004  26.278  28.983  1.00  0.00     0.000 A 
ENDBRANCH  46  60
BRANCH  47  66
ATOM     66  C   UNL A   1      38.607  29.241  28.853  1.00  0.00    -0.014 A 
ATOM     67  C   UNL A   1      38.038  29.717  27.663  1.00  0.00     0.009 A 
ATOM     68  C   UNL A   1      37.799  29.143  29.997  1.00  0.00     0.009 A 
ATOM     69  C   UNL A   1      36.696  30.106  27.626  1.00  0.00     0.001 A 
ATOM     70  C   UNL A   1      36.451  29.502  29.951  1.00  0.00     0.001 A 
ATOM     71  C   UNL A   1      35.903  29.993  28.768  1.00  0.00     0.000 A 
ENDBRANCH  47  66
BRANCH  59  72
ATOM     72  C   UNL A   1      44.217  32.515  31.322  1.00  0.00    -0.014 A 
ATOM     73  C   UNL A   1      44.175  32.572  32.724  1.00  0.00     0.009 A 
ATOM     74  C   UNL A   1      44.462  33.690  30.595  1.00  0.00     0.009 A 
ATOM     75  C   UNL A   1      44.350  33.789  33.384  1.00  0.00     0.001 A 
ATOM     76  C   UNL A   1      44.660  34.901  31.261  1.00  0.00     0.001 A 
ATOM     77  C   UNL A   1      44.596  34.951  32.653  1.00  0.00     0.000 A 
ENDBRANCH  59  72
ENDBRANCH  33  34
ENDBRANCH  26  28
ENDBRANCH  25  26
ENDBRANCH  24  25
ENDBRANCH   1  24
TORSDOF 13
ENDMDL
MODEL 3
REMARK VINA RESULT:     -10.7      2.603      3.396
REMARK SMILES C[NH+]1CCC(NC(=O)N[C@@H]2C=C[C@H](C(=O)OCCOC(=O)c3ccc(-c4c5nc(c(-c6ccccc6)c6ccc([nH]6)c(-c6ccccc6)c6nc(c(-c7ccccc7)c7ccc4[nH]7)C=C6)C=C5)cc3)C2)CC1
REMARK SMILES IDX 17 1 16 2 14 3 15 4 13 5 10 6 11 7 70 8 12 9 9 10 6 11 7 12
REMARK SMILES IDX 8 14 5 16 1 17 2 18 3 19 72 20 4 22 71 23 18 24 19 25 20 26
REMARK SMILES IDX 21 27 22 28 23 29 69 30 24 31 68 32 25 33 26 34 27 35 62 36
REMARK SMILES IDX 28 37 67 38 61 39 63 40 29 41 66 42 60 43 59 44 30 46 52 47
REMARK SMILES IDX 37 48 51 49 38 50 41 51 50 52 64 53 39 54 40 55 49 57 65 58
REMARK SMILES IDX 42 59 31 60 32 61 36 62 33 63 35 64 34 65 53 66 54 67 58 68
REMARK SMILES IDX 55 69 57 70 56 71 43 72 44 73 48 74 45 75 47 76 46 77
REMARK H PARENT 6 13 9 15 2 21 63 45 41 56
REMARK Flexibility Score: inf
ROOT
ATOM      1  C   UNL A   1      37.633  21.020  24.842  1.00  0.00     0.274 C 
ENDROOT
BRANCH   1   2
ATOM      2  O   UNL A   1      36.253  20.603  24.815  1.00  0.00    -0.462 OA
BRANCH   2   3
ATOM      3  C   UNL A   1      35.337  21.412  25.421  1.00  0.00     0.312 C 
ATOM      4  O   UNL A   1      34.764  21.174  26.475  1.00  0.00    -0.252 OA
BRANCH   3   5
ATOM      5  C   UNL A   1      35.186  22.696  24.616  1.00  0.00     0.124 C 
ATOM      6  C   UNL A   1      33.365  24.190  25.346  1.00  0.00     0.107 C 
ATOM      7  C   UNL A   1      33.061  23.530  24.040  1.00  0.00    -0.006 C 
ATOM      8  C   UNL A   1      34.859  23.879  25.532  1.00  0.00     0.048 C 
ATOM      9  C   UNL A   1      34.027  22.682  23.665  1.00  0.00    -0.014 C 
BRANCH   6  10
ATOM     10  N   UNL A   1      32.469  23.579  26.307  1.00  0.00    -0.332 N 
ATOM     11  N   UNL A   1      30.600  25.028  26.540  1.00  0.00    -0.335 N 
ATOM     12  C   UNL A   1      31.259  23.889  26.806  1.00  0.00     0.315 C 
ATOM     13  H   UNL A   1      29.855  25.220  27.155  1.00  0.00     0.165 HD
ATOM     14  O   UNL A   1      30.729  23.085  27.575  1.00  0.00    -0.249 OA
ATOM     15  H   UNL A   1      32.828  22.743  26.682  1.00  0.00     0.165 HD
BRANCH  11  16
ATOM     16  C   UNL A   1      30.794  26.018  25.510  1.00  0.00     0.095 C 
ATOM     17  C   UNL A   1      31.318  28.929  22.610  1.00  0.00     0.332 C 
ATOM     18  N   UNL A   1      30.695  28.337  23.802  1.00  0.00    -0.337 N 
ATOM     19  C   UNL A   1      31.703  28.226  24.869  1.00  0.00     0.264 C 
ATOM     20  C   UNL A   1      30.037  27.071  23.433  1.00  0.00     0.264 C 
ATOM     21  H   UNL A   1      29.955  28.931  24.177  1.00  0.00     0.347 HD
ATOM     22  C   UNL A   1      31.261  27.364  26.051  1.00  0.00     0.086 C 
ATOM     23  C   UNL A   1      29.566  26.259  24.644  1.00  0.00     0.086 C 
ENDBRANCH  11  16
ENDBRANCH   6  10
ENDBRANCH   3   5
ENDBRANCH   2   3
ENDBRANCH   1   2
BRANCH   1  24
ATOM     24  C   UNL A   1      38.546  19.811  25.035  1.00  0.00     0.275 C 
BRANCH  24  25
ATOM     25  O   UNL A   1      39.306  19.986  26.244  1.00  0.00    -0.458 OA
BRANCH  25  26
ATOM     26  C   UNL A   1      40.645  19.857  26.135  1.00  0.00     0.338 C 
ATOM     27  O   UNL A   1      41.275  18.923  25.664  1.00  0.00    -0.246 OA
BRANCH  26  28
ATOM     28  C   UNL A   1      41.276  21.096  26.607  1.00  0.00     0.060 A 
ATOM     29  C   UNL A   1      41.269  21.346  27.974  1.00  0.00     0.016 A 
ATOM     30  C   UNL A   1      41.758  22.059  25.720  1.00  0.00     0.016 A 
ATOM     31  C   UNL A   1      41.658  22.590  28.448  1.00  0.00     0.010 A 
ATOM     32  C   UNL A   1      42.242  23.280  26.219  1.00  0.00     0.010 A 
ATOM     33  C   UNL A   1      42.171  23.567  27.592  1.00  0.00    -0.014 A 
BRANCH  33  34
ATOM     34  C   UNL A   1      42.572  24.877  28.172  1.00  0.00     0.031 A 
ATOM     35  C   UNL A   1      41.532  25.920  28.474  1.00  0.00     0.074 A 
ATOM     36  C   UNL A   1      43.849  25.096  28.549  1.00  0.00     0.049 A 
ATOM     37  N   UNL A   1      41.693  27.146  28.905  1.00  0.00    -0.248 NA
ATOM     38  C   UNL A   1      40.126  25.531  28.280  1.00  0.00     0.031 C 
ATOM     39  C   UNL A   1      44.940  24.125  28.452  1.00  0.00     0.029 A 
ATOM     40  N   UNL A   1      44.434  26.191  29.139  1.00  0.00    -0.354 N 
ATOM     41  C   UNL A   1      40.419  27.691  28.980  1.00  0.00     0.074 A 
ATOM     42  C   UNL A   1      39.490  26.657  28.573  1.00  0.00     0.031 C 
ATOM     43  C   UNL A   1      46.040  24.640  29.024  1.00  0.00     0.029 A 
ATOM     44  C   UNL A   1      45.764  26.009  29.439  1.00  0.00     0.049 A 
ATOM     45  H   UNL A   1      43.948  27.025  29.329  1.00  0.00     0.167 HD
ATOM     46  C   UNL A   1      40.058  28.947  29.332  1.00  0.00     0.031 A 
ATOM     47  C   UNL A   1      46.672  26.856  29.960  1.00  0.00     0.031 A 
ATOM     48  C   UNL A   1      40.973  29.968  29.764  1.00  0.00     0.049 A 
ATOM     49  C   UNL A   1      46.260  28.268  30.269  1.00  0.00     0.074 A 
ATOM     50  C   UNL A   1      40.704  31.288  30.086  1.00  0.00     0.029 A 
ATOM     51  N   UNL A   1      42.332  29.780  29.951  1.00  0.00    -0.354 N 
ATOM     52  N   UNL A   1      45.067  28.807  30.228  1.00  0.00    -0.248 NA
ATOM     53  C   UNL A   1      47.331  29.197  30.659  1.00  0.00     0.031 C 
ATOM     54  C   UNL A   1      41.910  31.910  30.426  1.00  0.00     0.029 A 
ATOM     55  C   UNL A   1      42.921  30.965  30.359  1.00  0.00     0.049 A 
ATOM     56  H   UNL A   1      42.810  28.930  29.814  1.00  0.00     0.167 HD
ATOM     57  C   UNL A   1      45.243  30.138  30.578  1.00  0.00     0.074 A 
ATOM     58  C   UNL A   1      46.652  30.318  30.866  1.00  0.00     0.031 C 
ATOM     59  C   UNL A   1      44.323  31.130  30.635  1.00  0.00     0.031 A 
BRANCH  46  60
ATOM     60  C   UNL A   1      38.612  29.314  29.177  1.00  0.00    -0.014 A 
ATOM     61  C   UNL A   1      37.718  29.279  30.255  1.00  0.00     0.009 A 
ATOM     62  C   UNL A   1      38.150  29.733  27.918  1.00  0.00     0.009 A 
ATOM     63  C   UNL A   1      36.380  29.639  30.070  1.00  0.00     0.001 A 
ATOM     64  C   UNL A   1      36.819  30.109  27.740  1.00  0.00     0.001 A 
ATOM     65  C   UNL A   1      35.934  30.057  28.815  1.00  0.00     0.000 A 
ENDBRANCH  46  60
BRANCH  47  66
ATOM     66  C   UNL A   1      48.084  26.428  30.146  1.00  0.00    -0.014 A 
ATOM     67  C   UNL A   1      49.023  26.576  29.114  1.00  0.00     0.009 A 
ATOM     68  C   UNL A   1      48.493  25.834  31.351  1.00  0.00     0.009 A 
ATOM     69  C   UNL A   1      50.333  26.121  29.279  1.00  0.00     0.001 A 
ATOM     70  C   UNL A   1      49.810  25.408  31.526  1.00  0.00     0.001 A 
ATOM     71  C   UNL A   1      50.727  25.543  30.487  1.00  0.00     0.000 A 
ENDBRANCH  47  66
BRANCH  59  72
ATOM     72  C   UNL A   1      44.812  32.496  31.019  1.00  0.00    -0.014 A 
ATOM     73  C   UNL A   1      45.217  33.415  30.038  1.00  0.00     0.009 A 
ATOM     74  C   UNL A   1      44.833  32.880  32.368  1.00  0.00     0.009 A 
ATOM     75  C   UNL A   1      45.658  34.687  30.406  1.00  0.00     0.001 A 
ATOM     76  C   UNL A   1      45.253  34.161  32.729  1.00  0.00     0.001 A 
ATOM     77  C   UNL A   1      45.672  35.060  31.749  1.00  0.00     0.000 A 
ENDBRANCH  59  72
ENDBRANCH  33  34
ENDBRANCH  26  28
ENDBRANCH  25  26
ENDBRANCH  24  25
ENDBRANCH   1  24
TORSDOF 13
ENDMDL
