MODEL 1
REMARK VINA RESULT:     -11.1      0.000      0.000
REMARK SMILES O=C(OCCOC(=O)c1cc(S(=O)(=O)Cc2cccc(O)c2)ccc1F)c1ccc(-c2c3nc(c(-c4ccccc4)c4ccc([nH]4)c(-c4ccccc4)c4nc(c(-c5ccccc5)c5ccc2[nH]5)C=C4)C=C3)cc1
REMARK SMILES IDX 5 1 4 2 3 3 2 4 1 5 27 6 28 7 74 8 29 9 73 10 30 11 31 12
REMARK SMILES IDX 32 13 67 14 33 15 72 16 66 17 68 18 34 19 71 20 65 21 64 22
REMARK SMILES IDX 35 24 57 25 42 26 56 27 43 28 46 29 55 30 69 31 44 32 45 33
REMARK SMILES IDX 54 35 70 36 47 37 36 38 37 39 41 40 38 41 40 42 39 43 58 44
REMARK SMILES IDX 59 45 63 46 60 47 62 48 61 49 48 50 49 51 53 52 50 53 52 54
REMARK SMILES IDX 51 55 6 56 7 57 8 58 9 59 10 60 25 61 11 62 24 63 26 64
REMARK SMILES IDX 23 65 12 66 13 67 14 68 15 69 16 70 17 71 22 72 18 73 20 74
REMARK SMILES IDX 19 75 21 76
REMARK H PARENT 68 23 46 34 21 77
REMARK Flexibility Score: inf
ROOT
ATOM      1  C   UNL A   1      32.794  31.097  27.067  1.00  0.00     0.275 C 
ENDROOT
BRANCH   1   2
ATOM      2  C   UNL A   1      31.709  32.176  26.994  1.00  0.00     0.275 C 
BRANCH   2   3
ATOM      3  O   UNL A   1      32.184  33.517  27.192  1.00  0.00    -0.458 OA
BRANCH   3   4
ATOM      4  C   UNL A   1      32.889  34.059  28.209  1.00  0.00     0.338 C 
ATOM      5  O   UNL A   1      32.527  35.149  28.652  1.00  0.00    -0.246 OA
BRANCH   4   6
ATOM      6  C   UNL A   1      34.154  33.474  28.769  1.00  0.00     0.060 A 
ATOM      7  C   UNL A   1      34.280  32.714  29.936  1.00  0.00     0.016 A 
ATOM      8  C   UNL A   1      35.320  33.699  28.016  1.00  0.00     0.016 A 
ATOM      9  C   UNL A   1      35.497  32.131  30.302  1.00  0.00     0.010 A 
ATOM     10  C   UNL A   1      36.539  33.122  28.374  1.00  0.00     0.010 A 
ATOM     11  C   UNL A   1      36.631  32.333  29.523  1.00  0.00    -0.014 A 
BRANCH  11  12
ATOM     12  C   UNL A   1      37.955  31.920  30.021  1.00  0.00     0.031 A 
ATOM     13  C   UNL A   1      38.479  30.596  29.560  1.00  0.00     0.074 A 
ATOM     14  C   UNL A   1      38.669  32.696  30.853  1.00  0.00     0.049 A 
ATOM     15  N   UNL A   1      39.575  29.975  29.903  1.00  0.00    -0.248 NA
ATOM     16  C   UNL A   1      37.666  29.891  28.554  1.00  0.00     0.031 C 
ATOM     17  C   UNL A   1      38.301  34.043  31.278  1.00  0.00     0.029 A 
ATOM     18  N   UNL A   1      39.841  32.445  31.519  1.00  0.00    -0.354 N 
ATOM     19  C   UNL A   1      39.588  28.817  29.138  1.00  0.00     0.074 A 
ATOM     20  C   UNL A   1      38.368  28.788  28.369  1.00  0.00     0.031 C 
ATOM     21  C   UNL A   1      39.170  34.462  32.214  1.00  0.00     0.029 A 
ATOM     22  C   UNL A   1      40.153  33.410  32.445  1.00  0.00     0.049 A 
ATOM     23  H   UNL A   1      40.402  31.655  31.349  1.00  0.00     0.167 HD
ATOM     24  C   UNL A   1      40.554  27.874  29.067  1.00  0.00     0.031 A 
ATOM     25  C   UNL A   1      41.101  33.414  33.401  1.00  0.00     0.031 A 
ATOM     26  C   UNL A   1      41.731  27.894  29.886  1.00  0.00     0.049 A 
ATOM     27  C   UNL A   1      42.074  32.269  33.448  1.00  0.00     0.074 A 
ATOM     28  C   UNL A   1      42.779  26.997  29.918  1.00  0.00     0.029 A 
ATOM     29  N   UNL A   1      41.996  28.866  30.842  1.00  0.00    -0.354 N 
ATOM     30  N   UNL A   1      42.100  31.188  32.704  1.00  0.00    -0.248 NA
ATOM     31  C   UNL A   1      43.163  32.357  34.428  1.00  0.00     0.031 C 
ATOM     32  C   UNL A   1      43.642  27.385  30.949  1.00  0.00     0.029 A 
ATOM     33  C   UNL A   1      43.170  28.566  31.506  1.00  0.00     0.049 A 
ATOM     34  H   UNL A   1      41.431  29.652  31.021  1.00  0.00     0.167 HD
ATOM     35  C   UNL A   1      43.247  30.499  33.076  1.00  0.00     0.074 A 
ATOM     36  C   UNL A   1      43.867  31.269  34.138  1.00  0.00     0.031 C 
ATOM     37  C   UNL A   1      43.756  29.353  32.562  1.00  0.00     0.031 A 
BRANCH  24  38
ATOM     38  C   UNL A   1      40.310  26.738  28.116  1.00  0.00    -0.014 A 
ATOM     39  C   UNL A   1      39.595  25.593  28.512  1.00  0.00     0.009 A 
ATOM     40  C   UNL A   1      40.871  26.778  26.832  1.00  0.00     0.009 A 
ATOM     41  C   UNL A   1      39.506  24.487  27.664  1.00  0.00     0.001 A 
ATOM     42  C   UNL A   1      40.750  25.684  25.974  1.00  0.00     0.001 A 
ATOM     43  C   UNL A   1      40.085  24.534  26.396  1.00  0.00     0.000 A 
ENDBRANCH  24  38
BRANCH  25  44
ATOM     44  C   UNL A   1      41.142  34.521  34.392  1.00  0.00    -0.014 A 
ATOM     45  C   UNL A   1      41.926  35.662  34.176  1.00  0.00     0.009 A 
ATOM     46  C   UNL A   1      40.360  34.447  35.558  1.00  0.00     0.009 A 
ATOM     47  C   UNL A   1      41.936  36.700  35.113  1.00  0.00     0.001 A 
ATOM     48  C   UNL A   1      40.357  35.494  36.482  1.00  0.00     0.001 A 
ATOM     49  C   UNL A   1      41.149  36.618  36.261  1.00  0.00     0.000 A 
ENDBRANCH  25  44
BRANCH  37  50
ATOM     50  C   UNL A   1      45.076  28.882  33.099  1.00  0.00    -0.014 A 
ATOM     51  C   UNL A   1      45.153  27.976  34.167  1.00  0.00     0.009 A 
ATOM     52  C   UNL A   1      46.257  29.277  32.448  1.00  0.00     0.009 A 
ATOM     53  C   UNL A   1      46.393  27.481  34.578  1.00  0.00     0.001 A 
ATOM     54  C   UNL A   1      47.490  28.757  32.843  1.00  0.00     0.001 A 
ATOM     55  C   UNL A   1      47.557  27.863  33.908  1.00  0.00     0.000 A 
ENDBRANCH  37  50
ENDBRANCH  11  12
ENDBRANCH   4   6
ENDBRANCH   3   4
ENDBRANCH   2   3
ENDBRANCH   1   2
BRANCH   1  56
ATOM     56  O   UNL A   1      32.638  30.035  26.109  1.00  0.00    -0.458 OA
BRANCH  56  57
ATOM     57  C   UNL A   1      33.479  28.978  26.255  1.00  0.00     0.341 C 
ATOM     58  O   UNL A   1      34.593  28.995  26.743  1.00  0.00    -0.246 OA
BRANCH  57  59
ATOM     59  C   UNL A   1      32.819  27.738  25.810  1.00  0.00     0.097 A 
ATOM     60  C   UNL A   1      33.272  27.063  24.663  1.00  0.00     0.039 A 
ATOM     61  C   UNL A   1      31.713  27.256  26.500  1.00  0.00     0.137 A 
ATOM     62  C   UNL A   1      32.632  25.880  24.246  1.00  0.00     0.068 A 
ATOM     63  C   UNL A   1      31.030  26.135  26.037  1.00  0.00     0.041 A 
ATOM     64  F   UNL A   1      31.266  27.862  27.608  1.00  0.00    -0.206 F 
ATOM     65  C   UNL A   1      31.482  25.452  24.905  1.00  0.00     0.023 A 
BRANCH  62  66
ATOM     66  S   UNL A   1      33.329  24.988  22.859  1.00  0.00     0.182 S 
ATOM     67  O   UNL A   1      32.231  24.165  22.383  1.00  0.00    -0.223 OA
ATOM     68  O   UNL A   1      33.921  25.982  21.986  1.00  0.00    -0.223 OA
BRANCH  66  69
ATOM     69  C   UNL A   1      34.599  23.864  23.416  1.00  0.00     0.177 C 
BRANCH  69  70
ATOM     70  C   UNL A   1      34.280  23.104  24.684  1.00  0.00    -0.029 A 
ATOM     71  C   UNL A   1      34.703  23.547  25.946  1.00  0.00     0.005 A 
ATOM     72  C   UNL A   1      33.427  21.986  24.639  1.00  0.00     0.051 A 
ATOM     73  C   UNL A   1      34.304  22.892  27.116  1.00  0.00     0.004 A 
ATOM     74  C   UNL A   1      33.015  21.355  25.814  1.00  0.00     0.115 A 
ATOM     75  C   UNL A   1      33.457  21.793  27.055  1.00  0.00     0.046 A 
BRANCH  74  76
ATOM     76  O   UNL A   1      32.139  20.315  25.711  1.00  0.00    -0.508 OA
ATOM     77  H   UNL A   1      32.298  19.626  25.097  1.00  0.00     0.293 HD
ENDBRANCH  74  76
ENDBRANCH  69  70
ENDBRANCH  66  69
ENDBRANCH  62  66
ENDBRANCH  57  59
ENDBRANCH  56  57
ENDBRANCH   1  56
TORSDOF 15
ENDMDL
MODEL 2
REMARK VINA RESULT:     -11.1      1.222      1.888
REMARK SMILES O=C(OCCOC(=O)c1cc(S(=O)(=O)Cc2cccc(O)c2)ccc1F)c1ccc(-c2c3nc(c(-c4ccccc4)c4ccc([nH]4)c(-c4ccccc4)c4nc(c(-c5ccccc5)c5ccc2[nH]5)C=C4)C=C3)cc1
REMARK SMILES IDX 5 1 4 2 3 3 2 4 1 5 27 6 28 7 74 8 29 9 73 10 30 11 31 12
REMARK SMILES IDX 32 13 67 14 33 15 72 16 66 17 68 18 34 19 71 20 65 21 64 22
REMARK SMILES IDX 35 24 57 25 42 26 56 27 43 28 46 29 55 30 69 31 44 32 45 33
REMARK SMILES IDX 54 35 70 36 47 37 36 38 37 39 41 40 38 41 40 42 39 43 58 44
REMARK SMILES IDX 59 45 63 46 60 47 62 48 61 49 48 50 49 51 53 52 50 53 52 54
REMARK SMILES IDX 51 55 6 56 7 57 8 58 9 59 10 60 25 61 11 62 24 63 26 64
REMARK SMILES IDX 23 65 12 66 13 67 14 68 15 69 16 70 17 71 22 72 18 73 20 74
REMARK SMILES IDX 19 75 21 76
REMARK H PARENT 68 23 46 34 21 77
REMARK Flexibility Score: inf
ROOT
ATOM      1  C   UNL A   1      32.710  30.988  27.047  1.00  0.00     0.275 C 
ENDROOT
BRANCH   1   2
ATOM      2  C   UNL A   1      31.691  32.126  26.937  1.00  0.00     0.275 C 
BRANCH   2   3
ATOM      3  O   UNL A   1      32.244  33.441  27.101  1.00  0.00    -0.458 OA
BRANCH   3   4
ATOM      4  C   UNL A   1      32.903  33.996  28.142  1.00  0.00     0.338 C 
ATOM      5  O   UNL A   1      32.504  35.078  28.572  1.00  0.00    -0.246 OA
BRANCH   4   6
ATOM      6  C   UNL A   1      34.157  33.434  28.746  1.00  0.00     0.060 A 
ATOM      7  C   UNL A   1      34.264  32.727  29.948  1.00  0.00     0.016 A 
ATOM      8  C   UNL A   1      35.335  33.624  28.002  1.00  0.00     0.016 A 
ATOM      9  C   UNL A   1      35.474  32.158  30.358  1.00  0.00     0.010 A 
ATOM     10  C   UNL A   1      36.547  33.060  28.403  1.00  0.00     0.010 A 
ATOM     11  C   UNL A   1      36.620  32.324  29.588  1.00  0.00    -0.014 A 
BRANCH  11  12
ATOM     12  C   UNL A   1      37.936  31.930  30.123  1.00  0.00     0.031 A 
ATOM     13  C   UNL A   1      38.504  30.626  29.658  1.00  0.00     0.074 A 
ATOM     14  C   UNL A   1      38.604  32.708  30.991  1.00  0.00     0.049 A 
ATOM     15  N   UNL A   1      39.601  30.023  30.028  1.00  0.00    -0.248 NA
ATOM     16  C   UNL A   1      37.741  29.921  28.614  1.00  0.00     0.031 C 
ATOM     17  C   UNL A   1      38.193  34.039  31.425  1.00  0.00     0.029 A 
ATOM     18  N   UNL A   1      39.758  32.470  31.692  1.00  0.00    -0.354 N 
ATOM     19  C   UNL A   1      39.665  28.879  29.245  1.00  0.00     0.074 A 
ATOM     20  C   UNL A   1      38.473  28.837  28.434  1.00  0.00     0.031 C 
ATOM     21  C   UNL A   1      39.020  34.460  32.397  1.00  0.00     0.029 A 
ATOM     22  C   UNL A   1      40.018  33.425  32.644  1.00  0.00     0.049 A 
ATOM     23  H   UNL A   1      40.341  31.695  31.529  1.00  0.00     0.167 HD
ATOM     24  C   UNL A   1      40.653  27.958  29.191  1.00  0.00     0.031 A 
ATOM     25  C   UNL A   1      40.933  33.434  33.631  1.00  0.00     0.031 A 
ATOM     26  C   UNL A   1      41.801  27.990  30.050  1.00  0.00     0.049 A 
ATOM     27  C   UNL A   1      41.929  32.310  33.692  1.00  0.00     0.074 A 
ATOM     28  C   UNL A   1      42.868  27.115  30.103  1.00  0.00     0.029 A 
ATOM     29  N   UNL A   1      42.013  28.950  31.030  1.00  0.00    -0.354 N 
ATOM     30  N   UNL A   1      42.004  31.242  32.932  1.00  0.00    -0.248 NA
ATOM     31  C   UNL A   1      42.982  32.404  34.710  1.00  0.00     0.031 C 
ATOM     32  C   UNL A   1      43.687  27.504  31.168  1.00  0.00     0.029 A 
ATOM     33  C   UNL A   1      43.170  28.664  31.729  1.00  0.00     0.049 A 
ATOM     34  H   UNL A   1      41.425  29.721  31.203  1.00  0.00     0.167 HD
ATOM     35  C   UNL A   1      43.152  30.572  33.331  1.00  0.00     0.074 A 
ATOM     36  C   UNL A   1      43.719  31.337  34.426  1.00  0.00     0.031 C 
ATOM     37  C   UNL A   1      43.703  29.446  32.817  1.00  0.00     0.031 A 
BRANCH  24  38
ATOM     38  C   UNL A   1      40.467  26.833  28.214  1.00  0.00    -0.014 A 
ATOM     39  C   UNL A   1      41.009  26.893  26.918  1.00  0.00     0.009 A 
ATOM     40  C   UNL A   1      39.672  25.734  28.567  1.00  0.00     0.009 A 
ATOM     41  C   UNL A   1      40.702  25.908  25.977  1.00  0.00     0.001 A 
ATOM     42  C   UNL A   1      39.395  24.734  27.635  1.00  0.00     0.001 A 
ATOM     43  C   UNL A   1      39.894  24.830  26.337  1.00  0.00     0.000 A 
ENDBRANCH  24  38
BRANCH  25  44
ATOM     44  C   UNL A   1      40.917  34.524  34.641  1.00  0.00    -0.014 A 
ATOM     45  C   UNL A   1      40.147  34.423  35.807  1.00  0.00     0.009 A 
ATOM     46  C   UNL A   1      41.709  35.670  34.449  1.00  0.00     0.009 A 
ATOM     47  C   UNL A   1      40.160  35.453  36.754  1.00  0.00     0.001 A 
ATOM     48  C   UNL A   1      41.736  36.687  35.405  1.00  0.00     0.001 A 
ATOM     49  C   UNL A   1      40.958  36.579  36.555  1.00  0.00     0.000 A 
ENDBRANCH  25  44
BRANCH  37  50
ATOM     50  C   UNL A   1      45.015  28.994  33.390  1.00  0.00    -0.014 A 
ATOM     51  C   UNL A   1      45.077  28.061  34.435  1.00  0.00     0.009 A 
ATOM     52  C   UNL A   1      46.209  29.436  32.794  1.00  0.00     0.009 A 
ATOM     53  C   UNL A   1      46.313  27.587  34.879  1.00  0.00     0.001 A 
ATOM     54  C   UNL A   1      47.439  28.938  33.221  1.00  0.00     0.001 A 
ATOM     55  C   UNL A   1      47.490  28.017  34.264  1.00  0.00     0.000 A 
ENDBRANCH  37  50
ENDBRANCH  11  12
ENDBRANCH   4   6
ENDBRANCH   3   4
ENDBRANCH   2   3
ENDBRANCH   1   2
BRANCH   1  56
ATOM     56  O   UNL A   1      32.610  30.002  26.004  1.00  0.00    -0.458 OA
BRANCH  56  57
ATOM     57  C   UNL A   1      33.628  29.104  25.938  1.00  0.00     0.341 C 
ATOM     58  O   UNL A   1      34.656  29.119  26.586  1.00  0.00    -0.246 OA
BRANCH  57  59
ATOM     59  C   UNL A   1      33.283  28.013  25.008  1.00  0.00     0.097 A 
ATOM     60  C   UNL A   1      32.782  26.794  25.498  1.00  0.00     0.039 A 
ATOM     61  C   UNL A   1      33.497  28.171  23.645  1.00  0.00     0.137 A 
ATOM     62  C   UNL A   1      32.458  25.758  24.601  1.00  0.00     0.068 A 
ATOM     63  C   UNL A   1      33.257  27.115  22.769  1.00  0.00     0.041 A 
ATOM     64  F   UNL A   1      33.955  29.325  23.141  1.00  0.00    -0.206 F 
ATOM     65  C   UNL A   1      32.747  25.906  23.247  1.00  0.00     0.023 A 
BRANCH  62  66
ATOM     66  S   UNL A   1      31.700  24.277  25.262  1.00  0.00     0.182 S 
ATOM     67  O   UNL A   1      31.726  24.482  26.700  1.00  0.00    -0.223 OA
ATOM     68  O   UNL A   1      30.433  24.121  24.575  1.00  0.00    -0.223 OA
BRANCH  66  69
ATOM     69  C   UNL A   1      32.725  22.854  24.935  1.00  0.00     0.177 C 
BRANCH  69  70
ATOM     70  C   UNL A   1      34.206  23.136  24.815  1.00  0.00    -0.029 A 
ATOM     71  C   UNL A   1      35.007  23.407  25.934  1.00  0.00     0.005 A 
ATOM     72  C   UNL A   1      34.850  23.000  23.571  1.00  0.00     0.051 A 
ATOM     73  C   UNL A   1      36.393  23.554  25.815  1.00  0.00     0.004 A 
ATOM     74  C   UNL A   1      36.236  23.123  23.469  1.00  0.00     0.115 A 
ATOM     75  C   UNL A   1      37.014  23.412  24.581  1.00  0.00     0.046 A 
BRANCH  74  76
ATOM     76  O   UNL A   1      36.810  22.920  22.248  1.00  0.00    -0.508 OA
ATOM     77  H   UNL A   1      36.345  23.147  21.467  1.00  0.00     0.293 HD
ENDBRANCH  74  76
ENDBRANCH  69  70
ENDBRANCH  66  69
ENDBRANCH  62  66
ENDBRANCH  57  59
ENDBRANCH  56  57
ENDBRANCH   1  56
TORSDOF 15
ENDMDL
MODEL 3
REMARK VINA RESULT:     -11.0      4.313      9.488
REMARK SMILES O=C(OCCOC(=O)c1cc(S(=O)(=O)Cc2cccc(O)c2)ccc1F)c1ccc(-c2c3nc(c(-c4ccccc4)c4ccc([nH]4)c(-c4ccccc4)c4nc(c(-c5ccccc5)c5ccc2[nH]5)C=C4)C=C3)cc1
REMARK SMILES IDX 5 1 4 2 3 3 2 4 1 5 27 6 28 7 74 8 29 9 73 10 30 11 31 12
REMARK SMILES IDX 32 13 67 14 33 15 72 16 66 17 68 18 34 19 71 20 65 21 64 22
REMARK SMILES IDX 35 24 57 25 42 26 56 27 43 28 46 29 55 30 69 31 44 32 45 33
REMARK SMILES IDX 54 35 70 36 47 37 36 38 37 39 41 40 38 41 40 42 39 43 58 44
REMARK SMILES IDX 59 45 63 46 60 47 62 48 61 49 48 50 49 51 53 52 50 53 52 54
REMARK SMILES IDX 51 55 6 56 7 57 8 58 9 59 10 60 25 61 11 62 24 63 26 64
REMARK SMILES IDX 23 65 12 66 13 67 14 68 15 69 16 70 17 71 22 72 18 73 20 74
REMARK SMILES IDX 19 75 21 76
REMARK H PARENT 68 23 46 34 21 77
REMARK Flexibility Score: inf
ROOT
ATOM      1  C   UNL A   1      33.289  34.237  28.084  1.00  0.00     0.275 C 
ENDROOT
BRANCH   1   2
ATOM      2  C   UNL A   1      33.182  32.729  27.838  1.00  0.00     0.275 C 
BRANCH   2   3
ATOM      3  O   UNL A   1      34.294  31.963  28.328  1.00  0.00    -0.458 OA
BRANCH   3   4
ATOM      4  C   UNL A   1      34.711  30.716  28.012  1.00  0.00     0.338 C 
ATOM      5  O   UNL A   1      33.923  29.968  27.436  1.00  0.00    -0.246 OA
BRANCH   4   6
ATOM      6  C   UNL A   1      36.040  30.142  28.413  1.00  0.00     0.060 A 
ATOM      7  C   UNL A   1      36.380  29.610  29.660  1.00  0.00     0.016 A 
ATOM      8  C   UNL A   1      37.026  30.120  27.411  1.00  0.00     0.016 A 
ATOM      9  C   UNL A   1      37.620  29.004  29.885  1.00  0.00     0.010 A 
ATOM     10  C   UNL A   1      38.267  29.518  27.625  1.00  0.00     0.010 A 
ATOM     11  C   UNL A   1      38.568  28.957  28.869  1.00  0.00    -0.014 A 
BRANCH  11  12
ATOM     12  C   UNL A   1      39.949  28.534  29.163  1.00  0.00     0.031 A 
ATOM     13  C   UNL A   1      40.872  29.558  29.745  1.00  0.00     0.074 A 
ATOM     14  C   UNL A   1      40.367  27.280  28.924  1.00  0.00     0.049 A 
ATOM     15  N   UNL A   1      42.142  29.461  30.027  1.00  0.00    -0.248 NA
ATOM     16  C   UNL A   1      40.269  30.860  30.078  1.00  0.00     0.031 C 
ATOM     17  C   UNL A   1      39.526  26.181  28.461  1.00  0.00     0.029 A 
ATOM     18  N   UNL A   1      41.620  26.729  29.006  1.00  0.00    -0.354 N 
ATOM     19  C   UNL A   1      42.483  30.684  30.588  1.00  0.00     0.074 A 
ATOM     20  C   UNL A   1      41.310  31.525  30.546  1.00  0.00     0.031 C 
ATOM     21  C   UNL A   1      40.300  25.115  28.197  1.00  0.00     0.029 A 
ATOM     22  C   UNL A   1      41.688  25.462  28.478  1.00  0.00     0.049 A 
ATOM     23  H   UNL A   1      42.391  27.193  29.403  1.00  0.00     0.167 HD
ATOM     24  C   UNL A   1      43.668  31.060  31.118  1.00  0.00     0.031 A 
ATOM     25  C   UNL A   1      42.762  24.694  28.213  1.00  0.00     0.031 A 
ATOM     26  C   UNL A   1      44.835  30.228  31.094  1.00  0.00     0.049 A 
ATOM     27  C   UNL A   1      44.117  25.190  28.636  1.00  0.00     0.074 A 
ATOM     28  C   UNL A   1      46.097  30.492  31.588  1.00  0.00     0.029 A 
ATOM     29  N   UNL A   1      44.880  28.966  30.516  1.00  0.00    -0.354 N 
ATOM     30  N   UNL A   1      44.431  26.337  29.192  1.00  0.00    -0.248 NA
ATOM     31  C   UNL A   1      45.253  24.283  28.434  1.00  0.00     0.031 C 
ATOM     32  C   UNL A   1      46.925  29.419  31.240  1.00  0.00     0.029 A 
ATOM     33  C   UNL A   1      46.161  28.455  30.597  1.00  0.00     0.049 A 
ATOM     34  H   UNL A   1      44.112  28.504  30.109  1.00  0.00     0.167 HD
ATOM     35  C   UNL A   1      45.788  26.263  29.473  1.00  0.00     0.074 A 
ATOM     36  C   UNL A   1      46.242  24.972  28.991  1.00  0.00     0.031 C 
ATOM     37  C   UNL A   1      46.578  27.167  30.102  1.00  0.00     0.031 A 
BRANCH  24  38
ATOM     38  C   UNL A   1      43.734  32.446  31.692  1.00  0.00    -0.014 A 
ATOM     39  C   UNL A   1      43.441  32.692  33.045  1.00  0.00     0.009 A 
ATOM     40  C   UNL A   1      44.017  33.531  30.851  1.00  0.00     0.009 A 
ATOM     41  C   UNL A   1      43.364  34.001  33.526  1.00  0.00     0.001 A 
ATOM     42  C   UNL A   1      43.973  34.837  31.342  1.00  0.00     0.001 A 
ATOM     43  C   UNL A   1      43.629  35.071  32.673  1.00  0.00     0.000 A 
ENDBRANCH  24  38
BRANCH  25  44
ATOM     44  C   UNL A   1      42.586  23.407  27.492  1.00  0.00    -0.014 A 
ATOM     45  C   UNL A   1      42.806  23.312  26.111  1.00  0.00     0.009 A 
ATOM     46  C   UNL A   1      42.224  22.249  28.202  1.00  0.00     0.009 A 
ATOM     47  C   UNL A   1      42.653  22.087  25.454  1.00  0.00     0.001 A 
ATOM     48  C   UNL A   1      42.091  21.023  27.546  1.00  0.00     0.001 A 
ATOM     49  C   UNL A   1      42.302  20.944  26.172  1.00  0.00     0.000 A 
ENDBRANCH  25  44
BRANCH  37  50
ATOM     50  C   UNL A   1      48.006  26.778  30.358  1.00  0.00    -0.014 A 
ATOM     51  C   UNL A   1      48.375  26.053  31.499  1.00  0.00     0.009 A 
ATOM     52  C   UNL A   1      48.974  27.057  29.379  1.00  0.00     0.009 A 
ATOM     53  C   UNL A   1      49.694  25.622  31.659  1.00  0.00     0.001 A 
ATOM     54  C   UNL A   1      50.283  26.599  29.528  1.00  0.00     0.001 A 
ATOM     55  C   UNL A   1      50.642  25.885  30.668  1.00  0.00     0.000 A 
ENDBRANCH  37  50
ENDBRANCH  11  12
ENDBRANCH   4   6
ENDBRANCH   3   4
ENDBRANCH   2   3
ENDBRANCH   1   2
BRANCH   1  56
ATOM     56  O   UNL A   1      32.705  34.677  29.323  1.00  0.00    -0.458 OA
BRANCH  56  57
ATOM     57  C   UNL A   1      33.055  35.925  29.733  1.00  0.00     0.341 C 
ATOM     58  O   UNL A   1      32.871  36.966  29.133  1.00  0.00    -0.246 OA
BRANCH  57  59
ATOM     59  C   UNL A   1      33.630  35.871  31.089  1.00  0.00     0.097 A 
ATOM     60  C   UNL A   1      34.276  34.708  31.541  1.00  0.00     0.039 A 
ATOM     61  C   UNL A   1      33.494  36.960  31.942  1.00  0.00     0.137 A 
ATOM     62  C   UNL A   1      34.821  34.668  32.839  1.00  0.00     0.068 A 
ATOM     63  C   UNL A   1      33.957  36.886  33.253  1.00  0.00     0.041 A 
ATOM     64  F   UNL A   1      32.901  38.091  31.538  1.00  0.00    -0.206 F 
ATOM     65  C   UNL A   1      34.611  35.738  33.706  1.00  0.00     0.023 A 
BRANCH  62  66
ATOM     66  S   UNL A   1      35.748  33.214  33.320  1.00  0.00     0.182 S 
ATOM     67  O   UNL A   1      35.480  33.081  34.741  1.00  0.00    -0.223 OA
ATOM     68  O   UNL A   1      35.358  32.157  32.407  1.00  0.00    -0.223 OA
BRANCH  66  69
ATOM     69  C   UNL A   1      37.500  33.512  33.160  1.00  0.00     0.177 C 
BRANCH  69  70
ATOM     70  C   UNL A   1      37.966  33.911  31.778  1.00  0.00    -0.029 A 
ATOM     71  C   UNL A   1      39.249  34.427  31.544  1.00  0.00     0.005 A 
ATOM     72  C   UNL A   1      37.157  33.645  30.658  1.00  0.00     0.051 A 
ATOM     73  C   UNL A   1      39.702  34.685  30.245  1.00  0.00     0.004 A 
ATOM     74  C   UNL A   1      37.628  33.882  29.365  1.00  0.00     0.115 A 
ATOM     75  C   UNL A   1      38.892  34.412  29.149  1.00  0.00     0.046 A 
BRANCH  74  76
ATOM     76  O   UNL A   1      36.822  33.547  28.317  1.00  0.00    -0.508 OA
ATOM     77  H   UNL A   1      36.701  32.647  28.087  1.00  0.00     0.293 HD
ENDBRANCH  74  76
ENDBRANCH  69  70
ENDBRANCH  66  69
ENDBRANCH  62  66
ENDBRANCH  57  59
ENDBRANCH  56  57
ENDBRANCH   1  56
TORSDOF 15
ENDMDL
