MODEL 1
REMARK VINA RESULT:     -10.2      0.000      0.000
REMARK SMILES O=C(OCCOC(=O)c1oc2cccc3c2c1CCC3)c1ccc(-c2c3nc(c(-c4ccccc4)c4ccc([nH]4)c(-c4ccccc4)c4nc(c(-c5ccccc5)c5ccc2[nH]5)C=C4)C=C3)cc1
REMARK SMILES IDX 4 1 3 2 2 3 1 4 21 5 22 6 68 7 23 8 67 9 24 10 25 11 26 12
REMARK SMILES IDX 61 13 27 14 66 15 60 16 62 17 28 18 65 19 59 20 58 21 29 23
REMARK SMILES IDX 51 24 36 25 50 26 37 27 40 28 49 29 63 30 38 31 39 32 48 34
REMARK SMILES IDX 64 35 41 36 30 37 31 38 35 39 32 40 34 41 33 42 52 43 53 44
REMARK SMILES IDX 57 45 54 46 56 47 55 48 42 49 43 50 47 51 44 52 46 53 45 54
REMARK SMILES IDX 5 55 6 56 7 57 8 58 9 59 10 60 17 61 11 62 16 63 18 64 12 65
REMARK SMILES IDX 15 66 19 67 13 68 14 69 20 70
REMARK H PARENT 62 22 40 33
REMARK Flexibility Score: inf
ROOT
ATOM      1  C   UNL A   1      42.080  20.421  26.161  1.00  0.00     0.275 C 
ENDROOT
BRANCH   1   2
ATOM      2  O   UNL A   1      41.709  21.815  26.135  1.00  0.00    -0.458 OA
BRANCH   2   3
ATOM      3  C   UNL A   1      40.818  22.392  26.972  1.00  0.00     0.338 C 
ATOM      4  O   UNL A   1      40.031  21.715  27.623  1.00  0.00    -0.246 OA
BRANCH   3   5
ATOM      5  C   UNL A   1      41.028  23.826  27.326  1.00  0.00     0.060 A 
ATOM      6  C   UNL A   1      41.960  24.280  28.259  1.00  0.00     0.016 A 
ATOM      7  C   UNL A   1      40.143  24.750  26.738  1.00  0.00     0.016 A 
ATOM      8  C   UNL A   1      41.929  25.597  28.690  1.00  0.00     0.010 A 
ATOM      9  C   UNL A   1      40.102  26.068  27.169  1.00  0.00     0.010 A 
ATOM     10  C   UNL A   1      40.955  26.463  28.192  1.00  0.00    -0.014 A 
BRANCH  10  11
ATOM     11  C   UNL A   1      40.890  27.794  28.768  1.00  0.00     0.031 A 
ATOM     12  C   UNL A   1      41.848  28.772  28.197  1.00  0.00     0.074 A 
ATOM     13  C   UNL A   1      40.004  28.124  29.726  1.00  0.00     0.049 A 
ATOM     14  N   UNL A   1      42.855  29.334  28.781  1.00  0.00    -0.248 NA
ATOM     15  C   UNL A   1      41.731  29.082  26.765  1.00  0.00     0.031 C 
ATOM     16  C   UNL A   1      38.844  27.368  30.204  1.00  0.00     0.029 A 
ATOM     17  N   UNL A   1      39.921  29.286  30.427  1.00  0.00    -0.354 N 
ATOM     18  C   UNL A   1      43.411  30.196  27.841  1.00  0.00     0.074 A 
ATOM     19  C   UNL A   1      42.761  29.909  26.587  1.00  0.00     0.031 C 
ATOM     20  C   UNL A   1      38.054  28.183  30.943  1.00  0.00     0.029 A 
ATOM     21  C   UNL A   1      38.726  29.460  31.112  1.00  0.00     0.049 A 
ATOM     22  H   UNL A   1      40.648  29.948  30.446  1.00  0.00     0.167 HD
ATOM     23  C   UNL A   1      44.219  31.232  28.196  1.00  0.00     0.031 A 
ATOM     24  C   UNL A   1      38.314  30.604  31.714  1.00  0.00     0.031 A 
ATOM     25  C   UNL A   1      44.763  31.072  29.517  1.00  0.00     0.049 A 
ATOM     26  C   UNL A   1      39.524  31.423  31.965  1.00  0.00     0.074 A 
ATOM     27  C   UNL A   1      45.589  30.142  30.118  1.00  0.00     0.029 A 
ATOM     28  N   UNL A   1      44.151  31.748  30.544  1.00  0.00    -0.354 N 
ATOM     29  N   UNL A   1      40.463  31.080  32.799  1.00  0.00    -0.248 NA
ATOM     30  C   UNL A   1      39.904  32.404  30.961  1.00  0.00     0.031 C 
ATOM     31  C   UNL A   1      45.050  29.968  31.425  1.00  0.00     0.029 A 
ATOM     32  C   UNL A   1      43.972  30.846  31.562  1.00  0.00     0.049 A 
ATOM     33  H   UNL A   1      43.892  32.698  30.550  1.00  0.00     0.167 HD
ATOM     34  C   UNL A   1      41.643  31.467  32.183  1.00  0.00     0.074 A 
ATOM     35  C   UNL A   1      41.232  32.354  31.095  1.00  0.00     0.031 C 
ATOM     36  C   UNL A   1      42.817  30.819  32.430  1.00  0.00     0.031 A 
BRANCH  23  37
ATOM     37  C   UNL A   1      44.203  32.559  27.486  1.00  0.00    -0.014 A 
ATOM     38  C   UNL A   1      43.567  33.657  28.089  1.00  0.00     0.009 A 
ATOM     39  C   UNL A   1      44.550  32.690  26.128  1.00  0.00     0.009 A 
ATOM     40  C   UNL A   1      43.257  34.809  27.352  1.00  0.00     0.001 A 
ATOM     41  C   UNL A   1      44.277  33.851  25.401  1.00  0.00     0.001 A 
ATOM     42  C   UNL A   1      43.608  34.903  26.009  1.00  0.00     0.000 A 
ENDBRANCH  23  37
BRANCH  24  43
ATOM     43  C   UNL A   1      36.954  31.193  31.729  1.00  0.00    -0.014 A 
ATOM     44  C   UNL A   1      36.464  31.819  32.888  1.00  0.00     0.009 A 
ATOM     45  C   UNL A   1      36.255  31.413  30.527  1.00  0.00     0.009 A 
ATOM     46  C   UNL A   1      35.361  32.683  32.832  1.00  0.00     0.001 A 
ATOM     47  C   UNL A   1      35.149  32.269  30.474  1.00  0.00     0.001 A 
ATOM     48  C   UNL A   1      34.717  32.922  31.622  1.00  0.00     0.000 A 
ENDBRANCH  24  43
BRANCH  36  49
ATOM     49  C   UNL A   1      42.839  29.779  33.521  1.00  0.00    -0.014 A 
ATOM     50  C   UNL A   1      43.178  30.085  34.853  1.00  0.00     0.009 A 
ATOM     51  C   UNL A   1      42.305  28.513  33.243  1.00  0.00     0.009 A 
ATOM     52  C   UNL A   1      42.981  29.149  35.874  1.00  0.00     0.001 A 
ATOM     53  C   UNL A   1      42.095  27.586  34.265  1.00  0.00     0.001 A 
ATOM     54  C   UNL A   1      42.429  27.903  35.580  1.00  0.00     0.000 A 
ENDBRANCH  36  49
ENDBRANCH  10  11
ENDBRANCH   3   5
ENDBRANCH   2   3
ENDBRANCH   1   2
BRANCH   1  55
ATOM     55  C   UNL A   1      43.491  20.069  25.700  1.00  0.00     0.275 C 
BRANCH  55  56
ATOM     56  O   UNL A   1      44.138  21.181  25.068  1.00  0.00    -0.456 OA
BRANCH  56  57
ATOM     57  C   UNL A   1      45.409  21.450  25.483  1.00  0.00     0.374 C 
ATOM     58  O   UNL A   1      46.365  20.685  25.382  1.00  0.00    -0.242 OA
BRANCH  57  59
ATOM     59  C   UNL A   1      45.430  22.739  26.102  1.00  0.00     0.216 A 
ATOM     60  O   UNL A   1      46.119  22.923  27.287  1.00  0.00    -0.449 OA
ATOM     61  C   UNL A   1      44.847  23.926  25.713  1.00  0.00     0.014 A 
ATOM     62  C   UNL A   1      45.975  24.239  27.637  1.00  0.00     0.135 A 
ATOM     63  C   UNL A   1      45.188  24.861  26.699  1.00  0.00     0.028 A 
ATOM     64  C   UNL A   1      43.987  24.342  24.577  1.00  0.00     0.041 C 
ATOM     65  C   UNL A   1      46.490  24.914  28.735  1.00  0.00     0.048 A 
ATOM     66  C   UNL A   1      44.805  26.197  26.789  1.00  0.00    -0.037 A 
ATOM     67  C   UNL A   1      43.119  25.564  25.001  1.00  0.00     0.010 C 
ATOM     68  C   UNL A   1      46.155  26.282  28.819  1.00  0.00     0.004 A 
ATOM     69  C   UNL A   1      45.329  26.916  27.866  1.00  0.00     0.004 A 
ATOM     70  C   UNL A   1      43.913  26.721  25.695  1.00  0.00     0.036 C 
ENDBRANCH  57  59
ENDBRANCH  56  57
ENDBRANCH  55  56
ENDBRANCH   1  55
TORSDOF 11
ENDMDL
MODEL 2
REMARK VINA RESULT:     -10.0      3.984      9.976
REMARK SMILES O=C(OCCOC(=O)c1oc2cccc3c2c1CCC3)c1ccc(-c2c3nc(c(-c4ccccc4)c4ccc([nH]4)c(-c4ccccc4)c4nc(c(-c5ccccc5)c5ccc2[nH]5)C=C4)C=C3)cc1
REMARK SMILES IDX 4 1 3 2 2 3 1 4 21 5 22 6 68 7 23 8 67 9 24 10 25 11 26 12
REMARK SMILES IDX 61 13 27 14 66 15 60 16 62 17 28 18 65 19 59 20 58 21 29 23
REMARK SMILES IDX 51 24 36 25 50 26 37 27 40 28 49 29 63 30 38 31 39 32 48 34
REMARK SMILES IDX 64 35 41 36 30 37 31 38 35 39 32 40 34 41 33 42 52 43 53 44
REMARK SMILES IDX 57 45 54 46 56 47 55 48 42 49 43 50 47 51 44 52 46 53 45 54
REMARK SMILES IDX 5 55 6 56 7 57 8 58 9 59 10 60 17 61 11 62 16 63 18 64 12 65
REMARK SMILES IDX 15 66 19 67 13 68 14 69 20 70
REMARK H PARENT 62 22 40 33
REMARK Flexibility Score: inf
ROOT
ATOM      1  C   UNL A   1      33.317  33.136  27.957  1.00  0.00     0.275 C 
ENDROOT
BRANCH   1   2
ATOM      2  O   UNL A   1      34.614  32.503  27.911  1.00  0.00    -0.458 OA
BRANCH   2   3
ATOM      3  C   UNL A   1      34.826  31.172  28.004  1.00  0.00     0.338 C 
ATOM      4  O   UNL A   1      34.091  30.372  27.436  1.00  0.00    -0.246 OA
BRANCH   3   5
ATOM      5  C   UNL A   1      36.142  30.715  28.538  1.00  0.00     0.060 A 
ATOM      6  C   UNL A   1      37.379  31.187  28.098  1.00  0.00     0.016 A 
ATOM      7  C   UNL A   1      36.105  29.666  29.476  1.00  0.00     0.016 A 
ATOM      8  C   UNL A   1      38.546  30.547  28.484  1.00  0.00     0.010 A 
ATOM      9  C   UNL A   1      37.269  29.018  29.863  1.00  0.00     0.010 A 
ATOM     10  C   UNL A   1      38.476  29.424  29.309  1.00  0.00    -0.014 A 
BRANCH  10  11
ATOM     11  C   UNL A   1      39.716  28.722  29.582  1.00  0.00     0.031 A 
ATOM     12  C   UNL A   1      40.038  28.551  31.020  1.00  0.00     0.074 A 
ATOM     13  C   UNL A   1      40.500  28.232  28.603  1.00  0.00     0.049 A 
ATOM     14  N   UNL A   1      41.012  29.078  31.686  1.00  0.00    -0.248 NA
ATOM     15  C   UNL A   1      39.094  27.779  31.841  1.00  0.00     0.031 C 
ATOM     16  C   UNL A   1      40.205  28.090  27.175  1.00  0.00     0.029 A 
ATOM     17  N   UNL A   1      41.732  27.669  28.717  1.00  0.00    -0.354 N 
ATOM     18  C   UNL A   1      40.904  28.581  32.981  1.00  0.00     0.074 A 
ATOM     19  C   UNL A   1      39.641  27.890  33.051  1.00  0.00     0.031 C 
ATOM     20  C   UNL A   1      41.129  27.280  26.607  1.00  0.00     0.029 A 
ATOM     21  C   UNL A   1      42.154  26.975  27.591  1.00  0.00     0.049 A 
ATOM     22  H   UNL A   1      42.278  27.746  29.531  1.00  0.00     0.167 HD
ATOM     23  C   UNL A   1      41.953  28.588  33.850  1.00  0.00     0.031 A 
ATOM     24  C   UNL A   1      43.239  26.164  27.516  1.00  0.00     0.031 A 
ATOM     25  C   UNL A   1      42.978  29.518  33.460  1.00  0.00     0.049 A 
ATOM     26  C   UNL A   1      44.146  26.550  28.623  1.00  0.00     0.074 A 
ATOM     27  C   UNL A   1      43.029  30.887  33.290  1.00  0.00     0.029 A 
ATOM     28  N   UNL A   1      44.073  29.017  32.800  1.00  0.00    -0.354 N 
ATOM     29  N   UNL A   1      44.755  27.700  28.685  1.00  0.00    -0.248 NA
ATOM     30  C   UNL A   1      44.030  25.834  29.883  1.00  0.00     0.031 C 
ATOM     31  C   UNL A   1      43.841  31.080  32.135  1.00  0.00     0.029 A 
ATOM     32  C   UNL A   1      44.284  29.825  31.711  1.00  0.00     0.049 A 
ATOM     33  H   UNL A   1      44.606  28.231  33.058  1.00  0.00     0.167 HD
ATOM     34  C   UNL A   1      44.723  28.046  30.027  1.00  0.00     0.074 A 
ATOM     35  C   UNL A   1      44.343  26.820  30.728  1.00  0.00     0.031 C 
ATOM     36  C   UNL A   1      44.734  29.351  30.423  1.00  0.00     0.031 A 
BRANCH  23  37
ATOM     37  C   UNL A   1      42.202  27.479  34.835  1.00  0.00    -0.014 A 
ATOM     38  C   UNL A   1      42.704  26.249  34.379  1.00  0.00     0.009 A 
ATOM     39  C   UNL A   1      41.701  27.515  36.151  1.00  0.00     0.009 A 
ATOM     40  C   UNL A   1      42.661  25.104  35.187  1.00  0.00     0.001 A 
ATOM     41  C   UNL A   1      41.694  26.385  36.973  1.00  0.00     0.001 A 
ATOM     42  C   UNL A   1      42.153  25.173  36.481  1.00  0.00     0.000 A 
ENDBRANCH  23  37
BRANCH  24  43
ATOM     43  C   UNL A   1      43.362  24.860  26.823  1.00  0.00    -0.014 A 
ATOM     44  C   UNL A   1      42.599  23.757  27.244  1.00  0.00     0.009 A 
ATOM     45  C   UNL A   1      43.990  24.773  25.567  1.00  0.00     0.009 A 
ATOM     46  C   UNL A   1      42.418  22.642  26.413  1.00  0.00     0.001 A 
ATOM     47  C   UNL A   1      43.816  23.656  24.741  1.00  0.00     0.001 A 
ATOM     48  C   UNL A   1      43.011  22.601  25.155  1.00  0.00     0.000 A 
ENDBRANCH  24  43
BRANCH  36  49
ATOM     49  C   UNL A   1      44.955  30.411  29.373  1.00  0.00    -0.014 A 
ATOM     50  C   UNL A   1      43.902  30.951  28.610  1.00  0.00     0.009 A 
ATOM     51  C   UNL A   1      46.212  31.025  29.304  1.00  0.00     0.009 A 
ATOM     52  C   UNL A   1      44.108  32.076  27.804  1.00  0.00     0.001 A 
ATOM     53  C   UNL A   1      46.412  32.157  28.510  1.00  0.00     0.001 A 
ATOM     54  C   UNL A   1      45.361  32.685  27.764  1.00  0.00     0.000 A 
ENDBRANCH  36  49
ENDBRANCH  10  11
ENDBRANCH   3   5
ENDBRANCH   2   3
ENDBRANCH   1   2
BRANCH   1  55
ATOM     55  C   UNL A   1      33.255  34.552  28.519  1.00  0.00     0.275 C 
BRANCH  55  56
ATOM     56  O   UNL A   1      34.428  34.877  29.275  1.00  0.00    -0.456 OA
BRANCH  56  57
ATOM     57  C   UNL A   1      34.550  34.263  30.487  1.00  0.00     0.374 C 
ATOM     58  O   UNL A   1      33.646  34.133  31.309  1.00  0.00    -0.242 OA
BRANCH  57  59
ATOM     59  C   UNL A   1      35.907  33.851  30.663  1.00  0.00     0.216 A 
ATOM     60  O   UNL A   1      36.895  34.362  29.840  1.00  0.00    -0.449 OA
ATOM     61  C   UNL A   1      36.463  32.969  31.565  1.00  0.00     0.014 A 
ATOM     62  C   UNL A   1      38.080  33.804  30.238  1.00  0.00     0.135 A 
ATOM     63  C   UNL A   1      37.834  32.939  31.275  1.00  0.00     0.028 A 
ATOM     64  C   UNL A   1      35.926  32.111  32.650  1.00  0.00     0.041 C 
ATOM     65  C   UNL A   1      39.357  34.009  29.734  1.00  0.00     0.048 A 
ATOM     66  C   UNL A   1      38.825  32.167  31.877  1.00  0.00    -0.037 A 
ATOM     67  C   UNL A   1      36.866  30.888  32.860  1.00  0.00     0.010 C 
ATOM     68  C   UNL A   1      40.384  33.274  30.363  1.00  0.00     0.004 A 
ATOM     69  C   UNL A   1      40.127  32.370  31.415  1.00  0.00     0.004 A 
ATOM     70  C   UNL A   1      38.386  31.244  32.982  1.00  0.00     0.036 C 
ENDBRANCH  57  59
ENDBRANCH  56  57
ENDBRANCH  55  56
ENDBRANCH   1  55
TORSDOF 11
ENDMDL
MODEL 3
REMARK VINA RESULT:      -9.8      4.219     10.237
REMARK SMILES O=C(OCCOC(=O)c1oc2cccc3c2c1CCC3)c1ccc(-c2c3nc(c(-c4ccccc4)c4ccc([nH]4)c(-c4ccccc4)c4nc(c(-c5ccccc5)c5ccc2[nH]5)C=C4)C=C3)cc1
REMARK SMILES IDX 4 1 3 2 2 3 1 4 21 5 22 6 68 7 23 8 67 9 24 10 25 11 26 12
REMARK SMILES IDX 61 13 27 14 66 15 60 16 62 17 28 18 65 19 59 20 58 21 29 23
REMARK SMILES IDX 51 24 36 25 50 26 37 27 40 28 49 29 63 30 38 31 39 32 48 34
REMARK SMILES IDX 64 35 41 36 30 37 31 38 35 39 32 40 34 41 33 42 52 43 53 44
REMARK SMILES IDX 57 45 54 46 56 47 55 48 42 49 43 50 47 51 44 52 46 53 45 54
REMARK SMILES IDX 5 55 6 56 7 57 8 58 9 59 10 60 17 61 11 62 16 63 18 64 12 65
REMARK SMILES IDX 15 66 19 67 13 68 14 69 20 70
REMARK H PARENT 62 22 40 33
REMARK Flexibility Score: inf
ROOT
ATOM      1  C   UNL A   1      34.259  34.371  27.971  1.00  0.00     0.275 C 
ENDROOT
BRANCH   1   2
ATOM      2  O   UNL A   1      35.235  33.350  27.672  1.00  0.00    -0.458 OA
BRANCH   2   3
ATOM      3  C   UNL A   1      35.102  32.042  27.984  1.00  0.00     0.338 C 
ATOM      4  O   UNL A   1      34.132  31.396  27.607  1.00  0.00    -0.246 OA
BRANCH   3   5
ATOM      5  C   UNL A   1      36.303  31.330  28.512  1.00  0.00     0.060 A 
ATOM      6  C   UNL A   1      37.412  31.963  29.074  1.00  0.00     0.016 A 
ATOM      7  C   UNL A   1      36.333  29.935  28.327  1.00  0.00     0.016 A 
ATOM      8  C   UNL A   1      38.569  31.245  29.327  1.00  0.00     0.010 A 
ATOM      9  C   UNL A   1      37.490  29.210  28.573  1.00  0.00     0.010 A 
ATOM     10  C   UNL A   1      38.622  29.887  29.010  1.00  0.00    -0.014 A 
BRANCH  10  11
ATOM     11  C   UNL A   1      39.896  29.213  29.181  1.00  0.00     0.031 A 
ATOM     12  C   UNL A   1      40.223  28.834  30.577  1.00  0.00     0.074 A 
ATOM     13  C   UNL A   1      40.705  28.924  28.144  1.00  0.00     0.049 A 
ATOM     14  N   UNL A   1      41.168  29.297  31.327  1.00  0.00    -0.248 NA
ATOM     15  C   UNL A   1      39.318  27.896  31.257  1.00  0.00     0.031 C 
ATOM     16  C   UNL A   1      40.420  28.994  26.709  1.00  0.00     0.029 A 
ATOM     17  N   UNL A   1      41.964  28.412  28.180  1.00  0.00    -0.354 N 
ATOM     18  C   UNL A   1      41.084  28.597  32.526  1.00  0.00     0.074 A 
ATOM     19  C   UNL A   1      39.857  27.842  32.474  1.00  0.00     0.031 C 
ATOM     20  C   UNL A   1      41.385  28.331  26.030  1.00  0.00     0.029 A 
ATOM     21  C   UNL A   1      42.423  27.926  26.963  1.00  0.00     0.049 A 
ATOM     22  H   UNL A   1      42.504  28.386  29.002  1.00  0.00     0.167 HD
ATOM     23  C   UNL A   1      42.129  28.520  33.395  1.00  0.00     0.031 A 
ATOM     24  C   UNL A   1      43.547  27.192  26.772  1.00  0.00     0.031 A 
ATOM     25  C   UNL A   1      43.106  29.549  33.167  1.00  0.00     0.049 A 
ATOM     26  C   UNL A   1      44.432  27.444  27.935  1.00  0.00     0.074 A 
ATOM     27  C   UNL A   1      43.089  30.929  33.216  1.00  0.00     0.029 A 
ATOM     28  N   UNL A   1      44.227  29.214  32.447  1.00  0.00    -0.354 N 
ATOM     29  N   UNL A   1      44.982  28.598  28.183  1.00  0.00    -0.248 NA
ATOM     30  C   UNL A   1      44.350  26.532  29.065  1.00  0.00     0.031 C 
ATOM     31  C   UNL A   1      43.891  31.342  32.113  1.00  0.00     0.029 A 
ATOM     32  C   UNL A   1      44.398  30.193  31.501  1.00  0.00     0.049 A 
ATOM     33  H   UNL A   1      44.798  28.424  32.584  1.00  0.00     0.167 HD
ATOM     34  C   UNL A   1      44.930  28.726  29.562  1.00  0.00     0.074 A 
ATOM     35  C   UNL A   1      44.611  27.388  30.057  1.00  0.00     0.031 C 
ATOM     36  C   UNL A   1      44.874  29.951  30.159  1.00  0.00     0.031 A 
BRANCH  23  37
ATOM     37  C   UNL A   1      42.433  27.283  34.197  1.00  0.00    -0.014 A 
ATOM     38  C   UNL A   1      43.370  26.357  33.710  1.00  0.00     0.009 A 
ATOM     39  C   UNL A   1      41.626  26.867  35.274  1.00  0.00     0.009 A 
ATOM     40  C   UNL A   1      43.460  25.066  34.248  1.00  0.00     0.001 A 
ATOM     41  C   UNL A   1      41.741  25.594  35.838  1.00  0.00     0.001 A 
ATOM     42  C   UNL A   1      42.643  24.685  35.308  1.00  0.00     0.000 A 
ENDBRANCH  23  37
BRANCH  24  43
ATOM     43  C   UNL A   1      43.738  26.022  25.883  1.00  0.00    -0.014 A 
ATOM     44  C   UNL A   1      45.010  25.722  25.367  1.00  0.00     0.009 A 
ATOM     45  C   UNL A   1      42.746  25.028  25.785  1.00  0.00     0.009 A 
ATOM     46  C   UNL A   1      45.296  24.456  24.836  1.00  0.00     0.001 A 
ATOM     47  C   UNL A   1      43.030  23.767  25.248  1.00  0.00     0.001 A 
ATOM     48  C   UNL A   1      44.311  23.474  24.795  1.00  0.00     0.000 A 
ENDBRANCH  24  43
BRANCH  36  49
ATOM     49  C   UNL A   1      45.042  31.173  29.291  1.00  0.00    -0.014 A 
ATOM     50  C   UNL A   1      43.964  31.774  28.614  1.00  0.00     0.009 A 
ATOM     51  C   UNL A   1      46.268  31.852  29.330  1.00  0.00     0.009 A 
ATOM     52  C   UNL A   1      44.114  33.022  27.997  1.00  0.00     0.001 A 
ATOM     53  C   UNL A   1      46.411  33.103  28.727  1.00  0.00     0.001 A 
ATOM     54  C   UNL A   1      45.336  33.690  28.064  1.00  0.00     0.000 A 
ENDBRANCH  36  49
ENDBRANCH  10  11
ENDBRANCH   3   5
ENDBRANCH   2   3
ENDBRANCH   1   2
BRANCH   1  55
ATOM     55  C   UNL A   1      33.824  34.510  29.426  1.00  0.00     0.275 C 
BRANCH  55  56
ATOM     56  O   UNL A   1      34.943  34.494  30.320  1.00  0.00    -0.456 OA
BRANCH  56  57
ATOM     57  C   UNL A   1      34.650  34.352  31.645  1.00  0.00     0.374 C 
ATOM     58  O   UNL A   1      33.555  34.572  32.156  1.00  0.00    -0.242 OA
BRANCH  57  59
ATOM     59  C   UNL A   1      35.837  33.963  32.342  1.00  0.00     0.216 A 
ATOM     60  O   UNL A   1      36.718  34.928  32.795  1.00  0.00    -0.449 OA
ATOM     61  C   UNL A   1      36.308  32.710  32.672  1.00  0.00     0.014 A 
ATOM     62  C   UNL A   1      37.743  34.274  33.424  1.00  0.00     0.135 A 
ATOM     63  C   UNL A   1      37.520  32.922  33.343  1.00  0.00     0.028 A 
ATOM     64  C   UNL A   1      35.832  31.323  32.442  1.00  0.00     0.041 C 
ATOM     65  C   UNL A   1      38.862  34.802  34.054  1.00  0.00     0.048 A 
ATOM     66  C   UNL A   1      38.406  31.970  33.841  1.00  0.00    -0.037 A 
ATOM     67  C   UNL A   1      37.047  30.350  32.438  1.00  0.00     0.010 C 
ATOM     68  C   UNL A   1      39.749  33.856  34.609  1.00  0.00     0.004 A 
ATOM     69  C   UNL A   1      39.529  32.466  34.508  1.00  0.00     0.004 A 
ATOM     70  C   UNL A   1      38.030  30.526  33.644  1.00  0.00     0.036 C 
ENDBRANCH  57  59
ENDBRANCH  56  57
ENDBRANCH  55  56
ENDBRANCH   1  55
TORSDOF 11
ENDMDL
