MODEL 1
REMARK VINA RESULT:     -11.4      0.000      0.000
REMARK SMILES NC(=O)[C@@H]1CCC[N@@H+]1[C@@H](C(=O)OCCOC(=O)c1ccc(-c2c3nc(c(-c4ccccc4)c4ccc([nH]4)c(-c4ccccc4)c4nc(c(-c5ccccc5)c5ccc2[nH]5)C=C4)C=C3)cc1)c1c[nH]c2cc(OCc3ccccc3)ccc12
REMARK SMILES IDX 13 1 12 2 10 3 11 4 9 5 8 6 4 7 5 8 6 9 7 10 2 12 1 13 3 16
REMARK SMILES IDX 66 17 67 18 82 19 68 20 69 21 81 22 70 24 80 25 71 26 72 27
REMARK SMILES IDX 73 28 74 29 75 30 79 31 76 32 78 33 77 34 14 35 15 36 16 37
REMARK SMILES IDX 17 38 18 39 19 40 65 41 20 42 64 43 21 44 22 45 23 46 58 47
REMARK SMILES IDX 24 48 63 49 57 50 59 51 25 52 62 53 56 54 55 55 26 57 48 58
REMARK SMILES IDX 33 59 47 60 34 61 37 62 46 63 60 64 35 65 36 66 45 68 61 69
REMARK SMILES IDX 38 70 27 71 28 72 32 73 29 74 31 75 30 76 49 77 50 78 54 79
REMARK SMILES IDX 51 80 53 81 52 82 39 83 40 84 44 85 41 86 43 87 42 88
REMARK H PARENT 8 11 1 14 1 15 68 23 59 56 37 67
REMARK Flexibility Score: inf
ROOT
ATOM      1  C   UNL A   1      36.572  22.469  23.778  1.00  0.00     0.274 C 
ENDROOT
BRANCH   1   2
ATOM      2  O   UNL A   1      35.343  23.026  24.315  1.00  0.00    -0.457 OA
BRANCH   2   3
ATOM      3  C   UNL A   1      34.378  23.283  23.391  1.00  0.00     0.370 C 
ATOM      4  O   UNL A   1      34.606  23.353  22.182  1.00  0.00    -0.245 OA
BRANCH   3   5
ATOM      5  C   UNL A   1      32.985  23.574  23.942  1.00  0.00     0.329 C 
BRANCH   5   6
ATOM      6  N   UNL A   1      31.992  22.421  24.107  1.00  0.00    -0.309 N 
ATOM      7  C   UNL A   1      31.637  21.872  25.446  1.00  0.00     0.275 C 
ATOM      8  C   UNL A   1      32.688  20.813  25.780  1.00  0.00     0.081 C 
ATOM      9  C   UNL A   1      33.329  20.497  24.433  1.00  0.00     0.068 C 
ATOM     10  C   UNL A   1      32.394  21.163  23.446  1.00  0.00     0.264 C 
ATOM     11  H   UNL A   1      31.214  22.954  23.717  1.00  0.00     0.349 HD
BRANCH   7  12
ATOM     12  C   UNL A   1      31.205  22.783  26.588  1.00  0.00     0.275 C 
ATOM     13  N   UNL A   1      29.928  23.270  26.489  1.00  0.00    -0.365 N 
ATOM     14  H   UNL A   1      29.574  23.866  27.186  1.00  0.00     0.159 HD
ATOM     15  H   UNL A   1      29.367  23.023  25.719  1.00  0.00     0.159 HD
ATOM     16  O   UNL A   1      31.852  23.029  27.601  1.00  0.00    -0.268 OA
ENDBRANCH   7  12
ENDBRANCH   5   6
BRANCH   5  17
ATOM     17  C   UNL A   1      32.245  24.896  23.590  1.00  0.00     0.046 A 
ATOM     18  C   UNL A   1      32.079  25.286  22.260  1.00  0.00     0.094 A 
ATOM     19  C   UNL A   1      31.882  26.092  24.316  1.00  0.00     0.009 A 
ATOM     20  N   UNL A   1      32.308  26.639  22.221  1.00  0.00    -0.361 N 
ATOM     21  C   UNL A   1      32.288  27.144  23.495  1.00  0.00     0.050 A 
ATOM     22  C   UNL A   1      31.353  26.489  25.554  1.00  0.00     0.015 A 
ATOM     23  H   UNL A   1      32.463  27.165  21.403  1.00  0.00     0.166 HD
ATOM     24  C   UNL A   1      32.585  28.421  23.989  1.00  0.00     0.073 A 
ATOM     25  C   UNL A   1      31.378  27.832  25.978  1.00  0.00     0.047 A 
ATOM     26  C   UNL A   1      32.104  28.762  25.256  1.00  0.00     0.121 A 
BRANCH  26  27
ATOM     27  O   UNL A   1      32.410  30.033  25.660  1.00  0.00    -0.489 OA
BRANCH  27  28
ATOM     28  C   UNL A   1      32.631  30.280  27.052  1.00  0.00     0.265 C 
BRANCH  28  29
ATOM     29  C   UNL A   1      34.095  30.430  27.408  1.00  0.00    -0.011 A 
ATOM     30  C   UNL A   1      34.931  29.304  27.373  1.00  0.00     0.007 A 
ATOM     31  C   UNL A   1      34.657  31.668  27.750  1.00  0.00     0.007 A 
ATOM     32  C   UNL A   1      36.287  29.415  27.684  1.00  0.00     0.000 A 
ATOM     33  C   UNL A   1      36.007  31.779  28.062  1.00  0.00     0.000 A 
ATOM     34  C   UNL A   1      36.819  30.653  28.031  1.00  0.00     0.000 A 
ENDBRANCH  28  29
ENDBRANCH  27  28
ENDBRANCH  26  27
ENDBRANCH   5  17
ENDBRANCH   3   5
ENDBRANCH   2   3
ENDBRANCH   1   2
BRANCH   1  35
ATOM     35  C   UNL A   1      37.053  21.298  24.621  1.00  0.00     0.275 C 
BRANCH  35  36
ATOM     36  O   UNL A   1      37.454  21.805  25.908  1.00  0.00    -0.458 OA
BRANCH  36  37
ATOM     37  C   UNL A   1      38.783  21.773  26.124  1.00  0.00     0.338 C 
ATOM     38  O   UNL A   1      39.558  20.910  25.732  1.00  0.00    -0.246 OA
BRANCH  37  39
ATOM     39  C   UNL A   1      39.289  22.995  26.797  1.00  0.00     0.060 A 
ATOM     40  C   UNL A   1      38.921  24.269  26.358  1.00  0.00     0.016 A 
ATOM     41  C   UNL A   1      40.406  22.854  27.622  1.00  0.00     0.016 A 
ATOM     42  C   UNL A   1      39.737  25.369  26.622  1.00  0.00     0.010 A 
ATOM     43  C   UNL A   1      41.170  23.972  27.971  1.00  0.00     0.010 A 
ATOM     44  C   UNL A   1      40.862  25.235  27.448  1.00  0.00    -0.014 A 
BRANCH  44  45
ATOM     45  C   UNL A   1      41.617  26.432  27.890  1.00  0.00     0.031 A 
ATOM     46  C   UNL A   1      41.036  27.456  28.823  1.00  0.00     0.074 A 
ATOM     47  C   UNL A   1      42.857  26.606  27.394  1.00  0.00     0.049 A 
ATOM     48  N   UNL A   1      41.468  28.667  29.082  1.00  0.00    -0.248 NA
ATOM     49  C   UNL A   1      39.835  27.073  29.578  1.00  0.00     0.031 C 
ATOM     50  C   UNL A   1      43.571  25.642  26.554  1.00  0.00     0.029 A 
ATOM     51  N   UNL A   1      43.728  27.658  27.514  1.00  0.00    -0.354 N 
ATOM     52  C   UNL A   1      40.576  29.207  30.004  1.00  0.00     0.074 A 
ATOM     53  C   UNL A   1      39.587  28.182  30.269  1.00  0.00     0.031 C 
ATOM     54  C   UNL A   1      44.772  26.143  26.238  1.00  0.00     0.029 A 
ATOM     55  C   UNL A   1      44.862  27.500  26.759  1.00  0.00     0.049 A 
ATOM     56  H   UNL A   1      43.556  28.442  28.082  1.00  0.00     0.167 HD
ATOM     57  C   UNL A   1      40.591  30.444  30.559  1.00  0.00     0.031 A 
ATOM     58  C   UNL A   1      45.838  28.368  26.448  1.00  0.00     0.031 A 
ATOM     59  C   UNL A   1      41.606  31.441  30.299  1.00  0.00     0.049 A 
ATOM     60  C   UNL A   1      45.775  29.761  26.985  1.00  0.00     0.074 A 
ATOM     61  C   UNL A   1      41.709  32.723  30.817  1.00  0.00     0.029 A 
ATOM     62  N   UNL A   1      42.698  31.265  29.465  1.00  0.00    -0.354 N 
ATOM     63  N   UNL A   1      44.870  30.302  27.762  1.00  0.00    -0.248 NA
ATOM     64  C   UNL A   1      46.864  30.664  26.598  1.00  0.00     0.031 C 
ATOM     65  C   UNL A   1      42.830  33.340  30.254  1.00  0.00     0.029 A 
ATOM     66  C   UNL A   1      43.469  32.418  29.445  1.00  0.00     0.049 A 
ATOM     67  H   UNL A   1      42.898  30.443  28.961  1.00  0.00     0.167 HD
ATOM     68  C   UNL A   1      45.290  31.605  27.978  1.00  0.00     0.074 A 
ATOM     69  C   UNL A   1      46.540  31.765  27.260  1.00  0.00     0.031 C 
ATOM     70  C   UNL A   1      44.697  32.577  28.711  1.00  0.00     0.031 A 
BRANCH  57  71
ATOM     71  C   UNL A   1      39.475  30.850  31.491  1.00  0.00    -0.014 A 
ATOM     72  C   UNL A   1      39.622  30.805  32.885  1.00  0.00     0.009 A 
ATOM     73  C   UNL A   1      38.321  31.451  30.956  1.00  0.00     0.009 A 
ATOM     74  C   UNL A   1      38.638  31.347  33.721  1.00  0.00     0.001 A 
ATOM     75  C   UNL A   1      37.357  32.025  31.790  1.00  0.00     0.001 A 
ATOM     76  C   UNL A   1      37.513  31.964  33.173  1.00  0.00     0.000 A 
ENDBRANCH  57  71
BRANCH  58  77
ATOM     77  C   UNL A   1      46.915  27.935  25.525  1.00  0.00    -0.014 A 
ATOM     78  C   UNL A   1      48.044  27.264  26.009  1.00  0.00     0.009 A 
ATOM     79  C   UNL A   1      46.771  28.124  24.138  1.00  0.00     0.009 A 
ATOM     80  C   UNL A   1      49.011  26.790  25.122  1.00  0.00     0.001 A 
ATOM     81  C   UNL A   1      47.722  27.617  23.253  1.00  0.00     0.001 A 
ATOM     82  C   UNL A   1      48.843  26.954  23.746  1.00  0.00     0.000 A 
ENDBRANCH  58  77
BRANCH  70  83
ATOM     83  C   UNL A   1      45.425  33.888  28.804  1.00  0.00    -0.014 A 
ATOM     84  C   UNL A   1      46.345  34.141  29.832  1.00  0.00     0.009 A 
ATOM     85  C   UNL A   1      45.171  34.888  27.852  1.00  0.00     0.009 A 
ATOM     86  C   UNL A   1      46.958  35.392  29.936  1.00  0.00     0.001 A 
ATOM     87  C   UNL A   1      45.810  36.125  27.940  1.00  0.00     0.001 A 
ATOM     88  C   UNL A   1      46.691  36.382  28.990  1.00  0.00     0.000 A 
ENDBRANCH  70  83
ENDBRANCH  44  45
ENDBRANCH  37  39
ENDBRANCH  36  37
ENDBRANCH  35  36
ENDBRANCH   1  35
TORSDOF 17
ENDMDL
MODEL 2
REMARK VINA RESULT:     -11.3      2.392      7.593
REMARK SMILES NC(=O)[C@@H]1CCC[N@@H+]1[C@@H](C(=O)OCCOC(=O)c1ccc(-c2c3nc(c(-c4ccccc4)c4ccc([nH]4)c(-c4ccccc4)c4nc(c(-c5ccccc5)c5ccc2[nH]5)C=C4)C=C3)cc1)c1c[nH]c2cc(OCc3ccccc3)ccc12
REMARK SMILES IDX 13 1 12 2 10 3 11 4 9 5 8 6 4 7 5 8 6 9 7 10 2 12 1 13 3 16
REMARK SMILES IDX 66 17 67 18 82 19 68 20 69 21 81 22 70 24 80 25 71 26 72 27
REMARK SMILES IDX 73 28 74 29 75 30 79 31 76 32 78 33 77 34 14 35 15 36 16 37
REMARK SMILES IDX 17 38 18 39 19 40 65 41 20 42 64 43 21 44 22 45 23 46 58 47
REMARK SMILES IDX 24 48 63 49 57 50 59 51 25 52 62 53 56 54 55 55 26 57 48 58
REMARK SMILES IDX 33 59 47 60 34 61 37 62 46 63 60 64 35 65 36 66 45 68 61 69
REMARK SMILES IDX 38 70 27 71 28 72 32 73 29 74 31 75 30 76 49 77 50 78 54 79
REMARK SMILES IDX 51 80 53 81 52 82 39 83 40 84 44 85 41 86 43 87 42 88
REMARK H PARENT 8 11 1 14 1 15 68 23 59 56 37 67
REMARK Flexibility Score: inf
ROOT
ATOM      1  C   UNL A   1      31.843  30.150  25.946  1.00  0.00     0.274 C 
ENDROOT
BRANCH   1   2
ATOM      2  O   UNL A   1      32.568  29.313  25.007  1.00  0.00    -0.457 OA
BRANCH   2   3
ATOM      3  C   UNL A   1      32.107  28.038  24.899  1.00  0.00     0.370 C 
ATOM      4  O   UNL A   1      31.660  27.402  25.856  1.00  0.00    -0.245 OA
BRANCH   3   5
ATOM      5  C   UNL A   1      32.254  27.386  23.528  1.00  0.00     0.329 C 
BRANCH   5   6
ATOM      6  N   UNL A   1      31.011  27.196  22.656  1.00  0.00    -0.309 N 
ATOM      7  C   UNL A   1      29.836  28.108  22.747  1.00  0.00     0.275 C 
ATOM      8  C   UNL A   1      28.947  27.568  23.867  1.00  0.00     0.081 C 
ATOM      9  C   UNL A   1      29.429  26.134  24.058  1.00  0.00     0.068 C 
ATOM     10  C   UNL A   1      30.313  25.908  22.850  1.00  0.00     0.264 C 
ATOM     11  H   UNL A   1      31.522  27.351  21.786  1.00  0.00     0.349 HD
BRANCH   7  12
ATOM     12  C   UNL A   1      30.000  29.621  22.681  1.00  0.00     0.275 C 
ATOM     13  N   UNL A   1      30.741  30.077  21.623  1.00  0.00    -0.365 N 
ATOM     14  H   UNL A   1      30.894  31.043  21.509  1.00  0.00     0.159 HD
ATOM     15  H   UNL A   1      31.122  29.439  20.978  1.00  0.00     0.159 HD
ATOM     16  O   UNL A   1      29.458  30.440  23.418  1.00  0.00    -0.268 OA
ENDBRANCH   7  12
ENDBRANCH   5   6
BRANCH   5  17
ATOM     17  C   UNL A   1      33.277  26.239  23.292  1.00  0.00     0.046 A 
ATOM     18  C   UNL A   1      33.586  25.815  21.999  1.00  0.00     0.094 A 
ATOM     19  C   UNL A   1      33.854  25.196  24.111  1.00  0.00     0.009 A 
ATOM     20  N   UNL A   1      33.655  24.445  22.046  1.00  0.00    -0.361 N 
ATOM     21  C   UNL A   1      33.723  24.033  23.351  1.00  0.00     0.050 A 
ATOM     22  C   UNL A   1      34.396  24.998  25.391  1.00  0.00     0.015 A 
ATOM     23  H   UNL A   1      33.657  23.849  21.261  1.00  0.00     0.166 HD
ATOM     24  C   UNL A   1      33.684  22.754  23.921  1.00  0.00     0.073 A 
ATOM     25  C   UNL A   1      34.641  23.710  25.905  1.00  0.00     0.047 A 
ATOM     26  C   UNL A   1      34.167  22.603  25.225  1.00  0.00     0.121 A 
BRANCH  26  27
ATOM     27  O   UNL A   1      34.122  21.322  25.704  1.00  0.00    -0.489 OA
BRANCH  27  28
ATOM     28  C   UNL A   1      35.076  20.371  25.219  1.00  0.00     0.265 C 
BRANCH  28  29
ATOM     29  C   UNL A   1      34.438  19.134  24.626  1.00  0.00    -0.011 A 
ATOM     30  C   UNL A   1      33.138  19.211  24.104  1.00  0.00     0.007 A 
ATOM     31  C   UNL A   1      35.113  17.907  24.556  1.00  0.00     0.007 A 
ATOM     32  C   UNL A   1      32.530  18.089  23.540  1.00  0.00     0.000 A 
ATOM     33  C   UNL A   1      34.507  16.788  23.996  1.00  0.00     0.000 A 
ATOM     34  C   UNL A   1      33.217  16.880  23.491  1.00  0.00     0.000 A 
ENDBRANCH  28  29
ENDBRANCH  27  28
ENDBRANCH  26  27
ENDBRANCH   5  17
ENDBRANCH   3   5
ENDBRANCH   2   3
ENDBRANCH   1   2
BRANCH   1  35
ATOM     35  C   UNL A   1      32.591  30.262  27.266  1.00  0.00     0.275 C 
BRANCH  35  36
ATOM     36  O   UNL A   1      33.993  30.422  26.976  1.00  0.00    -0.458 OA
BRANCH  36  37
ATOM     37  C   UNL A   1      34.724  30.867  28.016  1.00  0.00     0.338 C 
ATOM     38  O   UNL A   1      34.399  31.746  28.805  1.00  0.00    -0.246 OA
BRANCH  37  39
ATOM     39  C   UNL A   1      35.966  30.082  28.229  1.00  0.00     0.060 A 
ATOM     40  C   UNL A   1      36.361  29.685  29.508  1.00  0.00     0.016 A 
ATOM     41  C   UNL A   1      36.899  30.070  27.191  1.00  0.00     0.016 A 
ATOM     42  C   UNL A   1      37.703  29.415  29.779  1.00  0.00     0.010 A 
ATOM     43  C   UNL A   1      38.225  29.702  27.440  1.00  0.00     0.010 A 
ATOM     44  C   UNL A   1      38.647  29.402  28.743  1.00  0.00    -0.014 A 
BRANCH  44  45
ATOM     45  C   UNL A   1      40.029  28.926  28.990  1.00  0.00     0.031 A 
ATOM     46  C   UNL A   1      41.131  29.841  29.442  1.00  0.00     0.074 A 
ATOM     47  C   UNL A   1      40.290  27.625  28.760  1.00  0.00     0.049 A 
ATOM     48  N   UNL A   1      42.425  29.627  29.441  1.00  0.00    -0.248 NA
ATOM     49  C   UNL A   1      40.739  31.150  29.982  1.00  0.00     0.031 C 
ATOM     50  C   UNL A   1      39.292  26.613  28.409  1.00  0.00     0.029 A 
ATOM     51  N   UNL A   1      41.476  26.937  28.774  1.00  0.00    -0.354 N 
ATOM     52  C   UNL A   1      43.008  30.785  29.947  1.00  0.00     0.074 A 
ATOM     53  C   UNL A   1      41.922  31.691  30.258  1.00  0.00     0.031 C 
ATOM     54  C   UNL A   1      39.903  25.434  28.245  1.00  0.00     0.029 A 
ATOM     55  C   UNL A   1      41.340  25.633  28.371  1.00  0.00     0.049 A 
ATOM     56  H   UNL A   1      42.333  27.337  29.044  1.00  0.00     0.167 HD
ATOM     57  C   UNL A   1      44.327  31.052  30.121  1.00  0.00     0.031 A 
ATOM     58  C   UNL A   1      42.264  24.709  28.057  1.00  0.00     0.031 A 
ATOM     59  C   UNL A   1      45.392  30.118  29.829  1.00  0.00     0.049 A 
ATOM     60  C   UNL A   1      43.712  25.063  28.153  1.00  0.00     0.074 A 
ATOM     61  C   UNL A   1      46.760  30.296  29.974  1.00  0.00     0.029 A 
ATOM     62  N   UNL A   1      45.212  28.831  29.347  1.00  0.00    -0.354 N 
ATOM     63  N   UNL A   1      44.259  26.195  28.521  1.00  0.00    -0.248 NA
ATOM     64  C   UNL A   1      44.670  24.015  27.785  1.00  0.00     0.031 C 
ATOM     65  C   UNL A   1      47.407  29.140  29.530  1.00  0.00     0.029 A 
ATOM     66  C   UNL A   1      46.442  28.212  29.179  1.00  0.00     0.049 A 
ATOM     67  H   UNL A   1      44.340  28.417  29.153  1.00  0.00     0.167 HD
ATOM     68  C   UNL A   1      45.628  25.990  28.452  1.00  0.00     0.074 A 
ATOM     69  C   UNL A   1      45.825  24.620  28.020  1.00  0.00     0.031 C 
ATOM     70  C   UNL A   1      46.630  26.859  28.728  1.00  0.00     0.031 A 
BRANCH  57  71
ATOM     71  C   UNL A   1      44.746  32.412  30.624  1.00  0.00    -0.014 A 
ATOM     72  C   UNL A   1      44.895  33.507  29.760  1.00  0.00     0.009 A 
ATOM     73  C   UNL A   1      44.821  32.635  32.011  1.00  0.00     0.009 A 
ATOM     74  C   UNL A   1      45.116  34.791  30.273  1.00  0.00     0.001 A 
ATOM     75  C   UNL A   1      45.003  33.923  32.522  1.00  0.00     0.001 A 
ATOM     76  C   UNL A   1      45.160  34.999  31.652  1.00  0.00     0.000 A 
ENDBRANCH  57  71
BRANCH  58  77
ATOM     77  C   UNL A   1      41.814  23.386  27.562  1.00  0.00    -0.014 A 
ATOM     78  C   UNL A   1      41.818  23.096  26.192  1.00  0.00     0.009 A 
ATOM     79  C   UNL A   1      41.454  22.378  28.475  1.00  0.00     0.009 A 
ATOM     80  C   UNL A   1      41.471  21.821  25.744  1.00  0.00     0.001 A 
ATOM     81  C   UNL A   1      41.142  21.095  28.025  1.00  0.00     0.001 A 
ATOM     82  C   UNL A   1      41.148  20.819  26.660  1.00  0.00     0.000 A 
ENDBRANCH  58  77
BRANCH  70  83
ATOM     83  C   UNL A   1      48.030  26.328  28.611  1.00  0.00    -0.014 A 
ATOM     84  C   UNL A   1      48.726  26.362  27.394  1.00  0.00     0.009 A 
ATOM     85  C   UNL A   1      48.655  25.773  29.739  1.00  0.00     0.009 A 
ATOM     86  C   UNL A   1      50.001  25.801  27.295  1.00  0.00     0.001 A 
ATOM     87  C   UNL A   1      49.942  25.242  29.645  1.00  0.00     0.001 A 
ATOM     88  C   UNL A   1      50.607  25.242  28.420  1.00  0.00     0.000 A 
ENDBRANCH  70  83
ENDBRANCH  44  45
ENDBRANCH  37  39
ENDBRANCH  36  37
ENDBRANCH  35  36
ENDBRANCH   1  35
TORSDOF 17
ENDMDL
MODEL 3
REMARK VINA RESULT:     -11.3      3.048      6.562
REMARK SMILES NC(=O)[C@@H]1CCC[N@@H+]1[C@@H](C(=O)OCCOC(=O)c1ccc(-c2c3nc(c(-c4ccccc4)c4ccc([nH]4)c(-c4ccccc4)c4nc(c(-c5ccccc5)c5ccc2[nH]5)C=C4)C=C3)cc1)c1c[nH]c2cc(OCc3ccccc3)ccc12
REMARK SMILES IDX 13 1 12 2 10 3 11 4 9 5 8 6 4 7 5 8 6 9 7 10 2 12 1 13 3 16
REMARK SMILES IDX 66 17 67 18 82 19 68 20 69 21 81 22 70 24 80 25 71 26 72 27
REMARK SMILES IDX 73 28 74 29 75 30 79 31 76 32 78 33 77 34 14 35 15 36 16 37
REMARK SMILES IDX 17 38 18 39 19 40 65 41 20 42 64 43 21 44 22 45 23 46 58 47
REMARK SMILES IDX 24 48 63 49 57 50 59 51 25 52 62 53 56 54 55 55 26 57 48 58
REMARK SMILES IDX 33 59 47 60 34 61 37 62 46 63 60 64 35 65 36 66 45 68 61 69
REMARK SMILES IDX 38 70 27 71 28 72 32 73 29 74 31 75 30 76 49 77 50 78 54 79
REMARK SMILES IDX 51 80 53 81 52 82 39 83 40 84 44 85 41 86 43 87 42 88
REMARK H PARENT 8 11 1 14 1 15 68 23 59 56 37 67
REMARK Flexibility Score: inf
ROOT
ATOM      1  C   UNL A   1      36.954  22.246  24.033  1.00  0.00     0.274 C 
ENDROOT
BRANCH   1   2
ATOM      2  O   UNL A   1      35.679  21.600  24.287  1.00  0.00    -0.457 OA
BRANCH   2   3
ATOM      3  C   UNL A   1      34.588  22.391  24.107  1.00  0.00     0.370 C 
ATOM      4  O   UNL A   1      34.496  23.210  23.189  1.00  0.00    -0.245 OA
BRANCH   3   5
ATOM      5  C   UNL A   1      33.497  22.280  25.167  1.00  0.00     0.329 C 
BRANCH   5   6
ATOM      6  N   UNL A   1      32.274  21.403  24.890  1.00  0.00    -0.309 N 
ATOM      7  C   UNL A   1      32.404  19.996  24.415  1.00  0.00     0.275 C 
ATOM      8  C   UNL A   1      32.518  20.055  22.892  1.00  0.00     0.081 C 
ATOM      9  C   UNL A   1      32.002  21.447  22.540  1.00  0.00     0.068 C 
ATOM     10  C   UNL A   1      31.375  21.915  23.836  1.00  0.00     0.264 C 
ATOM     11  H   UNL A   1      31.959  21.428  25.860  1.00  0.00     0.349 HD
BRANCH   7  12
ATOM     12  C   UNL A   1      33.313  19.000  25.124  1.00  0.00     0.275 C 
ATOM     13  N   UNL A   1      32.898  18.628  26.376  1.00  0.00    -0.365 N 
ATOM     14  H   UNL A   1      33.431  17.988  26.901  1.00  0.00     0.159 HD
ATOM     15  H   UNL A   1      32.068  19.001  26.750  1.00  0.00     0.159 HD
ATOM     16  O   UNL A   1      34.299  18.451  24.643  1.00  0.00    -0.268 OA
ENDBRANCH   7  12
ENDBRANCH   5   6
BRANCH   5  17
ATOM     17  C   UNL A   1      33.114  23.500  26.053  1.00  0.00     0.046 A 
ATOM     18  C   UNL A   1      32.210  23.359  27.107  1.00  0.00     0.094 A 
ATOM     19  C   UNL A   1      33.222  24.936  25.922  1.00  0.00     0.009 A 
ATOM     20  N   UNL A   1      31.399  24.466  27.074  1.00  0.00    -0.361 N 
ATOM     21  C   UNL A   1      31.959  25.420  26.266  1.00  0.00     0.050 A 
ATOM     22  C   UNL A   1      34.129  25.920  25.501  1.00  0.00     0.015 A 
ATOM     23  H   UNL A   1      30.546  24.559  27.558  1.00  0.00     0.166 HD
ATOM     24  C   UNL A   1      31.472  26.654  25.817  1.00  0.00     0.073 A 
ATOM     25  C   UNL A   1      33.738  27.259  25.303  1.00  0.00     0.047 A 
ATOM     26  C   UNL A   1      32.395  27.588  25.336  1.00  0.00     0.121 A 
BRANCH  26  27
ATOM     27  O   UNL A   1      31.848  28.779  24.941  1.00  0.00    -0.489 OA
BRANCH  27  28
ATOM     28  C   UNL A   1      31.452  28.935  23.575  1.00  0.00     0.265 C 
BRANCH  28  29
ATOM     29  C   UNL A   1      29.989  29.288  23.413  1.00  0.00    -0.011 A 
ATOM     30  C   UNL A   1      29.061  28.271  23.144  1.00  0.00     0.007 A 
ATOM     31  C   UNL A   1      29.519  30.602  23.549  1.00  0.00     0.007 A 
ATOM     32  C   UNL A   1      27.704  28.566  23.002  1.00  0.00     0.000 A 
ATOM     33  C   UNL A   1      28.168  30.896  23.406  1.00  0.00     0.000 A 
ATOM     34  C   UNL A   1      27.263  29.879  23.131  1.00  0.00     0.000 A 
ENDBRANCH  28  29
ENDBRANCH  27  28
ENDBRANCH  26  27
ENDBRANCH   5  17
ENDBRANCH   3   5
ENDBRANCH   2   3
ENDBRANCH   1   2
BRANCH   1  35
ATOM     35  C   UNL A   1      37.028  23.597  24.727  1.00  0.00     0.275 C 
BRANCH  35  36
ATOM     36  O   UNL A   1      37.348  23.373  26.114  1.00  0.00    -0.458 OA
BRANCH  36  37
ATOM     37  C   UNL A   1      38.644  23.085  26.343  1.00  0.00     0.338 C 
ATOM     38  O   UNL A   1      39.244  22.094  25.948  1.00  0.00    -0.246 OA
BRANCH  37  39
ATOM     39  C   UNL A   1      39.367  24.181  27.035  1.00  0.00     0.060 A 
ATOM     40  C   UNL A   1      39.094  24.501  28.366  1.00  0.00     0.016 A 
ATOM     41  C   UNL A   1      40.044  25.104  26.236  1.00  0.00     0.016 A 
ATOM     42  C   UNL A   1      39.366  25.780  28.854  1.00  0.00     0.010 A 
ATOM     43  C   UNL A   1      40.408  26.351  26.753  1.00  0.00     0.010 A 
ATOM     44  C   UNL A   1      40.043  26.713  28.058  1.00  0.00    -0.014 A 
BRANCH  44  45
ATOM     45  C   UNL A   1      40.508  27.998  28.634  1.00  0.00     0.031 A 
ATOM     46  C   UNL A   1      41.882  28.174  29.215  1.00  0.00     0.074 A 
ATOM     47  C   UNL A   1      39.633  29.022  28.660  1.00  0.00     0.049 A 
ATOM     48  N   UNL A   1      42.330  29.139  29.982  1.00  0.00    -0.248 NA
ATOM     49  C   UNL A   1      42.888  27.157  28.880  1.00  0.00     0.031 C 
ATOM     50  C   UNL A   1      38.303  29.011  28.048  1.00  0.00     0.029 A 
ATOM     51  N   UNL A   1      39.729  30.263  29.234  1.00  0.00    -0.354 N 
ATOM     52  C   UNL A   1      43.660  28.833  30.251  1.00  0.00     0.074 A 
ATOM     53  C   UNL A   1      43.948  27.598  29.551  1.00  0.00     0.031 C 
ATOM     54  C   UNL A   1      37.708  30.188  28.274  1.00  0.00     0.029 A 
ATOM     55  C   UNL A   1      38.569  30.987  29.135  1.00  0.00     0.049 A 
ATOM     56  H   UNL A   1      40.545  30.598  29.671  1.00  0.00     0.167 HD
ATOM     57  C   UNL A   1      44.540  29.523  31.018  1.00  0.00     0.031 A 
ATOM     58  C   UNL A   1      38.193  32.132  29.730  1.00  0.00     0.031 A 
ATOM     59  C   UNL A   1      44.236  30.770  31.684  1.00  0.00     0.049 A 
ATOM     60  C   UNL A   1      39.143  32.817  30.657  1.00  0.00     0.074 A 
ATOM     61  C   UNL A   1      45.063  31.547  32.482  1.00  0.00     0.029 A 
ATOM     62  N   UNL A   1      43.019  31.430  31.620  1.00  0.00    -0.354 N 
ATOM     63  N   UNL A   1      40.357  32.464  31.000  1.00  0.00    -0.248 NA
ATOM     64  C   UNL A   1      38.669  34.056  31.284  1.00  0.00     0.031 C 
ATOM     65  C   UNL A   1      44.331  32.644  32.943  1.00  0.00     0.029 A 
ATOM     66  C   UNL A   1      43.071  32.594  32.373  1.00  0.00     0.049 A 
ATOM     67  H   UNL A   1      42.233  31.119  31.114  1.00  0.00     0.167 HD
ATOM     68  C   UNL A   1      40.803  33.449  31.867  1.00  0.00     0.074 A 
ATOM     69  C   UNL A   1      39.734  34.421  31.984  1.00  0.00     0.031 C 
ATOM     70  C   UNL A   1      41.996  33.542  32.503  1.00  0.00     0.031 A 
BRANCH  57  71
ATOM     71  C   UNL A   1      45.927  28.967  31.235  1.00  0.00    -0.014 A 
ATOM     72  C   UNL A   1      46.198  28.024  32.238  1.00  0.00     0.009 A 
ATOM     73  C   UNL A   1      46.938  29.267  30.304  1.00  0.00     0.009 A 
ATOM     74  C   UNL A   1      47.449  27.400  32.305  1.00  0.00     0.001 A 
ATOM     75  C   UNL A   1      48.173  28.616  30.350  1.00  0.00     0.001 A 
ATOM     76  C   UNL A   1      48.431  27.689  31.357  1.00  0.00     0.000 A 
ENDBRANCH  57  71
BRANCH  58  77
ATOM     77  C   UNL A   1      36.821  32.644  29.497  1.00  0.00    -0.014 A 
ATOM     78  C   UNL A   1      36.521  33.388  28.350  1.00  0.00     0.009 A 
ATOM     79  C   UNL A   1      35.786  32.316  30.391  1.00  0.00     0.009 A 
ATOM     80  C   UNL A   1      35.210  33.795  28.101  1.00  0.00     0.001 A 
ATOM     81  C   UNL A   1      34.472  32.693  30.121  1.00  0.00     0.001 A 
ATOM     82  C   UNL A   1      34.186  33.436  28.977  1.00  0.00     0.000 A 
ENDBRANCH  58  77
BRANCH  70  83
ATOM     83  C   UNL A   1      42.215  34.765  33.346  1.00  0.00    -0.014 A 
ATOM     84  C   UNL A   1      41.688  34.863  34.642  1.00  0.00     0.009 A 
ATOM     85  C   UNL A   1      42.949  35.843  32.824  1.00  0.00     0.009 A 
ATOM     86  C   UNL A   1      41.848  36.038  35.381  1.00  0.00     0.001 A 
ATOM     87  C   UNL A   1      43.133  37.002  33.577  1.00  0.00     0.001 A 
ATOM     88  C   UNL A   1      42.570  37.105  34.848  1.00  0.00     0.000 A 
ENDBRANCH  70  83
ENDBRANCH  44  45
ENDBRANCH  37  39
ENDBRANCH  36  37
ENDBRANCH  35  36
ENDBRANCH   1  35
TORSDOF 17
ENDMDL
