MODEL 1
REMARK VINA RESULT:     -10.0      0.000      0.000
REMARK SMILES Cc1cc(Cl)c2c(c1)C=C(C(=O)OCCOC(=O)c1ccc(-c3c4nc(c(-c5ccccc5)c5ccc([nH]5)c(-c5ccccc5)c5nc(c(-c6ccccc6)c6ccc3[nH]6)C=C5)C=C4)cc1)[C@@H](C(F)(F)F)O2
REMARK SMILES IDX 15 1 14 2 13 3 11 4 12 5 10 6 1 7 2 8 3 9 8 10 4 11 7 12
REMARK SMILES IDX 5 13 6 14 9 15 72 16 67 17 68 18 69 19 70 20 71 21 16 22
REMARK SMILES IDX 17 23 18 24 19 25 20 26 66 27 21 28 65 29 22 30 23 31 24 32
REMARK SMILES IDX 59 33 25 34 64 35 58 36 60 37 26 38 63 39 57 40 56 41 27 43
REMARK SMILES IDX 49 44 34 45 48 46 35 47 38 48 47 49 61 50 36 51 37 52 46 54
REMARK SMILES IDX 62 55 39 56 28 57 29 58 33 59 30 60 32 61 31 62 50 63 51 64
REMARK SMILES IDX 55 65 52 66 54 67 53 68 40 69 41 70 45 71 42 72 44 73 43 74
REMARK H PARENT 60 42 38 53
REMARK Flexibility Score: inf
ROOT
ATOM      1  C   UNL A   1      33.280  34.162  28.259  1.00  0.00     0.275 C 
ENDROOT
BRANCH   1   2
ATOM      2  C   UNL A   1      34.143  35.047  29.160  1.00  0.00     0.275 C 
BRANCH   2   3
ATOM      3  O   UNL A   1      33.960  34.728  30.557  1.00  0.00    -0.459 OA
BRANCH   3   4
ATOM      4  C   UNL A   1      34.649  33.653  31.001  1.00  0.00     0.338 C 
ATOM      5  O   UNL A   1      34.325  32.481  30.885  1.00  0.00    -0.246 OA
BRANCH   4   6
ATOM      6  C   UNL A   1      35.911  34.067  31.644  1.00  0.00     0.087 C 
ATOM      7  C   UNL A   1      41.995  33.230  31.111  1.00  0.00     0.044 C 
ATOM      8  C   UNL A   1      40.722  33.690  31.759  1.00  0.00    -0.049 A 
ATOM      9  C   UNL A   1      40.736  34.303  33.016  1.00  0.00     0.028 A 
ATOM     10  C   UNL A   1      39.500  33.546  31.099  1.00  0.00     0.015 A 
ATOM     11  C   UNL A   1      39.544  34.747  33.609  1.00  0.00     0.084 A 
ATOM     12  C   UNL A   1      38.307  33.972  31.702  1.00  0.00     0.019 A 
ATOM     13  Cl  UNL A   1      39.633  35.483  35.169  1.00  0.00    -0.080 Cl
ATOM     14  C   UNL A   1      38.317  34.579  32.956  1.00  0.00     0.146 A 
ATOM     15  C   UNL A   1      37.049  33.736  31.026  1.00  0.00     0.027 C 
ATOM     16  O   UNL A   1      37.175  35.035  33.563  1.00  0.00    -0.474 OA
ATOM     17  C   UNL A   1      35.875  34.679  33.013  1.00  0.00     0.316 C 
BRANCH  17  18
ATOM     18  C   UNL A   1      35.143  33.765  34.008  1.00  0.00     0.430 C 
ATOM     19  F   UNL A   1      35.613  32.497  33.956  1.00  0.00    -0.167 F 
ATOM     20  F   UNL A   1      35.311  34.187  35.286  1.00  0.00    -0.167 F 
ATOM     21  F   UNL A   1      33.812  33.718  33.771  1.00  0.00    -0.167 F 
ENDBRANCH  17  18
ENDBRANCH   4   6
ENDBRANCH   3   4
ENDBRANCH   2   3
ENDBRANCH   1   2
BRANCH   1  22
ATOM     22  O   UNL A   1      34.106  33.346  27.406  1.00  0.00    -0.458 OA
BRANCH  22  23
ATOM     23  C   UNL A   1      33.914  32.016  27.538  1.00  0.00     0.338 C 
ATOM     24  O   UNL A   1      32.870  31.399  27.403  1.00  0.00    -0.246 OA
BRANCH  23  25
ATOM     25  C   UNL A   1      35.187  31.324  27.787  1.00  0.00     0.060 A 
ATOM     26  C   UNL A   1      35.148  29.969  28.086  1.00  0.00     0.016 A 
ATOM     27  C   UNL A   1      36.354  32.051  28.000  1.00  0.00     0.016 A 
ATOM     28  C   UNL A   1      36.195  29.385  28.792  1.00  0.00     0.010 A 
ATOM     29  C   UNL A   1      37.469  31.413  28.557  1.00  0.00     0.010 A 
ATOM     30  C   UNL A   1      37.381  30.090  29.030  1.00  0.00    -0.014 A 
BRANCH  30  31
ATOM     31  C   UNL A   1      38.501  29.474  29.804  1.00  0.00     0.031 A 
ATOM     32  C   UNL A   1      38.682  29.799  31.270  1.00  0.00     0.074 A 
ATOM     33  C   UNL A   1      39.355  28.608  29.220  1.00  0.00     0.049 A 
ATOM     34  N   UNL A   1      39.712  29.576  32.047  1.00  0.00    -0.248 NA
ATOM     35  C   UNL A   1      37.560  30.472  31.948  1.00  0.00     0.031 C 
ATOM     36  C   UNL A   1      39.269  28.118  27.842  1.00  0.00     0.029 A 
ATOM     37  N   UNL A   1      40.468  27.974  29.721  1.00  0.00    -0.354 N 
ATOM     38  C   UNL A   1      39.393  30.142  33.277  1.00  0.00     0.074 A 
ATOM     39  C   UNL A   1      38.074  30.720  33.146  1.00  0.00     0.031 C 
ATOM     40  C   UNL A   1      40.245  27.225  27.626  1.00  0.00     0.029 A 
ATOM     41  C   UNL A   1      41.106  27.178  28.800  1.00  0.00     0.049 A 
ATOM     42  H   UNL A   1      40.778  28.082  30.649  1.00  0.00     0.167 HD
ATOM     43  C   UNL A   1      40.135  30.180  34.411  1.00  0.00     0.031 A 
ATOM     44  C   UNL A   1      42.285  26.532  28.855  1.00  0.00     0.031 A 
ATOM     45  C   UNL A   1      41.431  29.565  34.550  1.00  0.00     0.049 A 
ATOM     46  C   UNL A   1      43.131  26.664  30.085  1.00  0.00     0.074 A 
ATOM     47  C   UNL A   1      42.267  29.556  35.654  1.00  0.00     0.029 A 
ATOM     48  N   UNL A   1      42.067  28.833  33.561  1.00  0.00    -0.354 N 
ATOM     49  N   UNL A   1      42.865  27.287  31.206  1.00  0.00    -0.248 NA
ATOM     50  C   UNL A   1      44.452  26.020  30.048  1.00  0.00     0.031 C 
ATOM     51  C   UNL A   1      43.432  28.860  35.314  1.00  0.00     0.029 A 
ATOM     52  C   UNL A   1      43.293  28.381  34.022  1.00  0.00     0.049 A 
ATOM     53  H   UNL A   1      41.702  28.658  32.664  1.00  0.00     0.167 HD
ATOM     54  C   UNL A   1      43.979  27.103  32.013  1.00  0.00     0.074 A 
ATOM     55  C   UNL A   1      44.910  26.286  31.263  1.00  0.00     0.031 C 
ATOM     56  C   UNL A   1      44.213  27.577  33.261  1.00  0.00     0.031 A 
BRANCH  43  57
ATOM     57  C   UNL A   1      39.588  30.945  35.587  1.00  0.00    -0.014 A 
ATOM     58  C   UNL A   1      40.256  32.057  36.121  1.00  0.00     0.009 A 
ATOM     59  C   UNL A   1      38.344  30.580  36.130  1.00  0.00     0.009 A 
ATOM     60  C   UNL A   1      39.703  32.771  37.188  1.00  0.00     0.001 A 
ATOM     61  C   UNL A   1      37.778  31.313  37.176  1.00  0.00     0.001 A 
ATOM     62  C   UNL A   1      38.462  32.404  37.708  1.00  0.00     0.000 A 
ENDBRANCH  43  57
BRANCH  44  63
ATOM     63  C   UNL A   1      42.760  25.760  27.675  1.00  0.00    -0.014 A 
ATOM     64  C   UNL A   1      42.431  24.404  27.533  1.00  0.00     0.009 A 
ATOM     65  C   UNL A   1      43.524  26.379  26.672  1.00  0.00     0.009 A 
ATOM     66  C   UNL A   1      42.859  23.685  26.415  1.00  0.00     0.001 A 
ATOM     67  C   UNL A   1      43.920  25.668  25.538  1.00  0.00     0.001 A 
ATOM     68  C   UNL A   1      43.592  24.319  25.413  1.00  0.00     0.000 A 
ENDBRANCH  44  63
BRANCH  56  69
ATOM     69  C   UNL A   1      45.518  27.196  33.902  1.00  0.00    -0.014 A 
ATOM     70  C   UNL A   1      46.653  28.012  33.782  1.00  0.00     0.009 A 
ATOM     71  C   UNL A   1      45.604  26.015  34.658  1.00  0.00     0.009 A 
ATOM     72  C   UNL A   1      47.859  27.634  34.375  1.00  0.00     0.001 A 
ATOM     73  C   UNL A   1      46.801  25.657  35.276  1.00  0.00     0.001 A 
ATOM     74  C   UNL A   1      47.931  26.460  35.125  1.00  0.00     0.000 A 
ENDBRANCH  56  69
ENDBRANCH  30  31
ENDBRANCH  23  25
ENDBRANCH  22  23
ENDBRANCH   1  22
TORSDOF 12
ENDMDL
MODEL 2
REMARK VINA RESULT:      -9.8      6.031      9.501
REMARK SMILES Cc1cc(Cl)c2c(c1)C=C(C(=O)OCCOC(=O)c1ccc(-c3c4nc(c(-c5ccccc5)c5ccc([nH]5)c(-c5ccccc5)c5nc(c(-c6ccccc6)c6ccc3[nH]6)C=C5)C=C4)cc1)[C@@H](C(F)(F)F)O2
REMARK SMILES IDX 15 1 14 2 13 3 11 4 12 5 10 6 1 7 2 8 3 9 8 10 4 11 7 12
REMARK SMILES IDX 5 13 6 14 9 15 72 16 67 17 68 18 69 19 70 20 71 21 16 22
REMARK SMILES IDX 17 23 18 24 19 25 20 26 66 27 21 28 65 29 22 30 23 31 24 32
REMARK SMILES IDX 59 33 25 34 64 35 58 36 60 37 26 38 63 39 57 40 56 41 27 43
REMARK SMILES IDX 49 44 34 45 48 46 35 47 38 48 47 49 61 50 36 51 37 52 46 54
REMARK SMILES IDX 62 55 39 56 28 57 29 58 33 59 30 60 32 61 31 62 50 63 51 64
REMARK SMILES IDX 55 65 52 66 54 67 53 68 40 69 41 70 45 71 42 72 44 73 43 74
REMARK H PARENT 60 42 38 53
REMARK Flexibility Score: inf
ROOT
ATOM      1  C   UNL A   1      36.627  20.631  25.013  1.00  0.00     0.275 C 
ENDROOT
BRANCH   1   2
ATOM      2  C   UNL A   1      35.297  21.386  25.064  1.00  0.00     0.275 C 
BRANCH   2   3
ATOM      3  O   UNL A   1      35.486  22.812  24.923  1.00  0.00    -0.459 OA
BRANCH   3   4
ATOM      4  C   UNL A   1      35.205  23.315  23.701  1.00  0.00     0.338 C 
ATOM      5  O   UNL A   1      35.685  22.954  22.637  1.00  0.00    -0.246 OA
BRANCH   4   6
ATOM      6  C   UNL A   1      34.185  24.377  23.791  1.00  0.00     0.087 C 
ATOM      7  C   UNL A   1      32.732  29.269  27.249  1.00  0.00     0.044 C 
ATOM      8  C   UNL A   1      32.526  28.219  26.197  1.00  0.00    -0.049 A 
ATOM      9  C   UNL A   1      31.325  28.143  25.483  1.00  0.00     0.028 A 
ATOM     10  C   UNL A   1      33.546  27.318  25.887  1.00  0.00     0.015 A 
ATOM     11  C   UNL A   1      31.145  27.169  24.489  1.00  0.00     0.084 A 
ATOM     12  C   UNL A   1      33.357  26.332  24.907  1.00  0.00     0.019 A 
ATOM     13  Cl  UNL A   1      29.633  27.123  23.655  1.00  0.00    -0.080 Cl
ATOM     14  C   UNL A   1      32.161  26.251  24.196  1.00  0.00     0.146 A 
ATOM     15  C   UNL A   1      34.405  25.364  24.664  1.00  0.00     0.027 C 
ATOM     16  O   UNL A   1      31.951  25.321  23.211  1.00  0.00    -0.474 OA
ATOM     17  C   UNL A   1      32.895  24.226  23.039  1.00  0.00     0.316 C 
BRANCH  17  18
ATOM     18  C   UNL A   1      32.199  22.903  23.398  1.00  0.00     0.430 C 
ATOM     19  F   UNL A   1      32.311  22.624  24.717  1.00  0.00    -0.167 F 
ATOM     20  F   UNL A   1      30.872  22.952  23.126  1.00  0.00    -0.167 F 
ATOM     21  F   UNL A   1      32.712  21.856  22.712  1.00  0.00    -0.167 F 
ENDBRANCH  17  18
ENDBRANCH   4   6
ENDBRANCH   3   4
ENDBRANCH   2   3
ENDBRANCH   1   2
BRANCH   1  22
ATOM     22  O   UNL A   1      37.732  21.552  24.939  1.00  0.00    -0.458 OA
BRANCH  22  23
ATOM     23  C   UNL A   1      38.788  21.231  25.718  1.00  0.00     0.338 C 
ATOM     24  O   UNL A   1      39.384  20.168  25.760  1.00  0.00    -0.246 OA
BRANCH  23  25
ATOM     25  C   UNL A   1      39.236  22.394  26.498  1.00  0.00     0.060 A 
ATOM     26  C   UNL A   1      38.697  23.636  26.191  1.00  0.00     0.016 A 
ATOM     27  C   UNL A   1      40.361  22.305  27.313  1.00  0.00     0.016 A 
ATOM     28  C   UNL A   1      39.397  24.793  26.515  1.00  0.00     0.010 A 
ATOM     29  C   UNL A   1      40.966  23.478  27.779  1.00  0.00     0.010 A 
ATOM     30  C   UNL A   1      40.537  24.741  27.326  1.00  0.00    -0.014 A 
BRANCH  30  31
ATOM     31  C   UNL A   1      41.302  25.979  27.661  1.00  0.00     0.031 A 
ATOM     32  C   UNL A   1      40.704  27.018  28.583  1.00  0.00     0.074 A 
ATOM     33  C   UNL A   1      42.541  26.185  27.166  1.00  0.00     0.049 A 
ATOM     34  N   UNL A   1      41.085  28.252  28.798  1.00  0.00    -0.248 NA
ATOM     35  C   UNL A   1      39.515  26.619  29.356  1.00  0.00     0.031 C 
ATOM     36  C   UNL A   1      43.299  25.245  26.337  1.00  0.00     0.029 A 
ATOM     37  N   UNL A   1      43.390  27.258  27.299  1.00  0.00    -0.354 N 
ATOM     38  C   UNL A   1      40.147  28.795  29.671  1.00  0.00     0.074 A 
ATOM     39  C   UNL A   1      39.178  27.758  29.946  1.00  0.00     0.031 C 
ATOM     40  C   UNL A   1      44.512  25.754  26.083  1.00  0.00     0.029 A 
ATOM     41  C   UNL A   1      44.572  27.109  26.614  1.00  0.00     0.049 A 
ATOM     42  H   UNL A   1      43.171  28.056  27.832  1.00  0.00     0.167 HD
ATOM     43  C   UNL A   1      40.098  30.046  30.191  1.00  0.00     0.031 A 
ATOM     44  C   UNL A   1      45.571  27.979  26.373  1.00  0.00     0.031 A 
ATOM     45  C   UNL A   1      41.090  31.062  29.948  1.00  0.00     0.049 A 
ATOM     46  C   UNL A   1      45.451  29.384  26.881  1.00  0.00     0.074 A 
ATOM     47  C   UNL A   1      41.125  32.363  30.420  1.00  0.00     0.029 A 
ATOM     48  N   UNL A   1      42.232  30.884  29.185  1.00  0.00    -0.354 N 
ATOM     49  N   UNL A   1      44.510  29.917  27.619  1.00  0.00    -0.248 NA
ATOM     50  C   UNL A   1      46.523  30.314  26.501  1.00  0.00     0.031 C 
ATOM     51  C   UNL A   1      42.264  32.987  29.900  1.00  0.00     0.029 A 
ATOM     52  C   UNL A   1      42.971  32.056  29.157  1.00  0.00     0.049 A 
ATOM     53  H   UNL A   1      42.483  30.048  28.729  1.00  0.00     0.167 HD
ATOM     54  C   UNL A   1      44.879  31.242  27.802  1.00  0.00     0.074 A 
ATOM     55  C   UNL A   1      46.145  31.422  27.122  1.00  0.00     0.031 C 
ATOM     56  C   UNL A   1      44.223  32.224  28.468  1.00  0.00     0.031 A 
BRANCH  43  57
ATOM     57  C   UNL A   1      38.911  30.409  31.045  1.00  0.00    -0.014 A 
ATOM     58  C   UNL A   1      37.721  30.897  30.487  1.00  0.00     0.009 A 
ATOM     59  C   UNL A   1      38.969  30.195  32.433  1.00  0.00     0.009 A 
ATOM     60  C   UNL A   1      36.624  31.187  31.302  1.00  0.00     0.001 A 
ATOM     61  C   UNL A   1      37.862  30.457  33.242  1.00  0.00     0.001 A 
ATOM     62  C   UNL A   1      36.692  30.960  32.677  1.00  0.00     0.000 A 
ENDBRANCH  43  57
BRANCH  44  63
ATOM     63  C   UNL A   1      46.738  27.555  25.553  1.00  0.00    -0.014 A 
ATOM     64  C   UNL A   1      46.776  27.824  24.177  1.00  0.00     0.009 A 
ATOM     65  C   UNL A   1      47.831  26.901  26.146  1.00  0.00     0.009 A 
ATOM     66  C   UNL A   1      47.881  27.445  23.413  1.00  0.00     0.001 A 
ATOM     67  C   UNL A   1      48.950  26.555  25.386  1.00  0.00     0.001 A 
ATOM     68  C   UNL A   1      48.972  26.822  24.018  1.00  0.00     0.000 A 
ENDBRANCH  44  63
BRANCH  56  69
ATOM     69  C   UNL A   1      44.882  33.574  28.515  1.00  0.00    -0.014 A 
ATOM     70  C   UNL A   1      45.801  33.899  29.524  1.00  0.00     0.009 A 
ATOM     71  C   UNL A   1      44.597  34.523  27.520  1.00  0.00     0.009 A 
ATOM     72  C   UNL A   1      46.393  35.163  29.557  1.00  0.00     0.001 A 
ATOM     73  C   UNL A   1      45.215  35.773  27.538  1.00  0.00     0.001 A 
ATOM     74  C   UNL A   1      46.104  36.097  28.562  1.00  0.00     0.000 A 
ENDBRANCH  56  69
ENDBRANCH  30  31
ENDBRANCH  23  25
ENDBRANCH  22  23
ENDBRANCH   1  22
TORSDOF 12
ENDMDL
MODEL 3
REMARK VINA RESULT:      -9.7      4.877      9.306
REMARK SMILES Cc1cc(Cl)c2c(c1)C=C(C(=O)OCCOC(=O)c1ccc(-c3c4nc(c(-c5ccccc5)c5ccc([nH]5)c(-c5ccccc5)c5nc(c(-c6ccccc6)c6ccc3[nH]6)C=C5)C=C4)cc1)[C@@H](C(F)(F)F)O2
REMARK SMILES IDX 15 1 14 2 13 3 11 4 12 5 10 6 1 7 2 8 3 9 8 10 4 11 7 12
REMARK SMILES IDX 5 13 6 14 9 15 72 16 67 17 68 18 69 19 70 20 71 21 16 22
REMARK SMILES IDX 17 23 18 24 19 25 20 26 66 27 21 28 65 29 22 30 23 31 24 32
REMARK SMILES IDX 59 33 25 34 64 35 58 36 60 37 26 38 63 39 57 40 56 41 27 43
REMARK SMILES IDX 49 44 34 45 48 46 35 47 38 48 47 49 61 50 36 51 37 52 46 54
REMARK SMILES IDX 62 55 39 56 28 57 29 58 33 59 30 60 32 61 31 62 50 63 51 64
REMARK SMILES IDX 55 65 52 66 54 67 53 68 40 69 41 70 45 71 42 72 44 73 43 74
REMARK H PARENT 60 42 38 53
REMARK Flexibility Score: inf
ROOT
ATOM      1  C   UNL A   1      31.735  30.080  25.685  1.00  0.00     0.275 C 
ENDROOT
BRANCH   1   2
ATOM      2  C   UNL A   1      31.962  28.753  24.958  1.00  0.00     0.275 C 
BRANCH   2   3
ATOM      3  O   UNL A   1      32.555  27.763  25.826  1.00  0.00    -0.459 OA
BRANCH   3   4
ATOM      4  C   UNL A   1      31.705  26.824  26.300  1.00  0.00     0.338 C 
ATOM      5  O   UNL A   1      30.666  27.025  26.911  1.00  0.00    -0.246 OA
BRANCH   4   6
ATOM      6  C   UNL A   1      32.172  25.469  25.955  1.00  0.00     0.087 C 
ATOM      7  C   UNL A   1      37.413  22.286  25.314  1.00  0.00     0.044 C 
ATOM      8  C   UNL A   1      35.937  22.539  25.214  1.00  0.00    -0.049 A 
ATOM      9  C   UNL A   1      35.084  21.598  24.628  1.00  0.00     0.028 A 
ATOM     10  C   UNL A   1      35.383  23.709  25.738  1.00  0.00     0.015 A 
ATOM     11  C   UNL A   1      33.703  21.833  24.554  1.00  0.00     0.084 A 
ATOM     12  C   UNL A   1      34.004  23.951  25.644  1.00  0.00     0.019 A 
ATOM     13  Cl  UNL A   1      32.709  20.634  23.806  1.00  0.00    -0.080 Cl
ATOM     14  C   UNL A   1      33.152  23.018  25.058  1.00  0.00     0.146 A 
ATOM     15  C   UNL A   1      33.472  25.209  26.125  1.00  0.00     0.027 C 
ATOM     16  O   UNL A   1      31.797  23.207  24.975  1.00  0.00    -0.474 OA
ATOM     17  C   UNL A   1      31.230  24.511  25.288  1.00  0.00     0.316 C 
BRANCH  17  18
ATOM     18  C   UNL A   1      30.638  25.120  24.006  1.00  0.00     0.430 C 
ATOM     19  F   UNL A   1      31.547  25.880  23.352  1.00  0.00    -0.167 F 
ATOM     20  F   UNL A   1      30.241  24.159  23.137  1.00  0.00    -0.167 F 
ATOM     21  F   UNL A   1      29.563  25.900  24.264  1.00  0.00    -0.167 F 
ENDBRANCH  17  18
ENDBRANCH   4   6
ENDBRANCH   3   4
ENDBRANCH   2   3
ENDBRANCH   1   2
BRANCH   1  22
ATOM     22  O   UNL A   1      32.428  30.094  26.947  1.00  0.00    -0.458 OA
BRANCH  22  23
ATOM     23  C   UNL A   1      33.103  31.234  27.209  1.00  0.00     0.338 C 
ATOM     24  O   UNL A   1      32.649  32.363  27.296  1.00  0.00    -0.246 OA
BRANCH  23  25
ATOM     25  C   UNL A   1      34.519  30.953  27.488  1.00  0.00     0.060 A 
ATOM     26  C   UNL A   1      34.903  29.630  27.655  1.00  0.00     0.016 A 
ATOM     27  C   UNL A   1      35.382  31.981  27.854  1.00  0.00     0.016 A 
ATOM     28  C   UNL A   1      36.051  29.329  28.380  1.00  0.00     0.010 A 
ATOM     29  C   UNL A   1      36.618  31.667  28.431  1.00  0.00     0.010 A 
ATOM     30  C   UNL A   1      36.939  30.339  28.771  1.00  0.00    -0.014 A 
BRANCH  30  31
ATOM     31  C   UNL A   1      38.164  30.023  29.566  1.00  0.00     0.031 A 
ATOM     32  C   UNL A   1      39.293  29.232  28.943  1.00  0.00     0.074 A 
ATOM     33  C   UNL A   1      38.294  30.449  30.840  1.00  0.00     0.049 A 
ATOM     34  N   UNL A   1      40.312  28.646  29.521  1.00  0.00    -0.248 NA
ATOM     35  C   UNL A   1      39.266  29.071  27.479  1.00  0.00     0.031 C 
ATOM     36  C   UNL A   1      37.342  31.296  31.561  1.00  0.00     0.029 A 
ATOM     37  N   UNL A   1      39.295  30.232  31.757  1.00  0.00    -0.354 N 
ATOM     38  C   UNL A   1      41.003  27.991  28.506  1.00  0.00     0.074 A 
ATOM     39  C   UNL A   1      40.289  28.251  27.275  1.00  0.00     0.031 C 
ATOM     40  C   UNL A   1      37.826  31.571  32.780  1.00  0.00     0.029 A 
ATOM     41  C   UNL A   1      39.054  30.814  32.978  1.00  0.00     0.049 A 
ATOM     42  H   UNL A   1      40.105  29.709  31.558  1.00  0.00     0.167 HD
ATOM     43  C   UNL A   1      42.128  27.240  28.595  1.00  0.00     0.031 A 
ATOM     44  C   UNL A   1      39.701  30.705  34.154  1.00  0.00     0.031 A 
ATOM     45  C   UNL A   1      42.859  27.021  29.816  1.00  0.00     0.049 A 
ATOM     46  C   UNL A   1      40.888  29.796  34.250  1.00  0.00     0.074 A 
ATOM     47  C   UNL A   1      44.004  26.268  30.012  1.00  0.00     0.029 A 
ATOM     48  N   UNL A   1      42.530  27.573  31.043  1.00  0.00    -0.354 N 
ATOM     49  N   UNL A   1      41.473  29.100  33.307  1.00  0.00    -0.248 NA
ATOM     50  C   UNL A   1      41.491  29.640  35.581  1.00  0.00     0.031 C 
ATOM     51  C   UNL A   1      44.338  26.324  31.369  1.00  0.00     0.029 A 
ATOM     52  C   UNL A   1      43.439  27.164  32.005  1.00  0.00     0.049 A 
ATOM     53  H   UNL A   1      41.764  28.169  31.208  1.00  0.00     0.167 HD
ATOM     54  C   UNL A   1      42.520  28.431  33.926  1.00  0.00     0.074 A 
ATOM     55  C   UNL A   1      42.506  28.828  35.319  1.00  0.00     0.031 C 
ATOM     56  C   UNL A   1      43.407  27.559  33.389  1.00  0.00     0.031 A 
BRANCH  43  57
ATOM     57  C   UNL A   1      42.621  26.560  27.345  1.00  0.00    -0.014 A 
ATOM     58  C   UNL A   1      43.580  27.152  26.510  1.00  0.00     0.009 A 
ATOM     59  C   UNL A   1      42.160  25.269  27.034  1.00  0.00     0.009 A 
ATOM     60  C   UNL A   1      44.047  26.478  25.378  1.00  0.00     0.001 A 
ATOM     61  C   UNL A   1      42.650  24.585  25.920  1.00  0.00     0.001 A 
ATOM     62  C   UNL A   1      43.588  25.193  25.089  1.00  0.00     0.000 A 
ENDBRANCH  43  57
BRANCH  44  63
ATOM     63  C   UNL A   1      39.189  31.430  35.348  1.00  0.00    -0.014 A 
ATOM     64  C   UNL A   1      38.241  30.832  36.191  1.00  0.00     0.009 A 
ATOM     65  C   UNL A   1      39.664  32.714  35.667  1.00  0.00     0.009 A 
ATOM     66  C   UNL A   1      37.778  31.505  37.324  1.00  0.00     0.001 A 
ATOM     67  C   UNL A   1      39.226  33.369  36.819  1.00  0.00     0.001 A 
ATOM     68  C   UNL A   1      38.278  32.766  37.644  1.00  0.00     0.000 A 
ENDBRANCH  44  63
BRANCH  56  69
ATOM     69  C   UNL A   1      44.455  26.999  34.310  1.00  0.00    -0.014 A 
ATOM     70  C   UNL A   1      45.672  27.665  34.517  1.00  0.00     0.009 A 
ATOM     71  C   UNL A   1      44.208  25.800  34.998  1.00  0.00     0.009 A 
ATOM     72  C   UNL A   1      46.637  27.122  35.367  1.00  0.00     0.001 A 
ATOM     73  C   UNL A   1      45.162  25.277  35.871  1.00  0.00     0.001 A 
ATOM     74  C   UNL A   1      46.380  25.932  36.047  1.00  0.00     0.000 A 
ENDBRANCH  56  69
ENDBRANCH  30  31
ENDBRANCH  23  25
ENDBRANCH  22  23
ENDBRANCH   1  22
TORSDOF 12
ENDMDL
