MODEL 1
REMARK VINA RESULT:     -11.1      0.000      0.000
REMARK SMILES C[C@@H]1CN(C(=O)Nc2ccc(O)c(C(=O)OCCOC(=O)c3ccc(-c4c5nc(c(-c6ccccc6)c6ccc([nH]6)c(-c6ccccc6)c6nc(c(-c7ccccc7)c7ccc4[nH]7)C=C6)C=C5)cc3)c2)C[C@@H]1C
REMARK SMILES IDX 17 1 16 2 14 3 15 4 13 5 8 6 9 7 70 8 10 9 11 10 7 11 5 12
REMARK SMILES IDX 6 13 4 15 1 16 2 17 3 18 72 19 71 20 73 21 12 22 18 24 19 25
REMARK SMILES IDX 20 26 21 27 22 28 23 29 69 30 24 31 68 32 25 33 26 34 27 35
REMARK SMILES IDX 62 36 28 37 67 38 61 39 63 40 29 41 66 42 60 43 59 44 30 46
REMARK SMILES IDX 52 47 37 48 51 49 38 50 41 51 50 52 64 53 39 54 40 55 49 57
REMARK SMILES IDX 65 58 42 59 31 60 32 61 36 62 33 63 35 64 34 65 53 66 54 67
REMARK SMILES IDX 58 68 55 69 57 70 56 71 43 72 44 73 48 74 45 75 47 76 46 77
REMARK H PARENT 7 14 12 23 63 45 41 56
REMARK Flexibility Score: inf
ROOT
ATOM      1  C   UNL A   1      31.039  31.502  26.123  1.00  0.00     0.275 C 
ENDROOT
BRANCH   1   2
ATOM      2  O   UNL A   1      31.749  30.310  26.508  1.00  0.00    -0.458 OA
BRANCH   2   3
ATOM      3  C   UNL A   1      32.337  29.608  25.510  1.00  0.00     0.342 C 
ATOM      4  O   UNL A   1      33.483  29.726  25.118  1.00  0.00    -0.246 OA
BRANCH   3   5
ATOM      5  C   UNL A   1      31.454  28.509  25.051  1.00  0.00     0.103 A 
ATOM      6  C   UNL A   1      30.463  26.365  25.610  1.00  0.00     0.044 A 
ATOM      7  C   UNL A   1      29.767  26.369  24.403  1.00  0.00     0.030 A 
ATOM      8  C   UNL A   1      31.285  27.436  25.938  1.00  0.00     0.045 A 
ATOM      9  C   UNL A   1      29.956  27.415  23.494  1.00  0.00     0.049 A 
ATOM     10  C   UNL A   1      30.813  28.473  23.809  1.00  0.00     0.130 A 
BRANCH   6  11
ATOM     11  N   UNL A   1      30.336  25.336  26.541  1.00  0.00    -0.308 N 
ATOM     12  C   UNL A   1      30.772  24.048  26.530  1.00  0.00     0.321 C 
ATOM     13  O   UNL A   1      30.272  23.278  27.355  1.00  0.00    -0.248 OA
ATOM     14  H   UNL A   1      29.841  25.586  27.354  1.00  0.00     0.171 HD
BRANCH  12  15
ATOM     15  N   UNL A   1      31.835  23.675  25.752  1.00  0.00    -0.324 N 
ATOM     16  C   UNL A   1      33.495  23.006  22.506  1.00  0.00     0.010 C 
ATOM     17  C   UNL A   1      33.311  23.015  24.013  1.00  0.00     0.010 C 
ATOM     18  C   UNL A   1      31.840  23.103  24.413  1.00  0.00     0.125 C 
ATOM     19  C   UNL A   1      33.952  24.171  24.793  1.00  0.00     0.010 C 
ATOM     20  C   UNL A   1      33.177  24.113  26.117  1.00  0.00     0.125 C 
ATOM     21  C   UNL A   1      33.810  25.539  24.122  1.00  0.00     0.010 C 
ENDBRANCH  12  15
ENDBRANCH   6  11
BRANCH  10  22
ATOM     22  O   UNL A   1      31.056  29.441  22.876  1.00  0.00    -0.507 OA
ATOM     23  H   UNL A   1      30.438  30.132  22.747  1.00  0.00     0.293 HD
ENDBRANCH  10  22
ENDBRANCH   3   5
ENDBRANCH   2   3
ENDBRANCH   1   2
BRANCH   1  24
ATOM     24  C   UNL A   1      31.674  32.722  26.787  1.00  0.00     0.275 C 
BRANCH  24  25
ATOM     25  O   UNL A   1      32.770  32.307  27.626  1.00  0.00    -0.458 OA
BRANCH  25  26
ATOM     26  C   UNL A   1      33.764  33.209  27.772  1.00  0.00     0.338 C 
ATOM     27  O   UNL A   1      33.680  34.428  27.767  1.00  0.00    -0.246 OA
BRANCH  26  28
ATOM     28  C   UNL A   1      35.035  32.515  28.015  1.00  0.00     0.060 A 
ATOM     29  C   UNL A   1      35.016  31.128  28.118  1.00  0.00     0.016 A 
ATOM     30  C   UNL A   1      36.188  33.228  28.333  1.00  0.00     0.016 A 
ATOM     31  C   UNL A   1      36.108  30.449  28.656  1.00  0.00     0.010 A 
ATOM     32  C   UNL A   1      37.318  32.535  28.789  1.00  0.00     0.010 A 
ATOM     33  C   UNL A   1      37.270  31.146  29.017  1.00  0.00    -0.014 A 
BRANCH  33  34
ATOM     34  C   UNL A   1      38.378  30.447  29.734  1.00  0.00     0.031 A 
ATOM     35  C   UNL A   1      38.531  30.615  31.227  1.00  0.00     0.074 A 
ATOM     36  C   UNL A   1      39.223  29.625  29.080  1.00  0.00     0.049 A 
ATOM     37  N   UNL A   1      39.501  30.213  32.013  1.00  0.00    -0.248 NA
ATOM     38  C   UNL A   1      37.460  31.343  31.926  1.00  0.00     0.031 C 
ATOM     39  C   UNL A   1      39.174  29.309  27.652  1.00  0.00     0.029 A 
ATOM     40  N   UNL A   1      40.284  28.884  29.546  1.00  0.00    -0.354 N 
ATOM     41  C   UNL A   1      39.187  30.694  33.279  1.00  0.00     0.074 A 
ATOM     42  C   UNL A   1      37.943  31.422  33.158  1.00  0.00     0.031 C 
ATOM     43  C   UNL A   1      40.124  28.402  27.369  1.00  0.00     0.029 A 
ATOM     44  C   UNL A   1      40.899  28.130  28.577  1.00  0.00     0.049 A 
ATOM     45  H   UNL A   1      40.574  28.893  30.486  1.00  0.00     0.167 HD
ATOM     46  C   UNL A   1      39.868  30.546  34.442  1.00  0.00     0.031 A 
ATOM     47  C   UNL A   1      41.979  27.329  28.639  1.00  0.00     0.031 A 
ATOM     48  C   UNL A   1      41.073  29.772  34.590  1.00  0.00     0.049 A 
ATOM     49  C   UNL A   1      42.721  27.182  29.937  1.00  0.00     0.074 A 
ATOM     50  C   UNL A   1      41.835  29.569  35.728  1.00  0.00     0.029 A 
ATOM     51  N   UNL A   1      41.672  29.048  33.573  1.00  0.00    -0.354 N 
ATOM     52  N   UNL A   1      42.457  27.713  31.107  1.00  0.00    -0.248 NA
ATOM     53  C   UNL A   1      43.921  26.332  29.919  1.00  0.00     0.031 C 
ATOM     54  C   UNL A   1      42.912  28.741  35.393  1.00  0.00     0.029 A 
ATOM     55  C   UNL A   1      42.795  28.397  34.057  1.00  0.00     0.049 A 
ATOM     56  H   UNL A   1      41.348  29.002  32.645  1.00  0.00     0.167 HD
ATOM     57  C   UNL A   1      43.449  27.253  31.962  1.00  0.00     0.074 A 
ATOM     58  C   UNL A   1      44.306  26.381  31.186  1.00  0.00     0.031 C 
ATOM     59  C   UNL A   1      43.639  27.535  33.274  1.00  0.00     0.031 A 
BRANCH  46  60
ATOM     60  C   UNL A   1      39.341  31.273  35.647  1.00  0.00    -0.014 A 
ATOM     61  C   UNL A   1      38.284  30.759  36.414  1.00  0.00     0.009 A 
ATOM     62  C   UNL A   1      39.933  32.487  36.032  1.00  0.00     0.009 A 
ATOM     63  C   UNL A   1      37.808  31.465  37.522  1.00  0.00     0.001 A 
ATOM     64  C   UNL A   1      39.472  33.177  37.156  1.00  0.00     0.001 A 
ATOM     65  C   UNL A   1      38.404  32.671  37.893  1.00  0.00     0.000 A 
ENDBRANCH  46  60
BRANCH  47  66
ATOM     66  C   UNL A   1      42.452  26.620  27.422  1.00  0.00    -0.014 A 
ATOM     67  C   UNL A   1      41.991  25.329  27.124  1.00  0.00     0.009 A 
ATOM     68  C   UNL A   1      43.384  27.225  26.562  1.00  0.00     0.009 A 
ATOM     69  C   UNL A   1      42.469  24.650  26.000  1.00  0.00     0.001 A 
ATOM     70  C   UNL A   1      43.836  26.555  25.424  1.00  0.00     0.001 A 
ATOM     71  C   UNL A   1      43.385  25.265  25.150  1.00  0.00     0.000 A 
ENDBRANCH  47  66
BRANCH  59  72
ATOM     72  C   UNL A   1      44.800  26.867  33.953  1.00  0.00    -0.014 A 
ATOM     73  C   UNL A   1      46.058  27.487  34.020  1.00  0.00     0.009 A 
ATOM     74  C   UNL A   1      44.630  25.605  34.541  1.00  0.00     0.009 A 
ATOM     75  C   UNL A   1      47.132  26.837  34.631  1.00  0.00     0.001 A 
ATOM     76  C   UNL A   1      45.700  24.968  35.173  1.00  0.00     0.001 A 
ATOM     77  C   UNL A   1      46.952  25.580  35.207  1.00  0.00     0.000 A 
ENDBRANCH  59  72
ENDBRANCH  33  34
ENDBRANCH  26  28
ENDBRANCH  25  26
ENDBRANCH  24  25
ENDBRANCH   1  24
TORSDOF 14
ENDMDL
MODEL 2
REMARK VINA RESULT:     -11.1      4.231      7.319
REMARK SMILES C[C@@H]1CN(C(=O)Nc2ccc(O)c(C(=O)OCCOC(=O)c3ccc(-c4c5nc(c(-c6ccccc6)c6ccc([nH]6)c(-c6ccccc6)c6nc(c(-c7ccccc7)c7ccc4[nH]7)C=C6)C=C5)cc3)c2)C[C@@H]1C
REMARK SMILES IDX 17 1 16 2 14 3 15 4 13 5 8 6 9 7 70 8 10 9 11 10 7 11 5 12
REMARK SMILES IDX 6 13 4 15 1 16 2 17 3 18 72 19 71 20 73 21 12 22 18 24 19 25
REMARK SMILES IDX 20 26 21 27 22 28 23 29 69 30 24 31 68 32 25 33 26 34 27 35
REMARK SMILES IDX 62 36 28 37 67 38 61 39 63 40 29 41 66 42 60 43 59 44 30 46
REMARK SMILES IDX 52 47 37 48 51 49 38 50 41 51 50 52 64 53 39 54 40 55 49 57
REMARK SMILES IDX 65 58 42 59 31 60 32 61 36 62 33 63 35 64 34 65 53 66 54 67
REMARK SMILES IDX 58 68 55 69 57 70 56 71 43 72 44 73 48 74 45 75 47 76 46 77
REMARK H PARENT 7 14 12 23 63 45 41 56
REMARK Flexibility Score: inf
ROOT
ATOM      1  C   UNL A   1      35.848  20.145  24.986  1.00  0.00     0.275 C 
ENDROOT
BRANCH   1   2
ATOM      2  O   UNL A   1      35.477  21.524  24.808  1.00  0.00    -0.458 OA
BRANCH   2   3
ATOM      3  C   UNL A   1      34.564  22.022  25.675  1.00  0.00     0.342 C 
ATOM      4  O   UNL A   1      34.705  22.163  26.875  1.00  0.00    -0.246 OA
BRANCH   3   5
ATOM      5  C   UNL A   1      33.393  22.569  24.947  1.00  0.00     0.103 A 
ATOM      6  C   UNL A   1      32.612  23.614  22.901  1.00  0.00     0.044 A 
ATOM      7  C   UNL A   1      31.304  23.583  23.381  1.00  0.00     0.030 A 
ATOM      8  C   UNL A   1      33.644  23.094  23.672  1.00  0.00     0.045 A 
ATOM      9  C   UNL A   1      31.046  23.096  24.667  1.00  0.00     0.049 A 
ATOM     10  C   UNL A   1      32.092  22.608  25.456  1.00  0.00     0.130 A 
BRANCH   6  11
ATOM     11  N   UNL A   1      32.931  24.113  21.640  1.00  0.00    -0.308 N 
ATOM     12  C   UNL A   1      32.784  25.350  21.093  1.00  0.00     0.321 C 
ATOM     13  O   UNL A   1      32.887  25.437  19.866  1.00  0.00    -0.248 OA
ATOM     14  H   UNL A   1      33.338  23.452  21.035  1.00  0.00     0.171 HD
BRANCH  12  15
ATOM     15  N   UNL A   1      32.695  26.461  21.888  1.00  0.00    -0.324 N 
ATOM     16  C   UNL A   1      30.991  28.651  24.345  1.00  0.00     0.010 C 
ATOM     17  C   UNL A   1      32.028  28.235  23.317  1.00  0.00     0.010 C 
ATOM     18  C   UNL A   1      31.509  27.145  22.384  1.00  0.00     0.125 C 
ATOM     19  C   UNL A   1      33.343  27.644  23.844  1.00  0.00     0.010 C 
ATOM     20  C   UNL A   1      33.880  26.932  22.594  1.00  0.00     0.125 C 
ATOM     21  C   UNL A   1      33.172  26.670  25.012  1.00  0.00     0.010 C 
ENDBRANCH  12  15
ENDBRANCH   6  11
BRANCH  10  22
ATOM     22  O   UNL A   1      31.837  22.220  26.741  1.00  0.00    -0.507 OA
ATOM     23  H   UNL A   1      31.228  22.703  27.263  1.00  0.00     0.293 HD
ENDBRANCH  10  22
ENDBRANCH   3   5
ENDBRANCH   2   3
ENDBRANCH   1   2
BRANCH   1  24
ATOM     24  C   UNL A   1      37.366  20.001  24.902  1.00  0.00     0.275 C 
BRANCH  24  25
ATOM     25  O   UNL A   1      37.999  21.204  25.381  1.00  0.00    -0.458 OA
BRANCH  25  26
ATOM     26  C   UNL A   1      39.183  21.029  26.005  1.00  0.00     0.338 C 
ATOM     27  O   UNL A   1      39.884  20.028  26.023  1.00  0.00    -0.246 OA
BRANCH  26  28
ATOM     28  C   UNL A   1      39.594  22.281  26.655  1.00  0.00     0.060 A 
ATOM     29  C   UNL A   1      39.000  23.466  26.231  1.00  0.00     0.016 A 
ATOM     30  C   UNL A   1      40.682  22.312  27.522  1.00  0.00     0.016 A 
ATOM     31  C   UNL A   1      39.562  24.694  26.572  1.00  0.00     0.010 A 
ATOM     32  C   UNL A   1      41.193  23.549  27.937  1.00  0.00     0.010 A 
ATOM     33  C   UNL A   1      40.681  24.753  27.416  1.00  0.00    -0.014 A 
BRANCH  33  34
ATOM     34  C   UNL A   1      41.377  26.052  27.658  1.00  0.00     0.031 A 
ATOM     35  C   UNL A   1      40.768  27.069  28.594  1.00  0.00     0.074 A 
ATOM     36  C   UNL A   1      42.571  26.320  27.092  1.00  0.00     0.049 A 
ATOM     37  N   UNL A   1      41.136  28.305  28.831  1.00  0.00    -0.248 NA
ATOM     38  C   UNL A   1      39.582  26.644  29.354  1.00  0.00     0.031 C 
ATOM     39  C   UNL A   1      43.320  25.422  26.212  1.00  0.00     0.029 A 
ATOM     40  N   UNL A   1      43.375  27.430  27.193  1.00  0.00    -0.354 N 
ATOM     41  C   UNL A   1      40.192  28.820  29.712  1.00  0.00     0.074 A 
ATOM     42  C   UNL A   1      39.231  27.767  29.964  1.00  0.00     0.031 C 
ATOM     43  C   UNL A   1      44.495  25.993  25.898  1.00  0.00     0.029 A 
ATOM     44  C   UNL A   1      44.550  27.327  26.488  1.00  0.00     0.049 A 
ATOM     45  H   UNL A   1      43.133  28.224  27.722  1.00  0.00     0.167 HD
ATOM     46  C   UNL A   1      40.124  30.055  30.265  1.00  0.00     0.031 A 
ATOM     47  C   UNL A   1      45.550  28.211  26.312  1.00  0.00     0.031 A 
ATOM     48  C   UNL A   1      41.105  31.091  30.074  1.00  0.00     0.049 A 
ATOM     49  C   UNL A   1      45.453  29.577  26.931  1.00  0.00     0.074 A 
ATOM     50  C   UNL A   1      41.118  32.375  30.590  1.00  0.00     0.029 A 
ATOM     51  N   UNL A   1      42.263  30.948  29.329  1.00  0.00    -0.354 N 
ATOM     52  N   UNL A   1      44.510  30.075  27.693  1.00  0.00    -0.248 NA
ATOM     53  C   UNL A   1      46.557  30.507  26.653  1.00  0.00     0.031 C 
ATOM     54  C   UNL A   1      42.274  33.019  30.136  1.00  0.00     0.029 A 
ATOM     55  C   UNL A   1      42.999  32.121  29.372  1.00  0.00     0.049 A 
ATOM     56  H   UNL A   1      42.526  30.134  28.842  1.00  0.00     0.167 HD
ATOM     57  C   UNL A   1      44.912  31.370  27.994  1.00  0.00     0.074 A 
ATOM     58  C   UNL A   1      46.195  31.573  27.353  1.00  0.00     0.031 C 
ATOM     59  C   UNL A   1      44.272  32.310  28.729  1.00  0.00     0.031 A 
BRANCH  46  60
ATOM     60  C   UNL A   1      38.919  30.368  31.108  1.00  0.00    -0.014 A 
ATOM     61  C   UNL A   1      38.901  30.121  32.489  1.00  0.00     0.009 A 
ATOM     62  C   UNL A   1      37.788  30.944  30.505  1.00  0.00     0.009 A 
ATOM     63  C   UNL A   1      37.761  30.412  33.243  1.00  0.00     0.001 A 
ATOM     64  C   UNL A   1      36.660  31.258  31.266  1.00  0.00     0.001 A 
ATOM     65  C   UNL A   1      36.644  30.982  32.632  1.00  0.00     0.000 A 
ENDBRANCH  46  60
BRANCH  47  66
ATOM     66  C   UNL A   1      46.727  27.849  25.481  1.00  0.00    -0.014 A 
ATOM     67  C   UNL A   1      46.691  28.003  24.087  1.00  0.00     0.009 A 
ATOM     68  C   UNL A   1      47.888  27.328  26.078  1.00  0.00     0.009 A 
ATOM     69  C   UNL A   1      47.786  27.624  23.306  1.00  0.00     0.001 A 
ATOM     70  C   UNL A   1      48.990  26.978  25.297  1.00  0.00     0.001 A 
ATOM     71  C   UNL A   1      48.935  27.118  23.911  1.00  0.00     0.000 A 
ENDBRANCH  47  66
BRANCH  59  72
ATOM     72  C   UNL A   1      44.967  33.630  28.901  1.00  0.00    -0.014 A 
ATOM     73  C   UNL A   1      45.858  33.849  29.964  1.00  0.00     0.009 A 
ATOM     74  C   UNL A   1      44.736  34.664  27.981  1.00  0.00     0.009 A 
ATOM     75  C   UNL A   1      46.473  35.092  30.124  1.00  0.00     0.001 A 
ATOM     76  C   UNL A   1      45.372  35.898  28.130  1.00  0.00     0.001 A 
ATOM     77  C   UNL A   1      46.230  36.114  29.206  1.00  0.00     0.000 A 
ENDBRANCH  59  72
ENDBRANCH  33  34
ENDBRANCH  26  28
ENDBRANCH  25  26
ENDBRANCH  24  25
ENDBRANCH   1  24
TORSDOF 14
ENDMDL
MODEL 3
REMARK VINA RESULT:     -11.0      4.203      9.077
REMARK SMILES C[C@@H]1CN(C(=O)Nc2ccc(O)c(C(=O)OCCOC(=O)c3ccc(-c4c5nc(c(-c6ccccc6)c6ccc([nH]6)c(-c6ccccc6)c6nc(c(-c7ccccc7)c7ccc4[nH]7)C=C6)C=C5)cc3)c2)C[C@@H]1C
REMARK SMILES IDX 17 1 16 2 14 3 15 4 13 5 8 6 9 7 70 8 10 9 11 10 7 11 5 12
REMARK SMILES IDX 6 13 4 15 1 16 2 17 3 18 72 19 71 20 73 21 12 22 18 24 19 25
REMARK SMILES IDX 20 26 21 27 22 28 23 29 69 30 24 31 68 32 25 33 26 34 27 35
REMARK SMILES IDX 62 36 28 37 67 38 61 39 63 40 29 41 66 42 60 43 59 44 30 46
REMARK SMILES IDX 52 47 37 48 51 49 38 50 41 51 50 52 64 53 39 54 40 55 49 57
REMARK SMILES IDX 65 58 42 59 31 60 32 61 36 62 33 63 35 64 34 65 53 66 54 67
REMARK SMILES IDX 58 68 55 69 57 70 56 71 43 72 44 73 48 74 45 75 47 76 46 77
REMARK H PARENT 7 14 12 23 63 45 41 56
REMARK Flexibility Score: inf
ROOT
ATOM      1  C   UNL A   1      36.055  20.167  24.960  1.00  0.00     0.275 C 
ENDROOT
BRANCH   1   2
ATOM      2  O   UNL A   1      35.370  21.393  24.643  1.00  0.00    -0.458 OA
BRANCH   2   3
ATOM      3  C   UNL A   1      34.457  21.827  25.544  1.00  0.00     0.342 C 
ATOM      4  O   UNL A   1      34.582  21.842  26.754  1.00  0.00    -0.246 OA
BRANCH   3   5
ATOM      5  C   UNL A   1      33.313  22.477  24.859  1.00  0.00     0.103 A 
ATOM      6  C   UNL A   1      32.568  23.642  22.865  1.00  0.00     0.044 A 
ATOM      7  C   UNL A   1      31.271  23.684  23.370  1.00  0.00     0.030 A 
ATOM      8  C   UNL A   1      33.577  23.026  23.596  1.00  0.00     0.045 A 
ATOM      9  C   UNL A   1      31.004  23.173  24.645  1.00  0.00     0.049 A 
ATOM     10  C   UNL A   1      32.028  22.589  25.396  1.00  0.00     0.130 A 
BRANCH   6  11
ATOM     11  N   UNL A   1      32.898  24.160  21.613  1.00  0.00    -0.308 N 
ATOM     12  C   UNL A   1      32.763  25.407  21.087  1.00  0.00     0.321 C 
ATOM     13  O   UNL A   1      32.872  25.514  19.862  1.00  0.00    -0.248 OA
ATOM     14  H   UNL A   1      33.303  23.506  21.000  1.00  0.00     0.171 HD
BRANCH  12  15
ATOM     15  N   UNL A   1      32.677  26.505  21.900  1.00  0.00    -0.324 N 
ATOM     16  C   UNL A   1      30.970  28.673  24.376  1.00  0.00     0.010 C 
ATOM     17  C   UNL A   1      32.015  28.262  23.352  1.00  0.00     0.010 C 
ATOM     18  C   UNL A   1      31.494  27.195  22.394  1.00  0.00     0.125 C 
ATOM     19  C   UNL A   1      33.316  27.645  23.885  1.00  0.00     0.010 C 
ATOM     20  C   UNL A   1      33.859  26.949  22.628  1.00  0.00     0.125 C 
ATOM     21  C   UNL A   1      33.119  26.654  25.033  1.00  0.00     0.010 C 
ENDBRANCH  12  15
ENDBRANCH   6  11
BRANCH  10  22
ATOM     22  O   UNL A   1      31.771  22.176  26.673  1.00  0.00    -0.507 OA
ATOM     23  H   UNL A   1      31.276  22.723  27.250  1.00  0.00     0.293 HD
ENDBRANCH  10  22
ENDBRANCH   3   5
ENDBRANCH   2   3
ENDBRANCH   1   2
BRANCH   1  24
ATOM     24  C   UNL A   1      37.562  20.362  24.820  1.00  0.00     0.275 C 
BRANCH  24  25
ATOM     25  O   UNL A   1      37.996  21.447  25.665  1.00  0.00    -0.458 OA
BRANCH  25  26
ATOM     26  C   UNL A   1      39.249  21.336  26.155  1.00  0.00     0.338 C 
ATOM     27  O   UNL A   1      40.012  20.387  26.062  1.00  0.00    -0.246 OA
BRANCH  26  28
ATOM     28  C   UNL A   1      39.643  22.593  26.804  1.00  0.00     0.060 A 
ATOM     29  C   UNL A   1      39.004  23.764  26.408  1.00  0.00     0.016 A 
ATOM     30  C   UNL A   1      40.755  22.648  27.640  1.00  0.00     0.016 A 
ATOM     31  C   UNL A   1      39.541  25.005  26.744  1.00  0.00     0.010 A 
ATOM     32  C   UNL A   1      41.242  23.895  28.051  1.00  0.00     0.010 A 
ATOM     33  C   UNL A   1      40.681  25.089  27.557  1.00  0.00    -0.014 A 
BRANCH  33  34
ATOM     34  C   UNL A   1      41.348  26.404  27.790  1.00  0.00     0.031 A 
ATOM     35  C   UNL A   1      42.656  26.717  27.103  1.00  0.00     0.074 A 
ATOM     36  C   UNL A   1      40.780  27.347  28.569  1.00  0.00     0.049 A 
ATOM     37  N   UNL A   1      43.464  27.735  27.278  1.00  0.00    -0.248 NA
ATOM     38  C   UNL A   1      43.124  25.750  26.098  1.00  0.00     0.031 C 
ATOM     39  C   UNL A   1      39.492  27.226  29.255  1.00  0.00     0.029 A 
ATOM     40  N   UNL A   1      41.211  28.610  28.897  1.00  0.00    -0.354 N 
ATOM     41  C   UNL A   1      44.559  27.497  26.456  1.00  0.00     0.074 A 
ATOM     42  C   UNL A   1      44.318  26.236  25.787  1.00  0.00     0.031 C 
ATOM     43  C   UNL A   1      39.215  28.383  29.878  1.00  0.00     0.029 A 
ATOM     44  C   UNL A   1      40.337  29.301  29.701  1.00  0.00     0.049 A 
ATOM     45  H   UNL A   1      42.066  28.985  28.585  1.00  0.00     0.167 HD
ATOM     46  C   UNL A   1      45.668  28.253  26.269  1.00  0.00     0.031 A 
ATOM     47  C   UNL A   1      40.432  30.524  30.256  1.00  0.00     0.031 A 
ATOM     48  C   UNL A   1      45.893  29.537  26.879  1.00  0.00     0.049 A 
ATOM     49  C   UNL A   1      41.672  31.344  30.040  1.00  0.00     0.074 A 
ATOM     50  C   UNL A   1      46.988  30.374  26.753  1.00  0.00     0.029 A 
ATOM     51  N   UNL A   1      44.990  30.183  27.707  1.00  0.00    -0.354 N 
ATOM     52  N   UNL A   1      42.735  31.065  29.325  1.00  0.00    -0.248 NA
ATOM     53  C   UNL A   1      41.728  32.647  30.719  1.00  0.00     0.031 C 
ATOM     54  C   UNL A   1      46.759  31.517  27.526  1.00  0.00     0.029 A 
ATOM     55  C   UNL A   1      45.503  31.409  28.099  1.00  0.00     0.049 A 
ATOM     56  H   UNL A   1      44.113  29.825  27.976  1.00  0.00     0.167 HD
ATOM     57  C   UNL A   1      43.579  32.160  29.461  1.00  0.00     0.074 A 
ATOM     58  C   UNL A   1      42.895  33.118  30.304  1.00  0.00     0.031 C 
ATOM     59  C   UNL A   1      44.814  32.351  28.939  1.00  0.00     0.031 A 
BRANCH  46  60
ATOM     60  C   UNL A   1      46.749  27.687  25.390  1.00  0.00    -0.014 A 
ATOM     61  C   UNL A   1      46.830  28.005  24.026  1.00  0.00     0.009 A 
ATOM     62  C   UNL A   1      47.717  26.838  25.950  1.00  0.00     0.009 A 
ATOM     63  C   UNL A   1      47.839  27.453  23.232  1.00  0.00     0.001 A 
ATOM     64  C   UNL A   1      48.740  26.310  25.160  1.00  0.00     0.001 A 
ATOM     65  C   UNL A   1      48.794  26.609  23.800  1.00  0.00     0.000 A 
ENDBRANCH  46  60
BRANCH  47  66
ATOM     66  C   UNL A   1      39.329  31.044  31.106  1.00  0.00    -0.014 A 
ATOM     67  C   UNL A   1      39.306  30.780  32.484  1.00  0.00     0.009 A 
ATOM     68  C   UNL A   1      38.285  31.793  30.539  1.00  0.00     0.009 A 
ATOM     69  C   UNL A   1      38.247  31.237  33.273  1.00  0.00     0.001 A 
ATOM     70  C   UNL A   1      37.244  32.273  31.336  1.00  0.00     0.001 A 
ATOM     71  C   UNL A   1      37.222  31.987  32.700  1.00  0.00     0.000 A 
ENDBRANCH  47  66
BRANCH  59  72
ATOM     72  C   UNL A   1      45.487  33.658  29.244  1.00  0.00    -0.014 A 
ATOM     73  C   UNL A   1      45.277  34.789  28.440  1.00  0.00     0.009 A 
ATOM     74  C   UNL A   1      46.335  33.761  30.357  1.00  0.00     0.009 A 
ATOM     75  C   UNL A   1      45.934  35.988  28.723  1.00  0.00     0.001 A 
ATOM     76  C   UNL A   1      46.972  34.969  30.652  1.00  0.00     0.001 A 
ATOM     77  C   UNL A   1      46.779  36.077  29.829  1.00  0.00     0.000 A 
ENDBRANCH  59  72
ENDBRANCH  33  34
ENDBRANCH  26  28
ENDBRANCH  25  26
ENDBRANCH  24  25
ENDBRANCH   1  24
TORSDOF 14
ENDMDL
