MODEL 1
REMARK VINA RESULT:      -8.8      0.000      0.000
REMARK SMILES O=C(OCCOC(=O)[C@H]1CCCN1C(=S)Nc1ccccc1)c1ccc(-c2c3nc(c(-c4ccccc4)c4ccc([nH]4)c(-c4ccccc4)c4nc(c(-c5ccccc5)c5ccc2[nH]5)C=C4)C=C3)cc1
REMARK SMILES IDX 5 1 4 2 3 3 2 4 1 5 23 6 24 7 70 8 25 9 69 10 26 11 27 12
REMARK SMILES IDX 28 13 63 14 29 15 68 16 62 17 64 18 30 19 67 20 61 21 60 22
REMARK SMILES IDX 31 24 53 25 38 26 52 27 39 28 42 29 51 30 65 31 40 32 41 33
REMARK SMILES IDX 50 35 66 36 43 37 32 38 33 39 37 40 34 41 36 42 35 43 54 44
REMARK SMILES IDX 55 45 59 46 56 47 58 48 57 49 44 50 45 51 49 52 46 53 48 54
REMARK SMILES IDX 47 55 6 56 7 57 8 58 9 59 10 60 13 61 11 62 12 63 14 64
REMARK SMILES IDX 15 65 16 66 17 68 18 69 22 70 19 71 21 72 20 73
REMARK H PARENT 64 23 42 34 16 67
REMARK Flexibility Score: inf
ROOT
ATOM      1  C   UNL A   1      33.909  34.276  29.594  1.00  0.00     0.274 C 
ENDROOT
BRANCH   1   2
ATOM      2  C   UNL A   1      33.984  33.391  28.353  1.00  0.00     0.275 C 
BRANCH   2   3
ATOM      3  O   UNL A   1      33.878  31.977  28.582  1.00  0.00    -0.458 OA
BRANCH   3   4
ATOM      4  C   UNL A   1      34.405  30.939  27.895  1.00  0.00     0.338 C 
ATOM      5  O   UNL A   1      33.775  30.491  26.939  1.00  0.00    -0.246 OA
BRANCH   4   6
ATOM      6  C   UNL A   1      35.703  30.275  28.241  1.00  0.00     0.060 A 
ATOM      7  C   UNL A   1      36.037  29.709  29.475  1.00  0.00     0.016 A 
ATOM      8  C   UNL A   1      36.694  30.293  27.243  1.00  0.00     0.016 A 
ATOM      9  C   UNL A   1      37.302  29.136  29.685  1.00  0.00     0.010 A 
ATOM     10  C   UNL A   1      37.952  29.715  27.443  1.00  0.00     0.010 A 
ATOM     11  C   UNL A   1      38.273  29.141  28.675  1.00  0.00    -0.014 A 
BRANCH  11  12
ATOM     12  C   UNL A   1      39.662  28.704  28.968  1.00  0.00     0.031 A 
ATOM     13  C   UNL A   1      40.567  29.642  29.700  1.00  0.00     0.074 A 
ATOM     14  C   UNL A   1      40.122  27.494  28.596  1.00  0.00     0.049 A 
ATOM     15  N   UNL A   1      41.776  29.436  30.148  1.00  0.00    -0.248 NA
ATOM     16  C   UNL A   1      40.049  30.998  29.941  1.00  0.00     0.031 C 
ATOM     17  C   UNL A   1      39.368  26.546  27.801  1.00  0.00     0.029 A 
ATOM     18  N   UNL A   1      41.313  26.851  28.814  1.00  0.00    -0.354 N 
ATOM     19  C   UNL A   1      42.163  30.634  30.724  1.00  0.00     0.074 A 
ATOM     20  C   UNL A   1      41.087  31.578  30.518  1.00  0.00     0.031 C 
ATOM     21  C   UNL A   1      40.082  25.430  27.601  1.00  0.00     0.029 A 
ATOM     22  C   UNL A   1      41.366  25.588  28.264  1.00  0.00     0.049 A 
ATOM     23  H   UNL A   1      42.059  27.253  29.316  1.00  0.00     0.167 HD
ATOM     24  C   UNL A   1      43.307  30.917  31.389  1.00  0.00     0.031 A 
ATOM     25  C   UNL A   1      42.337  24.660  28.295  1.00  0.00     0.031 A 
ATOM     26  C   UNL A   1      44.387  29.985  31.551  1.00  0.00     0.049 A 
ATOM     27  C   UNL A   1      43.590  24.983  29.051  1.00  0.00     0.074 A 
ATOM     28  C   UNL A   1      45.586  30.150  32.217  1.00  0.00     0.029 A 
ATOM     29  N   UNL A   1      44.396  28.703  31.014  1.00  0.00    -0.354 N 
ATOM     30  N   UNL A   1      43.904  26.091  29.678  1.00  0.00    -0.248 NA
ATOM     31  C   UNL A   1      44.612  23.933  29.121  1.00  0.00     0.031 C 
ATOM     32  C   UNL A   1      46.331  28.972  32.066  1.00  0.00     0.029 A 
ATOM     33  C   UNL A   1      45.579  28.063  31.337  1.00  0.00     0.049 A 
ATOM     34  H   UNL A   1      43.668  28.309  30.483  1.00  0.00     0.167 HD
ATOM     35  C   UNL A   1      45.153  25.870  30.235  1.00  0.00     0.074 A 
ATOM     36  C   UNL A   1      45.529  24.512  29.885  1.00  0.00     0.031 C 
ATOM     37  C   UNL A   1      45.919  26.711  30.970  1.00  0.00     0.031 A 
BRANCH  24  38
ATOM     38  C   UNL A   1      43.403  32.305  31.951  1.00  0.00    -0.014 A 
ATOM     39  C   UNL A   1      42.760  32.632  33.159  1.00  0.00     0.009 A 
ATOM     40  C   UNL A   1      44.028  33.320  31.216  1.00  0.00     0.009 A 
ATOM     41  C   UNL A   1      42.680  33.961  33.581  1.00  0.00     0.001 A 
ATOM     42  C   UNL A   1      43.970  34.645  31.656  1.00  0.00     0.001 A 
ATOM     43  C   UNL A   1      43.280  34.966  32.825  1.00  0.00     0.000 A 
ENDBRANCH  24  38
BRANCH  25  44
ATOM     44  C   UNL A   1      42.150  23.342  27.628  1.00  0.00    -0.014 A 
ATOM     45  C   UNL A   1      41.476  22.297  28.280  1.00  0.00     0.009 A 
ATOM     46  C   UNL A   1      42.636  23.123  26.330  1.00  0.00     0.009 A 
ATOM     47  C   UNL A   1      41.317  21.055  27.657  1.00  0.00     0.001 A 
ATOM     48  C   UNL A   1      42.455  21.889  25.700  1.00  0.00     0.001 A 
ATOM     49  C   UNL A   1      41.804  20.852  26.367  1.00  0.00     0.000 A 
ENDBRANCH  25  44
BRANCH  37  50
ATOM     50  C   UNL A   1      47.215  26.154  31.475  1.00  0.00    -0.014 A 
ATOM     51  C   UNL A   1      48.378  26.190  30.692  1.00  0.00     0.009 A 
ATOM     52  C   UNL A   1      47.266  25.590  32.758  1.00  0.00     0.009 A 
ATOM     53  C   UNL A   1      49.565  25.640  31.176  1.00  0.00     0.001 A 
ATOM     54  C   UNL A   1      48.459  25.063  33.248  1.00  0.00     0.001 A 
ATOM     55  C   UNL A   1      49.605  25.080  32.454  1.00  0.00     0.000 A 
ENDBRANCH  37  50
ENDBRANCH  11  12
ENDBRANCH   4   6
ENDBRANCH   3   4
ENDBRANCH   2   3
ENDBRANCH   1   2
BRANCH   1  56
ATOM     56  O   UNL A   1      34.078  33.555  30.822  1.00  0.00    -0.461 OA
BRANCH  56  57
ATOM     57  C   UNL A   1      35.084  34.000  31.634  1.00  0.00     0.328 C 
ATOM     58  O   UNL A   1      35.092  35.102  32.169  1.00  0.00    -0.250 OA
BRANCH  57  59
ATOM     59  C   UNL A   1      36.313  33.074  31.604  1.00  0.00     0.194 C 
ATOM     60  C   UNL A   1      37.105  33.154  30.305  1.00  0.00     0.039 C 
ATOM     61  N   UNL A   1      37.349  33.234  32.632  1.00  0.00    -0.335 N 
ATOM     62  C   UNL A   1      38.182  34.178  30.620  1.00  0.00     0.024 C 
ATOM     63  C   UNL A   1      38.530  33.892  32.074  1.00  0.00     0.120 C 
BRANCH  61  64
ATOM     64  C   UNL A   1      37.328  32.410  33.747  1.00  0.00     0.174 C 
ATOM     65  S   UNL A   1      37.339  32.933  35.336  1.00  0.00    -0.041 S 
BRANCH  64  66
ATOM     66  N   UNL A   1      37.151  31.093  33.401  1.00  0.00    -0.333 N 
ATOM     67  H   UNL A   1      36.215  30.811  33.283  1.00  0.00     0.169 HD
BRANCH  66  68
ATOM     68  C   UNL A   1      38.107  30.089  33.193  1.00  0.00     0.040 A 
ATOM     69  C   UNL A   1      39.423  30.374  33.582  1.00  0.00     0.026 A 
ATOM     70  C   UNL A   1      37.785  28.829  32.700  1.00  0.00     0.026 A 
ATOM     71  C   UNL A   1      40.411  29.398  33.498  1.00  0.00     0.002 A 
ATOM     72  C   UNL A   1      38.769  27.840  32.651  1.00  0.00     0.002 A 
ATOM     73  C   UNL A   1      40.078  28.123  33.051  1.00  0.00     0.000 A 
ENDBRANCH  66  68
ENDBRANCH  64  66
ENDBRANCH  61  64
ENDBRANCH  57  59
ENDBRANCH  56  57
ENDBRANCH   1  56
TORSDOF 14
ENDMDL
MODEL 2
REMARK VINA RESULT:      -8.5      4.331      7.255
REMARK SMILES O=C(OCCOC(=O)[C@H]1CCCN1C(=S)Nc1ccccc1)c1ccc(-c2c3nc(c(-c4ccccc4)c4ccc([nH]4)c(-c4ccccc4)c4nc(c(-c5ccccc5)c5ccc2[nH]5)C=C4)C=C3)cc1
REMARK SMILES IDX 5 1 4 2 3 3 2 4 1 5 23 6 24 7 70 8 25 9 69 10 26 11 27 12
REMARK SMILES IDX 28 13 63 14 29 15 68 16 62 17 64 18 30 19 67 20 61 21 60 22
REMARK SMILES IDX 31 24 53 25 38 26 52 27 39 28 42 29 51 30 65 31 40 32 41 33
REMARK SMILES IDX 50 35 66 36 43 37 32 38 33 39 37 40 34 41 36 42 35 43 54 44
REMARK SMILES IDX 55 45 59 46 56 47 58 48 57 49 44 50 45 51 49 52 46 53 48 54
REMARK SMILES IDX 47 55 6 56 7 57 8 58 9 59 10 60 13 61 11 62 12 63 14 64
REMARK SMILES IDX 15 65 16 66 17 68 18 69 22 70 19 71 21 72 20 73
REMARK H PARENT 64 23 42 34 16 67
REMARK Flexibility Score: inf
ROOT
ATOM      1  C   UNL A   1      32.664  31.049  27.112  1.00  0.00     0.274 C 
ENDROOT
BRANCH   1   2
ATOM      2  C   UNL A   1      31.677  32.209  27.206  1.00  0.00     0.275 C 
BRANCH   2   3
ATOM      3  O   UNL A   1      32.251  33.525  27.204  1.00  0.00    -0.458 OA
BRANCH   3   4
ATOM      4  C   UNL A   1      32.897  34.199  28.182  1.00  0.00     0.338 C 
ATOM      5  O   UNL A   1      32.372  35.213  28.639  1.00  0.00    -0.246 OA
BRANCH   4   6
ATOM      6  C   UNL A   1      34.234  33.804  28.732  1.00  0.00     0.060 A 
ATOM      7  C   UNL A   1      35.479  34.198  28.234  1.00  0.00     0.016 A 
ATOM      8  C   UNL A   1      34.219  32.897  29.806  1.00  0.00     0.016 A 
ATOM      9  C   UNL A   1      36.669  33.738  28.824  1.00  0.00     0.010 A 
ATOM     10  C   UNL A   1      35.399  32.443  30.404  1.00  0.00     0.010 A 
ATOM     11  C   UNL A   1      36.639  32.851  29.908  1.00  0.00    -0.014 A 
BRANCH  11  12
ATOM     12  C   UNL A   1      37.895  32.227  30.400  1.00  0.00     0.031 A 
ATOM     13  C   UNL A   1      38.549  32.801  31.616  1.00  0.00     0.074 A 
ATOM     14  C   UNL A   1      38.453  31.168  29.784  1.00  0.00     0.049 A 
ATOM     15  N   UNL A   1      39.585  32.361  32.277  1.00  0.00    -0.248 NA
ATOM     16  C   UNL A   1      37.969  34.046  32.146  1.00  0.00     0.031 C 
ATOM     17  C   UNL A   1      37.962  30.594  28.548  1.00  0.00     0.029 A 
ATOM     18  N   UNL A   1      39.541  30.392  30.087  1.00  0.00    -0.354 N 
ATOM     19  C   UNL A   1      39.782  33.273  33.300  1.00  0.00     0.074 A 
ATOM     20  C   UNL A   1      38.798  34.319  33.139  1.00  0.00     0.031 C 
ATOM     21  C   UNL A   1      38.715  29.546  28.187  1.00  0.00     0.029 A 
ATOM     22  C   UNL A   1      39.760  29.374  29.183  1.00  0.00     0.049 A 
ATOM     23  H   UNL A   1      40.112  30.547  30.874  1.00  0.00     0.167 HD
ATOM     24  C   UNL A   1      40.691  33.229  34.301  1.00  0.00     0.031 A 
ATOM     25  C   UNL A   1      40.693  28.406  29.162  1.00  0.00     0.031 A 
ATOM     26  C   UNL A   1      41.692  32.207  34.427  1.00  0.00     0.049 A 
ATOM     27  C   UNL A   1      41.680  28.362  30.289  1.00  0.00     0.074 A 
ATOM     28  C   UNL A   1      42.654  32.047  35.406  1.00  0.00     0.029 A 
ATOM     29  N   UNL A   1      41.864  31.171  33.518  1.00  0.00    -0.354 N 
ATOM     30  N   UNL A   1      41.794  29.179  31.309  1.00  0.00    -0.248 NA
ATOM     31  C   UNL A   1      42.653  27.265  30.277  1.00  0.00     0.031 C 
ATOM     32  C   UNL A   1      43.424  30.923  35.077  1.00  0.00     0.029 A 
ATOM     33  C   UNL A   1      42.916  30.364  33.913  1.00  0.00     0.049 A 
ATOM     34  H   UNL A   1      41.319  31.031  32.711  1.00  0.00     0.167 HD
ATOM     35  C   UNL A   1      42.839  28.686  32.073  1.00  0.00     0.074 A 
ATOM     36  C   UNL A   1      43.312  27.487  31.405  1.00  0.00     0.031 C 
ATOM     37  C   UNL A   1      43.359  29.178  33.223  1.00  0.00     0.031 A 
BRANCH  24  38
ATOM     38  C   UNL A   1      40.611  34.348  35.297  1.00  0.00    -0.014 A 
ATOM     39  C   UNL A   1      41.387  35.510  35.131  1.00  0.00     0.009 A 
ATOM     40  C   UNL A   1      39.857  34.196  36.468  1.00  0.00     0.009 A 
ATOM     41  C   UNL A   1      41.467  36.460  36.150  1.00  0.00     0.001 A 
ATOM     42  C   UNL A   1      39.917  35.164  37.474  1.00  0.00     0.001 A 
ATOM     43  C   UNL A   1      40.735  36.283  37.323  1.00  0.00     0.000 A 
ENDBRANCH  24  38
BRANCH  25  44
ATOM     44  C   UNL A   1      40.714  27.394  28.070  1.00  0.00    -0.014 A 
ATOM     45  C   UNL A   1      41.443  27.625  26.893  1.00  0.00     0.009 A 
ATOM     46  C   UNL A   1      40.014  26.186  28.203  1.00  0.00     0.009 A 
ATOM     47  C   UNL A   1      41.448  26.680  25.862  1.00  0.00     0.001 A 
ATOM     48  C   UNL A   1      40.039  25.232  27.181  1.00  0.00     0.001 A 
ATOM     49  C   UNL A   1      40.749  25.484  26.008  1.00  0.00     0.000 A 
ENDBRANCH  25  44
BRANCH  37  50
ATOM     50  C   UNL A   1      44.468  28.382  33.841  1.00  0.00    -0.014 A 
ATOM     51  C   UNL A   1      45.811  28.637  33.529  1.00  0.00     0.009 A 
ATOM     52  C   UNL A   1      44.154  27.364  34.754  1.00  0.00     0.009 A 
ATOM     53  C   UNL A   1      46.821  27.863  34.099  1.00  0.00     0.001 A 
ATOM     54  C   UNL A   1      45.168  26.608  35.339  1.00  0.00     0.001 A 
ATOM     55  C   UNL A   1      46.499  26.851  35.005  1.00  0.00     0.000 A 
ENDBRANCH  37  50
ENDBRANCH  11  12
ENDBRANCH   4   6
ENDBRANCH   3   4
ENDBRANCH   2   3
ENDBRANCH   1   2
BRANCH   1  56
ATOM     56  O   UNL A   1      32.054  29.807  26.741  1.00  0.00    -0.461 OA
BRANCH  56  57
ATOM     57  C   UNL A   1      32.872  28.712  26.781  1.00  0.00     0.328 C 
ATOM     58  O   UNL A   1      33.808  28.587  27.561  1.00  0.00    -0.250 OA
BRANCH  57  59
ATOM     59  C   UNL A   1      32.647  27.770  25.584  1.00  0.00     0.194 C 
ATOM     60  C   UNL A   1      32.841  26.297  25.923  1.00  0.00     0.039 C 
ATOM     61  N   UNL A   1      31.347  27.783  24.903  1.00  0.00    -0.335 N 
ATOM     62  C   UNL A   1      31.432  25.830  26.249  1.00  0.00     0.024 C 
ATOM     63  C   UNL A   1      30.566  26.600  25.263  1.00  0.00     0.120 C 
BRANCH  61  64
ATOM     64  C   UNL A   1      31.196  28.537  23.750  1.00  0.00     0.174 C 
ATOM     65  S   UNL A   1      32.431  28.961  22.705  1.00  0.00    -0.041 S 
BRANCH  64  66
ATOM     66  N   UNL A   1      29.874  28.787  23.475  1.00  0.00    -0.333 N 
ATOM     67  H   UNL A   1      29.258  28.042  23.663  1.00  0.00     0.169 HD
BRANCH  66  68
ATOM     68  C   UNL A   1      29.273  29.945  22.962  1.00  0.00     0.040 A 
ATOM     69  C   UNL A   1      29.221  31.061  23.808  1.00  0.00     0.026 A 
ATOM     70  C   UNL A   1      28.812  30.042  21.654  1.00  0.00     0.026 A 
ATOM     71  C   UNL A   1      28.728  32.276  23.343  1.00  0.00     0.002 A 
ATOM     72  C   UNL A   1      28.352  31.271  21.178  1.00  0.00     0.002 A 
ATOM     73  C   UNL A   1      28.312  32.386  22.020  1.00  0.00     0.000 A 
ENDBRANCH  66  68
ENDBRANCH  64  66
ENDBRANCH  61  64
ENDBRANCH  57  59
ENDBRANCH  56  57
ENDBRANCH   1  56
TORSDOF 14
ENDMDL
MODEL 3
REMARK VINA RESULT:      -8.5      5.691     10.603
REMARK SMILES O=C(OCCOC(=O)[C@H]1CCCN1C(=S)Nc1ccccc1)c1ccc(-c2c3nc(c(-c4ccccc4)c4ccc([nH]4)c(-c4ccccc4)c4nc(c(-c5ccccc5)c5ccc2[nH]5)C=C4)C=C3)cc1
REMARK SMILES IDX 5 1 4 2 3 3 2 4 1 5 23 6 24 7 70 8 25 9 69 10 26 11 27 12
REMARK SMILES IDX 28 13 63 14 29 15 68 16 62 17 64 18 30 19 67 20 61 21 60 22
REMARK SMILES IDX 31 24 53 25 38 26 52 27 39 28 42 29 51 30 65 31 40 32 41 33
REMARK SMILES IDX 50 35 66 36 43 37 32 38 33 39 37 40 34 41 36 42 35 43 54 44
REMARK SMILES IDX 55 45 59 46 56 47 58 48 57 49 44 50 45 51 49 52 46 53 48 54
REMARK SMILES IDX 47 55 6 56 7 57 8 58 9 59 10 60 13 61 11 62 12 63 14 64
REMARK SMILES IDX 15 65 16 66 17 68 18 69 22 70 19 71 21 72 20 73
REMARK H PARENT 64 23 42 34 16 67
REMARK Flexibility Score: inf
ROOT
ATOM      1  C   UNL A   1      37.809  20.334  24.660  1.00  0.00     0.274 C 
ENDROOT
BRANCH   1   2
ATOM      2  C   UNL A   1      38.681  19.785  25.785  1.00  0.00     0.275 C 
BRANCH   2   3
ATOM      3  O   UNL A   1      39.879  19.106  25.376  1.00  0.00    -0.458 OA
BRANCH   3   4
ATOM      4  C   UNL A   1      41.155  19.254  25.798  1.00  0.00     0.338 C 
ATOM      5  O   UNL A   1      41.904  18.280  25.751  1.00  0.00    -0.246 OA
BRANCH   4   6
ATOM      6  C   UNL A   1      41.714  20.531  26.348  1.00  0.00     0.060 A 
ATOM      7  C   UNL A   1      41.811  20.873  27.701  1.00  0.00     0.016 A 
ATOM      8  C   UNL A   1      42.110  21.493  25.403  1.00  0.00     0.016 A 
ATOM      9  C   UNL A   1      42.334  22.117  28.092  1.00  0.00     0.010 A 
ATOM     10  C   UNL A   1      42.640  22.729  25.786  1.00  0.00     0.010 A 
ATOM     11  C   UNL A   1      42.745  23.059  27.140  1.00  0.00    -0.014 A 
BRANCH  11  12
ATOM     12  C   UNL A   1      43.117  24.435  27.558  1.00  0.00     0.031 A 
ATOM     13  C   UNL A   1      44.554  24.839  27.489  1.00  0.00     0.074 A 
ATOM     14  C   UNL A   1      42.199  25.319  27.994  1.00  0.00     0.049 A 
ATOM     15  N   UNL A   1      45.090  26.010  27.706  1.00  0.00    -0.248 NA
ATOM     16  C   UNL A   1      45.517  23.779  27.149  1.00  0.00     0.031 C 
ATOM     17  C   UNL A   1      40.799  25.007  28.195  1.00  0.00     0.029 A 
ATOM     18  N   UNL A   1      42.288  26.638  28.356  1.00  0.00    -0.354 N 
ATOM     19  C   UNL A   1      46.451  25.828  27.528  1.00  0.00     0.074 A 
ATOM     20  C   UNL A   1      46.665  24.427  27.245  1.00  0.00     0.031 C 
ATOM     21  C   UNL A   1      40.135  26.089  28.623  1.00  0.00     0.029 A 
ATOM     22  C   UNL A   1      41.080  27.188  28.730  1.00  0.00     0.049 A 
ATOM     23  H   UNL A   1      43.132  27.145  28.349  1.00  0.00     0.167 HD
ATOM     24  C   UNL A   1      47.436  26.755  27.575  1.00  0.00     0.031 A 
ATOM     25  C   UNL A   1      40.768  28.439  29.111  1.00  0.00     0.031 A 
ATOM     26  C   UNL A   1      47.217  28.136  27.899  1.00  0.00     0.049 A 
ATOM     27  C   UNL A   1      41.867  29.457  29.139  1.00  0.00     0.074 A 
ATOM     28  C   UNL A   1      48.131  29.171  27.961  1.00  0.00     0.029 A 
ATOM     29  N   UNL A   1      45.980  28.670  28.237  1.00  0.00    -0.354 N 
ATOM     30  N   UNL A   1      43.141  29.292  28.872  1.00  0.00    -0.248 NA
ATOM     31  C   UNL A   1      41.493  30.828  29.502  1.00  0.00     0.031 C 
ATOM     32  C   UNL A   1      47.448  30.329  28.357  1.00  0.00     0.029 A 
ATOM     33  C   UNL A   1      46.104  30.021  28.506  1.00  0.00     0.049 A 
ATOM     34  H   UNL A   1      45.139  28.161  28.280  1.00  0.00     0.167 HD
ATOM     35  C   UNL A   1      43.722  30.542  29.015  1.00  0.00     0.074 A 
ATOM     36  C   UNL A   1      42.654  31.457  29.375  1.00  0.00     0.031 C 
ATOM     37  C   UNL A   1      45.019  30.901  28.862  1.00  0.00     0.031 A 
BRANCH  24  38
ATOM     38  C   UNL A   1      48.817  26.248  27.278  1.00  0.00    -0.014 A 
ATOM     39  C   UNL A   1      49.675  25.859  28.324  1.00  0.00     0.009 A 
ATOM     40  C   UNL A   1      49.309  26.274  25.967  1.00  0.00     0.009 A 
ATOM     41  C   UNL A   1      51.019  25.579  28.069  1.00  0.00     0.001 A 
ATOM     42  C   UNL A   1      50.648  25.964  25.713  1.00  0.00     0.001 A 
ATOM     43  C   UNL A   1      51.504  25.637  26.764  1.00  0.00     0.000 A 
ENDBRANCH  24  38
BRANCH  25  44
ATOM     44  C   UNL A   1      39.365  28.801  29.457  1.00  0.00    -0.014 A 
ATOM     45  C   UNL A   1      38.892  28.660  30.771  1.00  0.00     0.009 A 
ATOM     46  C   UNL A   1      38.493  29.299  28.477  1.00  0.00     0.009 A 
ATOM     47  C   UNL A   1      37.569  28.985  31.090  1.00  0.00     0.001 A 
ATOM     48  C   UNL A   1      37.179  29.645  28.802  1.00  0.00     0.001 A 
ATOM     49  C   UNL A   1      36.715  29.479  30.106  1.00  0.00     0.000 A 
ENDBRANCH  25  44
BRANCH  37  50
ATOM     50  C   UNL A   1      45.328  32.356  29.042  1.00  0.00    -0.014 A 
ATOM     51  C   UNL A   1      45.263  33.253  27.966  1.00  0.00     0.009 A 
ATOM     52  C   UNL A   1      45.683  32.830  30.313  1.00  0.00     0.009 A 
ATOM     53  C   UNL A   1      45.581  34.597  28.155  1.00  0.00     0.001 A 
ATOM     54  C   UNL A   1      45.977  34.179  30.503  1.00  0.00     0.001 A 
ATOM     55  C   UNL A   1      45.935  35.059  29.424  1.00  0.00     0.000 A 
ENDBRANCH  37  50
ENDBRANCH  11  12
ENDBRANCH   4   6
ENDBRANCH   3   4
ENDBRANCH   2   3
ENDBRANCH   1   2
BRANCH   1  56
ATOM     56  O   UNL A   1      36.797  21.243  25.112  1.00  0.00    -0.461 OA
BRANCH  56  57
ATOM     57  C   UNL A   1      36.321  22.113  24.170  1.00  0.00     0.328 C 
ATOM     58  O   UNL A   1      37.006  22.592  23.275  1.00  0.00    -0.250 OA
BRANCH  57  59
ATOM     59  C   UNL A   1      34.905  22.617  24.503  1.00  0.00     0.194 C 
ATOM     60  C   UNL A   1      34.511  23.876  23.739  1.00  0.00     0.039 C 
ATOM     61  N   UNL A   1      33.761  21.724  24.279  1.00  0.00    -0.335 N 
ATOM     62  C   UNL A   1      33.773  23.328  22.529  1.00  0.00     0.024 C 
ATOM     63  C   UNL A   1      33.018  22.129  23.086  1.00  0.00     0.120 C 
BRANCH  61  64
ATOM     64  C   UNL A   1      33.254  20.996  25.344  1.00  0.00     0.174 C 
ATOM     65  S   UNL A   1      33.336  21.451  26.951  1.00  0.00    -0.041 S 
BRANCH  64  66
ATOM     66  N   UNL A   1      32.538  19.905  24.918  1.00  0.00    -0.333 N 
ATOM     67  H   UNL A   1      31.608  20.090  24.652  1.00  0.00     0.169 HD
BRANCH  66  68
ATOM     68  C   UNL A   1      32.935  18.565  24.808  1.00  0.00     0.040 A 
ATOM     69  C   UNL A   1      32.528  17.695  25.828  1.00  0.00     0.026 A 
ATOM     70  C   UNL A   1      33.632  18.071  23.711  1.00  0.00     0.026 A 
ATOM     71  C   UNL A   1      32.799  16.332  25.744  1.00  0.00     0.002 A 
ATOM     72  C   UNL A   1      33.870  16.699  23.610  1.00  0.00     0.002 A 
ATOM     73  C   UNL A   1      33.452  15.832  24.623  1.00  0.00     0.000 A 
ENDBRANCH  66  68
ENDBRANCH  64  66
ENDBRANCH  61  64
ENDBRANCH  57  59
ENDBRANCH  56  57
ENDBRANCH   1  56
TORSDOF 14
ENDMDL
