MODEL 1
REMARK VINA RESULT:     -12.4      0.000      0.000
REMARK SMILES O=C(OCCOC(=O)[C@H](c1c[nH]c2cc(F)ccc12)[NH+]1CC[NH+](Cc2cccc(Cl)c2)CC1)c1ccc(-c2c3nc(c(-c4ccccc4)c4ccc([nH]4)c(-c4ccccc4)c4nc(c(-c5ccccc5)c5ccc2[nH]5)C=C4)C=C3)cc1
REMARK SMILES IDX 5 1 4 2 3 3 2 4 1 5 34 6 35 7 81 8 36 9 80 10 37 11 38 12
REMARK SMILES IDX 39 13 74 14 40 15 79 16 73 17 75 18 41 19 78 20 72 21 71 22
REMARK SMILES IDX 42 24 64 25 49 26 63 27 50 28 53 29 62 30 76 31 51 32 52 33
REMARK SMILES IDX 61 35 77 36 54 37 43 38 44 39 48 40 45 41 47 42 46 43 65 44
REMARK SMILES IDX 66 45 70 46 67 47 69 48 68 49 55 50 56 51 60 52 57 53 59 54
REMARK SMILES IDX 58 55 6 56 7 57 8 58 9 59 20 60 21 61 33 62 22 64 32 65
REMARK SMILES IDX 23 66 24 68 25 69 26 70 31 71 27 72 29 73 28 74 30 75 10 76
REMARK SMILES IDX 11 77 19 78 12 79 13 80 18 81 14 83 17 84 15 85 16 86
REMARK H PARENT 75 23 53 34 20 63 23 67 12 82
REMARK Flexibility Score: inf
ROOT
ATOM      1  C   UNL A   1      32.992  28.218  27.274  1.00  0.00     0.274 C 
ENDROOT
BRANCH   1   2
ATOM      2  C   UNL A   1      34.320  28.818  26.828  1.00  0.00     0.275 C 
BRANCH   2   3
ATOM      3  O   UNL A   1      34.662  30.023  27.546  1.00  0.00    -0.458 OA
BRANCH   3   4
ATOM      4  C   UNL A   1      35.563  30.304  28.516  1.00  0.00     0.338 C 
ATOM      5  O   UNL A   1      35.187  31.032  29.435  1.00  0.00    -0.246 OA
BRANCH   4   6
ATOM      6  C   UNL A   1      37.014  29.886  28.548  1.00  0.00     0.060 A 
ATOM      7  C   UNL A   1      37.739  29.391  29.624  1.00  0.00     0.016 A 
ATOM      8  C   UNL A   1      37.725  30.005  27.333  1.00  0.00     0.016 A 
ATOM      9  C   UNL A   1      39.071  28.939  29.453  1.00  0.00     0.010 A 
ATOM     10  C   UNL A   1      39.019  29.476  27.132  1.00  0.00     0.010 A 
ATOM     11  C   UNL A   1      39.705  28.901  28.194  1.00  0.00    -0.014 A 
BRANCH  11  12
ATOM     12  C   UNL A   1      41.149  28.510  28.125  1.00  0.00     0.031 A 
ATOM     13  C   UNL A   1      41.431  27.110  27.706  1.00  0.00     0.074 A 
ATOM     14  C   UNL A   1      42.217  29.292  28.400  1.00  0.00     0.049 A 
ATOM     15  N   UNL A   1      42.564  26.571  27.356  1.00  0.00    -0.248 NA
ATOM     16  C   UNL A   1      40.292  26.185  27.782  1.00  0.00     0.031 C 
ATOM     17  C   UNL A   1      42.188  30.529  29.149  1.00  0.00     0.029 A 
ATOM     18  N   UNL A   1      43.549  29.187  28.032  1.00  0.00    -0.354 N 
ATOM     19  C   UNL A   1      42.289  25.224  27.221  1.00  0.00     0.074 A 
ATOM     20  C   UNL A   1      40.882  25.038  27.507  1.00  0.00     0.031 C 
ATOM     21  C   UNL A   1      43.353  31.177  28.989  1.00  0.00     0.029 A 
ATOM     22  C   UNL A   1      44.257  30.369  28.193  1.00  0.00     0.049 A 
ATOM     23  H   UNL A   1      43.953  28.357  27.692  1.00  0.00     0.167 HD
ATOM     24  C   UNL A   1      43.147  24.219  26.943  1.00  0.00     0.031 A 
ATOM     25  C   UNL A   1      45.481  30.753  27.760  1.00  0.00     0.031 A 
ATOM     26  C   UNL A   1      44.563  24.384  26.794  1.00  0.00     0.049 A 
ATOM     27  C   UNL A   1      46.393  29.655  27.286  1.00  0.00     0.074 A 
ATOM     28  C   UNL A   1      45.524  23.415  26.580  1.00  0.00     0.029 A 
ATOM     29  N   UNL A   1      45.230  25.600  26.878  1.00  0.00    -0.354 N 
ATOM     30  N   UNL A   1      46.112  28.390  27.092  1.00  0.00    -0.248 NA
ATOM     31  C   UNL A   1      47.811  29.997  27.092  1.00  0.00     0.031 C 
ATOM     32  C   UNL A   1      46.778  24.037  26.574  1.00  0.00     0.029 A 
ATOM     33  C   UNL A   1      46.592  25.403  26.716  1.00  0.00     0.049 A 
ATOM     34  H   UNL A   1      44.800  26.471  27.031  1.00  0.00     0.167 HD
ATOM     35  C   UNL A   1      47.323  27.772  26.830  1.00  0.00     0.074 A 
ATOM     36  C   UNL A   1      48.329  28.815  26.787  1.00  0.00     0.031 C 
ATOM     37  C   UNL A   1      47.582  26.449  26.695  1.00  0.00     0.031 A 
BRANCH  24  38
ATOM     38  C   UNL A   1      42.526  22.858  26.919  1.00  0.00    -0.014 A 
ATOM     39  C   UNL A   1      42.043  22.267  28.099  1.00  0.00     0.009 A 
ATOM     40  C   UNL A   1      42.582  22.100  25.742  1.00  0.00     0.009 A 
ATOM     41  C   UNL A   1      41.690  20.917  28.113  1.00  0.00     0.001 A 
ATOM     42  C   UNL A   1      42.195  20.762  25.752  1.00  0.00     0.001 A 
ATOM     43  C   UNL A   1      41.769  20.167  26.940  1.00  0.00     0.000 A 
ENDBRANCH  24  38
BRANCH  25  44
ATOM     44  C   UNL A   1      45.973  32.175  27.793  1.00  0.00    -0.014 A 
ATOM     45  C   UNL A   1      45.822  33.004  26.660  1.00  0.00     0.009 A 
ATOM     46  C   UNL A   1      46.627  32.725  28.906  1.00  0.00     0.009 A 
ATOM     47  C   UNL A   1      46.304  34.322  26.646  1.00  0.00     0.001 A 
ATOM     48  C   UNL A   1      47.054  34.059  28.914  1.00  0.00     0.001 A 
ATOM     49  C   UNL A   1      46.902  34.855  27.783  1.00  0.00     0.000 A 
ENDBRANCH  25  44
BRANCH  37  50
ATOM     50  C   UNL A   1      49.017  26.070  26.478  1.00  0.00    -0.014 A 
ATOM     51  C   UNL A   1      49.790  25.505  27.506  1.00  0.00     0.009 A 
ATOM     52  C   UNL A   1      49.601  26.284  25.222  1.00  0.00     0.009 A 
ATOM     53  C   UNL A   1      51.135  25.204  27.289  1.00  0.00     0.001 A 
ATOM     54  C   UNL A   1      50.937  25.954  25.000  1.00  0.00     0.001 A 
ATOM     55  C   UNL A   1      51.705  25.426  26.036  1.00  0.00     0.000 A 
ENDBRANCH  37  50
ENDBRANCH  11  12
ENDBRANCH   4   6
ENDBRANCH   3   4
ENDBRANCH   2   3
ENDBRANCH   1   2
BRANCH   1  56
ATOM     56  O   UNL A   1      32.034  28.337  26.221  1.00  0.00    -0.457 OA
BRANCH  56  57
ATOM     57  C   UNL A   1      31.234  27.241  26.002  1.00  0.00     0.370 C 
ATOM     58  O   UNL A   1      30.648  26.625  26.873  1.00  0.00    -0.245 OA
BRANCH  57  59
ATOM     59  C   UNL A   1      31.226  26.952  24.494  1.00  0.00     0.328 C 
BRANCH  59  60
ATOM     60  N   UNL A   1      31.802  25.647  24.111  1.00  0.00    -0.310 N 
ATOM     61  C   UNL A   1      33.198  25.803  23.721  1.00  0.00     0.325 C 
ATOM     62  C   UNL A   1      31.604  24.467  24.977  1.00  0.00     0.325 C 
ATOM     63  H   UNL A   1      31.212  25.385  23.321  1.00  0.00     0.349 HD
ATOM     64  C   UNL A   1      34.228  25.497  24.820  1.00  0.00     0.324 C 
ATOM     65  C   UNL A   1      32.751  24.040  25.958  1.00  0.00     0.324 C 
ATOM     66  N   UNL A   1      34.123  24.207  25.476  1.00  0.00    -0.322 N 
ATOM     67  H   UNL A   1      34.703  24.176  26.314  1.00  0.00     0.348 HD
BRANCH  66  68
ATOM     68  C   UNL A   1      34.769  23.103  24.755  1.00  0.00     0.299 C 
BRANCH  68  69
ATOM     69  C   UNL A   1      36.130  22.669  25.241  1.00  0.00     0.008 A 
ATOM     70  C   UNL A   1      37.008  23.567  25.852  1.00  0.00     0.009 A 
ATOM     71  C   UNL A   1      36.571  21.361  25.023  1.00  0.00     0.030 A 
ATOM     72  C   UNL A   1      38.330  23.231  26.126  1.00  0.00     0.002 A 
ATOM     73  C   UNL A   1      37.887  21.010  25.323  1.00  0.00     0.041 A 
ATOM     74  C   UNL A   1      38.775  21.947  25.847  1.00  0.00     0.020 A 
ATOM     75  Cl  UNL A   1      38.427  19.411  25.001  1.00  0.00    -0.084 Cl
ENDBRANCH  68  69
ENDBRANCH  66  68
ENDBRANCH  59  60
BRANCH  59  76
ATOM     76  C   UNL A   1      29.861  27.149  23.862  1.00  0.00     0.046 A 
ATOM     77  C   UNL A   1      28.739  26.350  23.993  1.00  0.00     0.094 A 
ATOM     78  C   UNL A   1      29.427  28.294  23.097  1.00  0.00     0.009 A 
ATOM     79  N   UNL A   1      27.649  27.065  23.570  1.00  0.00    -0.361 N 
ATOM     80  C   UNL A   1      28.035  28.306  23.124  1.00  0.00     0.049 A 
ATOM     81  C   UNL A   1      30.071  29.375  22.464  1.00  0.00     0.014 A 
ATOM     82  H   UNL A   1      26.721  26.736  23.582  1.00  0.00     0.166 HD
ATOM     83  C   UNL A   1      27.282  29.428  22.747  1.00  0.00     0.065 A 
ATOM     84  C   UNL A   1      29.348  30.509  22.079  1.00  0.00     0.040 A 
ATOM     85  C   UNL A   1      27.978  30.539  22.270  1.00  0.00     0.125 A 
ATOM     86  F   UNL A   1      27.301  31.655  21.960  1.00  0.00    -0.207 F 
ENDBRANCH  59  76
ENDBRANCH  57  59
ENDBRANCH  56  57
ENDBRANCH   1  56
TORSDOF 15
ENDMDL
MODEL 2
REMARK VINA RESULT:     -12.1      4.168      8.755
REMARK SMILES O=C(OCCOC(=O)[C@H](c1c[nH]c2cc(F)ccc12)[NH+]1CC[NH+](Cc2cccc(Cl)c2)CC1)c1ccc(-c2c3nc(c(-c4ccccc4)c4ccc([nH]4)c(-c4ccccc4)c4nc(c(-c5ccccc5)c5ccc2[nH]5)C=C4)C=C3)cc1
REMARK SMILES IDX 5 1 4 2 3 3 2 4 1 5 34 6 35 7 81 8 36 9 80 10 37 11 38 12
REMARK SMILES IDX 39 13 74 14 40 15 79 16 73 17 75 18 41 19 78 20 72 21 71 22
REMARK SMILES IDX 42 24 64 25 49 26 63 27 50 28 53 29 62 30 76 31 51 32 52 33
REMARK SMILES IDX 61 35 77 36 54 37 43 38 44 39 48 40 45 41 47 42 46 43 65 44
REMARK SMILES IDX 66 45 70 46 67 47 69 48 68 49 55 50 56 51 60 52 57 53 59 54
REMARK SMILES IDX 58 55 6 56 7 57 8 58 9 59 20 60 21 61 33 62 22 64 32 65
REMARK SMILES IDX 23 66 24 68 25 69 26 70 31 71 27 72 29 73 28 74 30 75 10 76
REMARK SMILES IDX 11 77 19 78 12 79 13 80 18 81 14 83 17 84 15 85 16 86
REMARK H PARENT 75 23 53 34 20 63 23 67 12 82
REMARK Flexibility Score: inf
ROOT
ATOM      1  C   UNL A   1      36.162  21.888  24.281  1.00  0.00     0.274 C 
ENDROOT
BRANCH   1   2
ATOM      2  C   UNL A   1      37.409  21.084  24.625  1.00  0.00     0.275 C 
BRANCH   2   3
ATOM      3  O   UNL A   1      37.975  21.442  25.904  1.00  0.00    -0.458 OA
BRANCH   3   4
ATOM      4  C   UNL A   1      39.205  21.845  26.297  1.00  0.00     0.338 C 
ATOM      5  O   UNL A   1      40.094  20.993  26.317  1.00  0.00    -0.246 OA
BRANCH   4   6
ATOM      6  C   UNL A   1      39.587  23.219  26.798  1.00  0.00     0.060 A 
ATOM      7  C   UNL A   1      38.967  24.431  26.526  1.00  0.00     0.016 A 
ATOM      8  C   UNL A   1      40.708  23.282  27.654  1.00  0.00     0.016 A 
ATOM      9  C   UNL A   1      39.389  25.620  27.171  1.00  0.00     0.010 A 
ATOM     10  C   UNL A   1      41.078  24.442  28.369  1.00  0.00     0.010 A 
ATOM     11  C   UNL A   1      40.396  25.634  28.158  1.00  0.00    -0.014 A 
BRANCH  11  12
ATOM     12  C   UNL A   1      40.850  26.950  28.707  1.00  0.00     0.031 A 
ATOM     13  C   UNL A   1      42.233  27.369  28.351  1.00  0.00     0.074 A 
ATOM     14  C   UNL A   1      40.139  27.795  29.487  1.00  0.00     0.049 A 
ATOM     15  N   UNL A   1      42.803  28.531  28.501  1.00  0.00    -0.248 NA
ATOM     16  C   UNL A   1      43.106  26.302  27.843  1.00  0.00     0.031 C 
ATOM     17  C   UNL A   1      38.950  27.453  30.239  1.00  0.00     0.029 A 
ATOM     18  N   UNL A   1      40.284  29.149  29.742  1.00  0.00    -0.354 N 
ATOM     19  C   UNL A   1      44.124  28.325  28.154  1.00  0.00     0.074 A 
ATOM     20  C   UNL A   1      44.260  26.936  27.770  1.00  0.00     0.031 C 
ATOM     21  C   UNL A   1      38.349  28.576  30.662  1.00  0.00     0.029 A 
ATOM     22  C   UNL A   1      39.149  29.728  30.291  1.00  0.00     0.049 A 
ATOM     23  H   UNL A   1      41.110  29.651  29.554  1.00  0.00     0.167 HD
ATOM     24  C   UNL A   1      45.149  29.202  28.210  1.00  0.00     0.031 A 
ATOM     25  C   UNL A   1      38.798  31.023  30.478  1.00  0.00     0.031 A 
ATOM     26  C   UNL A   1      45.043  30.538  28.718  1.00  0.00     0.049 A 
ATOM     27  C   UNL A   1      39.906  32.034  30.375  1.00  0.00     0.074 A 
ATOM     28  C   UNL A   1      46.042  31.479  28.880  1.00  0.00     0.029 A 
ATOM     29  N   UNL A   1      43.868  31.115  29.183  1.00  0.00    -0.354 N 
ATOM     30  N   UNL A   1      41.141  31.850  29.980  1.00  0.00    -0.248 NA
ATOM     31  C   UNL A   1      39.620  33.395  30.858  1.00  0.00     0.031 C 
ATOM     32  C   UNL A   1      45.481  32.613  29.478  1.00  0.00     0.029 A 
ATOM     33  C   UNL A   1      44.118  32.403  29.628  1.00  0.00     0.049 A 
ATOM     34  H   UNL A   1      42.988  30.675  29.196  1.00  0.00     0.167 HD
ATOM     35  C   UNL A   1      41.799  33.042  30.236  1.00  0.00     0.074 A 
ATOM     36  C   UNL A   1      40.804  33.976  30.725  1.00  0.00     0.031 C 
ATOM     37  C   UNL A   1      43.122  33.314  30.130  1.00  0.00     0.031 A 
BRANCH  24  38
ATOM     38  C   UNL A   1      46.475  28.637  27.808  1.00  0.00    -0.014 A 
ATOM     39  C   UNL A   1      47.367  28.139  28.774  1.00  0.00     0.009 A 
ATOM     40  C   UNL A   1      46.899  28.761  26.478  1.00  0.00     0.009 A 
ATOM     41  C   UNL A   1      48.684  27.840  28.423  1.00  0.00     0.001 A 
ATOM     42  C   UNL A   1      48.204  28.428  26.125  1.00  0.00     0.001 A 
ATOM     43  C   UNL A   1      49.101  27.987  27.100  1.00  0.00     0.000 A 
ENDBRANCH  24  38
BRANCH  25  44
ATOM     44  C   UNL A   1      37.405  31.469  30.835  1.00  0.00    -0.014 A 
ATOM     45  C   UNL A   1      36.502  31.858  29.821  1.00  0.00     0.009 A 
ATOM     46  C   UNL A   1      36.956  31.561  32.161  1.00  0.00     0.009 A 
ATOM     47  C   UNL A   1      35.211  32.315  30.124  1.00  0.00     0.001 A 
ATOM     48  C   UNL A   1      35.646  31.959  32.461  1.00  0.00     0.001 A 
ATOM     49  C   UNL A   1      34.777  32.345  31.445  1.00  0.00     0.000 A 
ENDBRANCH  25  44
BRANCH  37  50
ATOM     50  C   UNL A   1      43.554  34.689  30.543  1.00  0.00    -0.014 A 
ATOM     51  C   UNL A   1      43.562  35.759  29.633  1.00  0.00     0.009 A 
ATOM     52  C   UNL A   1      43.961  34.913  31.866  1.00  0.00     0.009 A 
ATOM     53  C   UNL A   1      44.013  37.019  30.034  1.00  0.00     0.001 A 
ATOM     54  C   UNL A   1      44.381  36.178  32.270  1.00  0.00     0.001 A 
ATOM     55  C   UNL A   1      44.418  37.227  31.351  1.00  0.00     0.000 A 
ENDBRANCH  37  50
ENDBRANCH  11  12
ENDBRANCH   4   6
ENDBRANCH   3   4
ENDBRANCH   2   3
ENDBRANCH   1   2
BRANCH   1  56
ATOM     56  O   UNL A   1      35.001  21.197  24.743  1.00  0.00    -0.457 OA
BRANCH  56  57
ATOM     57  C   UNL A   1      34.268  21.827  25.721  1.00  0.00     0.370 C 
ATOM     58  O   UNL A   1      34.717  22.213  26.784  1.00  0.00    -0.245 OA
BRANCH  57  59
ATOM     59  C   UNL A   1      32.818  21.944  25.227  1.00  0.00     0.328 C 
BRANCH  59  60
ATOM     60  N   UNL A   1      32.454  23.269  24.686  1.00  0.00    -0.310 N 
ATOM     61  C   UNL A   1      31.529  23.948  25.585  1.00  0.00     0.325 C 
ATOM     62  C   UNL A   1      33.506  24.180  24.190  1.00  0.00     0.325 C 
ATOM     63  H   UNL A   1      32.011  23.015  23.803  1.00  0.00     0.349 HD
ATOM     64  C   UNL A   1      32.171  24.953  26.556  1.00  0.00     0.324 C 
ATOM     65  C   UNL A   1      34.014  25.337  25.120  1.00  0.00     0.324 C 
ATOM     66  N   UNL A   1      33.013  25.982  25.972  1.00  0.00    -0.322 N 
ATOM     67  H   UNL A   1      33.551  26.464  26.692  1.00  0.00     0.348 HD
BRANCH  66  68
ATOM     68  C   UNL A   1      32.284  27.149  25.463  1.00  0.00     0.299 C 
BRANCH  68  69
ATOM     69  C   UNL A   1      32.700  28.501  25.988  1.00  0.00     0.008 A 
ATOM     70  C   UNL A   1      33.929  28.691  26.623  1.00  0.00     0.009 A 
ATOM     71  C   UNL A   1      31.823  29.586  25.913  1.00  0.00     0.030 A 
ATOM     72  C   UNL A   1      34.242  29.876  27.280  1.00  0.00     0.002 A 
ATOM     73  C   UNL A   1      32.143  30.787  26.546  1.00  0.00     0.041 A 
ATOM     74  C   UNL A   1      33.336  30.927  27.252  1.00  0.00     0.020 A 
ATOM     75  Cl  UNL A   1      31.029  32.094  26.486  1.00  0.00    -0.084 Cl
ENDBRANCH  68  69
ENDBRANCH  66  68
ENDBRANCH  59  60
BRANCH  59  76
ATOM     76  C   UNL A   1      32.432  20.838  24.263  1.00  0.00     0.046 A 
ATOM     77  C   UNL A   1      32.069  20.957  22.934  1.00  0.00     0.094 A 
ATOM     78  C   UNL A   1      32.495  19.418  24.516  1.00  0.00     0.009 A 
ATOM     79  N   UNL A   1      32.156  19.720  22.350  1.00  0.00    -0.361 N 
ATOM     80  C   UNL A   1      32.530  18.779  23.280  1.00  0.00     0.049 A 
ATOM     81  C   UNL A   1      32.623  18.613  25.664  1.00  0.00     0.014 A 
ATOM     82  H   UNL A   1      31.975  19.531  21.402  1.00  0.00     0.166 HD
ATOM     83  C   UNL A   1      32.894  17.431  23.136  1.00  0.00     0.065 A 
ATOM     84  C   UNL A   1      32.987  17.267  25.554  1.00  0.00     0.040 A 
ATOM     85  C   UNL A   1      33.166  16.711  24.299  1.00  0.00     0.125 A 
ATOM     86  F   UNL A   1      33.579  15.439  24.203  1.00  0.00    -0.207 F 
ENDBRANCH  59  76
ENDBRANCH  57  59
ENDBRANCH  56  57
ENDBRANCH   1  56
TORSDOF 15
ENDMDL
MODEL 3
REMARK VINA RESULT:     -12.1      5.846     10.443
REMARK SMILES O=C(OCCOC(=O)[C@H](c1c[nH]c2cc(F)ccc12)[NH+]1CC[NH+](Cc2cccc(Cl)c2)CC1)c1ccc(-c2c3nc(c(-c4ccccc4)c4ccc([nH]4)c(-c4ccccc4)c4nc(c(-c5ccccc5)c5ccc2[nH]5)C=C4)C=C3)cc1
REMARK SMILES IDX 5 1 4 2 3 3 2 4 1 5 34 6 35 7 81 8 36 9 80 10 37 11 38 12
REMARK SMILES IDX 39 13 74 14 40 15 79 16 73 17 75 18 41 19 78 20 72 21 71 22
REMARK SMILES IDX 42 24 64 25 49 26 63 27 50 28 53 29 62 30 76 31 51 32 52 33
REMARK SMILES IDX 61 35 77 36 54 37 43 38 44 39 48 40 45 41 47 42 46 43 65 44
REMARK SMILES IDX 66 45 70 46 67 47 69 48 68 49 55 50 56 51 60 52 57 53 59 54
REMARK SMILES IDX 58 55 6 56 7 57 8 58 9 59 20 60 21 61 33 62 22 64 32 65
REMARK SMILES IDX 23 66 24 68 25 69 26 70 31 71 27 72 29 73 28 74 30 75 10 76
REMARK SMILES IDX 11 77 19 78 12 79 13 80 18 81 14 83 17 84 15 85 16 86
REMARK H PARENT 75 23 53 34 20 63 23 67 12 82
REMARK Flexibility Score: inf
ROOT
ATOM      1  C   UNL A   1      36.598  23.545  25.423  1.00  0.00     0.274 C 
ENDROOT
BRANCH   1   2
ATOM      2  C   UNL A   1      37.884  22.748  25.602  1.00  0.00     0.275 C 
BRANCH   2   3
ATOM      3  O   UNL A   1      38.729  23.271  26.649  1.00  0.00    -0.458 OA
BRANCH   3   4
ATOM      4  C   UNL A   1      39.776  24.128  26.659  1.00  0.00     0.338 C 
ATOM      5  O   UNL A   1      40.692  23.902  25.868  1.00  0.00    -0.246 OA
BRANCH   4   6
ATOM      6  C   UNL A   1      39.981  25.290  27.602  1.00  0.00     0.060 A 
ATOM      7  C   UNL A   1      40.818  26.386  27.440  1.00  0.00     0.016 A 
ATOM      8  C   UNL A   1      39.224  25.268  28.794  1.00  0.00     0.016 A 
ATOM      9  C   UNL A   1      40.806  27.450  28.376  1.00  0.00     0.010 A 
ATOM     10  C   UNL A   1      39.139  26.361  29.684  1.00  0.00     0.010 A 
ATOM     11  C   UNL A   1      39.915  27.493  29.468  1.00  0.00    -0.014 A 
BRANCH  11  12
ATOM     12  C   UNL A   1      40.048  28.602  30.465  1.00  0.00     0.031 A 
ATOM     13  C   UNL A   1      38.979  29.637  30.443  1.00  0.00     0.074 A 
ATOM     14  C   UNL A   1      41.031  28.759  31.380  1.00  0.00     0.049 A 
ATOM     15  N   UNL A   1      38.723  30.571  31.314  1.00  0.00    -0.248 NA
ATOM     16  C   UNL A   1      38.151  29.666  29.229  1.00  0.00     0.031 C 
ATOM     17  C   UNL A   1      42.323  28.109  31.352  1.00  0.00     0.029 A 
ATOM     18  N   UNL A   1      41.080  29.489  32.557  1.00  0.00    -0.354 N 
ATOM     19  C   UNL A   1      37.736  31.340  30.729  1.00  0.00     0.074 A 
ATOM     20  C   UNL A   1      37.430  30.749  29.444  1.00  0.00     0.031 C 
ATOM     21  C   UNL A   1      42.929  28.266  32.540  1.00  0.00     0.029 A 
ATOM     22  C   UNL A   1      42.113  29.103  33.398  1.00  0.00     0.049 A 
ATOM     23  H   UNL A   1      40.445  30.210  32.775  1.00  0.00     0.167 HD
ATOM     24  C   UNL A   1      37.175  32.476  31.195  1.00  0.00     0.031 A 
ATOM     25  C   UNL A   1      42.374  29.391  34.696  1.00  0.00     0.031 A 
ATOM     26  C   UNL A   1      37.573  33.137  32.404  1.00  0.00     0.049 A 
ATOM     27  C   UNL A   1      41.627  30.558  35.282  1.00  0.00     0.074 A 
ATOM     28  C   UNL A   1      37.112  34.331  32.923  1.00  0.00     0.029 A 
ATOM     29  N   UNL A   1      38.557  32.676  33.269  1.00  0.00    -0.354 N 
ATOM     30  N   UNL A   1      40.643  31.243  34.753  1.00  0.00    -0.248 NA
ATOM     31  C   UNL A   1      42.098  31.075  36.576  1.00  0.00     0.031 C 
ATOM     32  C   UNL A   1      37.843  34.614  34.082  1.00  0.00     0.029 A 
ATOM     33  C   UNL A   1      38.714  33.563  34.322  1.00  0.00     0.049 A 
ATOM     34  H   UNL A   1      39.069  31.844  33.151  1.00  0.00     0.167 HD
ATOM     35  C   UNL A   1      40.429  32.311  35.607  1.00  0.00     0.074 A 
ATOM     36  C   UNL A   1      41.313  32.130  36.741  1.00  0.00     0.031 C 
ATOM     37  C   UNL A   1      39.611  33.378  35.433  1.00  0.00     0.031 A 
BRANCH  24  38
ATOM     38  C   UNL A   1      36.162  33.092  30.282  1.00  0.00    -0.014 A 
ATOM     39  C   UNL A   1      36.561  33.760  29.111  1.00  0.00     0.009 A 
ATOM     40  C   UNL A   1      34.821  33.149  30.685  1.00  0.00     0.009 A 
ATOM     41  C   UNL A   1      35.643  34.531  28.398  1.00  0.00     0.001 A 
ATOM     42  C   UNL A   1      33.901  33.892  29.950  1.00  0.00     0.001 A 
ATOM     43  C   UNL A   1      34.316  34.598  28.820  1.00  0.00     0.000 A 
ENDBRANCH  24  38
BRANCH  25  44
ATOM     44  C   UNL A   1      43.393  28.659  35.527  1.00  0.00    -0.014 A 
ATOM     45  C   UNL A   1      44.726  29.122  35.585  1.00  0.00     0.009 A 
ATOM     46  C   UNL A   1      43.092  27.486  36.235  1.00  0.00     0.009 A 
ATOM     47  C   UNL A   1      45.708  28.440  36.320  1.00  0.00     0.001 A 
ATOM     48  C   UNL A   1      44.057  26.839  37.018  1.00  0.00     0.001 A 
ATOM     49  C   UNL A   1      45.366  27.309  37.053  1.00  0.00     0.000 A 
ENDBRANCH  25  44
BRANCH  37  50
ATOM     50  C   UNL A   1      39.638  34.420  36.511  1.00  0.00    -0.014 A 
ATOM     51  C   UNL A   1      40.400  35.593  36.378  1.00  0.00     0.009 A 
ATOM     52  C   UNL A   1      38.886  34.221  37.677  1.00  0.00     0.009 A 
ATOM     53  C   UNL A   1      40.442  36.525  37.416  1.00  0.00     0.001 A 
ATOM     54  C   UNL A   1      38.907  35.169  38.699  1.00  0.00     0.001 A 
ATOM     55  C   UNL A   1      39.693  36.313  38.573  1.00  0.00     0.000 A 
ENDBRANCH  37  50
ENDBRANCH  11  12
ENDBRANCH   4   6
ENDBRANCH   3   4
ENDBRANCH   2   3
ENDBRANCH   1   2
BRANCH   1  56
ATOM     56  O   UNL A   1      35.495  22.651  25.273  1.00  0.00    -0.457 OA
BRANCH  56  57
ATOM     57  C   UNL A   1      34.803  22.733  24.088  1.00  0.00     0.370 C 
ATOM     58  O   UNL A   1      35.316  22.881  22.995  1.00  0.00    -0.245 OA
BRANCH  57  59
ATOM     59  C   UNL A   1      33.305  22.607  24.403  1.00  0.00     0.328 C 
BRANCH  59  60
ATOM     60  N   UNL A   1      32.547  23.873  24.318  1.00  0.00    -0.310 N 
ATOM     61  C   UNL A   1      32.442  24.491  25.634  1.00  0.00     0.325 C 
ATOM     62  C   UNL A   1      32.876  24.863  23.272  1.00  0.00     0.325 C 
ATOM     63  H   UNL A   1      31.643  23.549  23.974  1.00  0.00     0.349 HD
ATOM     64  C   UNL A   1      33.480  25.584  25.934  1.00  0.00     0.324 C 
ATOM     65  C   UNL A   1      33.776  26.094  23.642  1.00  0.00     0.324 C 
ATOM     66  N   UNL A   1      33.586  26.669  24.975  1.00  0.00    -0.322 N 
ATOM     67  H   UNL A   1      34.424  27.224  25.144  1.00  0.00     0.348 HD
BRANCH  66  68
ATOM     68  C   UNL A   1      32.603  27.743  25.159  1.00  0.00     0.299 C 
BRANCH  68  69
ATOM     69  C   UNL A   1      33.055  28.963  25.925  1.00  0.00     0.008 A 
ATOM     70  C   UNL A   1      34.246  28.968  26.653  1.00  0.00     0.009 A 
ATOM     71  C   UNL A   1      32.245  30.099  25.978  1.00  0.00     0.030 A 
ATOM     72  C   UNL A   1      34.577  30.008  27.515  1.00  0.00     0.002 A 
ATOM     73  C   UNL A   1      32.585  31.159  26.819  1.00  0.00     0.041 A 
ATOM     74  C   UNL A   1      33.732  31.105  27.608  1.00  0.00     0.020 A 
ATOM     75  Cl  UNL A   1      31.550  32.527  26.912  1.00  0.00    -0.084 Cl
ENDBRANCH  68  69
ENDBRANCH  66  68
ENDBRANCH  59  60
BRANCH  59  76
ATOM     76  C   UNL A   1      32.623  21.512  23.605  1.00  0.00     0.046 A 
ATOM     77  C   UNL A   1      31.992  21.620  22.379  1.00  0.00     0.094 A 
ATOM     78  C   UNL A   1      32.616  20.102  23.916  1.00  0.00     0.009 A 
ATOM     79  N   UNL A   1      31.841  20.360  21.859  1.00  0.00    -0.361 N 
ATOM     80  C   UNL A   1      32.326  19.420  22.737  1.00  0.00     0.049 A 
ATOM     81  C   UNL A   1      32.920  19.328  25.052  1.00  0.00     0.014 A 
ATOM     82  H   UNL A   1      31.443  20.157  20.983  1.00  0.00     0.166 HD
ATOM     83  C   UNL A   1      32.531  18.040  22.593  1.00  0.00     0.065 A 
ATOM     84  C   UNL A   1      33.133  17.951  24.941  1.00  0.00     0.040 A 
ATOM     85  C   UNL A   1      32.985  17.337  23.709  1.00  0.00     0.125 A 
ATOM     86  F   UNL A   1      33.255  16.028  23.597  1.00  0.00    -0.207 F 
ENDBRANCH  59  76
ENDBRANCH  57  59
ENDBRANCH  56  57
ENDBRANCH   1  56
TORSDOF 15
ENDMDL
