MODEL 1
REMARK VINA RESULT:     -11.6      0.000      0.000
REMARK SMILES O=C(OCCOC(=O)[C@@H]1[C@@H](C(=O)Nc2ccc(F)c(F)c2)[C@H]2C=C[C@@H]1O2)c1ccc(-c2c3nc(c(-c4ccccc4)c4ccc([nH]4)c(-c4ccccc4)c4nc(c(-c5ccccc5)c5ccc2[nH]5)C=C4)C=C3)cc1
REMARK SMILES IDX 4 1 3 2 2 3 1 4 27 5 28 6 74 7 29 8 73 9 30 10 31 11 32 12
REMARK SMILES IDX 67 13 33 14 72 15 66 16 68 17 34 18 71 19 65 20 64 21 35 23
REMARK SMILES IDX 57 24 42 25 56 26 43 27 46 28 55 29 69 30 44 31 45 32 54 34
REMARK SMILES IDX 70 35 47 36 36 37 37 38 41 39 38 40 40 41 39 42 58 43 59 44
REMARK SMILES IDX 63 45 60 46 62 47 61 48 48 49 49 50 53 51 50 52 52 53 51 54
REMARK SMILES IDX 5 55 6 56 7 57 8 58 9 59 10 60 25 61 22 62 24 63 26 64 23 65
REMARK SMILES IDX 11 66 12 67 13 68 14 70 15 71 21 72 16 73 19 74 17 75 20 76
REMARK SMILES IDX 18 77
REMARK H PARENT 68 22 46 33 13 69
REMARK Flexibility Score: inf
ROOT
ATOM      1  C   UNL A   1      31.409  31.954  26.881  1.00  0.00     0.275 C 
ENDROOT
BRANCH   1   2
ATOM      2  O   UNL A   1      32.005  33.263  26.934  1.00  0.00    -0.458 OA
BRANCH   2   3
ATOM      3  C   UNL A   1      32.816  33.817  27.861  1.00  0.00     0.338 C 
ATOM      4  O   UNL A   1      32.526  34.926  28.312  1.00  0.00    -0.246 OA
BRANCH   3   5
ATOM      5  C   UNL A   1      34.123  33.225  28.288  1.00  0.00     0.060 A 
ATOM      6  C   UNL A   1      35.399  33.711  27.973  1.00  0.00     0.016 A 
ATOM      7  C   UNL A   1      34.040  32.076  29.095  1.00  0.00     0.016 A 
ATOM      8  C   UNL A   1      36.552  33.157  28.550  1.00  0.00     0.010 A 
ATOM      9  C   UNL A   1      35.189  31.508  29.653  1.00  0.00     0.010 A 
ATOM     10  C   UNL A   1      36.456  32.071  29.419  1.00  0.00    -0.014 A 
BRANCH  10  11
ATOM     11  C   UNL A   1      37.664  31.436  29.999  1.00  0.00     0.031 A 
ATOM     12  C   UNL A   1      38.096  31.910  31.349  1.00  0.00     0.074 A 
ATOM     13  C   UNL A   1      38.380  30.493  29.351  1.00  0.00     0.049 A 
ATOM     14  N   UNL A   1      39.063  31.463  32.102  1.00  0.00    -0.248 NA
ATOM     15  C   UNL A   1      37.316  33.008  31.943  1.00  0.00     0.031 C 
ATOM     16  C   UNL A   1      38.037  29.890  28.068  1.00  0.00     0.029 A 
ATOM     17  N   UNL A   1      39.574  29.893  29.672  1.00  0.00    -0.354 N 
ATOM     18  C   UNL A   1      38.954  32.175  33.285  1.00  0.00     0.074 A 
ATOM     19  C   UNL A   1      37.929  33.174  33.100  1.00  0.00     0.031 C 
ATOM     20  C   UNL A   1      39.044  29.104  27.650  1.00  0.00     0.029 A 
ATOM     21  C   UNL A   1      40.071  29.075  28.679  1.00  0.00     0.049 A 
ATOM     22  H   UNL A   1      40.033  30.033  30.532  1.00  0.00     0.167 HD
ATOM     23  C   UNL A   1      39.597  31.960  34.452  1.00  0.00     0.031 A 
ATOM     24  C   UNL A   1      41.209  28.356  28.626  1.00  0.00     0.031 A 
ATOM     25  C   UNL A   1      40.653  31.006  34.607  1.00  0.00     0.049 A 
ATOM     26  C   UNL A   1      42.042  28.271  29.876  1.00  0.00     0.074 A 
ATOM     27  C   UNL A   1      41.381  30.693  35.737  1.00  0.00     0.029 A 
ATOM     28  N   UNL A   1      41.155  30.230  33.570  1.00  0.00    -0.354 N 
ATOM     29  N   UNL A   1      41.843  28.848  31.037  1.00  0.00    -0.248 NA
ATOM     30  C   UNL A   1      43.205  27.375  29.838  1.00  0.00     0.031 C 
ATOM     31  C   UNL A   1      42.368  29.772  35.367  1.00  0.00     0.029 A 
ATOM     32  C   UNL A   1      42.214  29.467  34.022  1.00  0.00     0.049 A 
ATOM     33  H   UNL A   1      40.808  30.225  32.648  1.00  0.00     0.167 HD
ATOM     34  C   UNL A   1      42.798  28.319  31.892  1.00  0.00     0.074 A 
ATOM     35  C   UNL A   1      43.593  27.394  31.106  1.00  0.00     0.031 C 
ATOM     36  C   UNL A   1      42.981  28.551  33.216  1.00  0.00     0.031 A 
BRANCH  23  37
ATOM     37  C   UNL A   1      39.136  32.796  35.607  1.00  0.00    -0.014 A 
ATOM     38  C   UNL A   1      39.807  33.989  35.938  1.00  0.00     0.009 A 
ATOM     39  C   UNL A   1      38.112  32.336  36.442  1.00  0.00     0.009 A 
ATOM     40  C   UNL A   1      39.508  34.665  37.120  1.00  0.00     0.001 A 
ATOM     41  C   UNL A   1      37.794  33.033  37.611  1.00  0.00     0.001 A 
ATOM     42  C   UNL A   1      38.503  34.183  37.958  1.00  0.00     0.000 A 
ENDBRANCH  23  37
BRANCH  24  43
ATOM     43  C   UNL A   1      41.579  27.575  27.411  1.00  0.00    -0.014 A 
ATOM     44  C   UNL A   1      41.166  26.241  27.263  1.00  0.00     0.009 A 
ATOM     45  C   UNL A   1      42.392  28.139  26.415  1.00  0.00     0.009 A 
ATOM     46  C   UNL A   1      41.590  25.478  26.170  1.00  0.00     0.001 A 
ATOM     47  C   UNL A   1      42.799  27.380  25.312  1.00  0.00     0.001 A 
ATOM     48  C   UNL A   1      42.408  26.047  25.196  1.00  0.00     0.000 A 
ENDBRANCH  24  43
BRANCH  36  49
ATOM     49  C   UNL A   1      44.043  27.749  33.909  1.00  0.00    -0.014 A 
ATOM     50  C   UNL A   1      45.349  28.235  34.061  1.00  0.00     0.009 A 
ATOM     51  C   UNL A   1      43.704  26.506  34.470  1.00  0.00     0.009 A 
ATOM     52  C   UNL A   1      46.305  27.476  34.739  1.00  0.00     0.001 A 
ATOM     53  C   UNL A   1      44.652  25.768  35.176  1.00  0.00     0.001 A 
ATOM     54  C   UNL A   1      45.954  26.250  35.303  1.00  0.00     0.000 A 
ENDBRANCH  36  49
ENDBRANCH  10  11
ENDBRANCH   3   5
ENDBRANCH   2   3
ENDBRANCH   1   2
BRANCH   1  55
ATOM     55  C   UNL A   1      32.220  30.906  26.120  1.00  0.00     0.274 C 
BRANCH  55  56
ATOM     56  O   UNL A   1      31.842  29.555  26.435  1.00  0.00    -0.462 OA
BRANCH  56  57
ATOM     57  C   UNL A   1      32.848  28.649  26.529  1.00  0.00     0.312 C 
ATOM     58  O   UNL A   1      33.921  28.871  27.094  1.00  0.00    -0.252 OA
BRANCH  57  59
ATOM     59  C   UNL A   1      32.563  27.323  25.859  1.00  0.00     0.147 C 
ATOM     60  C   UNL A   1      31.305  27.459  24.976  1.00  0.00     0.129 C 
ATOM     61  C   UNL A   1      32.085  26.233  26.808  1.00  0.00     0.157 C 
ATOM     62  C   UNL A   1      30.416  26.298  25.440  1.00  0.00     0.155 C 
ATOM     63  C   UNL A   1      32.080  24.910  26.103  1.00  0.00     0.004 C 
ATOM     64  O   UNL A   1      30.649  26.476  26.856  1.00  0.00    -0.365 OA
ATOM     65  C   UNL A   1      31.038  24.947  25.265  1.00  0.00     0.004 C 
BRANCH  60  66
ATOM     66  C   UNL A   1      31.532  27.409  23.483  1.00  0.00     0.231 C 
ATOM     67  O   UNL A   1      32.441  26.754  22.977  1.00  0.00    -0.274 OA
ATOM     68  N   UNL A   1      30.567  27.979  22.684  1.00  0.00    -0.326 N 
ATOM     69  H   UNL A   1      30.560  27.719  21.733  1.00  0.00     0.169 HD
BRANCH  68  70
ATOM     70  C   UNL A   1      29.590  28.896  23.099  1.00  0.00     0.044 A 
ATOM     71  C   UNL A   1      28.224  28.611  22.946  1.00  0.00     0.029 A 
ATOM     72  C   UNL A   1      29.995  30.136  23.579  1.00  0.00     0.068 A 
ATOM     73  C   UNL A   1      27.271  29.613  23.111  1.00  0.00     0.044 A 
ATOM     74  C   UNL A   1      29.034  31.130  23.751  1.00  0.00     0.160 A 
ATOM     75  C   UNL A   1      27.688  30.880  23.492  1.00  0.00     0.158 A 
ATOM     76  F   UNL A   1      29.427  32.355  24.122  1.00  0.00    -0.204 F 
ATOM     77  F   UNL A   1      26.785  31.862  23.594  1.00  0.00    -0.204 F 
ENDBRANCH  68  70
ENDBRANCH  60  66
ENDBRANCH  57  59
ENDBRANCH  56  57
ENDBRANCH  55  56
ENDBRANCH   1  55
TORSDOF 13
ENDMDL
MODEL 2
REMARK VINA RESULT:     -11.5      5.758     10.085
REMARK SMILES O=C(OCCOC(=O)[C@@H]1[C@@H](C(=O)Nc2ccc(F)c(F)c2)[C@H]2C=C[C@@H]1O2)c1ccc(-c2c3nc(c(-c4ccccc4)c4ccc([nH]4)c(-c4ccccc4)c4nc(c(-c5ccccc5)c5ccc2[nH]5)C=C4)C=C3)cc1
REMARK SMILES IDX 4 1 3 2 2 3 1 4 27 5 28 6 74 7 29 8 73 9 30 10 31 11 32 12
REMARK SMILES IDX 67 13 33 14 72 15 66 16 68 17 34 18 71 19 65 20 64 21 35 23
REMARK SMILES IDX 57 24 42 25 56 26 43 27 46 28 55 29 69 30 44 31 45 32 54 34
REMARK SMILES IDX 70 35 47 36 36 37 37 38 41 39 38 40 40 41 39 42 58 43 59 44
REMARK SMILES IDX 63 45 60 46 62 47 61 48 48 49 49 50 53 51 50 52 52 53 51 54
REMARK SMILES IDX 5 55 6 56 7 57 8 58 9 59 10 60 25 61 22 62 24 63 26 64 23 65
REMARK SMILES IDX 11 66 12 67 13 68 14 70 15 71 21 72 16 73 19 74 17 75 20 76
REMARK SMILES IDX 18 77
REMARK H PARENT 68 22 46 33 13 69
REMARK Flexibility Score: inf
ROOT
ATOM      1  C   UNL A   1      38.336  19.890  25.001  1.00  0.00     0.275 C 
ENDROOT
BRANCH   1   2
ATOM      2  O   UNL A   1      39.355  19.233  25.775  1.00  0.00    -0.458 OA
BRANCH   2   3
ATOM      3  C   UNL A   1      40.670  19.516  25.908  1.00  0.00     0.338 C 
ATOM      4  O   UNL A   1      41.485  18.600  25.795  1.00  0.00    -0.246 OA
BRANCH   3   5
ATOM      5  C   UNL A   1      41.199  20.857  26.313  1.00  0.00     0.060 A 
ATOM      6  C   UNL A   1      41.953  21.728  25.518  1.00  0.00     0.016 A 
ATOM      7  C   UNL A   1      40.885  21.268  27.621  1.00  0.00     0.016 A 
ATOM      8  C   UNL A   1      42.272  23.023  25.955  1.00  0.00     0.010 A 
ATOM      9  C   UNL A   1      41.220  22.550  28.069  1.00  0.00     0.010 A 
ATOM     10  C   UNL A   1      41.881  23.456  27.222  1.00  0.00    -0.014 A 
BRANCH  10  11
ATOM     11  C   UNL A   1      42.251  24.801  27.727  1.00  0.00     0.031 A 
ATOM     12  C   UNL A   1      43.693  25.031  28.049  1.00  0.00     0.074 A 
ATOM     13  C   UNL A   1      41.349  25.784  27.925  1.00  0.00     0.049 A 
ATOM     14  N   UNL A   1      44.282  26.132  28.424  1.00  0.00    -0.248 NA
ATOM     15  C   UNL A   1      44.595  23.877  27.895  1.00  0.00     0.031 C 
ATOM     16  C   UNL A   1      39.930  25.724  27.590  1.00  0.00     0.029 A 
ATOM     17  N   UNL A   1      41.485  27.029  28.491  1.00  0.00    -0.354 N 
ATOM     18  C   UNL A   1      45.630  25.818  28.476  1.00  0.00     0.074 A 
ATOM     19  C   UNL A   1      45.757  24.401  28.235  1.00  0.00     0.031 C 
ATOM     20  C   UNL A   1      39.303  26.815  28.060  1.00  0.00     0.029 A 
ATOM     21  C   UNL A   1      40.291  27.700  28.655  1.00  0.00     0.049 A 
ATOM     22  H   UNL A   1      42.355  27.407  28.756  1.00  0.00     0.167 HD
ATOM     23  C   UNL A   1      46.677  26.656  28.628  1.00  0.00     0.031 A 
ATOM     24  C   UNL A   1      40.034  28.909  29.191  1.00  0.00     0.031 A 
ATOM     25  C   UNL A   1      46.537  28.049  28.924  1.00  0.00     0.049 A 
ATOM     26  C   UNL A   1      41.208  29.779  29.551  1.00  0.00     0.074 A 
ATOM     27  C   UNL A   1      47.520  29.002  29.099  1.00  0.00     0.029 A 
ATOM     28  N   UNL A   1      45.317  28.680  29.124  1.00  0.00    -0.354 N 
ATOM     29  N   UNL A   1      42.489  29.511  29.459  1.00  0.00    -0.248 NA
ATOM     30  C   UNL A   1      40.907  31.143  30.006  1.00  0.00     0.031 C 
ATOM     31  C   UNL A   1      46.894  30.198  29.470  1.00  0.00     0.029 A 
ATOM     32  C   UNL A   1      45.520  30.004  29.464  1.00  0.00     0.049 A 
ATOM     33  H   UNL A   1      44.436  28.248  29.037  1.00  0.00     0.167 HD
ATOM     34  C   UNL A   1      43.147  30.694  29.759  1.00  0.00     0.074 A 
ATOM     35  C   UNL A   1      42.121  31.675  30.060  1.00  0.00     0.031 C 
ATOM     36  C   UNL A   1      44.477  30.956  29.752  1.00  0.00     0.031 A 
BRANCH  23  37
ATOM     37  C   UNL A   1      48.031  26.032  28.469  1.00  0.00    -0.014 A 
ATOM     38  C   UNL A   1      48.754  25.597  29.596  1.00  0.00     0.009 A 
ATOM     39  C   UNL A   1      48.641  25.988  27.210  1.00  0.00     0.009 A 
ATOM     40  C   UNL A   1      50.084  25.199  29.473  1.00  0.00     0.001 A 
ATOM     41  C   UNL A   1      49.964  25.560  27.086  1.00  0.00     0.001 A 
ATOM     42  C   UNL A   1      50.690  25.185  28.218  1.00  0.00     0.000 A 
ENDBRANCH  23  37
BRANCH  24  43
ATOM     43  C   UNL A   1      38.640  29.422  29.319  1.00  0.00    -0.014 A 
ATOM     44  C   UNL A   1      37.895  29.191  30.486  1.00  0.00     0.009 A 
ATOM     45  C   UNL A   1      38.026  30.102  28.255  1.00  0.00     0.009 A 
ATOM     46  C   UNL A   1      36.557  29.590  30.571  1.00  0.00     0.001 A 
ATOM     47  C   UNL A   1      36.692  30.517  28.350  1.00  0.00     0.001 A 
ATOM     48  C   UNL A   1      35.956  30.251  29.503  1.00  0.00     0.000 A 
ENDBRANCH  24  43
BRANCH  36  49
ATOM     49  C   UNL A   1      44.896  32.372  30.022  1.00  0.00    -0.014 A 
ATOM     50  C   UNL A   1      45.229  32.806  31.312  1.00  0.00     0.009 A 
ATOM     51  C   UNL A   1      45.012  33.267  28.946  1.00  0.00     0.009 A 
ATOM     52  C   UNL A   1      45.644  34.122  31.524  1.00  0.00     0.001 A 
ATOM     53  C   UNL A   1      45.461  34.570  29.156  1.00  0.00     0.001 A 
ATOM     54  C   UNL A   1      45.768  34.998  30.446  1.00  0.00     0.000 A 
ENDBRANCH  36  49
ENDBRANCH  10  11
ENDBRANCH   3   5
ENDBRANCH   2   3
ENDBRANCH   1   2
BRANCH   1  55
ATOM     55  C   UNL A   1      38.071  21.345  25.384  1.00  0.00     0.274 C 
BRANCH  55  56
ATOM     56  O   UNL A   1      36.689  21.723  25.264  1.00  0.00    -0.462 OA
BRANCH  56  57
ATOM     57  C   UNL A   1      36.382  23.008  25.572  1.00  0.00     0.312 C 
ATOM     58  O   UNL A   1      37.144  23.773  26.167  1.00  0.00    -0.252 OA
BRANCH  57  59
ATOM     59  C   UNL A   1      34.999  23.444  25.140  1.00  0.00     0.147 C 
ATOM     60  C   UNL A   1      34.195  22.208  24.687  1.00  0.00     0.129 C 
ATOM     61  C   UNL A   1      34.971  24.249  23.849  1.00  0.00     0.157 C 
ATOM     62  C   UNL A   1      33.681  22.607  23.297  1.00  0.00     0.155 C 
ATOM     63  C   UNL A   1      33.609  24.844  23.649  1.00  0.00     0.004 C 
ATOM     64  O   UNL A   1      34.917  23.201  22.836  1.00  0.00    -0.365 OA
ATOM     65  C   UNL A   1      32.815  23.828  23.295  1.00  0.00     0.004 C 
BRANCH  60  66
ATOM     66  C   UNL A   1      33.056  21.788  25.587  1.00  0.00     0.231 C 
ATOM     67  O   UNL A   1      32.565  22.543  26.424  1.00  0.00    -0.274 OA
ATOM     68  N   UNL A   1      32.457  20.578  25.315  1.00  0.00    -0.326 N 
ATOM     69  H   UNL A   1      31.566  20.422  25.704  1.00  0.00     0.169 HD
BRANCH  68  70
ATOM     70  C   UNL A   1      33.000  19.548  24.533  1.00  0.00     0.044 A 
ATOM     71  C   UNL A   1      32.335  19.089  23.386  1.00  0.00     0.029 A 
ATOM     72  C   UNL A   1      34.162  18.920  24.964  1.00  0.00     0.068 A 
ATOM     73  C   UNL A   1      32.730  17.907  22.765  1.00  0.00     0.044 A 
ATOM     74  C   UNL A   1      34.558  17.743  24.332  1.00  0.00     0.160 A 
ATOM     75  C   UNL A   1      33.833  17.225  23.260  1.00  0.00     0.158 A 
ATOM     76  F   UNL A   1      35.622  17.079  24.801  1.00  0.00    -0.204 F 
ATOM     77  F   UNL A   1      34.182  16.058  22.707  1.00  0.00    -0.204 F 
ENDBRANCH  68  70
ENDBRANCH  60  66
ENDBRANCH  57  59
ENDBRANCH  56  57
ENDBRANCH  55  56
ENDBRANCH   1  55
TORSDOF 13
ENDMDL
MODEL 3
REMARK VINA RESULT:     -11.5      5.703      9.232
REMARK SMILES O=C(OCCOC(=O)[C@@H]1[C@@H](C(=O)Nc2ccc(F)c(F)c2)[C@H]2C=C[C@@H]1O2)c1ccc(-c2c3nc(c(-c4ccccc4)c4ccc([nH]4)c(-c4ccccc4)c4nc(c(-c5ccccc5)c5ccc2[nH]5)C=C4)C=C3)cc1
REMARK SMILES IDX 4 1 3 2 2 3 1 4 27 5 28 6 74 7 29 8 73 9 30 10 31 11 32 12
REMARK SMILES IDX 67 13 33 14 72 15 66 16 68 17 34 18 71 19 65 20 64 21 35 23
REMARK SMILES IDX 57 24 42 25 56 26 43 27 46 28 55 29 69 30 44 31 45 32 54 34
REMARK SMILES IDX 70 35 47 36 36 37 37 38 41 39 38 40 40 41 39 42 58 43 59 44
REMARK SMILES IDX 63 45 60 46 62 47 61 48 48 49 49 50 53 51 50 52 52 53 51 54
REMARK SMILES IDX 5 55 6 56 7 57 8 58 9 59 10 60 25 61 22 62 24 63 26 64 23 65
REMARK SMILES IDX 11 66 12 67 13 68 14 70 15 71 21 72 16 73 19 74 17 75 20 76
REMARK SMILES IDX 18 77
REMARK H PARENT 68 22 46 33 13 69
REMARK Flexibility Score: inf
ROOT
ATOM      1  C   UNL A   1      38.149  19.863  24.995  1.00  0.00     0.275 C 
ENDROOT
BRANCH   1   2
ATOM      2  O   UNL A   1      39.194  19.222  25.746  1.00  0.00    -0.458 OA
BRANCH   2   3
ATOM      3  C   UNL A   1      40.483  19.584  25.937  1.00  0.00     0.338 C 
ATOM      4  O   UNL A   1      41.365  18.747  25.745  1.00  0.00    -0.246 OA
BRANCH   3   5
ATOM      5  C   UNL A   1      40.904  20.909  26.493  1.00  0.00     0.060 A 
ATOM      6  C   UNL A   1      40.703  21.362  27.803  1.00  0.00     0.016 A 
ATOM      7  C   UNL A   1      41.578  21.761  25.600  1.00  0.00     0.016 A 
ATOM      8  C   UNL A   1      41.270  22.564  28.253  1.00  0.00     0.010 A 
ATOM      9  C   UNL A   1      42.125  22.970  26.039  1.00  0.00     0.010 A 
ATOM     10  C   UNL A   1      42.012  23.364  27.384  1.00  0.00    -0.014 A 
BRANCH  10  11
ATOM     11  C   UNL A   1      42.576  24.663  27.822  1.00  0.00     0.031 A 
ATOM     12  C   UNL A   1      41.621  25.806  27.958  1.00  0.00     0.074 A 
ATOM     13  C   UNL A   1      43.890  24.847  28.067  1.00  0.00     0.049 A 
ATOM     14  N   UNL A   1      41.846  27.013  28.398  1.00  0.00    -0.248 NA
ATOM     15  C   UNL A   1      40.222  25.544  27.579  1.00  0.00     0.031 C 
ATOM     16  C   UNL A   1      44.918  23.813  28.044  1.00  0.00     0.029 A 
ATOM     17  N   UNL A   1      44.600  25.989  28.356  1.00  0.00    -0.354 N 
ATOM     18  C   UNL A   1      40.604  27.623  28.420  1.00  0.00     0.074 A 
ATOM     19  C   UNL A   1      39.658  26.712  27.819  1.00  0.00     0.031 C 
ATOM     20  C   UNL A   1      46.132  24.372  28.183  1.00  0.00     0.029 A 
ATOM     21  C   UNL A   1      45.965  25.801  28.396  1.00  0.00     0.049 A 
ATOM     22  H   UNL A   1      44.173  26.861  28.519  1.00  0.00     0.167 HD
ATOM     23  C   UNL A   1      40.265  28.809  28.969  1.00  0.00     0.031 A 
ATOM     24  C   UNL A   1      46.963  26.678  28.618  1.00  0.00     0.031 A 
ATOM     25  C   UNL A   1      41.219  29.730  29.510  1.00  0.00     0.049 A 
ATOM     26  C   UNL A   1      46.587  28.072  29.043  1.00  0.00     0.074 A 
ATOM     27  C   UNL A   1      41.002  30.960  30.095  1.00  0.00     0.029 A 
ATOM     28  N   UNL A   1      42.592  29.522  29.492  1.00  0.00    -0.354 N 
ATOM     29  N   UNL A   1      45.392  28.592  29.193  1.00  0.00    -0.248 NA
ATOM     30  C   UNL A   1      47.689  28.972  29.410  1.00  0.00     0.031 C 
ATOM     31  C   UNL A   1      42.251  31.527  30.375  1.00  0.00     0.029 A 
ATOM     32  C   UNL A   1      43.242  30.622  30.020  1.00  0.00     0.049 A 
ATOM     33  H   UNL A   1      43.037  28.711  29.155  1.00  0.00     0.167 HD
ATOM     34  C   UNL A   1      45.591  29.844  29.754  1.00  0.00     0.074 A 
ATOM     35  C   UNL A   1      47.025  30.015  29.893  1.00  0.00     0.031 C 
ATOM     36  C   UNL A   1      44.670  30.758  30.150  1.00  0.00     0.031 A 
BRANCH  23  37
ATOM     37  C   UNL A   1      38.798  29.120  28.981  1.00  0.00    -0.014 A 
ATOM     38  C   UNL A   1      38.195  29.761  27.882  1.00  0.00     0.009 A 
ATOM     39  C   UNL A   1      38.041  28.887  30.134  1.00  0.00     0.009 A 
ATOM     40  C   UNL A   1      36.884  30.225  27.967  1.00  0.00     0.001 A 
ATOM     41  C   UNL A   1      36.717  29.327  30.205  1.00  0.00     0.001 A 
ATOM     42  C   UNL A   1      36.147  30.011  29.130  1.00  0.00     0.000 A 
ENDBRANCH  23  37
BRANCH  24  43
ATOM     43  C   UNL A   1      48.393  26.261  28.559  1.00  0.00    -0.014 A 
ATOM     44  C   UNL A   1      49.062  25.829  29.715  1.00  0.00     0.009 A 
ATOM     45  C   UNL A   1      49.115  26.342  27.358  1.00  0.00     0.009 A 
ATOM     46  C   UNL A   1      50.428  25.526  29.681  1.00  0.00     0.001 A 
ATOM     47  C   UNL A   1      50.478  26.020  27.321  1.00  0.00     0.001 A 
ATOM     48  C   UNL A   1      51.135  25.624  28.485  1.00  0.00     0.000 A 
ENDBRANCH  24  43
BRANCH  36  49
ATOM     49  C   UNL A   1      45.184  31.996  30.825  1.00  0.00    -0.014 A 
ATOM     50  C   UNL A   1      45.500  33.152  30.098  1.00  0.00     0.009 A 
ATOM     51  C   UNL A   1      45.294  32.015  32.225  1.00  0.00     0.009 A 
ATOM     52  C   UNL A   1      45.945  34.297  30.760  1.00  0.00     0.001 A 
ATOM     53  C   UNL A   1      45.705  33.172  32.886  1.00  0.00     0.001 A 
ATOM     54  C   UNL A   1      46.039  34.309  32.151  1.00  0.00     0.000 A 
ENDBRANCH  36  49
ENDBRANCH  10  11
ENDBRANCH   3   5
ENDBRANCH   2   3
ENDBRANCH   1   2
BRANCH   1  55
ATOM     55  C   UNL A   1      37.891  21.324  25.364  1.00  0.00     0.274 C 
BRANCH  55  56
ATOM     56  O   UNL A   1      36.536  21.740  25.126  1.00  0.00    -0.462 OA
BRANCH  56  57
ATOM     57  C   UNL A   1      36.218  23.007  25.492  1.00  0.00     0.312 C 
ATOM     58  O   UNL A   1      36.968  23.747  26.132  1.00  0.00    -0.252 OA
BRANCH  57  59
ATOM     59  C   UNL A   1      34.836  23.455  25.067  1.00  0.00     0.147 C 
ATOM     60  C   UNL A   1      34.033  22.232  24.579  1.00  0.00     0.129 C 
ATOM     61  C   UNL A   1      34.814  24.293  23.796  1.00  0.00     0.157 C 
ATOM     62  C   UNL A   1      33.525  22.666  23.197  1.00  0.00     0.155 C 
ATOM     63  C   UNL A   1      33.453  24.894  23.606  1.00  0.00     0.004 C 
ATOM     64  O   UNL A   1      34.763  23.272  22.757  1.00  0.00    -0.365 OA
ATOM     65  C   UNL A   1      32.660  23.888  23.223  1.00  0.00     0.004 C 
BRANCH  60  66
ATOM     66  C   UNL A   1      32.891  21.789  25.464  1.00  0.00     0.231 C 
ATOM     67  O   UNL A   1      32.352  22.545  26.270  1.00  0.00    -0.274 OA
ATOM     68  N   UNL A   1      32.346  20.551  25.209  1.00  0.00    -0.326 N 
ATOM     69  H   UNL A   1      31.452  20.369  25.581  1.00  0.00     0.169 HD
BRANCH  68  70
ATOM     70  C   UNL A   1      32.945  19.524  24.466  1.00  0.00     0.044 A 
ATOM     71  C   UNL A   1      32.303  18.977  23.344  1.00  0.00     0.029 A 
ATOM     72  C   UNL A   1      34.147  18.987  24.912  1.00  0.00     0.068 A 
ATOM     73  C   UNL A   1      32.767  17.797  22.769  1.00  0.00     0.044 A 
ATOM     74  C   UNL A   1      34.611  17.811  24.326  1.00  0.00     0.160 A 
ATOM     75  C   UNL A   1      33.912  17.205  23.283  1.00  0.00     0.158 A 
ATOM     76  F   UNL A   1      35.716  17.234  24.813  1.00  0.00    -0.204 F 
ATOM     77  F   UNL A   1      34.329  16.039  22.776  1.00  0.00    -0.204 F 
ENDBRANCH  68  70
ENDBRANCH  60  66
ENDBRANCH  57  59
ENDBRANCH  56  57
ENDBRANCH  55  56
ENDBRANCH   1  55
TORSDOF 13
ENDMDL
