MODEL 1
REMARK VINA RESULT:     -10.8      0.000      0.000
REMARK SMILES COc1ccccc1[C@@H]1CN(C(=O)Cc2csc(C)n2)C[C@H]1C(=O)OCCOC(=O)c1ccc(-c2c3nc(c(-c4ccccc4)c4ccc([nH]4)c(-c4ccccc4)c4nc(c(-c5ccccc5)c5ccc2[nH]5)C=C4)C=C3)cc1
REMARK SMILES IDX 26 1 25 2 23 3 24 4 22 5 9 6 10 7 11 8 21 9 8 10 3 11 4 12
REMARK SMILES IDX 5 13 7 14 6 15 2 16 1 17 12 18 13 19 14 20 15 21 16 22 20 23
REMARK SMILES IDX 17 24 18 25 19 26 27 27 28 28 29 29 30 30 31 31 32 32 78 33
REMARK SMILES IDX 33 34 77 35 34 36 35 37 36 38 71 39 37 40 76 41 70 42 72 43
REMARK SMILES IDX 38 44 75 45 69 46 68 47 39 49 61 50 46 51 60 52 47 53 50 54
REMARK SMILES IDX 59 55 73 56 48 57 49 58 58 60 74 61 51 62 40 63 41 64 45 65
REMARK SMILES IDX 42 66 44 67 43 68 62 69 63 70 67 71 64 72 66 73 65 74 52 75
REMARK SMILES IDX 53 76 57 77 54 78 56 79 55 80
REMARK H PARENT 72 48 50 59
REMARK Flexibility Score: inf
ROOT
ATOM      1  C   UNL A   1      31.915  29.408  26.411  1.00  0.00     0.274 C 
ENDROOT
BRANCH   1   2
ATOM      2  O   UNL A   1      31.903  29.729  25.006  1.00  0.00    -0.462 OA
BRANCH   2   3
ATOM      3  C   UNL A   1      32.588  28.870  24.214  1.00  0.00     0.311 C 
ATOM      4  O   UNL A   1      33.613  29.150  23.600  1.00  0.00    -0.252 OA
BRANCH   3   5
ATOM      5  C   UNL A   1      31.938  27.521  24.071  1.00  0.00     0.128 C 
ATOM      6  C   UNL A   1      31.045  27.265  22.842  1.00  0.00     0.058 C 
ATOM      7  C   UNL A   1      31.282  25.784  22.508  1.00  0.00     0.129 C 
ATOM      8  N   UNL A   1      32.570  25.452  23.101  1.00  0.00    -0.341 N 
ATOM      9  C   UNL A   1      33.055  26.498  23.973  1.00  0.00     0.135 C 
BRANCH   6  10
ATOM     10  C   UNL A   1      29.584  27.631  23.055  1.00  0.00    -0.000 A 
ATOM     11  C   UNL A   1      28.987  28.792  22.527  1.00  0.00     0.122 A 
ATOM     12  C   UNL A   1      27.635  29.076  22.749  1.00  0.00     0.047 A 
ATOM     13  C   UNL A   1      26.855  28.199  23.501  1.00  0.00     0.004 A 
ATOM     14  C   UNL A   1      28.776  26.763  23.806  1.00  0.00     0.008 A 
ATOM     15  C   UNL A   1      27.426  27.047  24.032  1.00  0.00     0.001 A 
BRANCH  11  16
ATOM     16  O   UNL A   1      29.780  29.718  21.901  1.00  0.00    -0.496 OA
ATOM     17  C   UNL A   1      29.202  31.018  21.833  1.00  0.00     0.278 C 
ENDBRANCH  11  16
ENDBRANCH   6  10
BRANCH   8  18
ATOM     18  C   UNL A   1      33.272  24.273  22.972  1.00  0.00     0.228 C 
ATOM     19  O   UNL A   1      34.004  24.068  22.001  1.00  0.00    -0.274 OA
BRANCH  18  20
ATOM     20  C   UNL A   1      33.123  23.236  24.064  1.00  0.00     0.157 C 
BRANCH  20  21
ATOM     21  C   UNL A   1      34.429  22.678  24.524  1.00  0.00     0.061 A 
ATOM     22  C   UNL A   1      34.802  21.350  24.631  1.00  0.00     0.091 A 
ATOM     23  N   UNL A   1      35.415  23.582  24.900  1.00  0.00    -0.246 NA
ATOM     24  S   UNL A   1      36.418  21.230  25.183  1.00  0.00    -0.127 S 
ATOM     25  C   UNL A   1      36.499  22.941  25.280  1.00  0.00     0.090 A 
ATOM     26  C   UNL A   1      37.737  23.606  25.769  1.00  0.00     0.079 C 
ENDBRANCH  20  21
ENDBRANCH  18  20
ENDBRANCH   8  18
ENDBRANCH   3   5
ENDBRANCH   2   3
ENDBRANCH   1   2
BRANCH   1  27
ATOM     27  C   UNL A   1      32.601  30.509  27.214  1.00  0.00     0.275 C 
BRANCH  27  28
ATOM     28  O   UNL A   1      34.024  30.295  27.225  1.00  0.00    -0.458 OA
BRANCH  28  29
ATOM     29  C   UNL A   1      34.700  30.905  28.226  1.00  0.00     0.338 C 
ATOM     30  O   UNL A   1      34.352  31.884  28.864  1.00  0.00    -0.246 OA
BRANCH  29  31
ATOM     31  C   UNL A   1      36.006  30.247  28.416  1.00  0.00     0.060 A 
ATOM     32  C   UNL A   1      36.374  29.703  29.647  1.00  0.00     0.016 A 
ATOM     33  C   UNL A   1      36.910  30.247  27.354  1.00  0.00     0.016 A 
ATOM     34  C   UNL A   1      37.666  29.206  29.830  1.00  0.00     0.010 A 
ATOM     35  C   UNL A   1      38.181  29.695  27.524  1.00  0.00     0.010 A 
ATOM     36  C   UNL A   1      38.587  29.195  28.774  1.00  0.00    -0.014 A 
BRANCH  36  37
ATOM     37  C   UNL A   1      39.978  28.703  28.967  1.00  0.00     0.031 A 
ATOM     38  C   UNL A   1      41.044  29.638  29.477  1.00  0.00     0.074 A 
ATOM     39  C   UNL A   1      40.306  27.430  28.669  1.00  0.00     0.049 A 
ATOM     40  N   UNL A   1      42.342  29.464  29.530  1.00  0.00    -0.248 NA
ATOM     41  C   UNL A   1      40.594  30.945  29.986  1.00  0.00     0.031 C 
ATOM     42  C   UNL A   1      39.378  26.394  28.214  1.00  0.00     0.029 A 
ATOM     43  N   UNL A   1      41.523  26.792  28.701  1.00  0.00    -0.354 N 
ATOM     44  C   UNL A   1      42.866  30.657  30.014  1.00  0.00     0.074 A 
ATOM     45  C   UNL A   1      41.747  31.545  30.250  1.00  0.00     0.031 C 
ATOM     46  C   UNL A   1      40.053  25.249  28.028  1.00  0.00     0.029 A 
ATOM     47  C   UNL A   1      41.471  25.487  28.275  1.00  0.00     0.049 A 
ATOM     48  H   UNL A   1      42.354  27.230  29.000  1.00  0.00     0.167 HD
ATOM     49  C   UNL A   1      44.161  30.986  30.234  1.00  0.00     0.031 A 
ATOM     50  C   UNL A   1      42.455  24.593  28.062  1.00  0.00     0.031 A 
ATOM     51  C   UNL A   1      45.274  30.093  30.050  1.00  0.00     0.049 A 
ATOM     52  C   UNL A   1      43.886  24.997  28.277  1.00  0.00     0.074 A 
ATOM     53  C   UNL A   1      46.617  30.332  30.288  1.00  0.00     0.029 A 
ATOM     54  N   UNL A   1      45.175  28.790  29.594  1.00  0.00    -0.354 N 
ATOM     55  N   UNL A   1      44.367  26.136  28.710  1.00  0.00    -0.248 NA
ATOM     56  C   UNL A   1      44.911  23.992  27.956  1.00  0.00     0.031 C 
ATOM     57  C   UNL A   1      47.336  29.184  29.937  1.00  0.00     0.029 A 
ATOM     58  C   UNL A   1      46.434  28.218  29.523  1.00  0.00     0.049 A 
ATOM     59  H   UNL A   1      44.334  28.337  29.354  1.00  0.00     0.167 HD
ATOM     60  C   UNL A   1      45.747  25.979  28.730  1.00  0.00     0.074 A 
ATOM     61  C   UNL A   1      46.026  24.630  28.283  1.00  0.00     0.031 C 
ATOM     62  C   UNL A   1      46.698  26.875  29.083  1.00  0.00     0.031 A 
BRANCH  49  63
ATOM     63  C   UNL A   1      44.462  32.392  30.666  1.00  0.00    -0.014 A 
ATOM     64  C   UNL A   1      44.618  33.431  29.735  1.00  0.00     0.009 A 
ATOM     65  C   UNL A   1      44.521  32.691  32.037  1.00  0.00     0.009 A 
ATOM     66  C   UNL A   1      44.847  34.738  30.173  1.00  0.00     0.001 A 
ATOM     67  C   UNL A   1      44.728  34.001  32.470  1.00  0.00     0.001 A 
ATOM     68  C   UNL A   1      44.896  35.023  31.537  1.00  0.00     0.000 A 
ENDBRANCH  49  63
BRANCH  50  69
ATOM     69  C   UNL A   1      42.129  23.230  27.566  1.00  0.00    -0.014 A 
ATOM     70  C   UNL A   1      41.771  22.213  28.464  1.00  0.00     0.009 A 
ATOM     71  C   UNL A   1      42.204  22.934  26.197  1.00  0.00     0.009 A 
ATOM     72  C   UNL A   1      41.514  20.921  28.001  1.00  0.00     0.001 A 
ATOM     73  C   UNL A   1      41.917  21.648  25.734  1.00  0.00     0.001 A 
ATOM     74  C   UNL A   1      41.584  20.641  26.637  1.00  0.00     0.000 A 
ENDBRANCH  50  69
BRANCH  62  75
ATOM     75  C   UNL A   1      48.126  26.412  29.038  1.00  0.00    -0.014 A 
ATOM     76  C   UNL A   1      48.892  26.535  27.869  1.00  0.00     0.009 A 
ATOM     77  C   UNL A   1      48.717  25.871  30.190  1.00  0.00     0.009 A 
ATOM     78  C   UNL A   1      50.217  26.094  27.847  1.00  0.00     0.001 A 
ATOM     79  C   UNL A   1      50.048  25.453  30.170  1.00  0.00     0.001 A 
ATOM     80  C   UNL A   1      50.794  25.557  28.998  1.00  0.00     0.000 A 
ENDBRANCH  62  75
ENDBRANCH  36  37
ENDBRANCH  29  31
ENDBRANCH  28  29
ENDBRANCH  27  28
ENDBRANCH   1  27
TORSDOF 16
ENDMDL
MODEL 2
REMARK VINA RESULT:     -10.7      3.488      8.153
REMARK SMILES COc1ccccc1[C@@H]1CN(C(=O)Cc2csc(C)n2)C[C@H]1C(=O)OCCOC(=O)c1ccc(-c2c3nc(c(-c4ccccc4)c4ccc([nH]4)c(-c4ccccc4)c4nc(c(-c5ccccc5)c5ccc2[nH]5)C=C4)C=C3)cc1
REMARK SMILES IDX 26 1 25 2 23 3 24 4 22 5 9 6 10 7 11 8 21 9 8 10 3 11 4 12
REMARK SMILES IDX 5 13 7 14 6 15 2 16 1 17 12 18 13 19 14 20 15 21 16 22 20 23
REMARK SMILES IDX 17 24 18 25 19 26 27 27 28 28 29 29 30 30 31 31 32 32 78 33
REMARK SMILES IDX 33 34 77 35 34 36 35 37 36 38 71 39 37 40 76 41 70 42 72 43
REMARK SMILES IDX 38 44 75 45 69 46 68 47 39 49 61 50 46 51 60 52 47 53 50 54
REMARK SMILES IDX 59 55 73 56 48 57 49 58 58 60 74 61 51 62 40 63 41 64 45 65
REMARK SMILES IDX 42 66 44 67 43 68 62 69 63 70 67 71 64 72 66 73 65 74 52 75
REMARK SMILES IDX 53 76 57 77 54 78 56 79 55 80
REMARK H PARENT 72 48 50 59
REMARK Flexibility Score: inf
ROOT
ATOM      1  C   UNL A   1      32.427  30.843  27.264  1.00  0.00     0.274 C 
ENDROOT
BRANCH   1   2
ATOM      2  O   UNL A   1      32.917  30.041  26.171  1.00  0.00    -0.462 OA
BRANCH   2   3
ATOM      3  C   UNL A   1      33.120  28.733  26.463  1.00  0.00     0.311 C 
ATOM      4  O   UNL A   1      33.707  28.320  27.458  1.00  0.00    -0.252 OA
BRANCH   3   5
ATOM      5  C   UNL A   1      32.625  27.788  25.401  1.00  0.00     0.128 C 
ATOM      6  C   UNL A   1      31.984  26.460  25.845  1.00  0.00     0.058 C 
ATOM      7  C   UNL A   1      30.886  26.206  24.800  1.00  0.00     0.129 C 
ATOM      8  N   UNL A   1      30.585  27.511  24.227  1.00  0.00    -0.341 N 
ATOM      9  C   UNL A   1      31.540  28.517  24.629  1.00  0.00     0.135 C 
BRANCH   6  10
ATOM     10  C   UNL A   1      32.976  25.317  25.998  1.00  0.00    -0.000 A 
ATOM     11  C   UNL A   1      32.680  24.112  26.663  1.00  0.00     0.122 A 
ATOM     12  C   UNL A   1      33.630  23.090  26.768  1.00  0.00     0.047 A 
ATOM     13  C   UNL A   1      34.895  23.257  26.205  1.00  0.00     0.004 A 
ATOM     14  C   UNL A   1      34.256  25.459  25.438  1.00  0.00     0.008 A 
ATOM     15  C   UNL A   1      35.208  24.441  25.546  1.00  0.00     0.001 A 
BRANCH  11  16
ATOM     16  O   UNL A   1      31.487  23.998  27.327  1.00  0.00    -0.496 OA
ATOM     17  C   UNL A   1      30.628  22.994  26.799  1.00  0.00     0.278 C 
ENDBRANCH  11  16
ENDBRANCH   6  10
BRANCH   8  18
ATOM     18  C   UNL A   1      29.583  27.820  23.333  1.00  0.00     0.228 C 
ATOM     19  O   UNL A   1      28.435  27.398  23.486  1.00  0.00    -0.274 OA
BRANCH  18  20
ATOM     20  C   UNL A   1      29.933  28.703  22.154  1.00  0.00     0.157 C 
BRANCH  20  21
ATOM     21  C   UNL A   1      29.308  30.057  22.231  1.00  0.00     0.061 A 
ATOM     22  C   UNL A   1      29.133  30.856  23.347  1.00  0.00     0.091 A 
ATOM     23  N   UNL A   1      28.831  30.611  21.050  1.00  0.00    -0.246 NA
ATOM     24  S   UNL A   1      28.387  32.333  22.908  1.00  0.00    -0.127 S 
ATOM     25  C   UNL A   1      28.311  31.797  21.280  1.00  0.00     0.090 A 
ATOM     26  C   UNL A   1      27.688  32.656  20.238  1.00  0.00     0.079 C 
ENDBRANCH  20  21
ENDBRANCH  18  20
ENDBRANCH   8  18
ENDBRANCH   3   5
ENDBRANCH   2   3
ENDBRANCH   1   2
BRANCH   1  27
ATOM     27  C   UNL A   1      32.980  32.262  27.187  1.00  0.00     0.275 C 
BRANCH  27  28
ATOM     28  O   UNL A   1      32.396  33.074  28.221  1.00  0.00    -0.458 OA
BRANCH  28  29
ATOM     29  C   UNL A   1      33.093  34.184  28.559  1.00  0.00     0.338 C 
ATOM     30  O   UNL A   1      32.736  35.344  28.443  1.00  0.00    -0.246 OA
BRANCH  29  31
ATOM     31  C   UNL A   1      34.430  33.800  29.048  1.00  0.00     0.060 A 
ATOM     32  C   UNL A   1      35.591  34.247  28.416  1.00  0.00     0.016 A 
ATOM     33  C   UNL A   1      34.515  32.907  30.115  1.00  0.00     0.016 A 
ATOM     34  C   UNL A   1      36.835  33.760  28.821  1.00  0.00     0.010 A 
ATOM     35  C   UNL A   1      35.765  32.469  30.556  1.00  0.00     0.010 A 
ATOM     36  C   UNL A   1      36.941  32.865  29.894  1.00  0.00    -0.014 A 
BRANCH  36  37
ATOM     37  C   UNL A   1      38.258  32.310  30.311  1.00  0.00     0.031 A 
ATOM     38  C   UNL A   1      38.765  31.031  29.696  1.00  0.00     0.074 A 
ATOM     39  C   UNL A   1      38.999  32.928  31.252  1.00  0.00     0.049 A 
ATOM     40  N   UNL A   1      39.781  30.286  30.055  1.00  0.00    -0.248 NA
ATOM     41  C   UNL A   1      38.027  30.515  28.530  1.00  0.00     0.031 C 
ATOM     42  C   UNL A   1      38.667  34.196  31.903  1.00  0.00     0.029 A 
ATOM     43  N   UNL A   1      40.190  32.561  31.831  1.00  0.00    -0.354 N 
ATOM     44  C   UNL A   1      39.765  29.186  29.205  1.00  0.00     0.074 A 
ATOM     45  C   UNL A   1      38.646  29.364  28.305  1.00  0.00     0.031 C 
ATOM     46  C   UNL A   1      39.638  34.510  32.775  1.00  0.00     0.029 A 
ATOM     47  C   UNL A   1      40.621  33.432  32.802  1.00  0.00     0.049 A 
ATOM     48  H   UNL A   1      40.687  31.749  31.575  1.00  0.00     0.167 HD
ATOM     49  C   UNL A   1      40.601  28.121  29.183  1.00  0.00     0.031 A 
ATOM     50  C   UNL A   1      41.661  33.355  33.653  1.00  0.00     0.031 A 
ATOM     51  C   UNL A   1      41.745  27.961  30.040  1.00  0.00     0.049 A 
ATOM     52  C   UNL A   1      42.550  32.143  33.632  1.00  0.00     0.074 A 
ATOM     53  C   UNL A   1      42.671  26.931  30.057  1.00  0.00     0.029 A 
ATOM     54  N   UNL A   1      42.127  28.857  31.024  1.00  0.00    -0.354 N 
ATOM     55  N   UNL A   1      42.507  31.101  32.840  1.00  0.00    -0.248 NA
ATOM     56  C   UNL A   1      43.623  32.095  34.637  1.00  0.00     0.031 C 
ATOM     57  C   UNL A   1      43.591  27.185  31.079  1.00  0.00     0.029 A 
ATOM     58  C   UNL A   1      43.262  28.394  31.668  1.00  0.00     0.049 A 
ATOM     59  H   UNL A   1      41.660  29.698  31.235  1.00  0.00     0.167 HD
ATOM     60  C   UNL A   1      43.555  30.281  33.239  1.00  0.00     0.074 A 
ATOM     61  C   UNL A   1      44.227  30.955  34.330  1.00  0.00     0.031 C 
ATOM     62  C   UNL A   1      43.924  29.075  32.747  1.00  0.00     0.031 A 
BRANCH  49  63
ATOM     63  C   UNL A   1      40.294  27.011  28.219  1.00  0.00    -0.014 A 
ATOM     64  C   UNL A   1      40.842  26.984  26.928  1.00  0.00     0.009 A 
ATOM     65  C   UNL A   1      39.493  25.937  28.642  1.00  0.00     0.009 A 
ATOM     66  C   UNL A   1      40.577  25.911  26.074  1.00  0.00     0.001 A 
ATOM     67  C   UNL A   1      39.248  24.857  27.794  1.00  0.00     0.001 A 
ATOM     68  C   UNL A   1      39.786  24.846  26.508  1.00  0.00     0.000 A 
ENDBRANCH  49  63
BRANCH  50  69
ATOM     69  C   UNL A   1      41.897  34.438  34.643  1.00  0.00    -0.014 A 
ATOM     70  C   UNL A   1      41.276  34.399  35.900  1.00  0.00     0.009 A 
ATOM     71  C   UNL A   1      42.722  35.527  34.325  1.00  0.00     0.009 A 
ATOM     72  C   UNL A   1      41.459  35.442  36.810  1.00  0.00     0.001 A 
ATOM     73  C   UNL A   1      42.927  36.554  35.249  1.00  0.00     0.001 A 
ATOM     74  C   UNL A   1      42.287  36.516  36.485  1.00  0.00     0.000 A 
ENDBRANCH  50  69
BRANCH  62  75
ATOM     75  C   UNL A   1      45.132  28.426  33.359  1.00  0.00    -0.014 A 
ATOM     76  C   UNL A   1      45.009  27.531  34.432  1.00  0.00     0.009 A 
ATOM     77  C   UNL A   1      46.406  28.696  32.836  1.00  0.00     0.009 A 
ATOM     78  C   UNL A   1      46.146  26.941  34.990  1.00  0.00     0.001 A 
ATOM     79  C   UNL A   1      47.537  28.088  33.381  1.00  0.00     0.001 A 
ATOM     80  C   UNL A   1      47.407  27.218  34.462  1.00  0.00     0.000 A 
ENDBRANCH  62  75
ENDBRANCH  36  37
ENDBRANCH  29  31
ENDBRANCH  28  29
ENDBRANCH  27  28
ENDBRANCH   1  27
TORSDOF 16
ENDMDL
MODEL 3
REMARK VINA RESULT:     -10.5      2.645      8.130
REMARK SMILES COc1ccccc1[C@@H]1CN(C(=O)Cc2csc(C)n2)C[C@H]1C(=O)OCCOC(=O)c1ccc(-c2c3nc(c(-c4ccccc4)c4ccc([nH]4)c(-c4ccccc4)c4nc(c(-c5ccccc5)c5ccc2[nH]5)C=C4)C=C3)cc1
REMARK SMILES IDX 26 1 25 2 23 3 24 4 22 5 9 6 10 7 11 8 21 9 8 10 3 11 4 12
REMARK SMILES IDX 5 13 7 14 6 15 2 16 1 17 12 18 13 19 14 20 15 21 16 22 20 23
REMARK SMILES IDX 17 24 18 25 19 26 27 27 28 28 29 29 30 30 31 31 32 32 78 33
REMARK SMILES IDX 33 34 77 35 34 36 35 37 36 38 71 39 37 40 76 41 70 42 72 43
REMARK SMILES IDX 38 44 75 45 69 46 68 47 39 49 61 50 46 51 60 52 47 53 50 54
REMARK SMILES IDX 59 55 73 56 48 57 49 58 58 60 74 61 51 62 40 63 41 64 45 65
REMARK SMILES IDX 42 66 44 67 43 68 62 69 63 70 67 71 64 72 66 73 65 74 52 75
REMARK SMILES IDX 53 76 57 77 54 78 56 79 55 80
REMARK H PARENT 72 48 50 59
REMARK Flexibility Score: inf
ROOT
ATOM      1  C   UNL A   1      38.367  21.228  25.467  1.00  0.00     0.274 C 
ENDROOT
BRANCH   1   2
ATOM      2  O   UNL A   1      36.935  21.088  25.372  1.00  0.00    -0.462 OA
BRANCH   2   3
ATOM      3  C   UNL A   1      36.338  21.885  24.452  1.00  0.00     0.311 C 
ATOM      4  O   UNL A   1      36.935  22.597  23.651  1.00  0.00    -0.252 OA
BRANCH   3   5
ATOM      5  C   UNL A   1      34.836  21.896  24.538  1.00  0.00     0.128 C 
ATOM      6  C   UNL A   1      34.141  20.778  25.336  1.00  0.00     0.058 C 
ATOM      7  C   UNL A   1      32.922  21.471  25.967  1.00  0.00     0.129 C 
ATOM      8  N   UNL A   1      33.250  22.889  25.993  1.00  0.00    -0.341 N 
ATOM      9  C   UNL A   1      34.441  23.188  25.231  1.00  0.00     0.135 C 
BRANCH   6  10
ATOM     10  C   UNL A   1      33.800  19.548  24.508  1.00  0.00    -0.000 A 
ATOM     11  C   UNL A   1      32.745  19.504  23.577  1.00  0.00     0.122 A 
ATOM     12  C   UNL A   1      32.481  18.346  22.836  1.00  0.00     0.047 A 
ATOM     13  C   UNL A   1      33.273  17.212  23.013  1.00  0.00     0.004 A 
ATOM     14  C   UNL A   1      34.584  18.394  24.666  1.00  0.00     0.008 A 
ATOM     15  C   UNL A   1      34.319  17.235  23.930  1.00  0.00     0.001 A 
BRANCH  11  16
ATOM     16  O   UNL A   1      31.888  20.570  23.496  1.00  0.00    -0.496 OA
ATOM     17  C   UNL A   1      31.978  21.290  22.272  1.00  0.00     0.278 C 
ENDBRANCH  11  16
ENDBRANCH   6  10
BRANCH   8  18
ATOM     18  C   UNL A   1      32.524  23.905  26.575  1.00  0.00     0.228 C 
ATOM     19  O   UNL A   1      31.715  23.678  27.477  1.00  0.00    -0.274 OA
BRANCH  18  20
ATOM     20  C   UNL A   1      32.754  25.316  26.077  1.00  0.00     0.157 C 
BRANCH  20  21
ATOM     21  C   UNL A   1      31.646  25.818  25.211  1.00  0.00     0.061 A 
ATOM     22  C   UNL A   1      30.327  25.402  25.183  1.00  0.00     0.091 A 
ATOM     23  N   UNL A   1      31.946  26.831  24.309  1.00  0.00    -0.246 NA
ATOM     24  S   UNL A   1      29.442  26.309  24.031  1.00  0.00    -0.127 S 
ATOM     25  C   UNL A   1      30.874  27.162  23.622  1.00  0.00     0.090 A 
ATOM     26  C   UNL A   1      30.849  28.197  22.554  1.00  0.00     0.079 C 
ENDBRANCH  20  21
ENDBRANCH  18  20
ENDBRANCH   8  18
ENDBRANCH   3   5
ENDBRANCH   2   3
ENDBRANCH   1   2
BRANCH   1  27
ATOM     27  C   UNL A   1      39.062  19.900  25.186  1.00  0.00     0.275 C 
BRANCH  27  28
ATOM     28  O   UNL A   1      39.934  19.560  26.278  1.00  0.00    -0.458 OA
BRANCH  28  29
ATOM     29  C   UNL A   1      41.257  19.718  26.043  1.00  0.00     0.338 C 
ATOM     30  O   UNL A   1      42.012  18.925  25.507  1.00  0.00    -0.246 OA
BRANCH  29  31
ATOM     31  C   UNL A   1      41.711  21.004  26.604  1.00  0.00     0.060 A 
ATOM     32  C   UNL A   1      41.652  21.261  27.974  1.00  0.00     0.016 A 
ATOM     33  C   UNL A   1      42.128  22.002  25.723  1.00  0.00     0.016 A 
ATOM     34  C   UNL A   1      41.964  22.534  28.457  1.00  0.00     0.010 A 
ATOM     35  C   UNL A   1      42.496  23.255  26.216  1.00  0.00     0.010 A 
ATOM     36  C   UNL A   1      42.389  23.548  27.587  1.00  0.00    -0.014 A 
BRANCH  36  37
ATOM     37  C   UNL A   1      42.687  24.918  28.086  1.00  0.00     0.031 A 
ATOM     38  C   UNL A   1      44.096  25.290  28.474  1.00  0.00     0.074 A 
ATOM     39  C   UNL A   1      41.705  25.832  28.217  1.00  0.00     0.049 A 
ATOM     40  N   UNL A   1      44.526  26.353  29.105  1.00  0.00    -0.248 NA
ATOM     41  C   UNL A   1      45.158  24.336  28.113  1.00  0.00     0.031 C 
ATOM     42  C   UNL A   1      40.304  25.640  27.838  1.00  0.00     0.029 A 
ATOM     43  N   UNL A   1      41.739  27.112  28.716  1.00  0.00    -0.354 N 
ATOM     44  C   UNL A   1      45.894  26.167  29.275  1.00  0.00     0.074 A 
ATOM     45  C   UNL A   1      46.224  24.894  28.671  1.00  0.00     0.031 C 
ATOM     46  C   UNL A   1      39.619  26.764  28.099  1.00  0.00     0.029 A 
ATOM     47  C   UNL A   1      40.511  27.728  28.734  1.00  0.00     0.049 A 
ATOM     48  H   UNL A   1      42.565  27.546  29.032  1.00  0.00     0.167 HD
ATOM     49  C   UNL A   1      46.790  26.978  29.885  1.00  0.00     0.031 A 
ATOM     50  C   UNL A   1      40.131  28.915  29.243  1.00  0.00     0.031 A 
ATOM     51  C   UNL A   1      46.479  28.267  30.443  1.00  0.00     0.049 A 
ATOM     52  C   UNL A   1      41.139  29.777  29.949  1.00  0.00     0.074 A 
ATOM     53  C   UNL A   1      47.336  29.174  31.044  1.00  0.00     0.029 A 
ATOM     54  N   UNL A   1      45.218  28.838  30.459  1.00  0.00    -0.354 N 
ATOM     55  N   UNL A   1      42.421  29.576  30.124  1.00  0.00    -0.248 NA
ATOM     56  C   UNL A   1      40.638  31.026  30.543  1.00  0.00     0.031 C 
ATOM     57  C   UNL A   1      46.584  30.278  31.460  1.00  0.00     0.029 A 
ATOM     58  C   UNL A   1      45.269  30.075  31.079  1.00  0.00     0.049 A 
ATOM     59  H   UNL A   1      44.406  28.425  30.087  1.00  0.00     0.167 HD
ATOM     60  C   UNL A   1      42.883  30.678  30.831  1.00  0.00     0.074 A 
ATOM     61  C   UNL A   1      41.749  31.554  31.038  1.00  0.00     0.031 C 
ATOM     62  C   UNL A   1      44.136  30.939  31.273  1.00  0.00     0.031 A 
BRANCH  49  63
ATOM     63  C   UNL A   1      48.201  26.483  30.022  1.00  0.00    -0.014 A 
ATOM     64  C   UNL A   1      49.184  26.787  29.067  1.00  0.00     0.009 A 
ATOM     65  C   UNL A   1      48.565  25.756  31.167  1.00  0.00     0.009 A 
ATOM     66  C   UNL A   1      50.499  26.354  29.250  1.00  0.00     0.001 A 
ATOM     67  C   UNL A   1      49.885  25.344  31.357  1.00  0.00     0.001 A 
ATOM     68  C   UNL A   1      50.850  25.639  30.395  1.00  0.00     0.000 A 
ENDBRANCH  49  63
BRANCH  50  69
ATOM     69  C   UNL A   1      38.712  29.345  29.154  1.00  0.00    -0.014 A 
ATOM     70  C   UNL A   1      37.837  29.139  30.232  1.00  0.00     0.009 A 
ATOM     71  C   UNL A   1      38.219  29.937  27.982  1.00  0.00     0.009 A 
ATOM     72  C   UNL A   1      36.492  29.498  30.128  1.00  0.00     0.001 A 
ATOM     73  C   UNL A   1      36.879  30.322  27.892  1.00  0.00     0.001 A 
ATOM     74  C   UNL A   1      36.015  30.093  28.960  1.00  0.00     0.000 A 
ENDBRANCH  50  69
BRANCH  62  75
ATOM     75  C   UNL A   1      44.353  32.241  31.990  1.00  0.00    -0.014 A 
ATOM     76  C   UNL A   1      44.636  33.420  31.284  1.00  0.00     0.009 A 
ATOM     77  C   UNL A   1      44.245  32.290  33.388  1.00  0.00     0.009 A 
ATOM     78  C   UNL A   1      44.838  34.619  31.971  1.00  0.00     0.001 A 
ATOM     79  C   UNL A   1      44.424  33.495  34.068  1.00  0.00     0.001 A 
ATOM     80  C   UNL A   1      44.728  34.656  33.360  1.00  0.00     0.000 A 
ENDBRANCH  62  75
ENDBRANCH  36  37
ENDBRANCH  29  31
ENDBRANCH  28  29
ENDBRANCH  27  28
ENDBRANCH   1  27
TORSDOF 16
ENDMDL
