MODEL 1
REMARK VINA RESULT:     -11.6      0.000      0.000
REMARK SMILES O=C(OCCOC(=O)c1cccc(Nc2ccc([N+](=O)[O-])cc2)c1)c1ccc(-c2c3nc(c(-c4ccccc4)c4ccc([nH]4)c(-c4ccccc4)c4nc(c(-c5ccccc5)c5ccc2[nH]5)C=C4)C=C3)cc1
REMARK SMILES IDX 5 1 4 2 3 3 2 4 1 5 25 6 26 7 72 8 27 9 71 10 28 11 29 12
REMARK SMILES IDX 30 13 65 14 31 15 70 16 64 17 66 18 32 19 69 20 63 21 62 22
REMARK SMILES IDX 33 24 55 25 40 26 54 27 41 28 44 29 53 30 67 31 42 32 43 33
REMARK SMILES IDX 52 35 68 36 45 37 34 38 35 39 39 40 36 41 38 42 37 43 56 44
REMARK SMILES IDX 57 45 61 46 58 47 60 48 59 49 46 50 47 51 51 52 48 53 50 54
REMARK SMILES IDX 49 55 6 56 7 57 8 58 9 59 10 60 24 61 11 62 13 63 12 64
REMARK SMILES IDX 14 65 15 67 16 68 23 69 17 70 22 71 18 72 19 73 20 74 21 75
REMARK H PARENT 66 23 44 34 14 66
REMARK Flexibility Score: inf
ROOT
ATOM      1  C   UNL A   1      38.185  21.293  25.400  1.00  0.00     0.275 C 
ENDROOT
BRANCH   1   2
ATOM      2  C   UNL A   1      38.555  19.873  24.950  1.00  0.00     0.275 C 
BRANCH   2   3
ATOM      3  O   UNL A   1      39.588  19.235  25.724  1.00  0.00    -0.458 OA
BRANCH   3   4
ATOM      4  C   UNL A   1      40.882  19.576  25.926  1.00  0.00     0.338 C 
ATOM      5  O   UNL A   1      41.746  18.711  25.792  1.00  0.00    -0.246 OA
BRANCH   4   6
ATOM      6  C   UNL A   1      41.327  20.917  26.425  1.00  0.00     0.060 A 
ATOM      7  C   UNL A   1      41.782  21.971  25.633  1.00  0.00     0.016 A 
ATOM      8  C   UNL A   1      41.262  21.126  27.818  1.00  0.00     0.016 A 
ATOM      9  C   UNL A   1      42.085  23.209  26.190  1.00  0.00     0.010 A 
ATOM     10  C   UNL A   1      41.555  22.372  28.385  1.00  0.00     0.010 A 
ATOM     11  C   UNL A   1      41.963  23.423  27.563  1.00  0.00    -0.014 A 
BRANCH  11  12
ATOM     12  C   UNL A   1      42.385  24.734  28.095  1.00  0.00     0.031 A 
ATOM     13  C   UNL A   1      43.848  25.028  28.197  1.00  0.00     0.074 A 
ATOM     14  C   UNL A   1      41.468  25.692  28.315  1.00  0.00     0.049 A 
ATOM     15  N   UNL A   1      44.436  26.162  28.468  1.00  0.00    -0.248 NA
ATOM     16  C   UNL A   1      44.769  23.916  27.908  1.00  0.00     0.031 C 
ATOM     17  C   UNL A   1      40.028  25.532  28.127  1.00  0.00     0.029 A 
ATOM     18  N   UNL A   1      41.603  26.996  28.716  1.00  0.00    -0.354 N 
ATOM     19  C   UNL A   1      45.793  25.915  28.327  1.00  0.00     0.074 A 
ATOM     20  C   UNL A   1      45.947  24.510  28.018  1.00  0.00     0.031 C 
ATOM     21  C   UNL A   1      39.406  26.680  28.439  1.00  0.00     0.029 A 
ATOM     22  C   UNL A   1      40.405  27.654  28.854  1.00  0.00     0.049 A 
ATOM     23  H   UNL A   1      42.475  27.420  28.887  1.00  0.00     0.167 HD
ATOM     24  C   UNL A   1      46.817  26.794  28.415  1.00  0.00     0.031 A 
ATOM     25  C   UNL A   1      40.145  28.906  29.271  1.00  0.00     0.031 A 
ATOM     26  C   UNL A   1      46.651  28.175  28.777  1.00  0.00     0.049 A 
ATOM     27  C   UNL A   1      41.310  29.814  29.540  1.00  0.00     0.074 A 
ATOM     28  C   UNL A   1      47.621  29.142  28.962  1.00  0.00     0.029 A 
ATOM     29  N   UNL A   1      45.427  28.778  29.027  1.00  0.00    -0.354 N 
ATOM     30  N   UNL A   1      42.591  29.570  29.398  1.00  0.00    -0.248 NA
ATOM     31  C   UNL A   1      40.996  31.175  29.988  1.00  0.00     0.031 C 
ATOM     32  C   UNL A   1      46.986  30.317  29.380  1.00  0.00     0.029 A 
ATOM     33  C   UNL A   1      45.616  30.100  29.392  1.00  0.00     0.049 A 
ATOM     34  H   UNL A   1      44.552  28.333  28.955  1.00  0.00     0.167 HD
ATOM     35  C   UNL A   1      43.237  30.757  29.703  1.00  0.00     0.074 A 
ATOM     36  C   UNL A   1      42.202  31.725  30.018  1.00  0.00     0.031 C 
ATOM     37  C   UNL A   1      44.565  31.031  29.714  1.00  0.00     0.031 A 
BRANCH  24  38
ATOM     38  C   UNL A   1      48.193  26.258  28.146  1.00  0.00    -0.014 A 
ATOM     39  C   UNL A   1      48.747  26.299  26.855  1.00  0.00     0.009 A 
ATOM     40  C   UNL A   1      48.939  25.689  29.188  1.00  0.00     0.009 A 
ATOM     41  C   UNL A   1      50.006  25.747  26.608  1.00  0.00     0.001 A 
ATOM     42  C   UNL A   1      50.207  25.163  28.943  1.00  0.00     0.001 A 
ATOM     43  C   UNL A   1      50.736  25.182  27.653  1.00  0.00     0.000 A 
ENDBRANCH  24  38
BRANCH  25  44
ATOM     44  C   UNL A   1      38.744  29.358  29.487  1.00  0.00    -0.014 A 
ATOM     45  C   UNL A   1      38.025  30.034  28.490  1.00  0.00     0.009 A 
ATOM     46  C   UNL A   1      38.131  29.148  30.734  1.00  0.00     0.009 A 
ATOM     47  C   UNL A   1      36.740  30.522  28.752  1.00  0.00     0.001 A 
ATOM     48  C   UNL A   1      36.839  29.610  30.983  1.00  0.00     0.001 A 
ATOM     49  C   UNL A   1      36.148  30.310  29.997  1.00  0.00     0.000 A 
ENDBRANCH  25  44
BRANCH  37  50
ATOM     50  C   UNL A   1      44.955  32.441  30.051  1.00  0.00    -0.014 A 
ATOM     51  C   UNL A   1      45.223  32.828  31.373  1.00  0.00     0.009 A 
ATOM     52  C   UNL A   1      45.068  33.392  29.025  1.00  0.00     0.009 A 
ATOM     53  C   UNL A   1      45.548  34.153  31.666  1.00  0.00     0.001 A 
ATOM     54  C   UNL A   1      45.429  34.706  29.316  1.00  0.00     0.001 A 
ATOM     55  C   UNL A   1      45.655  35.089  30.637  1.00  0.00     0.000 A 
ENDBRANCH  37  50
ENDBRANCH  11  12
ENDBRANCH   4   6
ENDBRANCH   3   4
ENDBRANCH   2   3
ENDBRANCH   1   2
BRANCH   1  56
ATOM     56  O   UNL A   1      37.380  22.015  24.456  1.00  0.00    -0.458 OA
BRANCH  56  57
ATOM     57  C   UNL A   1      36.470  22.852  25.017  1.00  0.00     0.338 C 
ATOM     58  O   UNL A   1      36.665  23.624  25.943  1.00  0.00    -0.246 OA
BRANCH  57  59
ATOM     59  C   UNL A   1      35.205  22.817  24.255  1.00  0.00     0.062 A 
ATOM     60  C   UNL A   1      34.813  23.981  23.594  1.00  0.00     0.016 A 
ATOM     61  C   UNL A   1      34.395  21.676  24.218  1.00  0.00     0.041 A 
ATOM     62  C   UNL A   1      33.632  23.989  22.857  1.00  0.00     0.003 A 
ATOM     63  C   UNL A   1      33.169  21.691  23.526  1.00  0.00     0.039 A 
ATOM     64  C   UNL A   1      32.821  22.852  22.825  1.00  0.00     0.026 A 
BRANCH  63  65
ATOM     65  N   UNL A   1      32.338  20.554  23.586  1.00  0.00    -0.355 N 
ATOM     66  H   UNL A   1      31.419  20.708  23.271  1.00  0.00     0.167 HD
BRANCH  65  67
ATOM     67  C   UNL A   1      32.590  19.240  24.016  1.00  0.00     0.039 A 
ATOM     68  C   UNL A   1      32.897  18.272  23.046  1.00  0.00     0.033 A 
ATOM     69  C   UNL A   1      32.623  18.867  25.366  1.00  0.00     0.033 A 
ATOM     70  C   UNL A   1      33.250  16.970  23.408  1.00  0.00     0.088 A 
ATOM     71  C   UNL A   1      32.965  17.562  25.745  1.00  0.00     0.088 A 
ATOM     72  C   UNL A   1      33.289  16.620  24.762  1.00  0.00     0.269 A 
BRANCH  72  73
ATOM     73  N   UNL A   1      33.686  15.259  25.146  1.00  0.00     0.062 N 
ATOM     74  O   UNL A   1      32.788  14.418  25.291  1.00  0.00    -0.258 OA
ATOM     75  O   UNL A   1      34.895  15.031  25.299  1.00  0.00    -0.258 OA
ENDBRANCH  72  73
ENDBRANCH  65  67
ENDBRANCH  63  65
ENDBRANCH  57  59
ENDBRANCH  56  57
ENDBRANCH   1  56
TORSDOF 14
ENDMDL
MODEL 2
REMARK VINA RESULT:     -11.4      5.638     10.366
REMARK SMILES O=C(OCCOC(=O)c1cccc(Nc2ccc([N+](=O)[O-])cc2)c1)c1ccc(-c2c3nc(c(-c4ccccc4)c4ccc([nH]4)c(-c4ccccc4)c4nc(c(-c5ccccc5)c5ccc2[nH]5)C=C4)C=C3)cc1
REMARK SMILES IDX 5 1 4 2 3 3 2 4 1 5 25 6 26 7 72 8 27 9 71 10 28 11 29 12
REMARK SMILES IDX 30 13 65 14 31 15 70 16 64 17 66 18 32 19 69 20 63 21 62 22
REMARK SMILES IDX 33 24 55 25 40 26 54 27 41 28 44 29 53 30 67 31 42 32 43 33
REMARK SMILES IDX 52 35 68 36 45 37 34 38 35 39 39 40 36 41 38 42 37 43 56 44
REMARK SMILES IDX 57 45 61 46 58 47 60 48 59 49 46 50 47 51 51 52 48 53 50 54
REMARK SMILES IDX 49 55 6 56 7 57 8 58 9 59 10 60 24 61 11 62 13 63 12 64
REMARK SMILES IDX 14 65 15 67 16 68 23 69 17 70 22 71 18 72 19 73 20 74 21 75
REMARK H PARENT 66 23 44 34 14 66
REMARK Flexibility Score: inf
ROOT
ATOM      1  C   UNL A   1      32.616  31.147  26.844  1.00  0.00     0.275 C 
ENDROOT
BRANCH   1   2
ATOM      2  C   UNL A   1      31.577  32.241  27.125  1.00  0.00     0.275 C 
BRANCH   2   3
ATOM      3  O   UNL A   1      32.112  33.571  27.262  1.00  0.00    -0.458 OA
BRANCH   3   4
ATOM      4  C   UNL A   1      32.904  34.114  28.216  1.00  0.00     0.338 C 
ATOM      5  O   UNL A   1      32.566  35.183  28.722  1.00  0.00    -0.246 OA
BRANCH   4   6
ATOM      6  C   UNL A   1      34.237  33.558  28.615  1.00  0.00     0.060 A 
ATOM      7  C   UNL A   1      35.436  33.744  27.927  1.00  0.00     0.016 A 
ATOM      8  C   UNL A   1      34.274  32.795  29.800  1.00  0.00     0.016 A 
ATOM      9  C   UNL A   1      36.638  33.261  28.434  1.00  0.00     0.010 A 
ATOM     10  C   UNL A   1      35.480  32.315  30.322  1.00  0.00     0.010 A 
ATOM     11  C   UNL A   1      36.672  32.555  29.637  1.00  0.00    -0.014 A 
BRANCH  11  12
ATOM     12  C   UNL A   1      37.968  31.997  30.070  1.00  0.00     0.031 A 
ATOM     13  C   UNL A   1      38.708  32.678  31.177  1.00  0.00     0.074 A 
ATOM     14  C   UNL A   1      38.377  30.808  29.592  1.00  0.00     0.049 A 
ATOM     15  N   UNL A   1      39.763  32.269  31.827  1.00  0.00    -0.248 NA
ATOM     16  C   UNL A   1      38.161  33.962  31.646  1.00  0.00     0.031 C 
ATOM     17  C   UNL A   1      37.657  30.013  28.599  1.00  0.00     0.029 A 
ATOM     18  N   UNL A   1      39.474  30.044  29.892  1.00  0.00    -0.354 N 
ATOM     19  C   UNL A   1      39.974  33.216  32.818  1.00  0.00     0.074 A 
ATOM     20  C   UNL A   1      38.984  34.255  32.641  1.00  0.00     0.031 C 
ATOM     21  C   UNL A   1      38.344  28.887  28.346  1.00  0.00     0.029 A 
ATOM     22  C   UNL A   1      39.552  28.886  29.157  1.00  0.00     0.049 A 
ATOM     23  H   UNL A   1      40.140  30.299  30.569  1.00  0.00     0.167 HD
ATOM     24  C   UNL A   1      40.893  33.198  33.810  1.00  0.00     0.031 A 
ATOM     25  C   UNL A   1      40.499  27.930  29.141  1.00  0.00     0.031 A 
ATOM     26  C   UNL A   1      41.905  32.186  33.939  1.00  0.00     0.049 A 
ATOM     27  C   UNL A   1      41.617  28.030  30.137  1.00  0.00     0.074 A 
ATOM     28  C   UNL A   1      42.929  32.100  34.863  1.00  0.00     0.029 A 
ATOM     29  N   UNL A   1      42.026  31.087  33.100  1.00  0.00    -0.354 N 
ATOM     30  N   UNL A   1      41.803  28.929  31.075  1.00  0.00    -0.248 NA
ATOM     31  C   UNL A   1      42.631  26.971  30.101  1.00  0.00     0.031 C 
ATOM     32  C   UNL A   1      43.704  30.979  34.547  1.00  0.00     0.029 A 
ATOM     33  C   UNL A   1      43.126  30.331  33.466  1.00  0.00     0.049 A 
ATOM     34  H   UNL A   1      41.420  30.876  32.353  1.00  0.00     0.167 HD
ATOM     35  C   UNL A   1      42.934  28.525  31.766  1.00  0.00     0.074 A 
ATOM     36  C   UNL A   1      43.378  27.288  31.149  1.00  0.00     0.031 C 
ATOM     37  C   UNL A   1      43.549  29.113  32.822  1.00  0.00     0.031 A 
BRANCH  24  38
ATOM     38  C   UNL A   1      40.848  34.331  34.794  1.00  0.00    -0.014 A 
ATOM     39  C   UNL A   1      40.100  34.231  35.979  1.00  0.00     0.009 A 
ATOM     40  C   UNL A   1      41.544  35.518  34.527  1.00  0.00     0.009 A 
ATOM     41  C   UNL A   1      40.022  35.312  36.860  1.00  0.00     0.001 A 
ATOM     42  C   UNL A   1      41.485  36.587  35.421  1.00  0.00     0.001 A 
ATOM     43  C   UNL A   1      40.718  36.488  36.581  1.00  0.00     0.000 A 
ENDBRANCH  24  38
BRANCH  25  44
ATOM     44  C   UNL A   1      40.448  26.828  28.142  1.00  0.00    -0.014 A 
ATOM     45  C   UNL A   1      41.023  26.958  26.869  1.00  0.00     0.009 A 
ATOM     46  C   UNL A   1      39.768  25.639  28.455  1.00  0.00     0.009 A 
ATOM     47  C   UNL A   1      40.885  25.938  25.922  1.00  0.00     0.001 A 
ATOM     48  C   UNL A   1      39.656  24.611  27.518  1.00  0.00     0.001 A 
ATOM     49  C   UNL A   1      40.203  24.766  26.247  1.00  0.00     0.000 A 
ENDBRANCH  25  44
BRANCH  37  50
ATOM     50  C   UNL A   1      44.746  28.402  33.382  1.00  0.00    -0.014 A 
ATOM     51  C   UNL A   1      46.043  28.687  32.926  1.00  0.00     0.009 A 
ATOM     52  C   UNL A   1      44.572  27.441  34.388  1.00  0.00     0.009 A 
ATOM     53  C   UNL A   1      47.137  27.986  33.436  1.00  0.00     0.001 A 
ATOM     54  C   UNL A   1      45.670  26.769  34.923  1.00  0.00     0.001 A 
ATOM     55  C   UNL A   1      46.949  27.032  34.436  1.00  0.00     0.000 A 
ENDBRANCH  37  50
ENDBRANCH  11  12
ENDBRANCH   4   6
ENDBRANCH   3   4
ENDBRANCH   2   3
ENDBRANCH   1   2
BRANCH   1  56
ATOM     56  O   UNL A   1      32.139  29.813  27.080  1.00  0.00    -0.458 OA
BRANCH  56  57
ATOM     57  C   UNL A   1      33.070  28.841  26.893  1.00  0.00     0.338 C 
ATOM     58  O   UNL A   1      34.192  28.807  27.373  1.00  0.00    -0.246 OA
BRANCH  57  59
ATOM     59  C   UNL A   1      32.491  27.722  26.123  1.00  0.00     0.062 A 
ATOM     60  C   UNL A   1      33.137  26.487  26.189  1.00  0.00     0.016 A 
ATOM     61  C   UNL A   1      31.358  27.884  25.318  1.00  0.00     0.041 A 
ATOM     62  C   UNL A   1      32.622  25.402  25.485  1.00  0.00     0.003 A 
ATOM     63  C   UNL A   1      30.863  26.810  24.554  1.00  0.00     0.039 A 
ATOM     64  C   UNL A   1      31.494  25.566  24.677  1.00  0.00     0.026 A 
BRANCH  63  65
ATOM     65  N   UNL A   1      29.775  27.034  23.687  1.00  0.00    -0.355 N 
ATOM     66  H   UNL A   1      29.216  26.240  23.524  1.00  0.00     0.167 HD
BRANCH  65  67
ATOM     67  C   UNL A   1      29.346  28.191  23.013  1.00  0.00     0.039 A 
ATOM     68  C   UNL A   1      28.017  28.606  23.187  1.00  0.00     0.033 A 
ATOM     69  C   UNL A   1      30.198  28.987  22.238  1.00  0.00     0.033 A 
ATOM     70  C   UNL A   1      27.548  29.796  22.624  1.00  0.00     0.088 A 
ATOM     71  C   UNL A   1      29.742  30.179  21.657  1.00  0.00     0.088 A 
ATOM     72  C   UNL A   1      28.418  30.584  21.864  1.00  0.00     0.269 A 
BRANCH  72  73
ATOM     73  N   UNL A   1      27.936  31.849  21.294  1.00  0.00     0.062 N 
ATOM     74  O   UNL A   1      27.937  32.848  22.027  1.00  0.00    -0.258 OA
ATOM     75  O   UNL A   1      27.559  31.844  20.113  1.00  0.00    -0.258 OA
ENDBRANCH  72  73
ENDBRANCH  65  67
ENDBRANCH  63  65
ENDBRANCH  57  59
ENDBRANCH  56  57
ENDBRANCH   1  56
TORSDOF 14
ENDMDL
MODEL 3
REMARK VINA RESULT:     -11.3      4.289      7.427
REMARK SMILES O=C(OCCOC(=O)c1cccc(Nc2ccc([N+](=O)[O-])cc2)c1)c1ccc(-c2c3nc(c(-c4ccccc4)c4ccc([nH]4)c(-c4ccccc4)c4nc(c(-c5ccccc5)c5ccc2[nH]5)C=C4)C=C3)cc1
REMARK SMILES IDX 5 1 4 2 3 3 2 4 1 5 25 6 26 7 72 8 27 9 71 10 28 11 29 12
REMARK SMILES IDX 30 13 65 14 31 15 70 16 64 17 66 18 32 19 69 20 63 21 62 22
REMARK SMILES IDX 33 24 55 25 40 26 54 27 41 28 44 29 53 30 67 31 42 32 43 33
REMARK SMILES IDX 52 35 68 36 45 37 34 38 35 39 39 40 36 41 38 42 37 43 56 44
REMARK SMILES IDX 57 45 61 46 58 47 60 48 59 49 46 50 47 51 51 52 48 53 50 54
REMARK SMILES IDX 49 55 6 56 7 57 8 58 9 59 10 60 24 61 11 62 13 63 12 64
REMARK SMILES IDX 14 65 15 67 16 68 23 69 17 70 22 71 18 72 19 73 20 74 21 75
REMARK H PARENT 66 23 44 34 14 66
REMARK Flexibility Score: inf
ROOT
ATOM      1  C   UNL A   1      40.965  19.939  26.824  1.00  0.00     0.275 C 
ENDROOT
BRANCH   1   2
ATOM      2  C   UNL A   1      40.442  21.365  27.040  1.00  0.00     0.275 C 
BRANCH   2   3
ATOM      3  O   UNL A   1      39.326  21.740  26.211  1.00  0.00    -0.458 OA
BRANCH   3   4
ATOM      4  C   UNL A   1      38.631  22.898  26.131  1.00  0.00     0.338 C 
ATOM      5  O   UNL A   1      37.688  22.965  25.344  1.00  0.00    -0.246 OA
BRANCH   4   6
ATOM      6  C   UNL A   1      39.012  24.155  26.852  1.00  0.00     0.060 A 
ATOM      7  C   UNL A   1      38.678  24.473  28.168  1.00  0.00     0.016 A 
ATOM      8  C   UNL A   1      39.790  25.086  26.132  1.00  0.00     0.016 A 
ATOM      9  C   UNL A   1      39.162  25.628  28.774  1.00  0.00     0.010 A 
ATOM     10  C   UNL A   1      40.289  26.245  26.737  1.00  0.00     0.010 A 
ATOM     11  C   UNL A   1      39.977  26.514  28.070  1.00  0.00    -0.014 A 
BRANCH  11  12
ATOM     12  C   UNL A   1      40.381  27.762  28.747  1.00  0.00     0.031 A 
ATOM     13  C   UNL A   1      41.805  27.917  29.175  1.00  0.00     0.074 A 
ATOM     14  C   UNL A   1      39.521  28.795  28.814  1.00  0.00     0.049 A 
ATOM     15  N   UNL A   1      42.413  28.982  29.623  1.00  0.00    -0.248 NA
ATOM     16  C   UNL A   1      42.671  26.734  29.034  1.00  0.00     0.031 C 
ATOM     17  C   UNL A   1      38.148  28.775  28.313  1.00  0.00     0.029 A 
ATOM     18  N   UNL A   1      39.674  30.067  29.300  1.00  0.00    -0.354 N 
ATOM     19  C   UNL A   1      43.742  28.614  29.764  1.00  0.00     0.074 A 
ATOM     20  C   UNL A   1      43.842  27.212  29.424  1.00  0.00     0.031 C 
ATOM     21  C   UNL A   1      37.572  29.965  28.544  1.00  0.00     0.029 A 
ATOM     22  C   UNL A   1      38.534  30.828  29.212  1.00  0.00     0.049 A 
ATOM     23  H   UNL A   1      40.520  30.402  29.676  1.00  0.00     0.167 HD
ATOM     24  C   UNL A   1      44.792  29.391  30.114  1.00  0.00     0.031 A 
ATOM     25  C   UNL A   1      38.295  32.085  29.627  1.00  0.00     0.031 A 
ATOM     26  C   UNL A   1      44.668  30.770  30.502  1.00  0.00     0.049 A 
ATOM     27  C   UNL A   1      39.445  32.872  30.185  1.00  0.00     0.074 A 
ATOM     28  C   UNL A   1      45.652  31.636  30.940  1.00  0.00     0.029 A 
ATOM     29  N   UNL A   1      43.473  31.476  30.514  1.00  0.00    -0.354 N 
ATOM     30  N   UNL A   1      40.701  32.515  30.309  1.00  0.00    -0.248 NA
ATOM     31  C   UNL A   1      39.156  34.242  30.624  1.00  0.00     0.031 C 
ATOM     32  C   UNL A   1      45.041  32.851  31.271  1.00  0.00     0.029 A 
ATOM     33  C   UNL A   1      43.689  32.762  30.979  1.00  0.00     0.049 A 
ATOM     34  H   UNL A   1      42.601  31.116  30.234  1.00  0.00     0.167 HD
ATOM     35  C   UNL A   1      41.363  33.627  30.806  1.00  0.00     0.074 A 
ATOM     36  C   UNL A   1      40.368  34.676  30.940  1.00  0.00     0.031 C 
ATOM     37  C   UNL A   1      42.675  33.776  31.115  1.00  0.00     0.031 A 
BRANCH  24  38
ATOM     38  C   UNL A   1      46.144  28.739  30.119  1.00  0.00    -0.014 A 
ATOM     39  C   UNL A   1      46.936  28.704  28.959  1.00  0.00     0.009 A 
ATOM     40  C   UNL A   1      46.626  28.136  31.290  1.00  0.00     0.009 A 
ATOM     41  C   UNL A   1      48.168  28.046  28.964  1.00  0.00     0.001 A 
ATOM     42  C   UNL A   1      47.869  27.502  31.298  1.00  0.00     0.001 A 
ATOM     43  C   UNL A   1      48.634  27.448  30.134  1.00  0.00     0.000 A 
ENDBRANCH  24  38
BRANCH  25  44
ATOM     44  C   UNL A   1      36.924  32.658  29.560  1.00  0.00    -0.014 A 
ATOM     45  C   UNL A   1      36.477  33.375  28.440  1.00  0.00     0.009 A 
ATOM     46  C   UNL A   1      36.061  32.523  30.661  1.00  0.00     0.009 A 
ATOM     47  C   UNL A   1      35.213  33.975  28.442  1.00  0.00     0.001 A 
ATOM     48  C   UNL A   1      34.790  33.098  30.648  1.00  0.00     0.001 A 
ATOM     49  C   UNL A   1      34.371  33.836  29.544  1.00  0.00     0.000 A 
ENDBRANCH  25  44
BRANCH  37  50
ATOM     50  C   UNL A   1      43.099  35.132  31.599  1.00  0.00    -0.014 A 
ATOM     51  C   UNL A   1      43.608  36.097  30.715  1.00  0.00     0.009 A 
ATOM     52  C   UNL A   1      42.975  35.451  32.959  1.00  0.00     0.009 A 
ATOM     53  C   UNL A   1      44.030  37.338  31.195  1.00  0.00     0.001 A 
ATOM     54  C   UNL A   1      43.362  36.704  33.430  1.00  0.00     0.001 A 
ATOM     55  C   UNL A   1      43.902  37.641  32.550  1.00  0.00     0.000 A 
ENDBRANCH  37  50
ENDBRANCH  11  12
ENDBRANCH   4   6
ENDBRANCH   3   4
ENDBRANCH   2   3
ENDBRANCH   1   2
BRANCH   1  56
ATOM     56  O   UNL A   1      41.678  19.758  25.591  1.00  0.00    -0.458 OA
BRANCH  56  57
ATOM     57  C   UNL A   1      42.730  18.902  25.670  1.00  0.00     0.338 C 
ATOM     58  O   UNL A   1      42.678  17.704  25.900  1.00  0.00    -0.246 OA
BRANCH  57  59
ATOM     59  C   UNL A   1      43.980  19.593  25.294  1.00  0.00     0.062 A 
ATOM     60  C   UNL A   1      44.892  18.899  24.499  1.00  0.00     0.016 A 
ATOM     61  C   UNL A   1      44.275  20.886  25.744  1.00  0.00     0.041 A 
ATOM     62  C   UNL A   1      46.079  19.516  24.114  1.00  0.00     0.003 A 
ATOM     63  C   UNL A   1      45.499  21.497  25.411  1.00  0.00     0.039 A 
ATOM     64  C   UNL A   1      46.376  20.803  24.568  1.00  0.00     0.026 A 
BRANCH  63  65
ATOM     65  N   UNL A   1      45.800  22.762  25.955  1.00  0.00    -0.355 N 
ATOM     66  H   UNL A   1      46.624  22.786  26.492  1.00  0.00     0.167 HD
BRANCH  65  67
ATOM     67  C   UNL A   1      45.129  23.995  25.868  1.00  0.00     0.039 A 
ATOM     68  C   UNL A   1      45.732  25.120  26.451  1.00  0.00     0.033 A 
ATOM     69  C   UNL A   1      43.930  24.167  25.166  1.00  0.00     0.033 A 
ATOM     70  C   UNL A   1      45.169  26.392  26.322  1.00  0.00     0.088 A 
ATOM     71  C   UNL A   1      43.347  25.436  25.036  1.00  0.00     0.088 A 
ATOM     72  C   UNL A   1      43.978  26.547  25.606  1.00  0.00     0.269 A 
BRANCH  72  73
ATOM     73  N   UNL A   1      43.399  27.887  25.446  1.00  0.00     0.062 N 
ATOM     74  O   UNL A   1      42.502  28.029  24.603  1.00  0.00    -0.258 OA
ATOM     75  O   UNL A   1      43.839  28.796  26.164  1.00  0.00    -0.258 OA
ENDBRANCH  72  73
ENDBRANCH  65  67
ENDBRANCH  63  65
ENDBRANCH  57  59
ENDBRANCH  56  57
ENDBRANCH   1  56
TORSDOF 14
ENDMDL
