MODEL 1
REMARK VINA RESULT:     -11.2      0.000      0.000
REMARK SMILES Cc1cc(C(=O)N2CCC[C@H]2C(=O)OCCOC(=O)c2ccc(-c3c4nc(c(-c5ccccc5)c5ccc([nH]5)c(-c5ccccc5)c5nc(c(-c6ccccc6)c6ccc3[nH]6)C=C5)C=C4)cc2)c2c(C)noc2n1
REMARK SMILES IDX 15 1 14 2 12 3 13 4 11 5 7 6 8 7 9 8 10 9 5 10 6 11 4 12
REMARK SMILES IDX 1 13 2 14 3 15 74 16 73 17 68 18 72 19 69 20 71 21 70 22
REMARK SMILES IDX 16 23 17 24 18 25 19 26 20 27 21 28 67 29 22 30 66 31 23 32
REMARK SMILES IDX 24 33 25 34 60 35 26 36 65 37 59 38 61 39 27 40 64 41 58 42
REMARK SMILES IDX 57 43 28 45 50 46 35 47 49 48 36 49 39 50 48 51 62 52 37 53
REMARK SMILES IDX 38 54 47 56 63 57 40 58 29 59 30 60 34 61 31 62 33 63 32 64
REMARK SMILES IDX 51 65 52 66 56 67 53 68 55 69 54 70 41 71 42 72 46 73 43 74
REMARK SMILES IDX 45 75 44 76
REMARK H PARENT 61 44 39 55
REMARK Flexibility Score: inf
ROOT
ATOM      1  C   UNL A   1      37.873  20.481  25.054  1.00  0.00     0.274 C 
ENDROOT
BRANCH   1   2
ATOM      2  O   UNL A   1      36.447  20.680  25.002  1.00  0.00    -0.461 OA
BRANCH   2   3
ATOM      3  C   UNL A   1      36.016  21.731  24.243  1.00  0.00     0.328 C 
ATOM      4  O   UNL A   1      36.742  22.341  23.466  1.00  0.00    -0.250 OA
BRANCH   3   5
ATOM      5  C   UNL A   1      34.528  22.070  24.500  1.00  0.00     0.195 C 
ATOM      6  N   UNL A   1      34.170  23.466  24.159  1.00  0.00    -0.325 N 
ATOM      7  C   UNL A   1      33.364  23.480  22.944  1.00  0.00     0.121 C 
ATOM      8  C   UNL A   1      32.527  22.227  23.101  1.00  0.00     0.024 C 
ATOM      9  C   UNL A   1      33.530  21.226  23.673  1.00  0.00     0.039 C 
BRANCH   6  10
ATOM     10  C   UNL A   1      34.447  24.503  25.043  1.00  0.00     0.255 C 
ATOM     11  O   UNL A   1      35.463  24.537  25.732  1.00  0.00    -0.269 OA
BRANCH  10  12
ATOM     12  C   UNL A   1      33.447  25.566  25.279  1.00  0.00     0.056 A 
ATOM     13  C   UNL A   1      33.073  29.235  24.412  1.00  0.00     0.067 C 
ATOM     14  C   UNL A   1      32.766  27.862  24.935  1.00  0.00     0.042 A 
ATOM     15  C   UNL A   1      33.707  26.852  24.780  1.00  0.00     0.038 A 
ATOM     16  N   UNL A   1      31.555  27.681  25.490  1.00  0.00    -0.216 NA
ATOM     17  C   UNL A   1      31.319  26.421  25.903  1.00  0.00     0.258 A 
ATOM     18  C   UNL A   1      32.171  25.324  25.828  1.00  0.00     0.077 A 
ATOM     19  O   UNL A   1      30.144  26.045  26.473  1.00  0.00    -0.336 OA
ATOM     20  C   UNL A   1      31.389  24.267  26.389  1.00  0.00     0.091 A 
ATOM     21  N   UNL A   1      30.185  24.702  26.788  1.00  0.00    -0.082 NA
ATOM     22  C   UNL A   1      31.712  22.839  26.641  1.00  0.00     0.071 C 
ENDBRANCH  10  12
ENDBRANCH   6  10
ENDBRANCH   3   5
ENDBRANCH   2   3
ENDBRANCH   1   2
BRANCH   1  23
ATOM     23  C   UNL A   1      38.568  21.569  25.875  1.00  0.00     0.275 C 
BRANCH  23  24
ATOM     24  O   UNL A   1      39.969  21.282  26.038  1.00  0.00    -0.458 OA
BRANCH  24  25
ATOM     25  C   UNL A   1      40.512  21.700  27.206  1.00  0.00     0.338 C 
ATOM     26  O   UNL A   1      40.783  21.012  28.176  1.00  0.00    -0.246 OA
BRANCH  25  27
ATOM     27  C   UNL A   1      40.828  23.141  27.170  1.00  0.00     0.060 A 
ATOM     28  C   UNL A   1      41.911  23.608  26.430  1.00  0.00     0.016 A 
ATOM     29  C   UNL A   1      40.153  24.003  28.043  1.00  0.00     0.016 A 
ATOM     30  C   UNL A   1      42.375  24.899  26.646  1.00  0.00     0.010 A 
ATOM     31  C   UNL A   1      40.602  25.315  28.218  1.00  0.00     0.010 A 
ATOM     32  C   UNL A   1      41.748  25.754  27.549  1.00  0.00    -0.014 A 
BRANCH  32  33
ATOM     33  C   UNL A   1      42.266  27.131  27.616  1.00  0.00     0.031 A 
ATOM     34  C   UNL A   1      41.198  28.159  27.591  1.00  0.00     0.074 A 
ATOM     35  C   UNL A   1      43.441  27.480  28.178  1.00  0.00     0.049 A 
ATOM     36  N   UNL A   1      40.490  28.390  28.654  1.00  0.00    -0.248 NA
ATOM     37  C   UNL A   1      40.673  28.767  26.374  1.00  0.00     0.031 C 
ATOM     38  C   UNL A   1      44.141  26.690  29.197  1.00  0.00     0.029 A 
ATOM     39  N   UNL A   1      44.115  28.678  28.152  1.00  0.00    -0.354 N 
ATOM     40  C   UNL A   1      39.368  29.075  28.250  1.00  0.00     0.074 A 
ATOM     41  C   UNL A   1      39.539  29.325  26.834  1.00  0.00     0.031 C 
ATOM     42  C   UNL A   1      45.004  27.501  29.846  1.00  0.00     0.029 A 
ATOM     43  C   UNL A   1      45.046  28.800  29.180  1.00  0.00     0.049 A 
ATOM     44  H   UNL A   1      43.956  29.377  27.479  1.00  0.00     0.167 HD
ATOM     45  C   UNL A   1      38.354  29.344  29.109  1.00  0.00     0.031 A 
ATOM     46  C   UNL A   1      45.385  29.975  29.778  1.00  0.00     0.031 A 
ATOM     47  C   UNL A   1      38.554  28.879  30.451  1.00  0.00     0.049 A 
ATOM     48  C   UNL A   1      44.117  30.303  30.528  1.00  0.00     0.074 A 
ATOM     49  C   UNL A   1      38.279  27.727  31.158  1.00  0.00     0.029 A 
ATOM     50  N   UNL A   1      39.350  29.629  31.286  1.00  0.00    -0.354 N 
ATOM     51  N   UNL A   1      43.714  29.753  31.641  1.00  0.00    -0.248 NA
ATOM     52  C   UNL A   1      43.085  31.064  29.819  1.00  0.00     0.031 C 
ATOM     53  C   UNL A   1      39.275  27.658  32.182  1.00  0.00     0.029 A 
ATOM     54  C   UNL A   1      40.124  28.748  32.001  1.00  0.00     0.049 A 
ATOM     55  H   UNL A   1      39.361  30.611  31.358  1.00  0.00     0.167 HD
ATOM     56  C   UNL A   1      42.321  29.822  31.603  1.00  0.00     0.074 A 
ATOM     57  C   UNL A   1      42.001  30.693  30.489  1.00  0.00     0.031 C 
ATOM     58  C   UNL A   1      41.508  29.006  32.335  1.00  0.00     0.031 A 
BRANCH  45  59
ATOM     59  C   UNL A   1      37.158  30.121  28.756  1.00  0.00    -0.014 A 
ATOM     60  C   UNL A   1      36.088  29.453  28.144  1.00  0.00     0.009 A 
ATOM     61  C   UNL A   1      37.136  31.516  28.853  1.00  0.00     0.009 A 
ATOM     62  C   UNL A   1      35.026  30.172  27.601  1.00  0.00     0.001 A 
ATOM     63  C   UNL A   1      36.066  32.234  28.314  1.00  0.00     0.001 A 
ATOM     64  C   UNL A   1      35.020  31.563  27.677  1.00  0.00     0.000 A 
ENDBRANCH  45  59
BRANCH  46  65
ATOM     65  C   UNL A   1      46.079  30.979  28.904  1.00  0.00    -0.014 A 
ATOM     66  C   UNL A   1      46.643  30.538  27.689  1.00  0.00     0.009 A 
ATOM     67  C   UNL A   1      46.238  32.337  29.224  1.00  0.00     0.009 A 
ATOM     68  C   UNL A   1      47.230  31.429  26.786  1.00  0.00     0.001 A 
ATOM     69  C   UNL A   1      46.799  33.237  28.308  1.00  0.00     0.001 A 
ATOM     70  C   UNL A   1      47.281  32.785  27.083  1.00  0.00     0.000 A 
ENDBRANCH  46  65
BRANCH  58  71
ATOM     71  C   UNL A   1      42.188  28.133  33.337  1.00  0.00    -0.014 A 
ATOM     72  C   UNL A   1      42.968  27.050  32.913  1.00  0.00     0.009 A 
ATOM     73  C   UNL A   1      42.099  28.414  34.711  1.00  0.00     0.009 A 
ATOM     74  C   UNL A   1      43.672  26.284  33.843  1.00  0.00     0.001 A 
ATOM     75  C   UNL A   1      42.815  27.655  35.637  1.00  0.00     0.001 A 
ATOM     76  C   UNL A   1      43.606  26.593  35.201  1.00  0.00     0.000 A 
ENDBRANCH  58  71
ENDBRANCH  32  33
ENDBRANCH  25  27
ENDBRANCH  24  25
ENDBRANCH  23  24
ENDBRANCH   1  23
TORSDOF 13
ENDMDL
MODEL 2
REMARK VINA RESULT:     -10.9      3.987      8.189
REMARK SMILES Cc1cc(C(=O)N2CCC[C@H]2C(=O)OCCOC(=O)c2ccc(-c3c4nc(c(-c5ccccc5)c5ccc([nH]5)c(-c5ccccc5)c5nc(c(-c6ccccc6)c6ccc3[nH]6)C=C5)C=C4)cc2)c2c(C)noc2n1
REMARK SMILES IDX 15 1 14 2 12 3 13 4 11 5 7 6 8 7 9 8 10 9 5 10 6 11 4 12
REMARK SMILES IDX 1 13 2 14 3 15 74 16 73 17 68 18 72 19 69 20 71 21 70 22
REMARK SMILES IDX 16 23 17 24 18 25 19 26 20 27 21 28 67 29 22 30 66 31 23 32
REMARK SMILES IDX 24 33 25 34 60 35 26 36 65 37 59 38 61 39 27 40 64 41 58 42
REMARK SMILES IDX 57 43 28 45 50 46 35 47 49 48 36 49 39 50 48 51 62 52 37 53
REMARK SMILES IDX 38 54 47 56 63 57 40 58 29 59 30 60 34 61 31 62 33 63 32 64
REMARK SMILES IDX 51 65 52 66 56 67 53 68 55 69 54 70 41 71 42 72 46 73 43 74
REMARK SMILES IDX 45 75 44 76
REMARK H PARENT 61 44 39 55
REMARK Flexibility Score: inf
ROOT
ATOM      1  C   UNL A   1      45.781  28.729  26.460  1.00  0.00     0.274 C 
ENDROOT
BRANCH   1   2
ATOM      2  O   UNL A   1      45.000  28.319  25.321  1.00  0.00    -0.461 OA
BRANCH   2   3
ATOM      3  C   UNL A   1      44.750  26.980  25.216  1.00  0.00     0.328 C 
ATOM      4  O   UNL A   1      45.595  26.164  24.865  1.00  0.00    -0.250 OA
BRANCH   3   5
ATOM      5  C   UNL A   1      43.283  26.627  25.562  1.00  0.00     0.195 C 
ATOM      6  N   UNL A   1      43.062  26.358  27.001  1.00  0.00    -0.325 N 
ATOM      7  C   UNL A   1      42.327  27.467  27.596  1.00  0.00     0.121 C 
ATOM      8  C   UNL A   1      41.382  27.860  26.481  1.00  0.00     0.024 C 
ATOM      9  C   UNL A   1      42.266  27.745  25.239  1.00  0.00     0.039 C 
BRANCH   6  10
ATOM     10  C   UNL A   1      43.376  25.117  27.546  1.00  0.00     0.255 C 
ATOM     11  O   UNL A   1      44.003  24.988  28.592  1.00  0.00    -0.269 OA
BRANCH  10  12
ATOM     12  C   UNL A   1      43.059  23.878  26.803  1.00  0.00     0.056 A 
ATOM     13  C   UNL A   1      45.011  21.128  25.076  1.00  0.00     0.067 C 
ATOM     14  C   UNL A   1      43.863  21.917  25.635  1.00  0.00     0.042 A 
ATOM     15  C   UNL A   1      44.120  23.115  26.291  1.00  0.00     0.038 A 
ATOM     16  N   UNL A   1      42.637  21.381  25.505  1.00  0.00    -0.216 NA
ATOM     17  C   UNL A   1      41.652  22.112  26.061  1.00  0.00     0.258 A 
ATOM     18  C   UNL A   1      41.763  23.328  26.726  1.00  0.00     0.077 A 
ATOM     19  O   UNL A   1      40.350  21.721  26.043  1.00  0.00    -0.336 OA
ATOM     20  C   UNL A   1      40.416  23.612  27.112  1.00  0.00     0.091 A 
ATOM     21  N   UNL A   1      39.571  22.659  26.690  1.00  0.00    -0.082 NA
ATOM     22  C   UNL A   1      39.826  24.774  27.824  1.00  0.00     0.071 C 
ENDBRANCH  10  12
ENDBRANCH   6  10
ENDBRANCH   3   5
ENDBRANCH   2   3
ENDBRANCH   1   2
BRANCH   1  23
ATOM     23  C   UNL A   1      46.633  29.961  26.149  1.00  0.00     0.275 C 
BRANCH  23  24
ATOM     24  O   UNL A   1      46.260  31.075  26.982  1.00  0.00    -0.458 OA
BRANCH  24  25
ATOM     25  C   UNL A   1      45.299  31.881  26.471  1.00  0.00     0.338 C 
ATOM     26  O   UNL A   1      45.227  32.302  25.328  1.00  0.00    -0.246 OA
BRANCH  25  27
ATOM     27  C   UNL A   1      44.248  32.167  27.465  1.00  0.00     0.060 A 
ATOM     28  C   UNL A   1      44.007  33.472  27.884  1.00  0.00     0.016 A 
ATOM     29  C   UNL A   1      43.634  31.096  28.127  1.00  0.00     0.016 A 
ATOM     30  C   UNL A   1      43.242  33.691  29.022  1.00  0.00     0.010 A 
ATOM     31  C   UNL A   1      42.829  31.332  29.244  1.00  0.00     0.010 A 
ATOM     32  C   UNL A   1      42.667  32.635  29.723  1.00  0.00    -0.014 A 
BRANCH  32  33
ATOM     33  C   UNL A   1      41.792  32.996  30.852  1.00  0.00     0.031 A 
ATOM     34  C   UNL A   1      40.352  32.787  30.567  1.00  0.00     0.074 A 
ATOM     35  C   UNL A   1      42.170  32.984  32.147  1.00  0.00     0.049 A 
ATOM     36  N   UNL A   1      39.852  31.590  30.582  1.00  0.00    -0.248 NA
ATOM     37  C   UNL A   1      39.474  33.798  29.991  1.00  0.00     0.031 C 
ATOM     38  C   UNL A   1      43.280  32.188  32.680  1.00  0.00     0.029 A 
ATOM     39  N   UNL A   1      41.523  33.459  33.263  1.00  0.00    -0.354 N 
ATOM     40  C   UNL A   1      38.645  31.649  29.925  1.00  0.00     0.074 A 
ATOM     41  C   UNL A   1      38.429  33.045  29.609  1.00  0.00     0.031 C 
ATOM     42  C   UNL A   1      43.108  32.056  34.013  1.00  0.00     0.029 A 
ATOM     43  C   UNL A   1      41.992  32.893  34.445  1.00  0.00     0.049 A 
ATOM     44  H   UNL A   1      40.803  34.129  33.230  1.00  0.00     0.167 HD
ATOM     45  C   UNL A   1      37.934  30.527  29.647  1.00  0.00     0.031 A 
ATOM     46  C   UNL A   1      41.228  32.670  35.549  1.00  0.00     0.031 A 
ATOM     47  C   UNL A   1      38.526  29.303  30.102  1.00  0.00     0.049 A 
ATOM     48  C   UNL A   1      40.323  31.563  35.066  1.00  0.00     0.074 A 
ATOM     49  C   UNL A   1      39.395  28.365  29.586  1.00  0.00     0.029 A 
ATOM     50  N   UNL A   1      38.381  28.966  31.428  1.00  0.00    -0.354 N 
ATOM     51  N   UNL A   1      40.647  30.306  34.929  1.00  0.00    -0.248 NA
ATOM     52  C   UNL A   1      39.080  31.946  34.392  1.00  0.00     0.031 C 
ATOM     53  C   UNL A   1      40.060  27.795  30.718  1.00  0.00     0.029 A 
ATOM     54  C   UNL A   1      39.587  28.460  31.847  1.00  0.00     0.049 A 
ATOM     55  H   UNL A   1      37.567  29.066  31.972  1.00  0.00     0.167 HD
ATOM     56  C   UNL A   1      39.837  29.827  33.898  1.00  0.00     0.074 A 
ATOM     57  C   UNL A   1      38.855  30.866  33.655  1.00  0.00     0.031 C 
ATOM     58  C   UNL A   1      40.137  28.719  33.160  1.00  0.00     0.031 A 
BRANCH  45  59
ATOM     59  C   UNL A   1      36.613  30.527  29.002  1.00  0.00    -0.014 A 
ATOM     60  C   UNL A   1      36.337  29.533  28.054  1.00  0.00     0.009 A 
ATOM     61  C   UNL A   1      35.711  31.581  29.181  1.00  0.00     0.009 A 
ATOM     62  C   UNL A   1      35.192  29.610  27.265  1.00  0.00     0.001 A 
ATOM     63  C   UNL A   1      34.560  31.652  28.392  1.00  0.00     0.001 A 
ATOM     64  C   UNL A   1      34.309  30.674  27.427  1.00  0.00     0.000 A 
ENDBRANCH  45  59
BRANCH  46  65
ATOM     65  C   UNL A   1      40.696  33.894  36.237  1.00  0.00    -0.014 A 
ATOM     66  C   UNL A   1      39.835  33.724  37.341  1.00  0.00     0.009 A 
ATOM     67  C   UNL A   1      40.970  35.212  35.840  1.00  0.00     0.009 A 
ATOM     68  C   UNL A   1      39.369  34.814  38.083  1.00  0.00     0.001 A 
ATOM     69  C   UNL A   1      40.529  36.305  36.599  1.00  0.00     0.001 A 
ATOM     70  C   UNL A   1      39.740  36.104  37.729  1.00  0.00     0.000 A 
ENDBRANCH  46  65
BRANCH  58  71
ATOM     71  C   UNL A   1      41.306  27.917  33.629  1.00  0.00    -0.014 A 
ATOM     72  C   UNL A   1      42.590  28.196  33.146  1.00  0.00     0.009 A 
ATOM     73  C   UNL A   1      41.145  26.911  34.596  1.00  0.00     0.009 A 
ATOM     74  C   UNL A   1      43.696  27.506  33.645  1.00  0.00     0.001 A 
ATOM     75  C   UNL A   1      42.252  26.231  35.103  1.00  0.00     0.001 A 
ATOM     76  C   UNL A   1      43.528  26.533  34.631  1.00  0.00     0.000 A 
ENDBRANCH  58  71
ENDBRANCH  32  33
ENDBRANCH  25  27
ENDBRANCH  24  25
ENDBRANCH  23  24
ENDBRANCH   1  23
TORSDOF 13
ENDMDL
MODEL 3
REMARK VINA RESULT:     -10.9      4.321      8.906
REMARK SMILES Cc1cc(C(=O)N2CCC[C@H]2C(=O)OCCOC(=O)c2ccc(-c3c4nc(c(-c5ccccc5)c5ccc([nH]5)c(-c5ccccc5)c5nc(c(-c6ccccc6)c6ccc3[nH]6)C=C5)C=C4)cc2)c2c(C)noc2n1
REMARK SMILES IDX 15 1 14 2 12 3 13 4 11 5 7 6 8 7 9 8 10 9 5 10 6 11 4 12
REMARK SMILES IDX 1 13 2 14 3 15 74 16 73 17 68 18 72 19 69 20 71 21 70 22
REMARK SMILES IDX 16 23 17 24 18 25 19 26 20 27 21 28 67 29 22 30 66 31 23 32
REMARK SMILES IDX 24 33 25 34 60 35 26 36 65 37 59 38 61 39 27 40 64 41 58 42
REMARK SMILES IDX 57 43 28 45 50 46 35 47 49 48 36 49 39 50 48 51 62 52 37 53
REMARK SMILES IDX 38 54 47 56 63 57 40 58 29 59 30 60 34 61 31 62 33 63 32 64
REMARK SMILES IDX 51 65 52 66 56 67 53 68 55 69 54 70 41 71 42 72 46 73 43 74
REMARK SMILES IDX 45 75 44 76
REMARK H PARENT 61 44 39 55
REMARK Flexibility Score: inf
ROOT
ATOM      1  C   UNL A   1      45.731  26.399  26.678  1.00  0.00     0.274 C 
ENDROOT
BRANCH   1   2
ATOM      2  O   UNL A   1      45.369  25.055  27.052  1.00  0.00    -0.461 OA
BRANCH   2   3
ATOM      3  C   UNL A   1      46.283  24.084  26.755  1.00  0.00     0.328 C 
ATOM      4  O   UNL A   1      47.482  24.197  26.982  1.00  0.00    -0.250 OA
BRANCH   3   5
ATOM      5  C   UNL A   1      45.632  22.852  26.081  1.00  0.00     0.195 C 
ATOM      6  N   UNL A   1      44.158  22.941  25.977  1.00  0.00    -0.325 N 
ATOM      7  C   UNL A   1      43.780  23.176  24.589  1.00  0.00     0.121 C 
ATOM      8  C   UNL A   1      44.802  22.351  23.835  1.00  0.00     0.024 C 
ATOM      9  C   UNL A   1      46.086  22.610  24.623  1.00  0.00     0.039 C 
BRANCH   6  10
ATOM     10  C   UNL A   1      43.353  22.634  27.069  1.00  0.00     0.255 C 
ATOM     11  O   UNL A   1      43.805  22.405  28.187  1.00  0.00    -0.269 OA
BRANCH  10  12
ATOM     12  C   UNL A   1      41.896  22.450  26.890  1.00  0.00     0.056 A 
ATOM     13  C   UNL A   1      38.811  24.645  27.002  1.00  0.00     0.067 C 
ATOM     14  C   UNL A   1      39.691  23.443  26.821  1.00  0.00     0.042 A 
ATOM     15  C   UNL A   1      41.058  23.567  27.035  1.00  0.00     0.038 A 
ATOM     16  N   UNL A   1      39.096  22.311  26.409  1.00  0.00    -0.216 NA
ATOM     17  C   UNL A   1      39.939  21.278  26.224  1.00  0.00     0.258 A 
ATOM     18  C   UNL A   1      41.317  21.255  26.416  1.00  0.00     0.077 A 
ATOM     19  O   UNL A   1      39.521  20.057  25.794  1.00  0.00    -0.336 OA
ATOM     20  C   UNL A   1      41.675  19.921  26.048  1.00  0.00     0.091 A 
ATOM     21  N   UNL A   1      40.599  19.203  25.691  1.00  0.00    -0.082 NA
ATOM     22  C   UNL A   1      42.985  19.223  26.055  1.00  0.00     0.071 C 
ENDBRANCH  10  12
ENDBRANCH   6  10
ENDBRANCH   3   5
ENDBRANCH   2   3
ENDBRANCH   1   2
BRANCH   1  23
ATOM     23  C   UNL A   1      44.729  27.002  25.691  1.00  0.00     0.275 C 
BRANCH  23  24
ATOM     24  O   UNL A   1      43.958  28.050  26.308  1.00  0.00    -0.458 OA
BRANCH  24  25
ATOM     25  C   UNL A   1      42.714  28.226  25.802  1.00  0.00     0.338 C 
ATOM     26  O   UNL A   1      42.299  27.833  24.725  1.00  0.00    -0.246 OA
BRANCH  25  27
ATOM     27  C   UNL A   1      41.834  28.919  26.762  1.00  0.00     0.060 A 
ATOM     28  C   UNL A   1      42.360  29.499  27.913  1.00  0.00     0.016 A 
ATOM     29  C   UNL A   1      40.446  28.816  26.603  1.00  0.00     0.016 A 
ATOM     30  C   UNL A   1      41.503  29.872  28.939  1.00  0.00     0.010 A 
ATOM     31  C   UNL A   1      39.591  29.237  27.624  1.00  0.00     0.010 A 
ATOM     32  C   UNL A   1      40.123  29.728  28.820  1.00  0.00    -0.014 A 
BRANCH  32  33
ATOM     33  C   UNL A   1      39.311  30.255  29.930  1.00  0.00     0.031 A 
ATOM     34  C   UNL A   1      39.580  29.581  31.223  1.00  0.00     0.074 A 
ATOM     35  C   UNL A   1      38.806  31.504  29.982  1.00  0.00     0.049 A 
ATOM     36  N   UNL A   1      40.653  29.863  31.894  1.00  0.00    -0.248 NA
ATOM     37  C   UNL A   1      38.866  28.401  31.697  1.00  0.00     0.031 C 
ATOM     38  C   UNL A   1      39.346  32.650  29.242  1.00  0.00     0.029 A 
ATOM     39  N   UNL A   1      37.901  32.059  30.856  1.00  0.00    -0.354 N 
ATOM     40  C   UNL A   1      40.834  28.852  32.809  1.00  0.00     0.074 A 
ATOM     41  C   UNL A   1      39.682  27.985  32.681  1.00  0.00     0.031 C 
ATOM     42  C   UNL A   1      38.920  33.783  29.841  1.00  0.00     0.029 A 
ATOM     43  C   UNL A   1      37.950  33.450  30.880  1.00  0.00     0.049 A 
ATOM     44  H   UNL A   1      37.283  31.528  31.409  1.00  0.00     0.167 HD
ATOM     45  C   UNL A   1      41.952  28.779  33.574  1.00  0.00     0.031 A 
ATOM     46  C   UNL A   1      37.684  34.212  31.976  1.00  0.00     0.031 A 
ATOM     47  C   UNL A   1      42.902  29.834  33.366  1.00  0.00     0.049 A 
ATOM     48  C   UNL A   1      38.868  33.890  32.856  1.00  0.00     0.074 A 
ATOM     49  C   UNL A   1      43.991  30.046  32.548  1.00  0.00     0.029 A 
ATOM     50  N   UNL A   1      42.667  31.047  33.971  1.00  0.00    -0.354 N 
ATOM     51  N   UNL A   1      40.080  34.353  32.720  1.00  0.00    -0.248 NA
ATOM     52  C   UNL A   1      38.758  32.731  33.745  1.00  0.00     0.031 C 
ATOM     53  C   UNL A   1      44.069  31.464  32.373  1.00  0.00     0.029 A 
ATOM     54  C   UNL A   1      42.990  32.020  33.057  1.00  0.00     0.049 A 
ATOM     55  H   UNL A   1      42.331  31.190  34.885  1.00  0.00     0.167 HD
ATOM     56  C   UNL A   1      40.915  33.361  33.235  1.00  0.00     0.074 A 
ATOM     57  C   UNL A   1      40.039  32.420  33.905  1.00  0.00     0.031 C 
ATOM     58  C   UNL A   1      42.234  33.245  32.909  1.00  0.00     0.031 A 
BRANCH  45  59
ATOM     59  C   UNL A   1      42.179  27.760  34.609  1.00  0.00    -0.014 A 
ATOM     60  C   UNL A   1      42.768  26.547  34.228  1.00  0.00     0.009 A 
ATOM     61  C   UNL A   1      41.667  27.904  35.902  1.00  0.00     0.009 A 
ATOM     62  C   UNL A   1      42.812  25.475  35.116  1.00  0.00     0.001 A 
ATOM     63  C   UNL A   1      41.719  26.829  36.793  1.00  0.00     0.001 A 
ATOM     64  C   UNL A   1      42.278  25.614  36.396  1.00  0.00     0.000 A 
ENDBRANCH  45  59
BRANCH  46  65
ATOM     65  C   UNL A   1      36.273  34.160  32.485  1.00  0.00    -0.014 A 
ATOM     66  C   UNL A   1      35.659  35.364  32.889  1.00  0.00     0.009 A 
ATOM     67  C   UNL A   1      35.518  32.984  32.618  1.00  0.00     0.009 A 
ATOM     68  C   UNL A   1      34.322  35.406  33.293  1.00  0.00     0.001 A 
ATOM     69  C   UNL A   1      34.169  33.027  32.994  1.00  0.00     0.001 A 
ATOM     70  C   UNL A   1      33.567  34.240  33.318  1.00  0.00     0.000 A 
ENDBRANCH  46  65
BRANCH  58  71
ATOM     71  C   UNL A   1      42.808  34.358  32.094  1.00  0.00    -0.014 A 
ATOM     72  C   UNL A   1      43.518  35.392  32.717  1.00  0.00     0.009 A 
ATOM     73  C   UNL A   1      42.691  34.356  30.694  1.00  0.00     0.009 A 
ATOM     74  C   UNL A   1      44.127  36.387  31.952  1.00  0.00     0.001 A 
ATOM     75  C   UNL A   1      43.312  35.345  29.930  1.00  0.00     0.001 A 
ATOM     76  C   UNL A   1      44.035  36.357  30.560  1.00  0.00     0.000 A 
ENDBRANCH  58  71
ENDBRANCH  32  33
ENDBRANCH  25  27
ENDBRANCH  24  25
ENDBRANCH  23  24
ENDBRANCH   1  23
TORSDOF 13
ENDMDL
