MODEL 1
REMARK VINA RESULT:     -11.2      0.000      0.000
REMARK SMILES O=C(OCCOC(=O)c1cccc2c(=O)oc(=O)[nH]c12)c1ccc(-c2c3nc(c(-c4ccccc4)c4ccc([nH]4)c(-c4ccccc4)c4nc(c(-c5ccccc5)c5ccc2[nH]5)C=C4)C=C3)cc1
REMARK SMILES IDX 4 1 3 2 2 3 1 4 21 5 22 6 68 7 23 8 67 9 24 10 25 11 26 12
REMARK SMILES IDX 61 13 27 14 66 15 60 16 62 17 28 18 65 19 59 20 58 21 29 23
REMARK SMILES IDX 51 24 36 25 50 26 37 27 40 28 49 29 63 30 38 31 39 32 48 34
REMARK SMILES IDX 64 35 41 36 30 37 31 38 35 39 32 40 34 41 33 42 52 43 53 44
REMARK SMILES IDX 57 45 54 46 56 47 55 48 42 49 43 50 47 51 44 52 46 53 45 54
REMARK SMILES IDX 5 55 6 56 7 57 8 58 9 59 10 60 20 61 11 62 13 63 19 64 12 65
REMARK SMILES IDX 14 66 17 67 15 69 16 70 18 71
REMARK H PARENT 62 22 40 33 19 68
REMARK Flexibility Score: inf
ROOT
ATOM      1  C   UNL A   1      31.456  32.239  26.970  1.00  0.00     0.275 C 
ENDROOT
BRANCH   1   2
ATOM      2  O   UNL A   1      32.182  33.476  27.061  1.00  0.00    -0.458 OA
BRANCH   2   3
ATOM      3  C   UNL A   1      32.886  34.002  28.089  1.00  0.00     0.338 C 
ATOM      4  O   UNL A   1      32.528  35.075  28.570  1.00  0.00    -0.246 OA
BRANCH   3   5
ATOM      5  C   UNL A   1      34.189  33.439  28.551  1.00  0.00     0.060 A 
ATOM      6  C   UNL A   1      34.152  32.704  29.747  1.00  0.00     0.016 A 
ATOM      7  C   UNL A   1      35.423  33.596  27.920  1.00  0.00     0.016 A 
ATOM      8  C   UNL A   1      35.327  32.288  30.375  1.00  0.00     0.010 A 
ATOM      9  C   UNL A   1      36.604  33.157  28.528  1.00  0.00     0.010 A 
ATOM     10  C   UNL A   1      36.567  32.523  29.771  1.00  0.00    -0.014 A 
BRANCH  10  11
ATOM     11  C   UNL A   1      37.785  31.867  30.292  1.00  0.00     0.031 A 
ATOM     12  C   UNL A   1      38.286  30.548  29.793  1.00  0.00     0.074 A 
ATOM     13  C   UNL A   1      38.398  32.486  31.317  1.00  0.00     0.049 A 
ATOM     14  N   UNL A   1      39.430  29.967  30.047  1.00  0.00    -0.248 NA
ATOM     15  C   UNL A   1      37.426  29.787  28.876  1.00  0.00     0.031 C 
ATOM     16  C   UNL A   1      37.966  33.758  31.905  1.00  0.00     0.029 A 
ATOM     17  N   UNL A   1      39.482  32.120  32.065  1.00  0.00    -0.354 N 
ATOM     18  C   UNL A   1      39.471  28.835  29.247  1.00  0.00     0.074 A 
ATOM     19  C   UNL A   1      38.214  28.771  28.537  1.00  0.00     0.031 C 
ATOM     20  C   UNL A   1      38.766  34.057  32.931  1.00  0.00     0.029 A 
ATOM     21  C   UNL A   1      39.723  32.974  33.109  1.00  0.00     0.049 A 
ATOM     22  H   UNL A   1      40.032  31.327  31.873  1.00  0.00     0.167 HD
ATOM     23  C   UNL A   1      40.471  27.931  29.135  1.00  0.00     0.031 A 
ATOM     24  C   UNL A   1      40.587  32.877  34.134  1.00  0.00     0.031 A 
ATOM     25  C   UNL A   1      41.599  27.892  30.028  1.00  0.00     0.049 A 
ATOM     26  C   UNL A   1      41.533  31.720  34.157  1.00  0.00     0.074 A 
ATOM     27  C   UNL A   1      42.656  26.999  30.040  1.00  0.00     0.029 A 
ATOM     28  N   UNL A   1      41.757  28.719  31.130  1.00  0.00    -0.354 N 
ATOM     29  N   UNL A   1      41.675  30.769  33.264  1.00  0.00    -0.248 NA
ATOM     30  C   UNL A   1      42.436  31.617  35.306  1.00  0.00     0.031 C 
ATOM     31  C   UNL A   1      43.360  27.190  31.232  1.00  0.00     0.029 A 
ATOM     32  C   UNL A   1      42.816  28.276  31.903  1.00  0.00     0.049 A 
ATOM     33  H   UNL A   1      41.200  29.505  31.332  1.00  0.00     0.167 HD
ATOM     34  C   UNL A   1      42.695  29.957  33.734  1.00  0.00     0.074 A 
ATOM     35  C   UNL A   1      43.140  30.536  34.989  1.00  0.00     0.031 C 
ATOM     36  C   UNL A   1      43.217  28.841  33.169  1.00  0.00     0.031 A 
BRANCH  23  37
ATOM     37  C   UNL A   1      40.369  26.866  28.077  1.00  0.00    -0.014 A 
ATOM     38  C   UNL A   1      39.792  25.623  28.379  1.00  0.00     0.009 A 
ATOM     39  C   UNL A   1      40.968  27.045  26.819  1.00  0.00     0.009 A 
ATOM     40  C   UNL A   1      39.831  24.576  27.455  1.00  0.00     0.001 A 
ATOM     41  C   UNL A   1      40.992  26.001  25.889  1.00  0.00     0.001 A 
ATOM     42  C   UNL A   1      40.430  24.765  26.210  1.00  0.00     0.000 A 
ENDBRANCH  23  37
BRANCH  24  43
ATOM     43  C   UNL A   1      40.532  33.926  35.183  1.00  0.00    -0.014 A 
ATOM     44  C   UNL A   1      39.658  33.777  36.277  1.00  0.00     0.009 A 
ATOM     45  C   UNL A   1      41.180  35.153  34.993  1.00  0.00     0.009 A 
ATOM     46  C   UNL A   1      39.383  34.856  37.119  1.00  0.00     0.001 A 
ATOM     47  C   UNL A   1      40.926  36.220  35.859  1.00  0.00     0.001 A 
ATOM     48  C   UNL A   1      40.014  36.078  36.905  1.00  0.00     0.000 A 
ENDBRANCH  24  43
BRANCH  36  49
ATOM     49  C   UNL A   1      44.308  28.126  33.913  1.00  0.00    -0.014 A 
ATOM     50  C   UNL A   1      43.976  27.151  34.868  1.00  0.00     0.009 A 
ATOM     51  C   UNL A   1      45.647  28.520  33.775  1.00  0.00     0.009 A 
ATOM     52  C   UNL A   1      44.959  26.616  35.701  1.00  0.00     0.001 A 
ATOM     53  C   UNL A   1      46.633  27.956  34.586  1.00  0.00     0.001 A 
ATOM     54  C   UNL A   1      46.285  27.019  35.559  1.00  0.00     0.000 A 
ENDBRANCH  36  49
ENDBRANCH  10  11
ENDBRANCH   3   5
ENDBRANCH   2   3
ENDBRANCH   1   2
BRANCH   1  55
ATOM     55  C   UNL A   1      32.314  30.979  26.813  1.00  0.00     0.275 C 
BRANCH  55  56
ATOM     56  O   UNL A   1      31.700  29.905  26.081  1.00  0.00    -0.458 OA
BRANCH  56  57
ATOM     57  C   UNL A   1      31.793  28.676  26.654  1.00  0.00     0.340 C 
ATOM     58  O   UNL A   1      31.404  28.359  27.766  1.00  0.00    -0.246 OA
BRANCH  57  59
ATOM     59  C   UNL A   1      32.328  27.699  25.680  1.00  0.00     0.084 A 
ATOM     60  C   UNL A   1      33.472  26.954  25.999  1.00  0.00     0.018 A 
ATOM     61  C   UNL A   1      31.725  27.544  24.420  1.00  0.00     0.073 A 
ATOM     62  C   UNL A   1      34.024  26.082  25.058  1.00  0.00     0.002 A 
ATOM     63  C   UNL A   1      32.308  26.710  23.480  1.00  0.00     0.085 A 
ATOM     64  N   UNL A   1      30.594  28.254  24.029  1.00  0.00    -0.289 N 
ATOM     65  C   UNL A   1      33.460  25.978  23.790  1.00  0.00     0.018 A 
ATOM     66  C   UNL A   1      31.737  26.658  22.127  1.00  0.00     0.349 A 
ATOM     67  C   UNL A   1      30.062  28.202  22.774  1.00  0.00     0.419 A 
ATOM     68  H   UNL A   1      30.154  28.827  24.697  1.00  0.00     0.173 HD
ATOM     69  O   UNL A   1      32.267  25.954  21.274  1.00  0.00    -0.246 OA
ATOM     70  O   UNL A   1      30.656  27.413  21.846  1.00  0.00    -0.372 OA
ATOM     71  O   UNL A   1      29.072  28.873  22.489  1.00  0.00    -0.224 OA
ENDBRANCH  57  59
ENDBRANCH  56  57
ENDBRANCH  55  56
ENDBRANCH   1  55
TORSDOF 11
ENDMDL
MODEL 2
REMARK VINA RESULT:     -11.0      4.971      9.546
REMARK SMILES O=C(OCCOC(=O)c1cccc2c(=O)oc(=O)[nH]c12)c1ccc(-c2c3nc(c(-c4ccccc4)c4ccc([nH]4)c(-c4ccccc4)c4nc(c(-c5ccccc5)c5ccc2[nH]5)C=C4)C=C3)cc1
REMARK SMILES IDX 4 1 3 2 2 3 1 4 21 5 22 6 68 7 23 8 67 9 24 10 25 11 26 12
REMARK SMILES IDX 61 13 27 14 66 15 60 16 62 17 28 18 65 19 59 20 58 21 29 23
REMARK SMILES IDX 51 24 36 25 50 26 37 27 40 28 49 29 63 30 38 31 39 32 48 34
REMARK SMILES IDX 64 35 41 36 30 37 31 38 35 39 32 40 34 41 33 42 52 43 53 44
REMARK SMILES IDX 57 45 54 46 56 47 55 48 42 49 43 50 47 51 44 52 46 53 45 54
REMARK SMILES IDX 5 55 6 56 7 57 8 58 9 59 10 60 20 61 11 62 13 63 19 64 12 65
REMARK SMILES IDX 14 66 17 67 15 69 16 70 18 71
REMARK H PARENT 62 22 40 33 19 68
REMARK Flexibility Score: inf
ROOT
ATOM      1  C   UNL A   1      38.534  19.884  24.962  1.00  0.00     0.275 C 
ENDROOT
BRANCH   1   2
ATOM      2  O   UNL A   1      39.518  19.334  25.853  1.00  0.00    -0.458 OA
BRANCH   2   3
ATOM      3  C   UNL A   1      40.809  19.686  26.053  1.00  0.00     0.338 C 
ATOM      4  O   UNL A   1      41.686  18.834  25.930  1.00  0.00    -0.246 OA
BRANCH   3   5
ATOM      5  C   UNL A   1      41.210  21.016  26.601  1.00  0.00     0.060 A 
ATOM      6  C   UNL A   1      41.736  21.930  25.674  1.00  0.00     0.016 A 
ATOM      7  C   UNL A   1      41.129  21.414  27.936  1.00  0.00     0.016 A 
ATOM      8  C   UNL A   1      42.316  23.128  26.092  1.00  0.00     0.010 A 
ATOM      9  C   UNL A   1      41.682  22.627  28.360  1.00  0.00     0.010 A 
ATOM     10  C   UNL A   1      42.302  23.481  27.446  1.00  0.00    -0.014 A 
BRANCH  10  11
ATOM     11  C   UNL A   1      42.675  24.849  27.863  1.00  0.00     0.031 A 
ATOM     12  C   UNL A   1      41.684  25.958  28.028  1.00  0.00     0.074 A 
ATOM     13  C   UNL A   1      43.991  25.082  28.019  1.00  0.00     0.049 A 
ATOM     14  N   UNL A   1      41.870  27.140  28.557  1.00  0.00    -0.248 NA
ATOM     15  C   UNL A   1      40.307  25.723  27.574  1.00  0.00     0.031 C 
ATOM     16  C   UNL A   1      45.044  24.076  27.843  1.00  0.00     0.029 A 
ATOM     17  N   UNL A   1      44.668  26.230  28.320  1.00  0.00    -0.354 N 
ATOM     18  C   UNL A   1      40.622  27.743  28.596  1.00  0.00     0.074 A 
ATOM     19  C   UNL A   1      39.688  26.827  27.984  1.00  0.00     0.031 C 
ATOM     20  C   UNL A   1      46.233  24.656  28.024  1.00  0.00     0.029 A 
ATOM     21  C   UNL A   1      46.029  26.078  28.266  1.00  0.00     0.049 A 
ATOM     22  H   UNL A   1      44.224  27.077  28.552  1.00  0.00     0.167 HD
ATOM     23  C   UNL A   1      40.302  28.962  29.089  1.00  0.00     0.031 A 
ATOM     24  C   UNL A   1      47.013  26.989  28.350  1.00  0.00     0.031 A 
ATOM     25  C   UNL A   1      41.287  29.940  29.468  1.00  0.00     0.049 A 
ATOM     26  C   UNL A   1      46.642  28.408  28.639  1.00  0.00     0.074 A 
ATOM     27  C   UNL A   1      41.086  31.223  29.943  1.00  0.00     0.029 A 
ATOM     28  N   UNL A   1      42.656  29.778  29.310  1.00  0.00    -0.354 N 
ATOM     29  N   UNL A   1      45.451  28.905  28.871  1.00  0.00    -0.248 NA
ATOM     30  C   UNL A   1      47.731  29.387  28.686  1.00  0.00     0.031 C 
ATOM     31  C   UNL A   1      42.318  31.882  29.923  1.00  0.00     0.029 A 
ATOM     32  C   UNL A   1      43.302  30.978  29.550  1.00  0.00     0.049 A 
ATOM     33  H   UNL A   1      43.101  28.935  29.064  1.00  0.00     0.167 HD
ATOM     34  C   UNL A   1      45.643  30.257  29.106  1.00  0.00     0.074 A 
ATOM     35  C   UNL A   1      47.071  30.497  28.996  1.00  0.00     0.031 C 
ATOM     36  C   UNL A   1      44.719  31.206  29.396  1.00  0.00     0.031 A 
BRANCH  23  37
ATOM     37  C   UNL A   1      38.851  29.347  29.180  1.00  0.00    -0.014 A 
ATOM     38  C   UNL A   1      38.130  29.110  30.361  1.00  0.00     0.009 A 
ATOM     39  C   UNL A   1      38.162  29.821  28.052  1.00  0.00     0.009 A 
ATOM     40  C   UNL A   1      36.749  29.320  30.408  1.00  0.00     0.001 A 
ATOM     41  C   UNL A   1      36.782  30.046  28.105  1.00  0.00     0.001 A 
ATOM     42  C   UNL A   1      36.076  29.788  29.280  1.00  0.00     0.000 A 
ENDBRANCH  23  37
BRANCH  24  43
ATOM     43  C   UNL A   1      48.405  26.521  28.139  1.00  0.00    -0.014 A 
ATOM     44  C   UNL A   1      48.926  26.440  26.833  1.00  0.00     0.009 A 
ATOM     45  C   UNL A   1      49.134  25.962  29.196  1.00  0.00     0.009 A 
ATOM     46  C   UNL A   1      50.114  25.751  26.583  1.00  0.00     0.001 A 
ATOM     47  C   UNL A   1      50.340  25.302  28.944  1.00  0.00     0.001 A 
ATOM     48  C   UNL A   1      50.817  25.178  27.639  1.00  0.00     0.000 A 
ENDBRANCH  24  43
BRANCH  36  49
ATOM     49  C   UNL A   1      45.200  32.618  29.576  1.00  0.00    -0.014 A 
ATOM     50  C   UNL A   1      45.527  33.083  30.860  1.00  0.00     0.009 A 
ATOM     51  C   UNL A   1      45.185  33.523  28.505  1.00  0.00     0.009 A 
ATOM     52  C   UNL A   1      45.789  34.436  31.075  1.00  0.00     0.001 A 
ATOM     53  C   UNL A   1      45.483  34.869  28.717  1.00  0.00     0.001 A 
ATOM     54  C   UNL A   1      45.767  35.327  30.004  1.00  0.00     0.000 A 
ENDBRANCH  36  49
ENDBRANCH  10  11
ENDBRANCH   3   5
ENDBRANCH   2   3
ENDBRANCH   1   2
BRANCH   1  55
ATOM     55  C   UNL A   1      38.002  21.271  25.339  1.00  0.00     0.275 C 
BRANCH  55  56
ATOM     56  O   UNL A   1      36.582  21.444  25.199  1.00  0.00    -0.458 OA
BRANCH  56  57
ATOM     57  C   UNL A   1      36.191  22.357  24.270  1.00  0.00     0.340 C 
ATOM     58  O   UNL A   1      36.635  22.483  23.141  1.00  0.00    -0.246 OA
BRANCH  57  59
ATOM     59  C   UNL A   1      35.029  23.125  24.768  1.00  0.00     0.084 A 
ATOM     60  C   UNL A   1      35.180  24.480  25.096  1.00  0.00     0.018 A 
ATOM     61  C   UNL A   1      33.786  22.496  24.958  1.00  0.00     0.073 A 
ATOM     62  C   UNL A   1      34.106  25.193  25.633  1.00  0.00     0.002 A 
ATOM     63  C   UNL A   1      32.743  23.203  25.533  1.00  0.00     0.085 A 
ATOM     64  N   UNL A   1      33.564  21.155  24.665  1.00  0.00    -0.289 N 
ATOM     65  C   UNL A   1      32.896  24.551  25.877  1.00  0.00     0.018 A 
ATOM     66  C   UNL A   1      31.493  22.495  25.842  1.00  0.00     0.349 A 
ATOM     67  C   UNL A   1      32.401  20.499  24.947  1.00  0.00     0.419 A 
ATOM     68  H   UNL A   1      34.287  20.650  24.229  1.00  0.00     0.173 HD
ATOM     69  O   UNL A   1      30.576  23.098  26.388  1.00  0.00    -0.246 OA
ATOM     70  O   UNL A   1      31.395  21.184  25.543  1.00  0.00    -0.372 OA
ATOM     71  O   UNL A   1      32.278  19.306  24.679  1.00  0.00    -0.224 OA
ENDBRANCH  57  59
ENDBRANCH  56  57
ENDBRANCH  55  56
ENDBRANCH   1  55
TORSDOF 11
ENDMDL
MODEL 3
REMARK VINA RESULT:     -11.0      5.679     10.932
REMARK SMILES O=C(OCCOC(=O)c1cccc2c(=O)oc(=O)[nH]c12)c1ccc(-c2c3nc(c(-c4ccccc4)c4ccc([nH]4)c(-c4ccccc4)c4nc(c(-c5ccccc5)c5ccc2[nH]5)C=C4)C=C3)cc1
REMARK SMILES IDX 4 1 3 2 2 3 1 4 21 5 22 6 68 7 23 8 67 9 24 10 25 11 26 12
REMARK SMILES IDX 61 13 27 14 66 15 60 16 62 17 28 18 65 19 59 20 58 21 29 23
REMARK SMILES IDX 51 24 36 25 50 26 37 27 40 28 49 29 63 30 38 31 39 32 48 34
REMARK SMILES IDX 64 35 41 36 30 37 31 38 35 39 32 40 34 41 33 42 52 43 53 44
REMARK SMILES IDX 57 45 54 46 56 47 55 48 42 49 43 50 47 51 44 52 46 53 45 54
REMARK SMILES IDX 5 55 6 56 7 57 8 58 9 59 10 60 20 61 11 62 13 63 19 64 12 65
REMARK SMILES IDX 14 66 17 67 15 69 16 70 18 71
REMARK H PARENT 62 22 40 33 19 68
REMARK Flexibility Score: inf
ROOT
ATOM      1  C   UNL A   1      43.830  19.178  25.410  1.00  0.00     0.275 C 
ENDROOT
BRANCH   1   2
ATOM      2  O   UNL A   1      42.394  19.188  25.340  1.00  0.00    -0.458 OA
BRANCH   2   3
ATOM      3  C   UNL A   1      41.487  19.842  26.101  1.00  0.00     0.338 C 
ATOM      4  O   UNL A   1      40.380  19.338  26.273  1.00  0.00    -0.246 OA
BRANCH   3   5
ATOM      5  C   UNL A   1      41.695  21.237  26.591  1.00  0.00     0.060 A 
ATOM      6  C   UNL A   1      42.467  21.371  27.756  1.00  0.00     0.016 A 
ATOM      7  C   UNL A   1      41.180  22.398  26.013  1.00  0.00     0.016 A 
ATOM      8  C   UNL A   1      42.576  22.597  28.413  1.00  0.00     0.010 A 
ATOM      9  C   UNL A   1      41.308  23.636  26.649  1.00  0.00     0.010 A 
ATOM     10  C   UNL A   1      41.985  23.742  27.866  1.00  0.00    -0.014 A 
BRANCH  10  11
ATOM     11  C   UNL A   1      42.308  25.078  28.408  1.00  0.00     0.031 A 
ATOM     12  C   UNL A   1      41.326  26.206  28.453  1.00  0.00     0.074 A 
ATOM     13  C   UNL A   1      43.581  25.266  28.800  1.00  0.00     0.049 A 
ATOM     14  N   UNL A   1      41.441  27.357  29.063  1.00  0.00    -0.248 NA
ATOM     15  C   UNL A   1      40.044  26.031  27.757  1.00  0.00     0.031 C 
ATOM     16  C   UNL A   1      44.628  24.240  28.759  1.00  0.00     0.029 A 
ATOM     17  N   UNL A   1      44.218  26.380  29.269  1.00  0.00    -0.354 N 
ATOM     18  C   UNL A   1      40.217  27.994  28.916  1.00  0.00     0.074 A 
ATOM     19  C   UNL A   1      39.386  27.133  28.108  1.00  0.00     0.031 C 
ATOM     20  C   UNL A   1      45.779  24.777  29.171  1.00  0.00     0.029 A 
ATOM     21  C   UNL A   1      45.564  26.192  29.444  1.00  0.00     0.049 A 
ATOM     22  H   UNL A   1      43.758  27.228  29.462  1.00  0.00     0.167 HD
ATOM     23  C   UNL A   1      39.841  29.197  29.406  1.00  0.00     0.031 A 
ATOM     24  C   UNL A   1      46.537  27.070  29.742  1.00  0.00     0.031 A 
ATOM     25  C   UNL A   1      40.765  30.129  29.997  1.00  0.00     0.049 A 
ATOM     26  C   UNL A   1      46.151  28.484  30.032  1.00  0.00     0.074 A 
ATOM     27  C   UNL A   1      40.510  31.395  30.493  1.00  0.00     0.029 A 
ATOM     28  N   UNL A   1      42.137  29.936  30.070  1.00  0.00    -0.354 N 
ATOM     29  N   UNL A   1      44.947  29.005  30.078  1.00  0.00    -0.248 NA
ATOM     30  C   UNL A   1      47.234  29.429  30.314  1.00  0.00     0.031 C 
ATOM     31  C   UNL A   1      41.740  32.019  30.718  1.00  0.00     0.029 A 
ATOM     32  C   UNL A   1      42.756  31.105  30.477  1.00  0.00     0.049 A 
ATOM     33  H   UNL A   1      42.601  29.092  29.864  1.00  0.00     0.167 HD
ATOM     34  C   UNL A   1      45.123  30.338  30.410  1.00  0.00     0.074 A 
ATOM     35  C   UNL A   1      46.552  30.542  30.560  1.00  0.00     0.031 C 
ATOM     36  C   UNL A   1      44.182  31.299  30.581  1.00  0.00     0.031 A 
BRANCH  23  37
ATOM     37  C   UNL A   1      38.405  29.620  29.264  1.00  0.00    -0.014 A 
ATOM     38  C   UNL A   1      37.498  29.406  30.314  1.00  0.00     0.009 A 
ATOM     39  C   UNL A   1      37.917  30.104  28.039  1.00  0.00     0.009 A 
ATOM     40  C   UNL A   1      36.134  29.651  30.139  1.00  0.00     0.001 A 
ATOM     41  C   UNL A   1      36.553  30.365  27.871  1.00  0.00     0.001 A 
ATOM     42  C   UNL A   1      35.661  30.130  28.918  1.00  0.00     0.000 A 
ENDBRANCH  23  37
BRANCH  24  43
ATOM     43  C   UNL A   1      47.935  26.573  29.752  1.00  0.00    -0.014 A 
ATOM     44  C   UNL A   1      48.678  26.546  28.555  1.00  0.00     0.009 A 
ATOM     45  C   UNL A   1      48.454  25.936  30.886  1.00  0.00     0.009 A 
ATOM     46  C   UNL A   1      49.876  25.836  28.478  1.00  0.00     0.001 A 
ATOM     47  C   UNL A   1      49.672  25.255  30.813  1.00  0.00     0.001 A 
ATOM     48  C   UNL A   1      50.370  25.187  29.607  1.00  0.00     0.000 A 
ENDBRANCH  24  43
BRANCH  36  49
ATOM     49  C   UNL A   1      44.652  32.687  30.912  1.00  0.00    -0.014 A 
ATOM     50  C   UNL A   1      44.973  33.579  29.875  1.00  0.00     0.009 A 
ATOM     51  C   UNL A   1      44.917  33.058  32.238  1.00  0.00     0.009 A 
ATOM     52  C   UNL A   1      45.590  34.797  30.158  1.00  0.00     0.001 A 
ATOM     53  C   UNL A   1      45.501  34.293  32.520  1.00  0.00     0.001 A 
ATOM     54  C   UNL A   1      45.852  35.153  31.479  1.00  0.00     0.000 A 
ENDBRANCH  36  49
ENDBRANCH  10  11
ENDBRANCH   3   5
ENDBRANCH   2   3
ENDBRANCH   1   2
BRANCH   1  55
ATOM     55  C   UNL A   1      44.541  20.249  24.575  1.00  0.00     0.275 C 
BRANCH  55  56
ATOM     56  O   UNL A   1      44.797  21.489  25.255  1.00  0.00    -0.458 OA
BRANCH  56  57
ATOM     57  C   UNL A   1      44.458  22.614  24.571  1.00  0.00     0.340 C 
ATOM     58  O   UNL A   1      43.513  22.748  23.811  1.00  0.00    -0.246 OA
BRANCH  57  59
ATOM     59  C   UNL A   1      45.333  23.738  24.973  1.00  0.00     0.084 A 
ATOM     60  C   UNL A   1      46.688  23.501  25.243  1.00  0.00     0.018 A 
ATOM     61  C   UNL A   1      44.806  25.031  25.131  1.00  0.00     0.073 A 
ATOM     62  C   UNL A   1      47.504  24.543  25.691  1.00  0.00     0.002 A 
ATOM     63  C   UNL A   1      45.615  26.045  25.619  1.00  0.00     0.085 A 
ATOM     64  N   UNL A   1      43.471  25.340  24.892  1.00  0.00    -0.289 N 
ATOM     65  C   UNL A   1      46.964  25.808  25.905  1.00  0.00     0.018 A 
ATOM     66  C   UNL A   1      45.016  27.357  25.899  1.00  0.00     0.349 A 
ATOM     67  C   UNL A   1      42.916  26.560  25.146  1.00  0.00     0.419 A 
ATOM     68  H   UNL A   1      42.893  24.636  24.517  1.00  0.00     0.173 HD
ATOM     69  O   UNL A   1      45.711  28.251  26.368  1.00  0.00    -0.246 OA
ATOM     70  O   UNL A   1      43.701  27.538  25.658  1.00  0.00    -0.372 OA
ATOM     71  O   UNL A   1      41.723  26.759  24.931  1.00  0.00    -0.224 OA
ENDBRANCH  57  59
ENDBRANCH  56  57
ENDBRANCH  55  56
ENDBRANCH   1  55
TORSDOF 11
ENDMDL
