MODEL 1
REMARK VINA RESULT:     -11.3      0.000      0.000
REMARK SMILES COc1ccc(-c2sc(N)nc2C(=O)OCCOC(=O)c2ccc(-c3c4nc(c(-c5ccccc5)c5ccc([nH]5)c(-c5ccccc5)c5nc(c(-c6ccccc6)c6ccc3[nH]6)C=C5)C=C4)cc2)cc1OC
REMARK SMILES IDX 16 1 15 2 13 3 14 4 12 5 7 6 8 7 9 8 11 9 6 10 3 11 4 12
REMARK SMILES IDX 70 13 5 14 69 15 2 16 1 17 71 18 72 19 10 20 17 23 18 24
REMARK SMILES IDX 19 25 20 26 21 27 22 28 68 29 23 30 67 31 24 32 25 33 26 34
REMARK SMILES IDX 61 35 27 36 66 37 60 38 62 39 28 40 65 41 59 42 58 43 29 45
REMARK SMILES IDX 51 46 36 47 50 48 37 49 40 50 49 51 63 52 38 53 39 54 48 56
REMARK SMILES IDX 64 57 41 58 30 59 31 60 35 61 32 62 34 63 33 64 52 65 53 66
REMARK SMILES IDX 57 67 54 68 56 69 55 70 42 71 43 72 47 73 44 74 46 75 45 76
REMARK H PARENT 10 21 10 22 62 44 40 55
REMARK Flexibility Score: inf
ROOT
ATOM      1  C   UNL A   1      35.567  23.566  23.640  1.00  0.00     0.275 C 
ENDROOT
BRANCH   1   2
ATOM      2  O   UNL A   1      34.779  23.361  22.448  1.00  0.00    -0.457 OA
BRANCH   2   3
ATOM      3  C   UNL A   1      33.452  23.671  22.556  1.00  0.00     0.358 C 
ATOM      4  O   UNL A   1      32.890  24.518  21.871  1.00  0.00    -0.244 OA
BRANCH   3   5
ATOM      5  C   UNL A   1      32.757  22.885  23.577  1.00  0.00     0.169 A 
ATOM      6  C   UNL A   1      32.117  23.408  24.699  1.00  0.00     0.071 A 
ATOM      7  S   UNL A   1      31.588  22.134  25.706  1.00  0.00    -0.096 S 
ATOM      8  C   UNL A   1      32.303  20.994  24.636  1.00  0.00     0.181 A 
ATOM      9  N   UNL A   1      32.804  21.492  23.537  1.00  0.00    -0.213 NA
BRANCH   6  10
ATOM     10  C   UNL A   1      31.965  24.806  25.113  1.00  0.00    -0.002 A 
ATOM     11  C   UNL A   1      32.519  28.483  25.201  1.00  0.00     0.160 A 
ATOM     12  C   UNL A   1      33.633  27.322  25.898  1.00  0.00     0.051 A 
ATOM     13  C   UNL A   1      31.035  27.892  24.363  1.00  0.00     0.161 A 
ATOM     14  C   UNL A   1      33.375  25.566  25.850  1.00  0.00     0.014 A 
ATOM     15  C   UNL A   1      30.709  25.880  24.368  1.00  0.00     0.060 A 
BRANCH  11  16
ATOM     16  O   UNL A   1      32.794  29.812  25.365  1.00  0.00    -0.493 OA
ATOM     17  C   UNL A   1      32.496  30.235  26.698  1.00  0.00     0.278 C 
ENDBRANCH  11  16
BRANCH  13  18
ATOM     18  O   UNL A   1      30.714  28.879  23.384  1.00  0.00    -0.493 OA
ATOM     19  C   UNL A   1      29.458  28.826  22.729  1.00  0.00     0.278 C 
ENDBRANCH  13  18
ENDBRANCH   6  10
BRANCH   8  20
ATOM     20  N   UNL A   1      32.376  19.691  24.925  1.00  0.00    -0.375 N 
ATOM     21  H   UNL A   1      32.122  19.023  24.248  1.00  0.00     0.159 HD
ATOM     22  H   UNL A   1      32.685  19.400  25.813  1.00  0.00     0.159 HD
ENDBRANCH   8  20
ENDBRANCH   3   5
ENDBRANCH   2   3
ENDBRANCH   1   2
BRANCH   1  23
ATOM     23  C   UNL A   1      36.607  22.459  23.801  1.00  0.00     0.275 C 
BRANCH  23  24
ATOM     24  O   UNL A   1      37.066  22.412  25.165  1.00  0.00    -0.458 OA
BRANCH  24  25
ATOM     25  C   UNL A   1      37.967  21.438  25.394  1.00  0.00     0.338 C 
ATOM     26  O   UNL A   1      37.967  20.306  24.933  1.00  0.00    -0.246 OA
BRANCH  25  27
ATOM     27  C   UNL A   1      39.099  21.892  26.196  1.00  0.00     0.060 A 
ATOM     28  C   UNL A   1      39.367  23.639  26.539  1.00  0.00     0.016 A 
ATOM     29  C   UNL A   1      40.517  20.835  26.133  1.00  0.00     0.016 A 
ATOM     30  C   UNL A   1      41.278  24.285  26.740  1.00  0.00     0.010 A 
ATOM     31  C   UNL A   1      42.175  21.425  26.422  1.00  0.00     0.010 A 
ATOM     32  C   UNL A   1      42.635  23.119  26.717  1.00  0.00    -0.014 A 
BRANCH  32  33
ATOM     33  C   UNL A   1      44.010  23.506  27.301  1.00  0.00     0.031 A 
ATOM     34  C   UNL A   1      44.165  23.725  28.790  1.00  0.00     0.074 A 
ATOM     35  C   UNL A   1      45.075  23.904  26.549  1.00  0.00     0.049 A 
ATOM     36  N   UNL A   1      44.961  24.537  29.444  1.00  0.00    -0.248 NA
ATOM     37  C   UNL A   1      43.295  22.925  29.660  1.00  0.00     0.031 C 
ATOM     38  C   UNL A   1      45.346  23.648  25.142  1.00  0.00     0.029 A 
ATOM     39  N   UNL A   1      46.084  24.805  26.867  1.00  0.00    -0.354 N 
ATOM     40  C   UNL A   1      44.631  24.386  30.787  1.00  0.00     0.074 A 
ATOM     41  C   UNL A   1      43.466  23.527  30.828  1.00  0.00     0.031 C 
ATOM     42  C   UNL A   1      46.175  24.573  24.644  1.00  0.00     0.029 A 
ATOM     43  C   UNL A   1      46.650  25.387  25.745  1.00  0.00     0.049 A 
ATOM     44  H   UNL A   1      46.366  25.007  27.789  1.00  0.00     0.167 HD
ATOM     45  C   UNL A   1      45.290  24.818  31.893  1.00  0.00     0.031 A 
ATOM     46  C   UNL A   1      47.487  26.427  25.575  1.00  0.00     0.031 A 
ATOM     47  C   UNL A   1      46.545  25.525  31.860  1.00  0.00     0.049 A 
ATOM     48  C   UNL A   1      48.183  26.971  26.774  1.00  0.00     0.074 A 
ATOM     49  C   UNL A   1      47.406  25.813  32.906  1.00  0.00     0.029 A 
ATOM     50  N   UNL A   1      47.135  26.030  30.712  1.00  0.00    -0.354 N 
ATOM     51  N   UNL A   1      47.917  26.759  28.036  1.00  0.00    -0.248 NA
ATOM     52  C   UNL A   1      49.384  27.779  26.525  1.00  0.00     0.031 C 
ATOM     53  C   UNL A   1      48.498  26.524  32.395  1.00  0.00     0.029 A 
ATOM     54  C   UNL A   1      48.340  26.641  31.026  1.00  0.00     0.049 A 
ATOM     55  H   UNL A   1      46.755  25.963  29.806  1.00  0.00     0.167 HD
ATOM     56  C   UNL A   1      48.977  27.314  28.734  1.00  0.00     0.074 A 
ATOM     57  C   UNL A   1      49.859  27.918  27.755  1.00  0.00     0.031 C 
ATOM     58  C   UNL A   1      49.216  27.262  30.066  1.00  0.00     0.031 A 
BRANCH  45  59
ATOM     59  C   UNL A   1      44.698  24.465  33.238  1.00  0.00    -0.014 A 
ATOM     60  C   UNL A   1      44.950  23.224  33.850  1.00  0.00     0.009 A 
ATOM     61  C   UNL A   1      43.877  25.385  33.908  1.00  0.00     0.009 A 
ATOM     62  C   UNL A   1      44.317  22.874  35.044  1.00  0.00     0.001 A 
ATOM     63  C   UNL A   1      43.284  25.052  35.129  1.00  0.00     0.001 A 
ATOM     64  C   UNL A   1      43.485  23.788  35.683  1.00  0.00     0.000 A 
ENDBRANCH  45  59
BRANCH  46  65
ATOM     65  C   UNL A   1      47.808  26.917  24.207  1.00  0.00    -0.014 A 
ATOM     66  C   UNL A   1      47.042  27.921  23.595  1.00  0.00     0.009 A 
ATOM     67  C   UNL A   1      48.919  26.401  23.522  1.00  0.00     0.009 A 
ATOM     68  C   UNL A   1      47.373  28.386  22.320  1.00  0.00     0.001 A 
ATOM     69  C   UNL A   1      49.256  26.878  22.251  1.00  0.00     0.001 A 
ATOM     70  C   UNL A   1      48.479  27.867  21.649  1.00  0.00     0.000 A 
ENDBRANCH  46  65
BRANCH  58  71
ATOM     71  C   UNL A   1      50.524  27.820  30.540  1.00  0.00    -0.014 A 
ATOM     72  C   UNL A   1      50.642  29.146  30.980  1.00  0.00     0.009 A 
ATOM     73  C   UNL A   1      51.661  26.997  30.542  1.00  0.00     0.009 A 
ATOM     74  C   UNL A   1      51.882  29.648  31.380  1.00  0.00     0.001 A 
ATOM     75  C   UNL A   1      52.893  27.491  30.973  1.00  0.00     0.001 A 
ATOM     76  C   UNL A   1      53.004  28.818  31.382  1.00  0.00     0.000 A 
ENDBRANCH  58  71
ENDBRANCH  32  33
ENDBRANCH  25  27
ENDBRANCH  24  25
ENDBRANCH  23  24
ENDBRANCH   1  23
TORSDOF 15
ENDMDL
MODEL 2
REMARK VINA RESULT:     -11.2      1.942      3.523
REMARK SMILES COc1ccc(-c2sc(N)nc2C(=O)OCCOC(=O)c2ccc(-c3c4nc(c(-c5ccccc5)c5ccc([nH]5)c(-c5ccccc5)c5nc(c(-c6ccccc6)c6ccc3[nH]6)C=C5)C=C4)cc2)cc1OC
REMARK SMILES IDX 16 1 15 2 13 3 14 4 12 5 7 6 8 7 9 8 11 9 6 10 3 11 4 12
REMARK SMILES IDX 70 13 5 14 69 15 2 16 1 17 71 18 72 19 10 20 17 23 18 24
REMARK SMILES IDX 19 25 20 26 21 27 22 28 68 29 23 30 67 31 24 32 25 33 26 34
REMARK SMILES IDX 61 35 27 36 66 37 60 38 62 39 28 40 65 41 59 42 58 43 29 45
REMARK SMILES IDX 51 46 36 47 50 48 37 49 40 50 49 51 63 52 38 53 39 54 48 56
REMARK SMILES IDX 64 57 41 58 30 59 31 60 35 61 32 62 34 63 33 64 52 65 53 66
REMARK SMILES IDX 57 67 54 68 56 69 55 70 42 71 43 72 47 73 44 74 46 75 45 76
REMARK H PARENT 10 21 10 22 62 44 40 55
REMARK Flexibility Score: inf
ROOT
ATOM      1  C   UNL A   1      34.925  24.862  25.551  1.00  0.00     0.275 C 
ENDROOT
BRANCH   1   2
ATOM      2  O   UNL A   1      34.414  25.756  24.540  1.00  0.00    -0.457 OA
BRANCH   2   3
ATOM      3  C   UNL A   1      33.714  26.835  25.004  1.00  0.00     0.358 C 
ATOM      4  O   UNL A   1      33.985  27.433  26.039  1.00  0.00    -0.244 OA
BRANCH   3   5
ATOM      5  C   UNL A   1      32.598  27.215  24.135  1.00  0.00     0.169 A 
ATOM      6  C   UNL A   1      31.638  26.341  23.627  1.00  0.00     0.071 A 
ATOM      7  S   UNL A   1      30.627  27.172  22.530  1.00  0.00    -0.096 S 
ATOM      8  C   UNL A   1      31.567  28.595  22.743  1.00  0.00     0.181 A 
ATOM      9  N   UNL A   1      32.502  28.520  23.652  1.00  0.00    -0.213 NA
BRANCH   6  10
ATOM     10  C   UNL A   1      31.494  24.898  23.839  1.00  0.00    -0.002 A 
ATOM     11  C   UNL A   1      32.474  21.351  24.383  1.00  0.00     0.160 A 
ATOM     12  C   UNL A   1      32.584  22.155  22.828  1.00  0.00     0.051 A 
ATOM     13  C   UNL A   1      31.889  22.275  25.817  1.00  0.00     0.161 A 
ATOM     14  C   UNL A   1      32.125  23.851  22.567  1.00  0.00     0.014 A 
ATOM     15  C   UNL A   1      31.301  24.201  25.500  1.00  0.00     0.060 A 
BRANCH  11  16
ATOM     16  O   UNL A   1      32.791  20.023  24.440  1.00  0.00    -0.493 OA
ATOM     17  C   UNL A   1      34.196  19.840  24.626  1.00  0.00     0.278 C 
ENDBRANCH  11  16
BRANCH  13  18
ATOM     18  O   UNL A   1      32.504  21.671  26.954  1.00  0.00    -0.493 OA
ATOM     19  C   UNL A   1      33.271  22.472  27.837  1.00  0.00     0.278 C 
ENDBRANCH  13  18
ENDBRANCH   6  10
BRANCH   8  20
ATOM     20  N   UNL A   1      31.379  29.692  22.005  1.00  0.00    -0.375 N 
ATOM     21  H   UNL A   1      31.050  30.519  22.427  1.00  0.00     0.159 HD
ATOM     22  H   UNL A   1      31.571  29.675  21.039  1.00  0.00     0.159 HD
ENDBRANCH   8  20
ENDBRANCH   3   5
ENDBRANCH   2   3
ENDBRANCH   1   2
BRANCH   1  23
ATOM     23  C   UNL A   1      35.449  23.574  24.921  1.00  0.00     0.275 C 
BRANCH  23  24
ATOM     24  O   UNL A   1      36.264  22.860  25.870  1.00  0.00    -0.458 OA
BRANCH  24  25
ATOM     25  C   UNL A   1      37.400  22.370  25.340  1.00  0.00     0.338 C 
ATOM     26  O   UNL A   1      37.529  21.789  24.273  1.00  0.00    -0.246 OA
BRANCH  25  27
ATOM     27  C   UNL A   1      38.583  22.709  26.126  1.00  0.00     0.060 A 
ATOM     28  C   UNL A   1      39.079  24.420  26.387  1.00  0.00     0.016 A 
ATOM     29  C   UNL A   1      39.849  21.472  26.123  1.00  0.00     0.016 A 
ATOM     30  C   UNL A   1      41.059  24.817  26.569  1.00  0.00     0.010 A 
ATOM     31  C   UNL A   1      41.570  21.851  26.393  1.00  0.00     0.010 A 
ATOM     32  C   UNL A   1      42.250  23.482  26.610  1.00  0.00    -0.014 A 
BRANCH  32  33
ATOM     33  C   UNL A   1      43.665  23.712  27.182  1.00  0.00     0.031 A 
ATOM     34  C   UNL A   1      43.862  23.856  28.676  1.00  0.00     0.074 A 
ATOM     35  C   UNL A   1      44.752  24.035  26.427  1.00  0.00     0.049 A 
ATOM     36  N   UNL A   1      44.742  24.561  29.346  1.00  0.00    -0.248 NA
ATOM     37  C   UNL A   1      42.931  23.111  29.530  1.00  0.00     0.031 C 
ATOM     38  C   UNL A   1      44.977  23.809  25.007  1.00  0.00     0.029 A 
ATOM     39  N   UNL A   1      45.848  24.821  26.761  1.00  0.00    -0.354 N 
ATOM     40  C   UNL A   1      44.419  24.390  30.688  1.00  0.00     0.074 A 
ATOM     41  C   UNL A   1      43.176  23.646  30.717  1.00  0.00     0.031 C 
ATOM     42  C   UNL A   1      45.884  24.669  24.529  1.00  0.00     0.029 A 
ATOM     43  C   UNL A   1      46.451  25.389  25.651  1.00  0.00     0.049 A 
ATOM     44  H   UNL A   1      46.162  24.959  27.684  1.00  0.00     0.167 HD
ATOM     45  C   UNL A   1      45.132  24.713  31.797  1.00  0.00     0.031 A 
ATOM     46  C   UNL A   1      47.383  26.349  25.505  1.00  0.00     0.031 A 
ATOM     47  C   UNL A   1      46.449  25.297  31.767  1.00  0.00     0.049 A 
ATOM     48  C   UNL A   1      48.146  26.776  26.710  1.00  0.00     0.074 A 
ATOM     49  C   UNL A   1      47.348  25.459  32.808  1.00  0.00     0.029 A 
ATOM     50  N   UNL A   1      47.069  25.787  30.629  1.00  0.00    -0.354 N 
ATOM     51  N   UNL A   1      47.879  26.542  27.968  1.00  0.00    -0.248 NA
ATOM     52  C   UNL A   1      49.415  27.474  26.470  1.00  0.00     0.031 C 
ATOM     53  C   UNL A   1      48.497  26.081  32.305  1.00  0.00     0.029 A 
ATOM     54  C   UNL A   1      48.331  26.267  30.943  1.00  0.00     0.049 A 
ATOM     55  H   UNL A   1      46.671  25.793  29.728  1.00  0.00     0.167 HD
ATOM     56  C   UNL A   1      48.997  26.964  28.667  1.00  0.00     0.074 A 
ATOM     57  C   UNL A   1      49.919  27.518  27.696  1.00  0.00     0.031 C 
ATOM     58  C   UNL A   1      49.249  26.837  29.992  1.00  0.00     0.031 A 
BRANCH  45  59
ATOM     59  C   UNL A   1      44.528  24.367  33.138  1.00  0.00    -0.014 A 
ATOM     60  C   UNL A   1      44.692  23.093  33.711  1.00  0.00     0.009 A 
ATOM     61  C   UNL A   1      43.784  25.326  33.843  1.00  0.00     0.009 A 
ATOM     62  C   UNL A   1      44.046  22.756  34.903  1.00  0.00     0.001 A 
ATOM     63  C   UNL A   1      43.179  25.002  35.062  1.00  0.00     0.001 A 
ATOM     64  C   UNL A   1      43.291  23.711  35.577  1.00  0.00     0.000 A 
ENDBRANCH  45  59
BRANCH  46  65
ATOM     65  C   UNL A   1      47.730  26.860  24.150  1.00  0.00    -0.014 A 
ATOM     66  C   UNL A   1      48.759  26.278  23.395  1.00  0.00     0.009 A 
ATOM     67  C   UNL A   1      46.995  27.916  23.592  1.00  0.00     0.009 A 
ATOM     68  C   UNL A   1      49.055  26.754  22.116  1.00  0.00     0.001 A 
ATOM     69  C   UNL A   1      47.284  28.383  22.305  1.00  0.00     0.001 A 
ATOM     70  C   UNL A   1      48.317  27.803  21.570  1.00  0.00     0.000 A 
ENDBRANCH  46  65
BRANCH  58  71
ATOM     71  C   UNL A   1      50.612  27.248  30.463  1.00  0.00    -0.014 A 
ATOM     72  C   UNL A   1      50.909  28.580  30.786  1.00  0.00     0.009 A 
ATOM     73  C   UNL A   1      51.619  26.277  30.582  1.00  0.00     0.009 A 
ATOM     74  C   UNL A   1      52.198  28.937  31.185  1.00  0.00     0.001 A 
ATOM     75  C   UNL A   1      52.897  26.630  31.014  1.00  0.00     0.001 A 
ATOM     76  C   UNL A   1      53.188  27.962  31.304  1.00  0.00     0.000 A 
ENDBRANCH  58  71
ENDBRANCH  32  33
ENDBRANCH  25  27
ENDBRANCH  24  25
ENDBRANCH  23  24
ENDBRANCH   1  23
TORSDOF 15
ENDMDL
MODEL 3
REMARK VINA RESULT:     -11.1     10.265     15.272
REMARK SMILES COc1ccc(-c2sc(N)nc2C(=O)OCCOC(=O)c2ccc(-c3c4nc(c(-c5ccccc5)c5ccc([nH]5)c(-c5ccccc5)c5nc(c(-c6ccccc6)c6ccc3[nH]6)C=C5)C=C4)cc2)cc1OC
REMARK SMILES IDX 16 1 15 2 13 3 14 4 12 5 7 6 8 7 9 8 11 9 6 10 3 11 4 12
REMARK SMILES IDX 70 13 5 14 69 15 2 16 1 17 71 18 72 19 10 20 17 23 18 24
REMARK SMILES IDX 19 25 20 26 21 27 22 28 68 29 23 30 67 31 24 32 25 33 26 34
REMARK SMILES IDX 61 35 27 36 66 37 60 38 62 39 28 40 65 41 59 42 58 43 29 45
REMARK SMILES IDX 51 46 36 47 50 48 37 49 40 50 49 51 63 52 38 53 39 54 48 56
REMARK SMILES IDX 64 57 41 58 30 59 31 60 35 61 32 62 34 63 33 64 52 65 53 66
REMARK SMILES IDX 57 67 54 68 56 69 55 70 42 71 43 72 47 73 44 74 46 75 45 76
REMARK H PARENT 10 21 10 22 62 44 40 55
REMARK Flexibility Score: inf
ROOT
ATOM      1  C   UNL A   1      46.970  39.727  25.684  1.00  0.00     0.275 C 
ENDROOT
BRANCH   1   2
ATOM      2  O   UNL A   1      45.980  40.411  24.889  1.00  0.00    -0.457 OA
BRANCH   2   3
ATOM      3  C   UNL A   1      46.454  41.406  24.080  1.00  0.00     0.358 C 
ATOM      4  O   UNL A   1      47.202  41.216  23.128  1.00  0.00    -0.244 OA
BRANCH   3   5
ATOM      5  C   UNL A   1      45.978  42.737  24.463  1.00  0.00     0.169 A 
ATOM      6  C   UNL A   1      45.151  43.550  23.688  1.00  0.00     0.071 A 
ATOM      7  S   UNL A   1      44.982  45.076  24.436  1.00  0.00    -0.096 S 
ATOM      8  C   UNL A   1      46.064  44.586  25.679  1.00  0.00     0.181 A 
ATOM      9  N   UNL A   1      46.447  43.338  25.630  1.00  0.00    -0.213 NA
BRANCH   6  10
ATOM     10  C   UNL A   1      44.560  43.287  22.373  1.00  0.00    -0.002 A 
ATOM     11  C   UNL A   1      42.284  43.643  19.452  1.00  0.00     0.160 A 
ATOM     12  C   UNL A   1      41.806  42.890  20.963  1.00  0.00     0.051 A 
ATOM     13  C   UNL A   1      43.949  44.318  19.289  1.00  0.00     0.161 A 
ATOM     14  C   UNL A   1      42.888  42.726  22.361  1.00  0.00     0.014 A 
ATOM     15  C   UNL A   1      45.209  44.069  20.873  1.00  0.00     0.060 A 
BRANCH  11  16
ATOM     16  O   UNL A   1      41.383  43.645  18.426  1.00  0.00    -0.493 OA
ATOM     17  C   UNL A   1      40.469  44.738  18.549  1.00  0.00     0.278 C 
ENDBRANCH  11  16
BRANCH  13  18
ATOM     18  O   UNL A   1      43.854  45.380  18.341  1.00  0.00    -0.493 OA
ATOM     19  C   UNL A   1      44.723  45.393  17.222  1.00  0.00     0.278 C 
ENDBRANCH  13  18
ENDBRANCH   6  10
BRANCH   8  20
ATOM     20  N   UNL A   1      46.514  45.432  26.609  1.00  0.00    -0.375 N 
ATOM     21  H   UNL A   1      47.063  46.207  26.346  1.00  0.00     0.159 HD
ATOM     22  H   UNL A   1      46.296  45.284  27.557  1.00  0.00     0.159 HD
ENDBRANCH   8  20
ENDBRANCH   3   5
ENDBRANCH   2   3
ENDBRANCH   1   2
BRANCH   1  23
ATOM     23  C   UNL A   1      46.329  39.075  26.907  1.00  0.00     0.275 C 
BRANCH  23  24
ATOM     24  O   UNL A   1      45.595  37.902  26.509  1.00  0.00    -0.458 OA
BRANCH  24  25
ATOM     25  C   UNL A   1      44.349  37.852  27.017  1.00  0.00     0.338 C 
ATOM     26  O   UNL A   1      43.524  38.754  27.046  1.00  0.00    -0.246 OA
BRANCH  25  27
ATOM     27  C   UNL A   1      43.972  36.512  27.459  1.00  0.00     0.060 A 
ATOM     28  C   UNL A   1      44.549  35.843  29.027  1.00  0.00     0.016 A 
ATOM     29  C   UNL A   1      43.632  35.373  26.148  1.00  0.00     0.016 A 
ATOM     30  C   UNL A   1      44.855  33.843  29.150  1.00  0.00     0.010 A 
ATOM     31  C   UNL A   1      43.812  33.609  26.332  1.00  0.00     0.010 A 
ATOM     32  C   UNL A   1      44.422  32.775  27.781  1.00  0.00    -0.014 A 
BRANCH  32  33
ATOM     33  C   UNL A   1      44.223  31.260  28.002  1.00  0.00     0.031 A 
ATOM     34  C   UNL A   1      45.106  30.268  27.277  1.00  0.00     0.074 A 
ATOM     35  C   UNL A   1      43.145  30.714  28.631  1.00  0.00     0.049 A 
ATOM     36  N   UNL A   1      44.838  29.059  26.846  1.00  0.00    -0.248 NA
ATOM     37  C   UNL A   1      46.477  30.706  26.988  1.00  0.00     0.031 C 
ATOM     38  C   UNL A   1      42.232  31.333  29.581  1.00  0.00     0.029 A 
ATOM     39  N   UNL A   1      42.522  29.494  28.402  1.00  0.00    -0.354 N 
ATOM     40  C   UNL A   1      45.985  28.632  26.184  1.00  0.00     0.074 A 
ATOM     41  C   UNL A   1      46.879  29.771  26.140  1.00  0.00     0.031 C 
ATOM     42  C   UNL A   1      41.057  30.693  29.594  1.00  0.00     0.029 A 
ATOM     43  C   UNL A   1      41.192  29.495  28.790  1.00  0.00     0.049 A 
ATOM     44  H   UNL A   1      42.976  28.714  28.008  1.00  0.00     0.167 HD
ATOM     45  C   UNL A   1      46.321  27.391  25.750  1.00  0.00     0.031 A 
ATOM     46  C   UNL A   1      40.176  28.637  28.582  1.00  0.00     0.031 A 
ATOM     47  C   UNL A   1      45.506  26.218  25.948  1.00  0.00     0.049 A 
ATOM     48  C   UNL A   1      40.497  27.284  28.049  1.00  0.00     0.074 A 
ATOM     49  C   UNL A   1      45.840  24.888  25.754  1.00  0.00     0.029 A 
ATOM     50  N   UNL A   1      44.202  26.235  26.415  1.00  0.00    -0.354 N 
ATOM     51  N   UNL A   1      41.608  26.868  27.499  1.00  0.00    -0.248 NA
ATOM     52  C   UNL A   1      39.477  26.245  28.239  1.00  0.00     0.031 C 
ATOM     53  C   UNL A   1      44.724  24.103  26.070  1.00  0.00     0.029 A 
ATOM     54  C   UNL A   1      43.711  24.941  26.501  1.00  0.00     0.049 A 
ATOM     55  H   UNL A   1      43.698  27.047  26.653  1.00  0.00     0.167 HD
ATOM     56  C   UNL A   1      41.467  25.496  27.378  1.00  0.00     0.074 A 
ATOM     57  C   UNL A   1      40.141  25.162  27.860  1.00  0.00     0.031 C 
ATOM     58  C   UNL A   1      42.390  24.597  26.960  1.00  0.00     0.031 A 
BRANCH  45  59
ATOM     59  C   UNL A   1      47.669  27.226  25.087  1.00  0.00    -0.014 A 
ATOM     60  C   UNL A   1      47.827  27.373  23.697  1.00  0.00     0.009 A 
ATOM     61  C   UNL A   1      48.800  26.921  25.858  1.00  0.00     0.009 A 
ATOM     62  C   UNL A   1      49.057  27.121  23.086  1.00  0.00     0.001 A 
ATOM     63  C   UNL A   1      50.043  26.717  25.250  1.00  0.00     0.001 A 
ATOM     64  C   UNL A   1      50.164  26.794  23.863  1.00  0.00     0.000 A 
ENDBRANCH  45  59
BRANCH  46  65
ATOM     65  C   UNL A   1      38.795  28.991  29.009  1.00  0.00    -0.014 A 
ATOM     66  C   UNL A   1      38.380  28.825  30.339  1.00  0.00     0.009 A 
ATOM     67  C   UNL A   1      37.895  29.539  28.083  1.00  0.00     0.009 A 
ATOM     68  C   UNL A   1      37.087  29.185  30.728  1.00  0.00     0.001 A 
ATOM     69  C   UNL A   1      36.606  29.911  28.477  1.00  0.00     0.001 A 
ATOM     70  C   UNL A   1      36.202  29.730  29.799  1.00  0.00     0.000 A 
ENDBRANCH  46  65
BRANCH  58  71
ATOM     71  C   UNL A   1      42.020  23.147  27.069  1.00  0.00    -0.014 A 
ATOM     72  C   UNL A   1      41.972  22.492  28.308  1.00  0.00     0.009 A 
ATOM     73  C   UNL A   1      41.716  22.427  25.903  1.00  0.00     0.009 A 
ATOM     74  C   UNL A   1      41.660  21.133  28.373  1.00  0.00     0.001 A 
ATOM     75  C   UNL A   1      41.373  21.077  25.974  1.00  0.00     0.001 A 
ATOM     76  C   UNL A   1      41.356  20.429  27.208  1.00  0.00     0.000 A 
ENDBRANCH  58  71
ENDBRANCH  32  33
ENDBRANCH  25  27
ENDBRANCH  24  25
ENDBRANCH  23  24
ENDBRANCH   1  23
TORSDOF 15
ENDMDL
