MODEL 1
REMARK VINA RESULT:     -11.5      0.000      0.000
REMARK SMILES O=C(OCCOC(=O)c1ccc(-c2c3nc(c(-c4ccccc4)c4ccc([nH]4)c(-c4ccccc4)c4nc(c(-c5ccccc5)c5ccc2[nH]5)C=C4)C=C3)cc1)C1=Cc2c(cc(Cl)c(Cl)c2Cl)O[C@H]1C(F)(F)F
REMARK SMILES IDX 5 1 4 2 3 3 2 4 1 5 57 6 58 7 69 8 59 9 68 10 60 11 66 12
REMARK SMILES IDX 61 13 64 14 67 15 62 16 65 17 63 18 70 19 71 20 72 21 73 22
REMARK SMILES IDX 6 23 7 24 8 25 9 26 10 27 56 28 11 29 55 30 12 31 13 32
REMARK SMILES IDX 14 33 49 34 15 35 54 36 48 37 50 38 16 39 53 40 47 41 46 42
REMARK SMILES IDX 17 44 39 45 24 46 38 47 25 48 28 49 37 50 51 51 26 52 27 53
REMARK SMILES IDX 36 55 52 56 29 57 18 58 19 59 23 60 20 61 22 62 21 63 40 64
REMARK SMILES IDX 41 65 45 66 42 67 44 68 43 69 30 70 31 71 35 72 32 73 34 74
REMARK SMILES IDX 33 75
REMARK H PARENT 50 43 28 54
REMARK Flexibility Score: inf
ROOT
ATOM      1  C   UNL A   1      37.751  20.228  25.080  1.00  0.00     0.275 C 
ENDROOT
BRANCH   1   2
ATOM      2  C   UNL A   1      36.273  20.638  25.011  1.00  0.00     0.275 C 
BRANCH   2   3
ATOM      3  O   UNL A   1      36.067  22.065  24.891  1.00  0.00    -0.459 OA
BRANCH   3   4
ATOM      4  C   UNL A   1      35.522  22.770  23.877  1.00  0.00     0.338 C 
ATOM      5  O   UNL A   1      36.185  22.962  22.859  1.00  0.00    -0.246 OA
BRANCH   4   6
ATOM      6  C   UNL A   1      34.131  23.284  23.906  1.00  0.00     0.087 C 
ATOM      7  C   UNL A   1      33.724  24.413  23.308  1.00  0.00     0.029 C 
ATOM      8  C   UNL A   1      33.265  22.628  24.968  1.00  0.00     0.316 C 
ATOM      9  C   UNL A   1      33.091  25.374  24.229  1.00  0.00     0.038 A 
ATOM     10  O   UNL A   1      32.323  23.534  25.614  1.00  0.00    -0.475 OA
ATOM     11  C   UNL A   1      32.479  24.873  25.378  1.00  0.00     0.131 A 
ATOM     12  C   UNL A   1      33.185  26.769  24.037  1.00  0.00     0.072 A 
ATOM     13  C   UNL A   1      31.977  25.741  26.341  1.00  0.00     0.069 A 
ATOM     14  C   UNL A   1      32.732  27.648  25.033  1.00  0.00     0.079 A 
ATOM     15  Cl  UNL A   1      33.873  27.390  22.564  1.00  0.00    -0.082 Cl
ATOM     16  C   UNL A   1      32.129  27.122  26.185  1.00  0.00     0.064 A 
ATOM     17  Cl  UNL A   1      32.947  29.364  24.860  1.00  0.00    -0.081 Cl
ATOM     18  Cl  UNL A   1      31.558  28.127  27.470  1.00  0.00    -0.083 Cl
BRANCH   8  19
ATOM     19  C   UNL A   1      32.499  21.435  24.366  1.00  0.00     0.430 C 
ATOM     20  F   UNL A   1      33.258  20.321  24.271  1.00  0.00    -0.167 F 
ATOM     21  F   UNL A   1      31.416  21.114  25.112  1.00  0.00    -0.167 F 
ATOM     22  F   UNL A   1      32.058  21.717  23.115  1.00  0.00    -0.167 F 
ENDBRANCH   8  19
ENDBRANCH   4   6
ENDBRANCH   3   4
ENDBRANCH   2   3
ENDBRANCH   1   2
BRANCH   1  23
ATOM     23  O   UNL A   1      38.612  21.360  25.231  1.00  0.00    -0.458 OA
BRANCH  23  24
ATOM     24  C   UNL A   1      39.592  21.164  26.148  1.00  0.00     0.338 C 
ATOM     25  O   UNL A   1      40.215  20.133  26.341  1.00  0.00    -0.246 OA
BRANCH  24  26
ATOM     26  C   UNL A   1      39.925  22.456  26.777  1.00  0.00     0.060 A 
ATOM     27  C   UNL A   1      39.180  23.575  26.386  1.00  0.00     0.016 A 
ATOM     28  C   UNL A   1      40.952  22.577  27.718  1.00  0.00     0.016 A 
ATOM     29  C   UNL A   1      39.516  24.835  26.869  1.00  0.00     0.010 A 
ATOM     30  C   UNL A   1      41.276  23.837  28.218  1.00  0.00     0.010 A 
ATOM     31  C   UNL A   1      40.598  24.975  27.747  1.00  0.00    -0.014 A 
BRANCH  31  32
ATOM     32  C   UNL A   1      41.166  26.318  27.991  1.00  0.00     0.031 A 
ATOM     33  C   UNL A   1      42.502  26.641  27.384  1.00  0.00     0.074 A 
ATOM     34  C   UNL A   1      40.506  27.231  28.722  1.00  0.00     0.049 A 
ATOM     35  N   UNL A   1      43.212  27.735  27.468  1.00  0.00    -0.248 NA
ATOM     36  C   UNL A   1      43.129  25.576  26.583  1.00  0.00     0.031 C 
ATOM     37  C   UNL A   1      39.197  27.035  29.342  1.00  0.00     0.029 A 
ATOM     38  N   UNL A   1      40.862  28.508  29.072  1.00  0.00    -0.354 N 
ATOM     39  C   UNL A   1      44.373  27.482  26.748  1.00  0.00     0.074 A 
ATOM     40  C   UNL A   1      44.296  26.118  26.278  1.00  0.00     0.031 C 
ATOM     41  C   UNL A   1      38.865  28.151  30.014  1.00  0.00     0.029 A 
ATOM     42  C   UNL A   1      39.947  29.126  29.887  1.00  0.00     0.049 A 
ATOM     43  H   UNL A   1      41.694  28.938  28.769  1.00  0.00     0.167 HD
ATOM     44  C   UNL A   1      45.407  28.314  26.488  1.00  0.00     0.031 A 
ATOM     45  C   UNL A   1      39.991  30.336  30.475  1.00  0.00     0.031 A 
ATOM     46  C   UNL A   1      45.482  29.665  26.968  1.00  0.00     0.049 A 
ATOM     47  C   UNL A   1      41.171  31.236  30.214  1.00  0.00     0.074 A 
ATOM     48  C   UNL A   1      46.463  30.612  26.740  1.00  0.00     0.029 A 
ATOM     49  N   UNL A   1      44.534  30.257  27.791  1.00  0.00    -0.354 N 
ATOM     50  N   UNL A   1      42.234  31.012  29.479  1.00  0.00    -0.248 NA
ATOM     51  C   UNL A   1      41.149  32.562  30.849  1.00  0.00     0.031 C 
ATOM     52  C   UNL A   1      46.140  31.756  27.476  1.00  0.00     0.029 A 
ATOM     53  C   UNL A   1      44.923  31.545  28.107  1.00  0.00     0.049 A 
ATOM     54  H   UNL A   1      43.706  29.823  28.102  1.00  0.00     0.167 HD
ATOM     55  C   UNL A   1      42.990  32.177  29.535  1.00  0.00     0.074 A 
ATOM     56  C   UNL A   1      42.261  33.107  30.374  1.00  0.00     0.031 C 
ATOM     57  C   UNL A   1      44.175  32.455  28.939  1.00  0.00     0.031 A 
BRANCH  44  58
ATOM     58  C   UNL A   1      46.551  27.753  25.688  1.00  0.00    -0.014 A 
ATOM     59  C   UNL A   1      47.620  27.081  26.304  1.00  0.00     0.009 A 
ATOM     60  C   UNL A   1      46.577  27.935  24.297  1.00  0.00     0.009 A 
ATOM     61  C   UNL A   1      48.720  26.662  25.553  1.00  0.00     0.001 A 
ATOM     62  C   UNL A   1      47.662  27.482  23.543  1.00  0.00     0.001 A 
ATOM     63  C   UNL A   1      48.740  26.863  24.173  1.00  0.00     0.000 A 
ENDBRANCH  44  58
BRANCH  45  64
ATOM     64  C   UNL A   1      38.884  30.758  31.371  1.00  0.00    -0.014 A 
ATOM     65  C   UNL A   1      37.762  31.433  30.867  1.00  0.00     0.009 A 
ATOM     66  C   UNL A   1      38.936  30.466  32.745  1.00  0.00     0.009 A 
ATOM     67  C   UNL A   1      36.728  31.823  31.720  1.00  0.00     0.001 A 
ATOM     68  C   UNL A   1      37.888  30.833  33.591  1.00  0.00     0.001 A 
ATOM     69  C   UNL A   1      36.788  31.517  33.079  1.00  0.00     0.000 A 
ENDBRANCH  45  64
BRANCH  57  70
ATOM     70  C   UNL A   1      44.747  33.832  29.129  1.00  0.00    -0.014 A 
ATOM     71  C   UNL A   1      44.393  34.895  28.284  1.00  0.00     0.009 A 
ATOM     72  C   UNL A   1      45.577  34.086  30.233  1.00  0.00     0.009 A 
ATOM     73  C   UNL A   1      44.874  36.183  28.534  1.00  0.00     0.001 A 
ATOM     74  C   UNL A   1      46.032  35.378  30.497  1.00  0.00     0.001 A 
ATOM     75  C   UNL A   1      45.684  36.425  29.645  1.00  0.00     0.000 A 
ENDBRANCH  57  70
ENDBRANCH  31  32
ENDBRANCH  24  26
ENDBRANCH  23  24
ENDBRANCH   1  23
TORSDOF 12
ENDMDL
MODEL 2
REMARK VINA RESULT:     -11.5      3.522      7.647
REMARK SMILES O=C(OCCOC(=O)c1ccc(-c2c3nc(c(-c4ccccc4)c4ccc([nH]4)c(-c4ccccc4)c4nc(c(-c5ccccc5)c5ccc2[nH]5)C=C4)C=C3)cc1)C1=Cc2c(cc(Cl)c(Cl)c2Cl)O[C@H]1C(F)(F)F
REMARK SMILES IDX 5 1 4 2 3 3 2 4 1 5 57 6 58 7 69 8 59 9 68 10 60 11 66 12
REMARK SMILES IDX 61 13 64 14 67 15 62 16 65 17 63 18 70 19 71 20 72 21 73 22
REMARK SMILES IDX 6 23 7 24 8 25 9 26 10 27 56 28 11 29 55 30 12 31 13 32
REMARK SMILES IDX 14 33 49 34 15 35 54 36 48 37 50 38 16 39 53 40 47 41 46 42
REMARK SMILES IDX 17 44 39 45 24 46 38 47 25 48 28 49 37 50 51 51 26 52 27 53
REMARK SMILES IDX 36 55 52 56 29 57 18 58 19 59 23 60 20 61 22 62 21 63 40 64
REMARK SMILES IDX 41 65 45 66 42 67 44 68 43 69 30 70 31 71 35 72 32 73 34 74
REMARK SMILES IDX 33 75
REMARK H PARENT 50 43 28 54
REMARK Flexibility Score: inf
ROOT
ATOM      1  C   UNL A   1      33.087  28.721  26.121  1.00  0.00     0.275 C 
ENDROOT
BRANCH   1   2
ATOM      2  C   UNL A   1      33.880  28.542  24.818  1.00  0.00     0.275 C 
BRANCH   2   3
ATOM      3  O   UNL A   1      33.295  27.587  23.904  1.00  0.00    -0.459 OA
BRANCH   3   4
ATOM      4  C   UNL A   1      33.600  26.285  23.713  1.00  0.00     0.338 C 
ATOM      5  O   UNL A   1      33.965  25.914  22.599  1.00  0.00    -0.246 OA
BRANCH   4   6
ATOM      6  C   UNL A   1      33.569  25.279  24.803  1.00  0.00     0.087 C 
ATOM      7  C   UNL A   1      34.651  24.822  25.448  1.00  0.00     0.029 C 
ATOM      8  C   UNL A   1      32.251  24.529  24.897  1.00  0.00     0.316 C 
ATOM      9  C   UNL A   1      34.801  23.358  25.385  1.00  0.00     0.038 A 
ATOM     10  O   UNL A   1      32.389  23.120  25.247  1.00  0.00    -0.475 OA
ATOM     11  C   UNL A   1      33.649  22.588  25.218  1.00  0.00     0.131 A 
ATOM     12  C   UNL A   1      36.067  22.734  25.379  1.00  0.00     0.072 A 
ATOM     13  C   UNL A   1      33.745  21.215  25.028  1.00  0.00     0.069 A 
ATOM     14  C   UNL A   1      36.171  21.356  25.130  1.00  0.00     0.079 A 
ATOM     15  Cl  UNL A   1      37.495  23.683  25.672  1.00  0.00    -0.082 Cl
ATOM     16  C   UNL A   1      35.000  20.604  24.954  1.00  0.00     0.064 A 
ATOM     17  Cl  UNL A   1      37.730  20.598  25.004  1.00  0.00    -0.081 Cl
ATOM     18  Cl  UNL A   1      35.033  18.907  24.626  1.00  0.00    -0.083 Cl
BRANCH   8  19
ATOM     19  C   UNL A   1      31.316  25.220  25.907  1.00  0.00     0.430 C 
ATOM     20  F   UNL A   1      30.602  26.226  25.355  1.00  0.00    -0.167 F 
ATOM     21  F   UNL A   1      30.428  24.348  26.437  1.00  0.00    -0.167 F 
ATOM     22  F   UNL A   1      32.019  25.757  26.936  1.00  0.00    -0.167 F 
ENDBRANCH   8  19
ENDBRANCH   4   6
ENDBRANCH   3   4
ENDBRANCH   2   3
ENDBRANCH   1   2
BRANCH   1  23
ATOM     23  O   UNL A   1      33.937  28.683  27.271  1.00  0.00    -0.458 OA
BRANCH  23  24
ATOM     24  C   UNL A   1      34.404  29.906  27.628  1.00  0.00     0.338 C 
ATOM     25  O   UNL A   1      33.764  30.943  27.685  1.00  0.00    -0.246 OA
BRANCH  24  26
ATOM     26  C   UNL A   1      35.789  29.766  28.115  1.00  0.00     0.060 A 
ATOM     27  C   UNL A   1      36.822  29.998  27.200  1.00  0.00     0.016 A 
ATOM     28  C   UNL A   1      36.075  29.402  29.435  1.00  0.00     0.016 A 
ATOM     29  C   UNL A   1      38.143  29.782  27.575  1.00  0.00     0.010 A 
ATOM     30  C   UNL A   1      37.400  29.205  29.817  1.00  0.00     0.010 A 
ATOM     31  C   UNL A   1      38.431  29.336  28.870  1.00  0.00    -0.014 A 
BRANCH  31  32
ATOM     32  C   UNL A   1      39.771  28.787  29.168  1.00  0.00     0.031 A 
ATOM     33  C   UNL A   1      40.751  29.667  29.893  1.00  0.00     0.074 A 
ATOM     34  C   UNL A   1      40.105  27.535  28.815  1.00  0.00     0.049 A 
ATOM     35  N   UNL A   1      41.985  29.422  30.249  1.00  0.00    -0.248 NA
ATOM     36  C   UNL A   1      40.276  31.014  30.252  1.00  0.00     0.031 C 
ATOM     37  C   UNL A   1      39.231  26.587  28.127  1.00  0.00     0.029 A 
ATOM     38  N   UNL A   1      41.283  26.853  28.983  1.00  0.00    -0.354 N 
ATOM     39  C   UNL A   1      42.435  30.588  30.856  1.00  0.00     0.074 A 
ATOM     40  C   UNL A   1      41.364  31.554  30.774  1.00  0.00     0.031 C 
ATOM     41  C   UNL A   1      39.910  25.447  27.915  1.00  0.00     0.029 A 
ATOM     42  C   UNL A   1      41.269  25.596  28.433  1.00  0.00     0.049 A 
ATOM     43  H   UNL A   1      42.062  27.230  29.451  1.00  0.00     0.167 HD
ATOM     44  C   UNL A   1      43.630  30.831  31.442  1.00  0.00     0.031 A 
ATOM     45  C   UNL A   1      42.252  24.679  28.346  1.00  0.00     0.031 A 
ATOM     46  C   UNL A   1      44.694  29.869  31.509  1.00  0.00     0.049 A 
ATOM     47  C   UNL A   1      43.593  24.980  28.964  1.00  0.00     0.074 A 
ATOM     48  C   UNL A   1      45.934  29.991  32.107  1.00  0.00     0.029 A 
ATOM     49  N   UNL A   1      44.642  28.604  30.941  1.00  0.00    -0.354 N 
ATOM     50  N   UNL A   1      43.989  26.062  29.592  1.00  0.00    -0.248 NA
ATOM     51  C   UNL A   1      44.616  23.929  28.875  1.00  0.00     0.031 C 
ATOM     52  C   UNL A   1      46.656  28.822  31.848  1.00  0.00     0.029 A 
ATOM     53  C   UNL A   1      45.841  27.947  31.146  1.00  0.00     0.049 A 
ATOM     54  H   UNL A   1      43.866  28.230  30.464  1.00  0.00     0.167 HD
ATOM     55  C   UNL A   1      45.292  25.809  30.003  1.00  0.00     0.074 A 
ATOM     56  C   UNL A   1      45.619  24.471  29.554  1.00  0.00     0.031 C 
ATOM     57  C   UNL A   1      46.139  26.610  30.696  1.00  0.00     0.031 A 
BRANCH  44  58
ATOM     58  C   UNL A   1      43.845  32.208  32.006  1.00  0.00    -0.014 A 
ATOM     59  C   UNL A   1      44.395  33.243  31.231  1.00  0.00     0.009 A 
ATOM     60  C   UNL A   1      43.529  32.463  33.350  1.00  0.00     0.009 A 
ATOM     61  C   UNL A   1      44.684  34.482  31.807  1.00  0.00     0.001 A 
ATOM     62  C   UNL A   1      43.786  33.715  33.913  1.00  0.00     0.001 A 
ATOM     63  C   UNL A   1      44.378  34.717  33.147  1.00  0.00     0.000 A 
ENDBRANCH  44  58
BRANCH  45  64
ATOM     64  C   UNL A   1      41.999  23.396  27.642  1.00  0.00    -0.014 A 
ATOM     65  C   UNL A   1      41.390  22.317  28.300  1.00  0.00     0.009 A 
ATOM     66  C   UNL A   1      42.350  23.252  26.289  1.00  0.00     0.009 A 
ATOM     67  C   UNL A   1      41.157  21.117  27.625  1.00  0.00     0.001 A 
ATOM     68  C   UNL A   1      42.092  22.060  25.609  1.00  0.00     0.001 A 
ATOM     69  C   UNL A   1      41.501  20.991  26.280  1.00  0.00     0.000 A 
ENDBRANCH  45  64
BRANCH  57  70
ATOM     70  C   UNL A   1      47.488  26.053  31.057  1.00  0.00    -0.014 A 
ATOM     71  C   UNL A   1      48.554  26.070  30.144  1.00  0.00     0.009 A 
ATOM     72  C   UNL A   1      47.716  25.595  32.364  1.00  0.00     0.009 A 
ATOM     73  C   UNL A   1      49.820  25.623  30.533  1.00  0.00     0.001 A 
ATOM     74  C   UNL A   1      48.987  25.177  32.758  1.00  0.00     0.001 A 
ATOM     75  C   UNL A   1      50.037  25.187  31.841  1.00  0.00     0.000 A 
ENDBRANCH  57  70
ENDBRANCH  31  32
ENDBRANCH  24  26
ENDBRANCH  23  24
ENDBRANCH   1  23
TORSDOF 12
ENDMDL
MODEL 3
REMARK VINA RESULT:     -11.5      4.798      9.138
REMARK SMILES O=C(OCCOC(=O)c1ccc(-c2c3nc(c(-c4ccccc4)c4ccc([nH]4)c(-c4ccccc4)c4nc(c(-c5ccccc5)c5ccc2[nH]5)C=C4)C=C3)cc1)C1=Cc2c(cc(Cl)c(Cl)c2Cl)O[C@H]1C(F)(F)F
REMARK SMILES IDX 5 1 4 2 3 3 2 4 1 5 57 6 58 7 69 8 59 9 68 10 60 11 66 12
REMARK SMILES IDX 61 13 64 14 67 15 62 16 65 17 63 18 70 19 71 20 72 21 73 22
REMARK SMILES IDX 6 23 7 24 8 25 9 26 10 27 56 28 11 29 55 30 12 31 13 32
REMARK SMILES IDX 14 33 49 34 15 35 54 36 48 37 50 38 16 39 53 40 47 41 46 42
REMARK SMILES IDX 17 44 39 45 24 46 38 47 25 48 28 49 37 50 51 51 26 52 27 53
REMARK SMILES IDX 36 55 52 56 29 57 18 58 19 59 23 60 20 61 22 62 21 63 40 64
REMARK SMILES IDX 41 65 45 66 42 67 44 68 43 69 30 70 31 71 35 72 32 73 34 74
REMARK SMILES IDX 33 75
REMARK H PARENT 50 43 28 54
REMARK Flexibility Score: inf
ROOT
ATOM      1  C   UNL A   1      40.696  20.723  26.492  1.00  0.00     0.275 C 
ENDROOT
BRANCH   1   2
ATOM      2  C   UNL A   1      42.076  20.951  25.857  1.00  0.00     0.275 C 
BRANCH   2   3
ATOM      3  O   UNL A   1      42.301  22.312  25.422  1.00  0.00    -0.459 OA
BRANCH   3   4
ATOM      4  C   UNL A   1      43.464  22.981  25.268  1.00  0.00     0.338 C 
ATOM      5  O   UNL A   1      44.072  22.885  24.203  1.00  0.00    -0.246 OA
BRANCH   4   6
ATOM      6  C   UNL A   1      44.025  23.878  26.308  1.00  0.00     0.087 C 
ATOM      7  C   UNL A   1      44.371  25.157  26.103  1.00  0.00     0.029 C 
ATOM      8  C   UNL A   1      44.519  23.142  27.541  1.00  0.00     0.316 C 
ATOM      9  C   UNL A   1      45.775  25.449  26.441  1.00  0.00     0.038 A 
ATOM     10  O   UNL A   1      45.728  23.705  28.129  1.00  0.00    -0.475 OA
ATOM     11  C   UNL A   1      46.398  24.649  27.400  1.00  0.00     0.131 A 
ATOM     12  C   UNL A   1      46.523  26.428  25.752  1.00  0.00     0.072 A 
ATOM     13  C   UNL A   1      47.754  24.800  27.665  1.00  0.00     0.069 A 
ATOM     14  C   UNL A   1      47.904  26.545  25.976  1.00  0.00     0.079 A 
ATOM     15  Cl  UNL A   1      45.726  27.480  24.619  1.00  0.00    -0.082 Cl
ATOM     16  C   UNL A   1      48.511  25.722  26.937  1.00  0.00     0.064 A 
ATOM     17  Cl  UNL A   1      48.857  27.665  25.050  1.00  0.00    -0.081 Cl
ATOM     18  Cl  UNL A   1      50.208  25.784  27.267  1.00  0.00    -0.083 Cl
BRANCH   8  19
ATOM     19  C   UNL A   1      43.409  23.084  28.607  1.00  0.00     0.430 C 
ATOM     20  F   UNL A   1      42.350  23.867  28.302  1.00  0.00    -0.167 F 
ATOM     21  F   UNL A   1      42.938  21.826  28.765  1.00  0.00    -0.167 F 
ATOM     22  F   UNL A   1      43.868  23.499  29.814  1.00  0.00    -0.167 F 
ENDBRANCH   8  19
ENDBRANCH   4   6
ENDBRANCH   3   4
ENDBRANCH   2   3
ENDBRANCH   1   2
BRANCH   1  23
ATOM     23  O   UNL A   1      40.249  21.870  27.221  1.00  0.00    -0.458 OA
BRANCH  23  24
ATOM     24  C   UNL A   1      39.387  22.645  26.516  1.00  0.00     0.338 C 
ATOM     25  O   UNL A   1      38.543  22.262  25.723  1.00  0.00    -0.246 OA
BRANCH  24  26
ATOM     26  C   UNL A   1      39.502  24.038  26.987  1.00  0.00     0.060 A 
ATOM     27  C   UNL A   1      40.095  24.965  26.123  1.00  0.00     0.016 A 
ATOM     28  C   UNL A   1      39.052  24.430  28.253  1.00  0.00     0.016 A 
ATOM     29  C   UNL A   1      40.322  26.268  26.553  1.00  0.00     0.010 A 
ATOM     30  C   UNL A   1      39.261  25.740  28.676  1.00  0.00     0.010 A 
ATOM     31  C   UNL A   1      39.951  26.645  27.849  1.00  0.00    -0.014 A 
BRANCH  31  32
ATOM     32  C   UNL A   1      40.485  27.899  28.422  1.00  0.00     0.031 A 
ATOM     33  C   UNL A   1      39.524  29.028  28.669  1.00  0.00     0.074 A 
ATOM     34  C   UNL A   1      41.787  28.027  28.726  1.00  0.00     0.049 A 
ATOM     35  N   UNL A   1      39.751  30.225  29.143  1.00  0.00    -0.248 NA
ATOM     36  C   UNL A   1      38.116  28.775  28.319  1.00  0.00     0.031 C 
ATOM     37  C   UNL A   1      42.804  26.993  28.548  1.00  0.00     0.029 A 
ATOM     38  N   UNL A   1      42.473  29.095  29.243  1.00  0.00    -0.354 N 
ATOM     39  C   UNL A   1      38.520  30.869  29.130  1.00  0.00     0.074 A 
ATOM     40  C   UNL A   1      37.563  29.952  28.557  1.00  0.00     0.031 C 
ATOM     41  C   UNL A   1      43.993  27.485  28.935  1.00  0.00     0.029 A 
ATOM     42  C   UNL A   1      43.821  28.871  29.366  1.00  0.00     0.049 A 
ATOM     43  H   UNL A   1      42.040  29.941  29.500  1.00  0.00     0.167 HD
ATOM     44  C   UNL A   1      38.209  32.111  29.570  1.00  0.00     0.031 A 
ATOM     45  C   UNL A   1      44.803  29.701  29.765  1.00  0.00     0.031 A 
ATOM     46  C   UNL A   1      39.168  33.021  30.130  1.00  0.00     0.049 A 
ATOM     47  C   UNL A   1      44.449  31.096  30.210  1.00  0.00     0.074 A 
ATOM     48  C   UNL A   1      38.963  34.289  30.640  1.00  0.00     0.029 A 
ATOM     49  N   UNL A   1      40.527  32.756  30.238  1.00  0.00    -0.354 N 
ATOM     50  N   UNL A   1      43.272  31.676  30.255  1.00  0.00    -0.248 NA
ATOM     51  C   UNL A   1      45.554  31.947  30.674  1.00  0.00     0.031 C 
ATOM     52  C   UNL A   1      40.207  34.817  31.000  1.00  0.00     0.029 A 
ATOM     53  C   UNL A   1      41.177  33.851  30.776  1.00  0.00     0.049 A 
ATOM     54  H   UNL A   1      40.962  31.914  29.972  1.00  0.00     0.167 HD
ATOM     55  C   UNL A   1      43.490  32.942  30.783  1.00  0.00     0.074 A 
ATOM     56  C   UNL A   1      44.911  33.046  31.045  1.00  0.00     0.031 C 
ATOM     57  C   UNL A   1      42.593  33.928  31.036  1.00  0.00     0.031 A 
BRANCH  44  58
ATOM     58  C   UNL A   1      36.780  32.553  29.410  1.00  0.00    -0.014 A 
ATOM     59  C   UNL A   1      36.314  33.114  28.210  1.00  0.00     0.009 A 
ATOM     60  C   UNL A   1      35.896  32.442  30.494  1.00  0.00     0.009 A 
ATOM     61  C   UNL A   1      35.013  33.614  28.120  1.00  0.00     0.001 A 
ATOM     62  C   UNL A   1      34.585  32.910  30.390  1.00  0.00     0.001 A 
ATOM     63  C   UNL A   1      34.150  33.511  29.210  1.00  0.00     0.000 A 
ENDBRANCH  44  58
BRANCH  45  64
ATOM     64  C   UNL A   1      46.212  29.230  29.756  1.00  0.00    -0.014 A 
ATOM     65  C   UNL A   1      47.029  29.415  28.631  1.00  0.00     0.009 A 
ATOM     66  C   UNL A   1      46.756  28.607  30.892  1.00  0.00     0.009 A 
ATOM     67  C   UNL A   1      48.352  28.969  28.635  1.00  0.00     0.001 A 
ATOM     68  C   UNL A   1      48.087  28.186  30.904  1.00  0.00     0.001 A 
ATOM     69  C   UNL A   1      48.882  28.361  29.773  1.00  0.00     0.000 A 
ENDBRANCH  45  64
BRANCH  57  70
ATOM     70  C   UNL A   1      43.105  35.192  31.668  1.00  0.00    -0.014 A 
ATOM     71  C   UNL A   1      43.647  36.229  30.894  1.00  0.00     0.009 A 
ATOM     72  C   UNL A   1      42.950  35.382  33.050  1.00  0.00     0.009 A 
ATOM     73  C   UNL A   1      44.037  37.427  31.498  1.00  0.00     0.001 A 
ATOM     74  C   UNL A   1      43.313  36.589  33.646  1.00  0.00     0.001 A 
ATOM     75  C   UNL A   1      43.861  37.610  32.870  1.00  0.00     0.000 A 
ENDBRANCH  57  70
ENDBRANCH  31  32
ENDBRANCH  24  26
ENDBRANCH  23  24
ENDBRANCH   1  23
TORSDOF 12
ENDMDL
