MODEL 1
REMARK VINA RESULT:     -11.1      0.000      0.000
REMARK SMILES C[C@@H](C(=O)OCCOC(=O)c1ccc(-c2c3nc(c(-c4ccccc4)c4ccc([nH]4)c(-c4ccccc4)c4nc(c(-c5ccccc5)c5ccc2[nH]5)C=C4)C=C3)cc1)N1C(=O)/C(=C/c2ccc(F)cc2)SC1=S
REMARK SMILES IDX 6 1 5 2 3 3 4 4 2 5 1 6 59 7 60 8 72 9 61 10 62 11 71 12
REMARK SMILES IDX 73 13 63 14 64 15 65 16 70 17 66 18 69 19 67 20 68 21 7 22
REMARK SMILES IDX 8 23 9 24 10 25 11 26 12 27 58 28 13 29 57 30 14 31 15 32
REMARK SMILES IDX 16 33 51 34 17 35 56 36 50 37 52 38 18 39 55 40 49 41 48 42
REMARK SMILES IDX 19 44 41 45 26 46 40 47 27 48 30 49 39 50 53 51 28 52 29 53
REMARK SMILES IDX 38 55 54 56 31 57 20 58 21 59 25 60 22 61 24 62 23 63 42 64
REMARK SMILES IDX 43 65 47 66 44 67 46 68 45 69 32 70 33 71 37 72 34 73 36 74
REMARK SMILES IDX 35 75
REMARK H PARENT 52 43 30 54
REMARK Flexibility Score: inf
ROOT
ATOM      1  C   UNL A   1      33.647  28.138  25.350  1.00  0.00     0.274 C 
ENDROOT
BRANCH   1   2
ATOM      2  O   UNL A   1      33.238  27.048  26.197  1.00  0.00    -0.461 OA
BRANCH   2   3
ATOM      3  C   UNL A   1      31.909  26.728  26.232  1.00  0.00     0.329 C 
ATOM      4  O   UNL A   1      31.148  27.011  27.149  1.00  0.00    -0.250 OA
BRANCH   3   5
ATOM      5  C   UNL A   1      31.497  25.922  24.970  1.00  0.00     0.199 C 
ATOM      6  C   UNL A   1      30.000  25.561  25.004  1.00  0.00     0.044 C 
BRANCH   5   7
ATOM      7  N   UNL A   1      32.333  24.750  24.583  1.00  0.00    -0.279 N 
ATOM      8  C   UNL A   1      32.316  23.586  25.326  1.00  0.00     0.266 C 
ATOM      9  C   UNL A   1      33.024  24.670  23.385  1.00  0.00     0.149 C 
ATOM     10  O   UNL A   1      31.804  23.440  26.428  1.00  0.00    -0.268 OA
ATOM     11  C   UNL A   1      32.955  22.459  24.581  1.00  0.00     0.081 C 
ATOM     12  S   UNL A   1      33.477  22.997  23.049  1.00  0.00    -0.054 SA
ATOM     13  S   UNL A   1      33.405  25.899  22.321  1.00  0.00    -0.052 S 
ATOM     14  C   UNL A   1      33.001  21.221  25.092  1.00  0.00     0.029 C 
BRANCH  14  15
ATOM     15  C   UNL A   1      33.352  19.956  24.426  1.00  0.00    -0.024 A 
ATOM     16  C   UNL A   1      32.442  19.340  23.549  1.00  0.00     0.011 A 
ATOM     17  C   UNL A   1      34.513  19.268  24.795  1.00  0.00     0.011 A 
ATOM     18  C   UNL A   1      32.665  18.038  23.090  1.00  0.00     0.040 A 
ATOM     19  C   UNL A   1      34.749  17.980  24.307  1.00  0.00     0.040 A 
ATOM     20  C   UNL A   1      33.817  17.370  23.475  1.00  0.00     0.123 A 
ATOM     21  F   UNL A   1      34.035  16.121  23.045  1.00  0.00    -0.207 F 
ENDBRANCH  14  15
ENDBRANCH   5   7
ENDBRANCH   3   5
ENDBRANCH   2   3
ENDBRANCH   1   2
BRANCH   1  22
ATOM     22  C   UNL A   1      33.568  29.455  26.134  1.00  0.00     0.275 C 
BRANCH  22  23
ATOM     23  O   UNL A   1      34.103  29.280  27.463  1.00  0.00    -0.458 OA
BRANCH  23  24
ATOM     24  C   UNL A   1      34.700  30.375  27.993  1.00  0.00     0.338 C 
ATOM     25  O   UNL A   1      34.187  31.450  28.252  1.00  0.00    -0.246 OA
BRANCH  24  26
ATOM     26  C   UNL A   1      36.049  30.011  28.453  1.00  0.00     0.060 A 
ATOM     27  C   UNL A   1      37.046  30.049  27.488  1.00  0.00     0.016 A 
ATOM     28  C   UNL A   1      36.345  29.583  29.750  1.00  0.00     0.016 A 
ATOM     29  C   UNL A   1      38.347  29.698  27.820  1.00  0.00     0.010 A 
ATOM     30  C   UNL A   1      37.667  29.218  30.078  1.00  0.00     0.010 A 
ATOM     31  C   UNL A   1      38.683  29.288  29.113  1.00  0.00    -0.014 A 
BRANCH  31  32
ATOM     32  C   UNL A   1      40.089  28.862  29.350  1.00  0.00     0.031 A 
ATOM     33  C   UNL A   1      40.537  27.507  28.878  1.00  0.00     0.074 A 
ATOM     34  C   UNL A   1      41.017  29.747  29.767  1.00  0.00     0.049 A 
ATOM     35  N   UNL A   1      41.735  26.979  28.883  1.00  0.00    -0.248 NA
ATOM     36  C   UNL A   1      39.502  26.652  28.275  1.00  0.00     0.031 C 
ATOM     37  C   UNL A   1      40.765  31.158  30.051  1.00  0.00     0.029 A 
ATOM     38  N   UNL A   1      42.375  29.610  29.942  1.00  0.00    -0.354 N 
ATOM     39  C   UNL A   1      41.597  25.724  28.305  1.00  0.00     0.074 A 
ATOM     40  C   UNL A   1      40.203  25.577  27.942  1.00  0.00     0.031 C 
ATOM     41  C   UNL A   1      41.938  31.772  30.289  1.00  0.00     0.029 A 
ATOM     42  C   UNL A   1      43.018  30.788  30.245  1.00  0.00     0.049 A 
ATOM     43  H   UNL A   1      42.844  28.747  29.857  1.00  0.00     0.167 HD
ATOM     44  C   UNL A   1      42.538  24.768  28.113  1.00  0.00     0.031 A 
ATOM     45  C   UNL A   1      44.326  31.043  30.459  1.00  0.00     0.031 A 
ATOM     46  C   UNL A   1      43.918  24.887  28.497  1.00  0.00     0.049 A 
ATOM     47  C   UNL A   1      45.319  29.908  30.405  1.00  0.00     0.074 A 
ATOM     48  C   UNL A   1      44.913  23.925  28.443  1.00  0.00     0.029 A 
ATOM     49  N   UNL A   1      44.501  26.036  29.005  1.00  0.00    -0.354 N 
ATOM     50  N   UNL A   1      45.153  28.678  29.986  1.00  0.00    -0.248 NA
ATOM     51  C   UNL A   1      46.683  30.199  30.878  1.00  0.00     0.031 C 
ATOM     52  C   UNL A   1      46.084  24.474  28.976  1.00  0.00     0.029 A 
ATOM     53  C   UNL A   1      45.834  25.798  29.300  1.00  0.00     0.049 A 
ATOM     54  H   UNL A   1      44.038  26.895  29.137  1.00  0.00     0.167 HD
ATOM     55  C   UNL A   1      46.392  28.060  30.119  1.00  0.00     0.074 A 
ATOM     56  C   UNL A   1      47.306  29.054  30.640  1.00  0.00     0.031 C 
ATOM     57  C   UNL A   1      46.737  26.780  29.840  1.00  0.00     0.031 A 
BRANCH  44  58
ATOM     58  C   UNL A   1      42.066  23.460  27.549  1.00  0.00    -0.014 A 
ATOM     59  C   UNL A   1      42.200  23.151  26.188  1.00  0.00     0.009 A 
ATOM     60  C   UNL A   1      41.479  22.518  28.410  1.00  0.00     0.009 A 
ATOM     61  C   UNL A   1      41.722  21.934  25.694  1.00  0.00     0.001 A 
ATOM     62  C   UNL A   1      41.024  21.296  27.919  1.00  0.00     0.001 A 
ATOM     63  C   UNL A   1      41.136  21.009  26.560  1.00  0.00     0.000 A 
ENDBRANCH  44  58
BRANCH  45  64
ATOM     64  C   UNL A   1      44.801  32.422  30.779  1.00  0.00    -0.014 A 
ATOM     65  C   UNL A   1      44.783  32.896  32.101  1.00  0.00     0.009 A 
ATOM     66  C   UNL A   1      45.206  33.299  29.761  1.00  0.00     0.009 A 
ATOM     67  C   UNL A   1      45.137  34.217  32.392  1.00  0.00     0.001 A 
ATOM     68  C   UNL A   1      45.593  34.608  30.057  1.00  0.00     0.001 A 
ATOM     69  C   UNL A   1      45.547  35.069  31.371  1.00  0.00     0.000 A 
ENDBRANCH  45  64
BRANCH  57  70
ATOM     70  C   UNL A   1      48.163  26.366  30.096  1.00  0.00    -0.014 A 
ATOM     71  C   UNL A   1      48.548  25.818  31.330  1.00  0.00     0.009 A 
ATOM     72  C   UNL A   1      49.119  26.471  29.074  1.00  0.00     0.009 A 
ATOM     73  C   UNL A   1      49.868  25.409  31.542  1.00  0.00     0.001 A 
ATOM     74  C   UNL A   1      50.429  26.034  29.279  1.00  0.00     0.001 A 
ATOM     75  C   UNL A   1      50.804  25.510  30.514  1.00  0.00     0.000 A 
ENDBRANCH  57  70
ENDBRANCH  31  32
ENDBRANCH  24  26
ENDBRANCH  23  24
ENDBRANCH  22  23
ENDBRANCH   1  22
TORSDOF 13
ENDMDL
MODEL 2
REMARK VINA RESULT:     -11.0      3.235      8.162
REMARK SMILES C[C@@H](C(=O)OCCOC(=O)c1ccc(-c2c3nc(c(-c4ccccc4)c4ccc([nH]4)c(-c4ccccc4)c4nc(c(-c5ccccc5)c5ccc2[nH]5)C=C4)C=C3)cc1)N1C(=O)/C(=C/c2ccc(F)cc2)SC1=S
REMARK SMILES IDX 6 1 5 2 3 3 4 4 2 5 1 6 59 7 60 8 72 9 61 10 62 11 71 12
REMARK SMILES IDX 73 13 63 14 64 15 65 16 70 17 66 18 69 19 67 20 68 21 7 22
REMARK SMILES IDX 8 23 9 24 10 25 11 26 12 27 58 28 13 29 57 30 14 31 15 32
REMARK SMILES IDX 16 33 51 34 17 35 56 36 50 37 52 38 18 39 55 40 49 41 48 42
REMARK SMILES IDX 19 44 41 45 26 46 40 47 27 48 30 49 39 50 53 51 28 52 29 53
REMARK SMILES IDX 38 55 54 56 31 57 20 58 21 59 25 60 22 61 24 62 23 63 42 64
REMARK SMILES IDX 43 65 47 66 44 67 46 68 45 69 32 70 33 71 37 72 34 73 36 74
REMARK SMILES IDX 35 75
REMARK H PARENT 52 43 30 54
REMARK Flexibility Score: inf
ROOT
ATOM      1  C   UNL A   1      36.064  21.144  25.379  1.00  0.00     0.274 C 
ENDROOT
BRANCH   1   2
ATOM      2  O   UNL A   1      34.951  21.229  24.469  1.00  0.00    -0.461 OA
BRANCH   2   3
ATOM      3  C   UNL A   1      33.690  21.109  24.985  1.00  0.00     0.329 C 
ATOM      4  O   UNL A   1      33.326  20.212  25.734  1.00  0.00    -0.250 OA
BRANCH   3   5
ATOM      5  C   UNL A   1      32.766  22.245  24.465  1.00  0.00     0.199 C 
ATOM      6  C   UNL A   1      32.995  22.506  22.965  1.00  0.00     0.044 C 
BRANCH   5   7
ATOM      7  N   UNL A   1      32.716  23.517  25.240  1.00  0.00    -0.279 N 
ATOM      8  C   UNL A   1      33.671  24.500  25.060  1.00  0.00     0.266 C 
ATOM      9  C   UNL A   1      31.642  23.883  26.035  1.00  0.00     0.149 C 
ATOM     10  O   UNL A   1      34.716  24.384  24.436  1.00  0.00    -0.268 OA
ATOM     11  C   UNL A   1      33.241  25.791  25.678  1.00  0.00     0.081 C 
ATOM     12  S   UNL A   1      31.699  25.613  26.386  1.00  0.00    -0.054 SA
ATOM     13  S   UNL A   1      30.402  22.925  26.612  1.00  0.00    -0.052 S 
ATOM     14  C   UNL A   1      33.992  26.896  25.578  1.00  0.00     0.029 C 
BRANCH  14  15
ATOM     15  C   UNL A   1      33.635  28.289  25.892  1.00  0.00    -0.024 A 
ATOM     16  C   UNL A   1      34.303  28.980  26.918  1.00  0.00     0.011 A 
ATOM     17  C   UNL A   1      32.511  28.875  25.298  1.00  0.00     0.011 A 
ATOM     18  C   UNL A   1      33.826  30.212  27.376  1.00  0.00     0.040 A 
ATOM     19  C   UNL A   1      32.058  30.123  25.734  1.00  0.00     0.040 A 
ATOM     20  C   UNL A   1      32.707  30.772  26.779  1.00  0.00     0.123 A 
ATOM     21  F   UNL A   1      32.240  31.949  27.215  1.00  0.00    -0.207 F 
ENDBRANCH  14  15
ENDBRANCH   5   7
ENDBRANCH   3   5
ENDBRANCH   2   3
ENDBRANCH   1   2
BRANCH   1  22
ATOM     22  C   UNL A   1      37.252  21.933  24.811  1.00  0.00     0.275 C 
BRANCH  22  23
ATOM     23  O   UNL A   1      37.690  22.928  25.759  1.00  0.00    -0.458 OA
BRANCH  23  24
ATOM     24  C   UNL A   1      38.942  22.749  26.246  1.00  0.00     0.338 C 
ATOM     25  O   UNL A   1      39.652  21.765  26.130  1.00  0.00    -0.246 OA
BRANCH  24  26
ATOM     26  C   UNL A   1      39.449  24.034  26.753  1.00  0.00     0.060 A 
ATOM     27  C   UNL A   1      39.231  24.278  28.102  1.00  0.00     0.016 A 
ATOM     28  C   UNL A   1      40.056  25.006  25.953  1.00  0.00     0.016 A 
ATOM     29  C   UNL A   1      39.650  25.474  28.667  1.00  0.00     0.010 A 
ATOM     30  C   UNL A   1      40.471  26.223  26.532  1.00  0.00     0.010 A 
ATOM     31  C   UNL A   1      40.281  26.458  27.903  1.00  0.00    -0.014 A 
BRANCH  31  32
ATOM     32  C   UNL A   1      40.627  27.736  28.585  1.00  0.00     0.031 A 
ATOM     33  C   UNL A   1      42.073  28.089  28.794  1.00  0.00     0.074 A 
ATOM     34  C   UNL A   1      39.687  28.676  28.807  1.00  0.00     0.049 A 
ATOM     35  N   UNL A   1      42.599  29.192  29.263  1.00  0.00    -0.248 NA
ATOM     36  C   UNL A   1      43.059  27.082  28.370  1.00  0.00     0.031 C 
ATOM     37  C   UNL A   1      38.275  28.553  28.450  1.00  0.00     0.029 A 
ATOM     38  N   UNL A   1      39.794  29.953  29.308  1.00  0.00    -0.354 N 
ATOM     39  C   UNL A   1      43.974  29.006  29.213  1.00  0.00     0.074 A 
ATOM     40  C   UNL A   1      44.202  27.693  28.647  1.00  0.00     0.031 C 
ATOM     41  C   UNL A   1      37.665  29.731  28.672  1.00  0.00     0.029 A 
ATOM     42  C   UNL A   1      38.622  30.671  29.252  1.00  0.00     0.049 A 
ATOM     43  H   UNL A   1      40.632  30.318  29.674  1.00  0.00     0.167 HD
ATOM     44  C   UNL A   1      44.961  29.841  29.620  1.00  0.00     0.031 A 
ATOM     45  C   UNL A   1      38.353  31.941  29.624  1.00  0.00     0.031 A 
ATOM     46  C   UNL A   1      44.750  31.133  30.213  1.00  0.00     0.049 A 
ATOM     47  C   UNL A   1      39.448  32.779  30.236  1.00  0.00     0.074 A 
ATOM     48  C   UNL A   1      45.687  31.995  30.757  1.00  0.00     0.029 A 
ATOM     49  N   UNL A   1      43.517  31.754  30.338  1.00  0.00    -0.354 N 
ATOM     50  N   UNL A   1      40.734  32.540  30.311  1.00  0.00    -0.248 NA
ATOM     51  C   UNL A   1      39.043  34.062  30.837  1.00  0.00     0.031 C 
ATOM     52  C   UNL A   1      45.014  33.110  31.268  1.00  0.00     0.029 A 
ATOM     53  C   UNL A   1      43.666  32.972  30.981  1.00  0.00     0.049 A 
ATOM     54  H   UNL A   1      42.663  31.384  30.018  1.00  0.00     0.167 HD
ATOM     55  C   UNL A   1      41.290  33.649  30.940  1.00  0.00     0.074 A 
ATOM     56  C   UNL A   1      40.208  34.570  31.209  1.00  0.00     0.031 C 
ATOM     57  C   UNL A   1      42.585  33.878  31.270  1.00  0.00     0.031 A 
BRANCH  44  58
ATOM     58  C   UNL A   1      46.366  29.320  29.531  1.00  0.00    -0.014 A 
ATOM     59  C   UNL A   1      46.956  28.606  30.583  1.00  0.00     0.009 A 
ATOM     60  C   UNL A   1      47.106  29.553  28.361  1.00  0.00     0.009 A 
ATOM     61  C   UNL A   1      48.278  28.163  30.475  1.00  0.00     0.001 A 
ATOM     62  C   UNL A   1      48.415  29.090  28.247  1.00  0.00     0.001 A 
ATOM     63  C   UNL A   1      49.004  28.404  29.308  1.00  0.00     0.000 A 
ENDBRANCH  44  58
BRANCH  45  64
ATOM     64  C   UNL A   1      36.985  32.517  29.467  1.00  0.00    -0.014 A 
ATOM     65  C   UNL A   1      36.017  32.345  30.470  1.00  0.00     0.009 A 
ATOM     66  C   UNL A   1      36.613  33.180  28.287  1.00  0.00     0.009 A 
ATOM     67  C   UNL A   1      34.708  32.800  30.287  1.00  0.00     0.001 A 
ATOM     68  C   UNL A   1      35.314  33.666  28.120  1.00  0.00     0.001 A 
ATOM     69  C   UNL A   1      34.360  33.466  29.115  1.00  0.00     0.000 A 
ENDBRANCH  45  64
BRANCH  57  70
ATOM     70  C   UNL A   1      42.913  35.172  31.968  1.00  0.00    -0.014 A 
ATOM     71  C   UNL A   1      42.719  35.319  33.350  1.00  0.00     0.009 A 
ATOM     72  C   UNL A   1      43.476  36.236  31.246  1.00  0.00     0.009 A 
ATOM     73  C   UNL A   1      43.058  36.515  33.990  1.00  0.00     0.001 A 
ATOM     74  C   UNL A   1      43.841  37.419  31.893  1.00  0.00     0.001 A 
ATOM     75  C   UNL A   1      43.625  37.560  33.262  1.00  0.00     0.000 A 
ENDBRANCH  57  70
ENDBRANCH  31  32
ENDBRANCH  24  26
ENDBRANCH  23  24
ENDBRANCH  22  23
ENDBRANCH   1  22
TORSDOF 13
ENDMDL
MODEL 3
REMARK VINA RESULT:     -10.8      3.045      8.225
REMARK SMILES C[C@@H](C(=O)OCCOC(=O)c1ccc(-c2c3nc(c(-c4ccccc4)c4ccc([nH]4)c(-c4ccccc4)c4nc(c(-c5ccccc5)c5ccc2[nH]5)C=C4)C=C3)cc1)N1C(=O)/C(=C/c2ccc(F)cc2)SC1=S
REMARK SMILES IDX 6 1 5 2 3 3 4 4 2 5 1 6 59 7 60 8 72 9 61 10 62 11 71 12
REMARK SMILES IDX 73 13 63 14 64 15 65 16 70 17 66 18 69 19 67 20 68 21 7 22
REMARK SMILES IDX 8 23 9 24 10 25 11 26 12 27 58 28 13 29 57 30 14 31 15 32
REMARK SMILES IDX 16 33 51 34 17 35 56 36 50 37 52 38 18 39 55 40 49 41 48 42
REMARK SMILES IDX 19 44 41 45 26 46 40 47 27 48 30 49 39 50 53 51 28 52 29 53
REMARK SMILES IDX 38 55 54 56 31 57 20 58 21 59 25 60 22 61 24 62 23 63 42 64
REMARK SMILES IDX 43 65 47 66 44 67 46 68 45 69 32 70 33 71 37 72 34 73 36 74
REMARK SMILES IDX 35 75
REMARK H PARENT 52 43 30 54
REMARK Flexibility Score: inf
ROOT
ATOM      1  C   UNL A   1      38.177  20.767  25.575  1.00  0.00     0.274 C 
ENDROOT
BRANCH   1   2
ATOM      2  O   UNL A   1      37.182  20.770  24.535  1.00  0.00    -0.461 OA
BRANCH   2   3
ATOM      3  C   UNL A   1      35.923  21.198  24.852  1.00  0.00     0.329 C 
ATOM      4  O   UNL A   1      35.241  20.745  25.763  1.00  0.00    -0.250 OA
BRANCH   3   5
ATOM      5  C   UNL A   1      35.453  22.314  23.879  1.00  0.00     0.199 C 
ATOM      6  C   UNL A   1      36.644  22.934  23.125  1.00  0.00     0.044 C 
BRANCH   5   7
ATOM      7  N   UNL A   1      34.536  23.363  24.408  1.00  0.00    -0.279 N 
ATOM      8  C   UNL A   1      34.997  24.352  25.257  1.00  0.00     0.266 C 
ATOM      9  C   UNL A   1      33.236  23.538  23.958  1.00  0.00     0.149 C 
ATOM     10  O   UNL A   1      36.090  24.380  25.805  1.00  0.00    -0.268 OA
ATOM     11  C   UNL A   1      34.003  25.460  25.387  1.00  0.00     0.081 C 
ATOM     12  S   UNL A   1      32.635  25.132  24.422  1.00  0.00    -0.054 SA
ATOM     13  S   UNL A   1      32.292  22.480  23.076  1.00  0.00    -0.052 S 
ATOM     14  C   UNL A   1      34.265  26.551  26.120  1.00  0.00     0.029 C 
BRANCH  14  15
ATOM     15  C   UNL A   1      33.541  27.831  26.167  1.00  0.00    -0.024 A 
ATOM     16  C   UNL A   1      32.668  28.114  27.233  1.00  0.00     0.011 A 
ATOM     17  C   UNL A   1      33.574  28.696  25.068  1.00  0.00     0.011 A 
ATOM     18  C   UNL A   1      31.809  29.215  27.178  1.00  0.00     0.040 A 
ATOM     19  C   UNL A   1      32.737  29.815  25.031  1.00  0.00     0.040 A 
ATOM     20  C   UNL A   1      31.851  30.056  26.076  1.00  0.00     0.123 A 
ATOM     21  F   UNL A   1      31.027  31.109  26.011  1.00  0.00    -0.207 F 
ENDBRANCH  14  15
ENDBRANCH   5   7
ENDBRANCH   3   5
ENDBRANCH   2   3
ENDBRANCH   1   2
BRANCH   1  22
ATOM     22  C   UNL A   1      39.298  19.784  25.211  1.00  0.00     0.275 C 
BRANCH  22  23
ATOM     23  O   UNL A   1      40.087  19.471  26.378  1.00  0.00    -0.458 OA
BRANCH  23  24
ATOM     24  C   UNL A   1      41.421  19.668  26.242  1.00  0.00     0.338 C 
ATOM     25  O   UNL A   1      42.233  18.925  25.717  1.00  0.00    -0.246 OA
BRANCH  24  26
ATOM     26  C   UNL A   1      41.741  21.055  26.612  1.00  0.00     0.060 A 
ATOM     27  C   UNL A   1      41.668  21.349  27.967  1.00  0.00     0.016 A 
ATOM     28  C   UNL A   1      42.040  22.062  25.690  1.00  0.00     0.016 A 
ATOM     29  C   UNL A   1      41.928  22.638  28.412  1.00  0.00     0.010 A 
ATOM     30  C   UNL A   1      42.294  23.371  26.149  1.00  0.00     0.010 A 
ATOM     31  C   UNL A   1      42.253  23.664  27.521  1.00  0.00    -0.014 A 
BRANCH  31  32
ATOM     32  C   UNL A   1      42.442  25.027  28.089  1.00  0.00     0.031 A 
ATOM     33  C   UNL A   1      43.830  25.599  28.181  1.00  0.00     0.074 A 
ATOM     34  C   UNL A   1      41.387  25.838  28.304  1.00  0.00     0.049 A 
ATOM     35  N   UNL A   1      44.211  26.798  28.537  1.00  0.00    -0.248 NA
ATOM     36  C   UNL A   1      44.929  24.712  27.767  1.00  0.00     0.031 C 
ATOM     37  C   UNL A   1      39.992  25.487  28.046  1.00  0.00     0.029 A 
ATOM     38  N   UNL A   1      41.331  27.152  28.707  1.00  0.00    -0.354 N 
ATOM     39  C   UNL A   1      45.595  26.807  28.413  1.00  0.00     0.074 A 
ATOM     40  C   UNL A   1      45.983  25.500  27.928  1.00  0.00     0.031 C 
ATOM     41  C   UNL A   1      39.227  26.579  28.223  1.00  0.00     0.029 A 
ATOM     42  C   UNL A   1      40.065  27.690  28.675  1.00  0.00     0.049 A 
ATOM     43  H   UNL A   1      42.124  27.661  28.992  1.00  0.00     0.167 HD
ATOM     44  C   UNL A   1      46.468  27.803  28.698  1.00  0.00     0.031 A 
ATOM     45  C   UNL A   1      39.632  28.933  28.973  1.00  0.00     0.031 A 
ATOM     46  C   UNL A   1      46.100  29.095  29.211  1.00  0.00     0.049 A 
ATOM     47  C   UNL A   1      40.623  29.964  29.454  1.00  0.00     0.074 A 
ATOM     48  C   UNL A   1      46.928  30.121  29.633  1.00  0.00     0.029 A 
ATOM     49  N   UNL A   1      44.798  29.541  29.370  1.00  0.00    -0.354 N 
ATOM     50  N   UNL A   1      41.932  29.918  29.465  1.00  0.00    -0.248 NA
ATOM     51  C   UNL A   1      40.065  31.219  29.989  1.00  0.00     0.031 C 
ATOM     52  C   UNL A   1      46.126  31.165  30.106  1.00  0.00     0.029 A 
ATOM     53  C   UNL A   1      44.799  30.814  29.916  1.00  0.00     0.049 A 
ATOM     54  H   UNL A   1      43.992  29.029  29.132  1.00  0.00     0.167 HD
ATOM     55  C   UNL A   1      42.351  31.140  29.978  1.00  0.00     0.074 A 
ATOM     56  C   UNL A   1      41.161  31.916  30.250  1.00  0.00     0.031 C 
ATOM     57  C   UNL A   1      43.614  31.577  30.209  1.00  0.00     0.031 A 
BRANCH  44  58
ATOM     58  C   UNL A   1      47.927  27.483  28.557  1.00  0.00    -0.014 A 
ATOM     59  C   UNL A   1      48.657  26.891  29.597  1.00  0.00     0.009 A 
ATOM     60  C   UNL A   1      48.577  27.783  27.348  1.00  0.00     0.009 A 
ATOM     61  C   UNL A   1      50.022  26.635  29.439  1.00  0.00     0.001 A 
ATOM     62  C   UNL A   1      49.933  27.505  27.186  1.00  0.00     0.001 A 
ATOM     63  C   UNL A   1      50.657  26.941  28.234  1.00  0.00     0.000 A 
ENDBRANCH  44  58
BRANCH  45  64
ATOM     64  C   UNL A   1      38.188  29.294  28.863  1.00  0.00    -0.014 A 
ATOM     65  C   UNL A   1      37.645  29.704  27.634  1.00  0.00     0.009 A 
ATOM     66  C   UNL A   1      37.358  29.302  29.995  1.00  0.00     0.009 A 
ATOM     67  C   UNL A   1      36.318  30.133  27.546  1.00  0.00     0.001 A 
ATOM     68  C   UNL A   1      36.022  29.697  29.899  1.00  0.00     0.001 A 
ATOM     69  C   UNL A   1      35.506  30.123  28.677  1.00  0.00     0.000 A 
ENDBRANCH  45  64
BRANCH  57  70
ATOM     70  C   UNL A   1      43.784  32.955  30.792  1.00  0.00    -0.014 A 
ATOM     71  C   UNL A   1      43.864  34.087  29.967  1.00  0.00     0.009 A 
ATOM     72  C   UNL A   1      43.806  33.130  32.185  1.00  0.00     0.009 A 
ATOM     73  C   UNL A   1      43.989  35.363  30.524  1.00  0.00     0.001 A 
ATOM     74  C   UNL A   1      43.902  34.408  32.739  1.00  0.00     0.001 A 
ATOM     75  C   UNL A   1      44.000  35.522  31.909  1.00  0.00     0.000 A 
ENDBRANCH  57  70
ENDBRANCH  31  32
ENDBRANCH  24  26
ENDBRANCH  23  24
ENDBRANCH  22  23
ENDBRANCH   1  22
TORSDOF 13
ENDMDL
