MODEL 1
REMARK VINA RESULT:     -11.7      0.000      0.000
REMARK SMILES O=C(OCCOC(=O)[C@H]1CCO[C@H]1Cc1ccccc1)c1ccc(-c2c3nc(c(-c4ccccc4)c4ccc([nH]4)c(-c4ccccc4)c4nc(c(-c5ccccc5)c5ccc2[nH]5)C=C4)C=C3)cc1
REMARK SMILES IDX 4 1 3 2 2 3 1 4 21 5 22 6 68 7 23 8 67 9 24 10 25 11 26 12
REMARK SMILES IDX 61 13 27 14 66 15 60 16 62 17 28 18 65 19 59 20 58 21 29 23
REMARK SMILES IDX 51 24 36 25 50 26 37 27 40 28 49 29 63 30 38 31 39 32 48 34
REMARK SMILES IDX 64 35 41 36 30 37 31 38 35 39 32 40 34 41 33 42 52 43 53 44
REMARK SMILES IDX 57 45 54 46 56 47 55 48 42 49 43 50 47 51 44 52 46 53 45 54
REMARK SMILES IDX 5 55 6 56 7 57 8 58 9 59 10 60 13 61 11 62 12 63 14 64 15 65
REMARK SMILES IDX 16 66 20 67 17 68 19 69 18 70
REMARK H PARENT 62 22 40 33
REMARK Flexibility Score: inf
ROOT
ATOM      1  C   UNL A   1      37.074  21.702  24.423  1.00  0.00     0.275 C 
ENDROOT
BRANCH   1   2
ATOM      2  O   UNL A   1      37.638  21.805  25.739  1.00  0.00    -0.458 OA
BRANCH   2   3
ATOM      3  C   UNL A   1      39.003  21.778  25.919  1.00  0.00     0.338 C 
ATOM      4  O   UNL A   1      39.684  20.841  25.669  1.00  0.00    -0.246 OA
BRANCH   3   5
ATOM      5  C   UNL A   1      39.486  22.926  26.738  1.00  0.00     0.060 A 
ATOM      6  C   UNL A   1      40.725  23.051  27.368  1.00  0.00     0.016 A 
ATOM      7  C   UNL A   1      38.637  23.993  26.771  1.00  0.00     0.016 A 
ATOM      8  C   UNL A   1      41.102  24.275  28.011  1.00  0.00     0.010 A 
ATOM      9  C   UNL A   1      39.094  25.195  27.319  1.00  0.00     0.010 A 
ATOM     10  C   UNL A   1      40.263  25.391  28.015  1.00  0.00    -0.014 A 
BRANCH  10  11
ATOM     11  C   UNL A   1      40.493  26.725  28.662  1.00  0.00     0.031 A 
ATOM     12  C   UNL A   1      39.603  27.943  28.568  1.00  0.00     0.074 A 
ATOM     13  C   UNL A   1      41.555  27.024  29.414  1.00  0.00     0.049 A 
ATOM     14  N   UNL A   1      38.697  28.297  29.436  1.00  0.00    -0.248 NA
ATOM     15  C   UNL A   1      39.759  28.934  27.469  1.00  0.00     0.031 C 
ATOM     16  C   UNL A   1      42.777  26.264  29.580  1.00  0.00     0.029 A 
ATOM     17  N   UNL A   1      41.668  28.098  30.262  1.00  0.00    -0.354 N 
ATOM     18  C   UNL A   1      37.978  29.308  28.820  1.00  0.00     0.074 A 
ATOM     19  C   UNL A   1      38.624  29.632  27.576  1.00  0.00     0.031 C 
ATOM     20  C   UNL A   1      43.496  26.851  30.556  1.00  0.00     0.029 A 
ATOM     21  C   UNL A   1      42.737  27.986  31.094  1.00  0.00     0.049 A 
ATOM     22  H   UNL A   1      41.047  28.862  30.267  1.00  0.00     0.167 HD
ATOM     23  C   UNL A   1      36.914  29.951  29.334  1.00  0.00     0.031 A 
ATOM     24  C   UNL A   1      42.992  28.678  32.216  1.00  0.00     0.031 A 
ATOM     25  C   UNL A   1      36.917  30.350  30.709  1.00  0.00     0.049 A 
ATOM     26  C   UNL A   1      41.985  29.644  32.802  1.00  0.00     0.074 A 
ATOM     27  C   UNL A   1      35.967  31.031  31.444  1.00  0.00     0.029 A 
ATOM     28  N   UNL A   1      38.064  30.288  31.478  1.00  0.00    -0.354 N 
ATOM     29  N   UNL A   1      40.751  29.907  32.439  1.00  0.00    -0.248 NA
ATOM     30  C   UNL A   1      42.419  30.369  34.004  1.00  0.00     0.031 C 
ATOM     31  C   UNL A   1      36.610  31.528  32.592  1.00  0.00     0.029 A 
ATOM     32  C   UNL A   1      37.923  31.076  32.596  1.00  0.00     0.049 A 
ATOM     33  H   UNL A   1      38.863  29.758  31.259  1.00  0.00     0.167 HD
ATOM     34  C   UNL A   1      40.247  30.792  33.398  1.00  0.00     0.074 A 
ATOM     35  C   UNL A   1      41.317  31.025  34.344  1.00  0.00     0.031 C 
ATOM     36  C   UNL A   1      39.005  31.338  33.509  1.00  0.00     0.031 A 
BRANCH  23  37
ATOM     37  C   UNL A   1      35.753  30.274  28.457  1.00  0.00    -0.014 A 
ATOM     38  C   UNL A   1      35.070  29.192  27.867  1.00  0.00     0.009 A 
ATOM     39  C   UNL A   1      35.189  31.551  28.376  1.00  0.00     0.009 A 
ATOM     40  C   UNL A   1      33.844  29.380  27.227  1.00  0.00     0.001 A 
ATOM     41  C   UNL A   1      33.962  31.738  27.728  1.00  0.00     0.001 A 
ATOM     42  C   UNL A   1      33.288  30.654  27.162  1.00  0.00     0.000 A 
ENDBRANCH  23  37
BRANCH  24  43
ATOM     43  C   UNL A   1      44.258  28.390  32.911  1.00  0.00    -0.014 A 
ATOM     44  C   UNL A   1      44.322  27.407  33.904  1.00  0.00     0.009 A 
ATOM     45  C   UNL A   1      45.416  29.091  32.543  1.00  0.00     0.009 A 
ATOM     46  C   UNL A   1      45.532  27.145  34.541  1.00  0.00     0.001 A 
ATOM     47  C   UNL A   1      46.626  28.813  33.169  1.00  0.00     0.001 A 
ATOM     48  C   UNL A   1      46.681  27.847  34.172  1.00  0.00     0.000 A 
ENDBRANCH  24  43
BRANCH  36  49
ATOM     49  C   UNL A   1      38.724  32.257  34.667  1.00  0.00    -0.014 A 
ATOM     50  C   UNL A   1      38.232  31.772  35.889  1.00  0.00     0.009 A 
ATOM     51  C   UNL A   1      39.038  33.622  34.561  1.00  0.00     0.009 A 
ATOM     52  C   UNL A   1      38.031  32.639  36.967  1.00  0.00     0.001 A 
ATOM     53  C   UNL A   1      38.867  34.480  35.648  1.00  0.00     0.001 A 
ATOM     54  C   UNL A   1      38.355  33.991  36.847  1.00  0.00     0.000 A 
ENDBRANCH  36  49
ENDBRANCH  10  11
ENDBRANCH   3   5
ENDBRANCH   2   3
ENDBRANCH   1   2
BRANCH   1  55
ATOM     55  C   UNL A   1      36.308  22.950  23.948  1.00  0.00     0.274 C 
BRANCH  55  56
ATOM     56  O   UNL A   1      36.004  23.978  24.931  1.00  0.00    -0.462 OA
BRANCH  56  57
ATOM     57  C   UNL A   1      34.720  24.484  24.985  1.00  0.00     0.311 C 
ATOM     58  O   UNL A   1      34.396  25.560  24.506  1.00  0.00    -0.252 OA
BRANCH  57  59
ATOM     59  C   UNL A   1      33.812  23.621  25.882  1.00  0.00     0.131 C 
ATOM     60  C   UNL A   1      32.596  24.487  26.189  1.00  0.00     0.046 C 
ATOM     61  C   UNL A   1      33.187  22.178  25.670  1.00  0.00     0.136 C 
ATOM     62  C   UNL A   1      31.689  23.536  26.912  1.00  0.00     0.161 C 
ATOM     63  O   UNL A   1      31.820  22.299  26.211  1.00  0.00    -0.377 OA
BRANCH  61  64
ATOM     64  C   UNL A   1      33.015  21.194  24.373  1.00  0.00     0.068 C 
BRANCH  64  65
ATOM     65  C   UNL A   1      33.316  19.687  24.081  1.00  0.00    -0.045 A 
ATOM     66  C   UNL A   1      32.469  18.933  23.270  1.00  0.00     0.004 A 
ATOM     67  C   UNL A   1      34.358  18.915  24.624  1.00  0.00     0.004 A 
ATOM     68  C   UNL A   1      32.769  17.594  22.908  1.00  0.00     0.000 A 
ATOM     69  C   UNL A   1      34.721  17.611  24.242  1.00  0.00     0.000 A 
ATOM     70  C   UNL A   1      33.924  16.950  23.346  1.00  0.00     0.000 A 
ENDBRANCH  64  65
ENDBRANCH  61  64
ENDBRANCH  57  59
ENDBRANCH  56  57
ENDBRANCH  55  56
ENDBRANCH   1  55
TORSDOF 13
ENDMDL
MODEL 2
REMARK VINA RESULT:     -11.6      4.286      9.009
REMARK SMILES O=C(OCCOC(=O)[C@H]1CCO[C@H]1Cc1ccccc1)c1ccc(-c2c3nc(c(-c4ccccc4)c4ccc([nH]4)c(-c4ccccc4)c4nc(c(-c5ccccc5)c5ccc2[nH]5)C=C4)C=C3)cc1
REMARK SMILES IDX 4 1 3 2 2 3 1 4 21 5 22 6 68 7 23 8 67 9 24 10 25 11 26 12
REMARK SMILES IDX 61 13 27 14 66 15 60 16 62 17 28 18 65 19 59 20 58 21 29 23
REMARK SMILES IDX 51 24 36 25 50 26 37 27 40 28 49 29 63 30 38 31 39 32 48 34
REMARK SMILES IDX 64 35 41 36 30 37 31 38 35 39 32 40 34 41 33 42 52 43 53 44
REMARK SMILES IDX 57 45 54 46 56 47 55 48 42 49 43 50 47 51 44 52 46 53 45 54
REMARK SMILES IDX 5 55 6 56 7 57 8 58 9 59 10 60 13 61 11 62 12 63 14 64 15 65
REMARK SMILES IDX 16 66 20 67 17 68 19 69 18 70
REMARK H PARENT 62 22 40 33
REMARK Flexibility Score: inf
ROOT
ATOM      1  C   UNL A   1      41.069  20.342  27.204  1.00  0.00     0.275 C 
ENDROOT
BRANCH   1   2
ATOM      2  O   UNL A   1      41.095  21.717  26.793  1.00  0.00    -0.458 OA
BRANCH   2   3
ATOM      3  C   UNL A   1      39.925  22.438  26.687  1.00  0.00     0.338 C 
ATOM      4  O   UNL A   1      38.981  22.077  26.069  1.00  0.00    -0.246 OA
BRANCH   3   5
ATOM      5  C   UNL A   1      40.082  23.840  27.167  1.00  0.00     0.060 A 
ATOM      6  C   UNL A   1      39.267  24.933  26.865  1.00  0.00     0.016 A 
ATOM      7  C   UNL A   1      41.082  24.016  28.079  1.00  0.00     0.016 A 
ATOM      8  C   UNL A   1      39.463  26.196  27.512  1.00  0.00     0.010 A 
ATOM      9  C   UNL A   1      41.163  25.236  28.756  1.00  0.00     0.010 A 
ATOM     10  C   UNL A   1      40.453  26.380  28.479  1.00  0.00    -0.014 A 
BRANCH  10  11
ATOM     11  C   UNL A   1      40.805  27.636  29.222  1.00  0.00     0.031 A 
ATOM     12  C   UNL A   1      42.176  28.257  29.353  1.00  0.00     0.074 A 
ATOM     13  C   UNL A   1      39.927  28.380  29.900  1.00  0.00     0.049 A 
ATOM     14  N   UNL A   1      42.653  29.219  28.613  1.00  0.00    -0.248 NA
ATOM     15  C   UNL A   1      43.104  27.864  30.448  1.00  0.00     0.031 C 
ATOM     16  C   UNL A   1      38.563  28.052  30.258  1.00  0.00     0.029 A 
ATOM     17  N   UNL A   1      40.125  29.668  30.332  1.00  0.00    -0.354 N 
ATOM     18  C   UNL A   1      44.001  29.282  28.924  1.00  0.00     0.074 A 
ATOM     19  C   UNL A   1      44.258  28.384  30.019  1.00  0.00     0.031 C 
ATOM     20  C   UNL A   1      38.000  29.156  30.786  1.00  0.00     0.029 A 
ATOM     21  C   UNL A   1      38.969  30.258  30.739  1.00  0.00     0.049 A 
ATOM     22  H   UNL A   1      41.002  30.114  30.346  1.00  0.00     0.167 HD
ATOM     23  C   UNL A   1      44.905  30.111  28.370  1.00  0.00     0.031 A 
ATOM     24  C   UNL A   1      38.730  31.562  30.946  1.00  0.00     0.031 A 
ATOM     25  C   UNL A   1      44.565  31.481  28.132  1.00  0.00     0.049 A 
ATOM     26  C   UNL A   1      39.753  32.623  30.602  1.00  0.00     0.074 A 
ATOM     27  C   UNL A   1      45.319  32.510  27.604  1.00  0.00     0.029 A 
ATOM     28  N   UNL A   1      43.411  32.040  28.646  1.00  0.00    -0.354 N 
ATOM     29  N   UNL A   1      40.917  32.517  30.004  1.00  0.00    -0.248 NA
ATOM     30  C   UNL A   1      39.376  34.005  30.930  1.00  0.00     0.031 C 
ATOM     31  C   UNL A   1      44.686  33.713  27.963  1.00  0.00     0.029 A 
ATOM     32  C   UNL A   1      43.505  33.412  28.629  1.00  0.00     0.049 A 
ATOM     33  H   UNL A   1      42.635  31.533  28.976  1.00  0.00     0.167 HD
ATOM     34  C   UNL A   1      41.388  33.825  29.841  1.00  0.00     0.074 A 
ATOM     35  C   UNL A   1      40.385  34.696  30.417  1.00  0.00     0.031 C 
ATOM     36  C   UNL A   1      42.526  34.270  29.242  1.00  0.00     0.031 A 
BRANCH  23  37
ATOM     37  C   UNL A   1      46.267  29.602  28.040  1.00  0.00    -0.014 A 
ATOM     38  C   UNL A   1      47.223  29.605  29.074  1.00  0.00     0.009 A 
ATOM     39  C   UNL A   1      46.564  28.934  26.848  1.00  0.00     0.009 A 
ATOM     40  C   UNL A   1      48.441  28.938  28.926  1.00  0.00     0.001 A 
ATOM     41  C   UNL A   1      47.789  28.272  26.700  1.00  0.00     0.001 A 
ATOM     42  C   UNL A   1      48.721  28.268  27.739  1.00  0.00     0.000 A 
ENDBRANCH  23  37
BRANCH  24  43
ATOM     43  C   UNL A   1      37.392  31.931  31.436  1.00  0.00    -0.014 A 
ATOM     44  C   UNL A   1      37.137  32.045  32.807  1.00  0.00     0.009 A 
ATOM     45  C   UNL A   1      36.375  32.205  30.509  1.00  0.00     0.009 A 
ATOM     46  C   UNL A   1      35.866  32.405  33.246  1.00  0.00     0.001 A 
ATOM     47  C   UNL A   1      35.112  32.583  30.952  1.00  0.00     0.001 A 
ATOM     48  C   UNL A   1      34.857  32.674  32.319  1.00  0.00     0.000 A 
ENDBRANCH  24  43
BRANCH  36  49
ATOM     49  C   UNL A   1      42.778  35.753  29.189  1.00  0.00    -0.014 A 
ATOM     50  C   UNL A   1      43.617  36.390  30.116  1.00  0.00     0.009 A 
ATOM     51  C   UNL A   1      42.233  36.512  28.140  1.00  0.00     0.009 A 
ATOM     52  C   UNL A   1      43.877  37.760  30.013  1.00  0.00     0.001 A 
ATOM     53  C   UNL A   1      42.520  37.873  28.020  1.00  0.00     0.001 A 
ATOM     54  C   UNL A   1      43.334  38.497  28.961  1.00  0.00     0.000 A 
ENDBRANCH  36  49
ENDBRANCH  10  11
ENDBRANCH   3   5
ENDBRANCH   2   3
ENDBRANCH   1   2
BRANCH   1  55
ATOM     55  C   UNL A   1      41.296  19.325  26.071  1.00  0.00     0.274 C 
BRANCH  55  56
ATOM     56  O   UNL A   1      42.484  19.476  25.247  1.00  0.00    -0.462 OA
BRANCH  56  57
ATOM     57  C   UNL A   1      43.641  18.825  25.627  1.00  0.00     0.311 C 
ATOM     58  O   UNL A   1      43.658  17.703  26.112  1.00  0.00    -0.252 OA
BRANCH  57  59
ATOM     59  C   UNL A   1      44.865  19.757  25.545  1.00  0.00     0.131 C 
ATOM     60  C   UNL A   1      45.691  19.246  24.370  1.00  0.00     0.046 C 
ATOM     61  C   UNL A   1      44.981  21.334  25.414  1.00  0.00     0.136 C 
ATOM     62  C   UNL A   1      46.761  20.289  24.243  1.00  0.00     0.161 C 
ATOM     63  O   UNL A   1      46.092  21.532  24.464  1.00  0.00    -0.377 OA
BRANCH  61  64
ATOM     64  C   UNL A   1      43.921  22.524  25.038  1.00  0.00     0.068 C 
BRANCH  64  65
ATOM     65  C   UNL A   1      43.717  24.007  25.491  1.00  0.00    -0.045 A 
ATOM     66  C   UNL A   1      44.530  24.574  26.471  1.00  0.00     0.004 A 
ATOM     67  C   UNL A   1      42.706  24.886  25.066  1.00  0.00     0.004 A 
ATOM     68  C   UNL A   1      44.434  25.942  26.830  1.00  0.00     0.000 A 
ATOM     69  C   UNL A   1      42.616  26.261  25.351  1.00  0.00     0.000 A 
ATOM     70  C   UNL A   1      43.516  26.803  26.230  1.00  0.00     0.000 A 
ENDBRANCH  64  65
ENDBRANCH  61  64
ENDBRANCH  57  59
ENDBRANCH  56  57
ENDBRANCH  55  56
ENDBRANCH   1  55
TORSDOF 13
ENDMDL
MODEL 3
REMARK VINA RESULT:     -11.6      1.555      3.170
REMARK SMILES O=C(OCCOC(=O)[C@H]1CCO[C@H]1Cc1ccccc1)c1ccc(-c2c3nc(c(-c4ccccc4)c4ccc([nH]4)c(-c4ccccc4)c4nc(c(-c5ccccc5)c5ccc2[nH]5)C=C4)C=C3)cc1
REMARK SMILES IDX 4 1 3 2 2 3 1 4 21 5 22 6 68 7 23 8 67 9 24 10 25 11 26 12
REMARK SMILES IDX 61 13 27 14 66 15 60 16 62 17 28 18 65 19 59 20 58 21 29 23
REMARK SMILES IDX 51 24 36 25 50 26 37 27 40 28 49 29 63 30 38 31 39 32 48 34
REMARK SMILES IDX 64 35 41 36 30 37 31 38 35 39 32 40 34 41 33 42 52 43 53 44
REMARK SMILES IDX 57 45 54 46 56 47 55 48 42 49 43 50 47 51 44 52 46 53 45 54
REMARK SMILES IDX 5 55 6 56 7 57 8 58 9 59 10 60 13 61 11 62 12 63 14 64 15 65
REMARK SMILES IDX 16 66 20 67 17 68 19 69 18 70
REMARK H PARENT 62 22 40 33
REMARK Flexibility Score: inf
ROOT
ATOM      1  C   UNL A   1      37.066  21.699  24.242  1.00  0.00     0.275 C 
ENDROOT
BRANCH   1   2
ATOM      2  O   UNL A   1      37.526  21.944  25.579  1.00  0.00    -0.458 OA
BRANCH   2   3
ATOM      3  C   UNL A   1      38.861  21.813  25.895  1.00  0.00     0.338 C 
ATOM      4  O   UNL A   1      39.478  20.812  25.752  1.00  0.00    -0.246 OA
BRANCH   3   5
ATOM      5  C   UNL A   1      39.360  22.956  26.712  1.00  0.00     0.060 A 
ATOM      6  C   UNL A   1      40.595  23.056  27.357  1.00  0.00     0.016 A 
ATOM      7  C   UNL A   1      38.536  24.042  26.727  1.00  0.00     0.016 A 
ATOM      8  C   UNL A   1      40.992  24.276  27.995  1.00  0.00     0.010 A 
ATOM      9  C   UNL A   1      39.015  25.238  27.272  1.00  0.00     0.010 A 
ATOM     10  C   UNL A   1      40.180  25.411  27.981  1.00  0.00    -0.014 A 
BRANCH  10  11
ATOM     11  C   UNL A   1      40.433  26.744  28.622  1.00  0.00     0.031 A 
ATOM     12  C   UNL A   1      39.554  27.970  28.540  1.00  0.00     0.074 A 
ATOM     13  C   UNL A   1      41.510  27.034  29.356  1.00  0.00     0.049 A 
ATOM     14  N   UNL A   1      38.665  28.335  29.422  1.00  0.00    -0.248 NA
ATOM     15  C   UNL A   1      39.702  28.958  27.437  1.00  0.00     0.031 C 
ATOM     16  C   UNL A   1      42.727  26.262  29.503  1.00  0.00     0.029 A 
ATOM     17  N   UNL A   1      41.647  28.108  30.199  1.00  0.00    -0.354 N 
ATOM     18  C   UNL A   1      37.947  29.351  28.815  1.00  0.00     0.074 A 
ATOM     19  C   UNL A   1      38.575  29.668  27.560  1.00  0.00     0.031 C 
ATOM     20  C   UNL A   1      43.468  26.844  30.466  1.00  0.00     0.029 A 
ATOM     21  C   UNL A   1      42.729  27.988  31.014  1.00  0.00     0.049 A 
ATOM     22  H   UNL A   1      41.034  28.878  30.213  1.00  0.00     0.167 HD
ATOM     23  C   UNL A   1      36.897  30.006  29.346  1.00  0.00     0.031 A 
ATOM     24  C   UNL A   1      43.010  28.679  32.130  1.00  0.00     0.031 A 
ATOM     25  C   UNL A   1      36.927  30.408  30.719  1.00  0.00     0.049 A 
ATOM     26  C   UNL A   1      42.021  29.656  32.730  1.00  0.00     0.074 A 
ATOM     27  C   UNL A   1      35.996  31.099  31.469  1.00  0.00     0.029 A 
ATOM     28  N   UNL A   1      38.085  30.336  31.470  1.00  0.00    -0.354 N 
ATOM     29  N   UNL A   1      40.784  29.930  32.387  1.00  0.00    -0.248 NA
ATOM     30  C   UNL A   1      42.482  30.379  33.924  1.00  0.00     0.031 C 
ATOM     31  C   UNL A   1      36.662  31.592  32.605  1.00  0.00     0.029 A 
ATOM     32  C   UNL A   1      37.970  31.127  32.589  1.00  0.00     0.049 A 
ATOM     33  H   UNL A   1      38.876  29.798  31.239  1.00  0.00     0.167 HD
ATOM     34  C   UNL A   1      40.304  30.822  33.353  1.00  0.00     0.074 A 
ATOM     35  C   UNL A   1      41.393  31.046  34.281  1.00  0.00     0.031 C 
ATOM     36  C   UNL A   1      39.070  31.380  33.483  1.00  0.00     0.031 A 
BRANCH  23  37
ATOM     37  C   UNL A   1      35.725  30.338  28.487  1.00  0.00    -0.014 A 
ATOM     38  C   UNL A   1      34.980  29.261  27.969  1.00  0.00     0.009 A 
ATOM     39  C   UNL A   1      35.214  31.634  28.361  1.00  0.00     0.009 A 
ATOM     40  C   UNL A   1      33.744  29.474  27.355  1.00  0.00     0.001 A 
ATOM     41  C   UNL A   1      33.977  31.844  27.740  1.00  0.00     0.001 A 
ATOM     42  C   UNL A   1      33.241  30.766  27.245  1.00  0.00     0.000 A 
ENDBRANCH  23  37
BRANCH  24  43
ATOM     43  C   UNL A   1      44.283  28.380  32.805  1.00  0.00    -0.014 A 
ATOM     44  C   UNL A   1      45.456  29.058  32.453  1.00  0.00     0.009 A 
ATOM     45  C   UNL A   1      44.306  27.428  33.834  1.00  0.00     0.009 A 
ATOM     46  C   UNL A   1      46.647  28.766  33.112  1.00  0.00     0.001 A 
ATOM     47  C   UNL A   1      45.495  27.153  34.502  1.00  0.00     0.001 A 
ATOM     48  C   UNL A   1      46.665  27.815  34.135  1.00  0.00     0.000 A 
ENDBRANCH  24  43
BRANCH  36  49
ATOM     49  C   UNL A   1      38.817  32.304  34.644  1.00  0.00    -0.014 A 
ATOM     50  C   UNL A   1      38.355  31.824  35.879  1.00  0.00     0.009 A 
ATOM     51  C   UNL A   1      39.128  33.669  34.524  1.00  0.00     0.009 A 
ATOM     52  C   UNL A   1      38.180  32.696  36.958  1.00  0.00     0.001 A 
ATOM     53  C   UNL A   1      38.983  34.532  35.611  1.00  0.00     0.001 A 
ATOM     54  C   UNL A   1      38.501  34.047  36.824  1.00  0.00     0.000 A 
ENDBRANCH  36  49
ENDBRANCH  10  11
ENDBRANCH   3   5
ENDBRANCH   2   3
ENDBRANCH   1   2
BRANCH   1  55
ATOM     55  C   UNL A   1      36.074  22.742  23.697  1.00  0.00     0.274 C 
BRANCH  55  56
ATOM     56  O   UNL A   1      35.081  23.281  24.612  1.00  0.00    -0.462 OA
BRANCH  56  57
ATOM     57  C   UNL A   1      33.761  23.325  24.206  1.00  0.00     0.311 C 
ATOM     58  O   UNL A   1      33.408  23.680  23.091  1.00  0.00    -0.252 OA
BRANCH  57  59
ATOM     59  C   UNL A   1      32.801  23.061  25.381  1.00  0.00     0.131 C 
ATOM     60  C   UNL A   1      33.687  22.640  26.548  1.00  0.00     0.046 C 
ATOM     61  C   UNL A   1      31.703  23.976  26.069  1.00  0.00     0.136 C 
ATOM     62  C   UNL A   1      32.716  22.568  27.688  1.00  0.00     0.161 C 
ATOM     63  O   UNL A   1      31.854  23.693  27.509  1.00  0.00    -0.377 OA
BRANCH  61  64
ATOM     64  C   UNL A   1      31.361  25.577  26.015  1.00  0.00     0.068 C 
BRANCH  64  65
ATOM     65  C   UNL A   1      31.955  26.810  25.257  1.00  0.00    -0.045 A 
ATOM     66  C   UNL A   1      33.287  26.822  24.846  1.00  0.00     0.004 A 
ATOM     67  C   UNL A   1      31.303  28.024  24.982  1.00  0.00     0.004 A 
ATOM     68  C   UNL A   1      33.825  27.881  24.071  1.00  0.00     0.000 A 
ATOM     69  C   UNL A   1      31.781  29.066  24.167  1.00  0.00     0.000 A 
ATOM     70  C   UNL A   1      33.058  28.978  23.681  1.00  0.00     0.000 A 
ENDBRANCH  64  65
ENDBRANCH  61  64
ENDBRANCH  57  59
ENDBRANCH  56  57
ENDBRANCH  55  56
ENDBRANCH   1  55
TORSDOF 13
ENDMDL
