MODEL 1
REMARK VINA RESULT:     -10.0      0.000      0.000
REMARK SMILES CS(=O)(=O)c1ccc(/C=C(/C(=O)OCCOC(=O)c2ccc(-c3c4nc(c(-c5ccccc5)c5ccc([nH]5)c(-c5ccccc5)c5nc(c(-c6ccccc6)c6ccc3[nH]6)C=C5)C=C4)cc2)c2ccc(-c3ccc(S(C)(=O)=O)cc3)cc2)cc1
REMARK SMILES IDX 14 1 13 2 11 3 12 4 10 5 9 6 8 7 5 8 6 9 84 10 7 11 83 12
REMARK SMILES IDX 2 13 1 14 3 15 4 16 67 17 68 18 82 19 69 20 81 21 70 22
REMARK SMILES IDX 71 23 72 24 80 25 73 26 79 27 74 28 75 29 76 30 77 31 78 32
REMARK SMILES IDX 15 33 16 34 17 35 18 36 19 37 20 38 66 39 21 40 65 41 22 42
REMARK SMILES IDX 23 43 24 44 59 45 25 46 64 47 58 48 60 49 26 50 63 51 57 52
REMARK SMILES IDX 56 53 27 55 49 56 34 57 48 58 35 59 38 60 47 61 61 62 36 63
REMARK SMILES IDX 37 64 46 66 62 67 39 68 28 69 29 70 33 71 30 72 32 73 31 74
REMARK SMILES IDX 50 75 51 76 55 77 52 78 54 79 53 80 40 81 41 82 45 83 42 84
REMARK SMILES IDX 44 85 43 86
REMARK H PARENT 60 54 38 65
REMARK Flexibility Score: inf
ROOT
ATOM      1  C   UNL A   1      42.021  20.384  26.065  1.00  0.00     0.275 C 
ENDROOT
BRANCH   1   2
ATOM      2  O   UNL A   1      42.565  21.632  25.585  1.00  0.00    -0.458 OA
BRANCH   2   3
ATOM      3  C   UNL A   1      43.920  21.697  25.552  1.00  0.00     0.338 C 
ATOM      4  O   UNL A   1      44.668  20.806  25.172  1.00  0.00    -0.246 OA
BRANCH   3   5
ATOM      5  C   UNL A   1      44.428  23.033  25.988  1.00  0.00     0.067 C 
ATOM      6  C   UNL A   1      44.778  23.938  25.045  1.00  0.00     0.024 C 
BRANCH   6   7
ATOM      7  C   UNL A   1      45.036  25.387  25.228  1.00  0.00    -0.025 A 
ATOM      8  C   UNL A   1      45.368  28.090  25.918  1.00  0.00     0.067 A 
ATOM      9  C   UNL A   1      46.486  27.288  25.713  1.00  0.00     0.021 A 
ATOM     10  C   UNL A   1      44.087  27.590  25.681  1.00  0.00     0.021 A 
ATOM     11  C   UNL A   1      46.312  25.956  25.340  1.00  0.00     0.009 A 
ATOM     12  C   UNL A   1      43.927  26.241  25.344  1.00  0.00     0.009 A 
BRANCH   8  13
ATOM     13  S   UNL A   1      45.589  29.755  26.491  1.00  0.00     0.175 S 
ATOM     14  C   UNL A   1      43.935  30.252  26.905  1.00  0.00     0.163 C 
ATOM     15  O   UNL A   1      46.037  30.551  25.370  1.00  0.00    -0.224 OA
ATOM     16  O   UNL A   1      46.363  29.690  27.721  1.00  0.00    -0.224 OA
ENDBRANCH   8  13
ENDBRANCH   6   7
BRANCH   5  17
ATOM     17  C   UNL A   1      44.357  23.350  27.424  1.00  0.00    -0.011 A 
ATOM     18  C   UNL A   1      43.134  23.231  28.096  1.00  0.00     0.009 A 
ATOM     19  C   UNL A   1      45.496  23.706  28.148  1.00  0.00     0.009 A 
ATOM     20  C   UNL A   1      43.061  23.441  29.478  1.00  0.00     0.009 A 
ATOM     21  C   UNL A   1      45.413  23.917  29.529  1.00  0.00     0.009 A 
ATOM     22  C   UNL A   1      44.196  23.793  30.228  1.00  0.00    -0.018 A 
BRANCH  22  23
ATOM     23  C   UNL A   1      44.116  24.027  31.691  1.00  0.00    -0.018 A 
ATOM     24  C   UNL A   1      44.373  25.295  32.248  1.00  0.00     0.010 A 
ATOM     25  C   UNL A   1      43.761  22.993  32.579  1.00  0.00     0.010 A 
ATOM     26  C   UNL A   1      44.260  25.529  33.622  1.00  0.00     0.021 A 
ATOM     27  C   UNL A   1      43.634  23.217  33.954  1.00  0.00     0.021 A 
ATOM     28  C   UNL A   1      43.884  24.486  34.466  1.00  0.00     0.067 A 
BRANCH  28  29
ATOM     29  S   UNL A   1      43.667  24.805  36.199  1.00  0.00     0.175 S 
ATOM     30  C   UNL A   1      44.186  26.483  36.388  1.00  0.00     0.163 C 
ATOM     31  O   UNL A   1      42.243  24.729  36.466  1.00  0.00    -0.224 OA
ATOM     32  O   UNL A   1      44.600  23.961  36.923  1.00  0.00    -0.224 OA
ENDBRANCH  28  29
ENDBRANCH  22  23
ENDBRANCH   5  17
ENDBRANCH   3   5
ENDBRANCH   2   3
ENDBRANCH   1   2
BRANCH   1  33
ATOM     33  C   UNL A   1      40.689  20.611  26.775  1.00  0.00     0.275 C 
BRANCH  33  34
ATOM     34  O   UNL A   1      40.563  21.996  27.151  1.00  0.00    -0.458 OA
BRANCH  34  35
ATOM     35  C   UNL A   1      39.583  22.691  26.531  1.00  0.00     0.338 C 
ATOM     36  O   UNL A   1      38.768  22.264  25.727  1.00  0.00    -0.246 OA
BRANCH  35  37
ATOM     37  C   UNL A   1      39.580  24.097  26.978  1.00  0.00     0.060 A 
ATOM     38  C   UNL A   1      40.273  25.061  26.256  1.00  0.00     0.016 A 
ATOM     39  C   UNL A   1      39.039  24.425  28.222  1.00  0.00     0.016 A 
ATOM     40  C   UNL A   1      40.551  26.296  26.843  1.00  0.00     0.010 A 
ATOM     41  C   UNL A   1      39.224  25.710  28.752  1.00  0.00     0.010 A 
ATOM     42  C   UNL A   1      40.045  26.648  28.104  1.00  0.00    -0.014 A 
BRANCH  42  43
ATOM     43  C   UNL A   1      40.423  27.943  28.763  1.00  0.00     0.031 A 
ATOM     44  C   UNL A   1      41.821  28.159  29.305  1.00  0.00     0.074 A 
ATOM     45  C   UNL A   1      39.545  28.962  28.869  1.00  0.00     0.049 A 
ATOM     46  N   UNL A   1      42.264  29.094  30.113  1.00  0.00    -0.248 NA
ATOM     47  C   UNL A   1      42.854  27.190  28.901  1.00  0.00     0.031 C 
ATOM     48  C   UNL A   1      38.178  28.975  28.346  1.00  0.00     0.029 A 
ATOM     49  N   UNL A   1      39.683  30.203  29.450  1.00  0.00    -0.354 N 
ATOM     50  C   UNL A   1      43.587  28.764  30.392  1.00  0.00     0.074 A 
ATOM     51  C   UNL A   1      43.886  27.562  29.646  1.00  0.00     0.031 C 
ATOM     52  C   UNL A   1      37.635  30.182  28.556  1.00  0.00     0.029 A 
ATOM     53  C   UNL A   1      38.556  30.982  29.352  1.00  0.00     0.049 A 
ATOM     54  H   UNL A   1      40.510  30.503  29.892  1.00  0.00     0.167 HD
ATOM     55  C   UNL A   1      44.469  29.397  31.206  1.00  0.00     0.031 A 
ATOM     56  C   UNL A   1      38.249  32.176  29.892  1.00  0.00     0.031 A 
ATOM     57  C   UNL A   1      44.206  30.638  31.887  1.00  0.00     0.049 A 
ATOM     58  C   UNL A   1      39.218  32.845  30.819  1.00  0.00     0.074 A 
ATOM     59  C   UNL A   1      45.072  31.393  32.663  1.00  0.00     0.029 A 
ATOM     60  N   UNL A   1      42.997  31.312  31.871  1.00  0.00    -0.354 N 
ATOM     61  N   UNL A   1      40.409  32.447  31.192  1.00  0.00    -0.248 NA
ATOM     62  C   UNL A   1      38.785  34.112  31.425  1.00  0.00     0.031 C 
ATOM     63  C   UNL A   1      44.383  32.521  33.122  1.00  0.00     0.029 A 
ATOM     64  C   UNL A   1      43.105  32.493  32.588  1.00  0.00     0.049 A 
ATOM     65  H   UNL A   1      42.181  30.998  31.418  1.00  0.00     0.167 HD
ATOM     66  C   UNL A   1      40.871  33.417  32.069  1.00  0.00     0.074 A 
ATOM     67  C   UNL A   1      39.839  34.427  32.165  1.00  0.00     0.031 C 
ATOM     68  C   UNL A   1      42.057  33.470  32.722  1.00  0.00     0.031 A 
BRANCH  55  69
ATOM     69  C   UNL A   1      45.805  28.745  31.441  1.00  0.00    -0.014 A 
ATOM     70  C   UNL A   1      46.751  28.595  30.417  1.00  0.00     0.009 A 
ATOM     71  C   UNL A   1      46.143  28.333  32.742  1.00  0.00     0.009 A 
ATOM     72  C   UNL A   1      47.996  28.019  30.685  1.00  0.00     0.001 A 
ATOM     73  C   UNL A   1      47.397  27.782  33.012  1.00  0.00     0.001 A 
ATOM     74  C   UNL A   1      48.320  27.619  31.982  1.00  0.00     0.000 A 
ENDBRANCH  55  69
BRANCH  56  75
ATOM     75  C   UNL A   1      36.917  32.778  29.627  1.00  0.00    -0.014 A 
ATOM     76  C   UNL A   1      36.632  33.363  28.385  1.00  0.00     0.009 A 
ATOM     77  C   UNL A   1      35.914  32.740  30.610  1.00  0.00     0.009 A 
ATOM     78  C   UNL A   1      35.368  33.901  28.135  1.00  0.00     0.001 A 
ATOM     79  C   UNL A   1      34.642  33.249  30.345  1.00  0.00     0.001 A 
ATOM     80  C   UNL A   1      34.372  33.835  29.110  1.00  0.00     0.000 A 
ENDBRANCH  56  75
BRANCH  68  81
ATOM     81  C   UNL A   1      42.304  34.674  33.581  1.00  0.00    -0.014 A 
ATOM     82  C   UNL A   1      41.994  34.665  34.949  1.00  0.00     0.009 A 
ATOM     83  C   UNL A   1      42.859  35.832  33.013  1.00  0.00     0.009 A 
ATOM     84  C   UNL A   1      42.208  35.806  35.726  1.00  0.00     0.001 A 
ATOM     85  C   UNL A   1      43.092  36.962  33.797  1.00  0.00     0.001 A 
ATOM     86  C   UNL A   1      42.758  36.951  35.151  1.00  0.00     0.000 A 
ENDBRANCH  68  81
ENDBRANCH  42  43
ENDBRANCH  35  37
ENDBRANCH  34  35
ENDBRANCH  33  34
ENDBRANCH   1  33
TORSDOF 16
ENDMDL
MODEL 2
REMARK VINA RESULT:      -9.8      2.267      5.436
REMARK SMILES CS(=O)(=O)c1ccc(/C=C(/C(=O)OCCOC(=O)c2ccc(-c3c4nc(c(-c5ccccc5)c5ccc([nH]5)c(-c5ccccc5)c5nc(c(-c6ccccc6)c6ccc3[nH]6)C=C5)C=C4)cc2)c2ccc(-c3ccc(S(C)(=O)=O)cc3)cc2)cc1
REMARK SMILES IDX 14 1 13 2 11 3 12 4 10 5 9 6 8 7 5 8 6 9 84 10 7 11 83 12
REMARK SMILES IDX 2 13 1 14 3 15 4 16 67 17 68 18 82 19 69 20 81 21 70 22
REMARK SMILES IDX 71 23 72 24 80 25 73 26 79 27 74 28 75 29 76 30 77 31 78 32
REMARK SMILES IDX 15 33 16 34 17 35 18 36 19 37 20 38 66 39 21 40 65 41 22 42
REMARK SMILES IDX 23 43 24 44 59 45 25 46 64 47 58 48 60 49 26 50 63 51 57 52
REMARK SMILES IDX 56 53 27 55 49 56 34 57 48 58 35 59 38 60 47 61 61 62 36 63
REMARK SMILES IDX 37 64 46 66 62 67 39 68 28 69 29 70 33 71 30 72 32 73 31 74
REMARK SMILES IDX 50 75 51 76 55 77 52 78 54 79 53 80 40 81 41 82 45 83 42 84
REMARK SMILES IDX 44 85 43 86
REMARK H PARENT 60 54 38 65
REMARK Flexibility Score: inf
ROOT
ATOM      1  C   UNL A   1      40.864  20.188  26.147  1.00  0.00     0.275 C 
ENDROOT
BRANCH   1   2
ATOM      2  O   UNL A   1      41.608  21.124  26.956  1.00  0.00    -0.458 OA
BRANCH   2   3
ATOM      3  C   UNL A   1      42.577  21.812  26.300  1.00  0.00     0.338 C 
ATOM      4  O   UNL A   1      42.900  21.651  25.131  1.00  0.00    -0.246 OA
BRANCH   3   5
ATOM      5  C   UNL A   1      43.198  22.863  27.162  1.00  0.00     0.067 C 
ATOM      6  C   UNL A   1      42.752  23.013  28.431  1.00  0.00     0.024 C 
BRANCH   6   7
ATOM      7  C   UNL A   1      43.386  23.779  29.532  1.00  0.00    -0.025 A 
ATOM      8  C   UNL A   1      44.237  25.347  31.702  1.00  0.00     0.067 A 
ATOM      9  C   UNL A   1      44.382  23.965  31.752  1.00  0.00     0.021 A 
ATOM     10  C   UNL A   1      43.771  25.967  30.543  1.00  0.00     0.021 A 
ATOM     11  C   UNL A   1      43.986  23.196  30.657  1.00  0.00     0.009 A 
ATOM     12  C   UNL A   1      43.342  25.181  29.466  1.00  0.00     0.009 A 
BRANCH   8  13
ATOM     13  S   UNL A   1      44.646  26.313  33.133  1.00  0.00     0.175 S 
ATOM     14  C   UNL A   1      45.664  27.604  32.459  1.00  0.00     0.163 C 
ATOM     15  O   UNL A   1      45.465  25.494  33.999  1.00  0.00    -0.224 OA
ATOM     16  O   UNL A   1      43.413  26.915  33.616  1.00  0.00    -0.224 OA
ENDBRANCH   8  13
ENDBRANCH   6   7
BRANCH   5  17
ATOM     17  C   UNL A   1      44.378  23.565  26.633  1.00  0.00    -0.011 A 
ATOM     18  C   UNL A   1      44.216  24.516  25.619  1.00  0.00     0.009 A 
ATOM     19  C   UNL A   1      45.652  23.349  27.163  1.00  0.00     0.009 A 
ATOM     20  C   UNL A   1      45.312  25.258  25.161  1.00  0.00     0.009 A 
ATOM     21  C   UNL A   1      46.742  24.094  26.697  1.00  0.00     0.009 A 
ATOM     22  C   UNL A   1      46.601  25.063  25.685  1.00  0.00    -0.018 A 
BRANCH  22  23
ATOM     23  C   UNL A   1      47.763  25.842  25.191  1.00  0.00    -0.018 A 
ATOM     24  C   UNL A   1      49.051  25.664  25.734  1.00  0.00     0.010 A 
ATOM     25  C   UNL A   1      47.627  26.779  24.148  1.00  0.00     0.010 A 
ATOM     26  C   UNL A   1      50.156  26.369  25.245  1.00  0.00     0.021 A 
ATOM     27  C   UNL A   1      48.726  27.481  23.643  1.00  0.00     0.021 A 
ATOM     28  C   UNL A   1      49.986  27.269  24.196  1.00  0.00     0.067 A 
BRANCH  28  29
ATOM     29  S   UNL A   1      51.403  28.104  23.526  1.00  0.00     0.175 S 
ATOM     30  C   UNL A   1      52.029  29.033  24.893  1.00  0.00     0.163 C 
ATOM     31  O   UNL A   1      52.371  27.080  23.182  1.00  0.00    -0.224 OA
ATOM     32  O   UNL A   1      50.930  29.041  22.524  1.00  0.00    -0.224 OA
ENDBRANCH  28  29
ENDBRANCH  22  23
ENDBRANCH   5  17
ENDBRANCH   3   5
ENDBRANCH   2   3
ENDBRANCH   1   2
BRANCH   1  33
ATOM     33  C   UNL A   1      39.507  20.769  25.756  1.00  0.00     0.275 C 
BRANCH  33  34
ATOM     34  O   UNL A   1      39.106  21.768  26.713  1.00  0.00    -0.458 OA
BRANCH  34  35
ATOM     35  C   UNL A   1      38.660  22.935  26.198  1.00  0.00     0.338 C 
ATOM     36  O   UNL A   1      37.732  23.095  25.421  1.00  0.00    -0.246 OA
BRANCH  35  37
ATOM     37  C   UNL A   1      39.439  24.069  26.733  1.00  0.00     0.060 A 
ATOM     38  C   UNL A   1      39.326  24.425  28.071  1.00  0.00     0.016 A 
ATOM     39  C   UNL A   1      40.144  24.897  25.857  1.00  0.00     0.016 A 
ATOM     40  C   UNL A   1      39.784  25.673  28.495  1.00  0.00     0.010 A 
ATOM     41  C   UNL A   1      40.705  26.095  26.322  1.00  0.00     0.010 A 
ATOM     42  C   UNL A   1      40.474  26.540  27.634  1.00  0.00    -0.014 A 
BRANCH  42  43
ATOM     43  C   UNL A   1      40.883  27.916  28.076  1.00  0.00     0.031 A 
ATOM     44  C   UNL A   1      42.329  28.361  27.988  1.00  0.00     0.074 A 
ATOM     45  C   UNL A   1      39.980  28.806  28.538  1.00  0.00     0.049 A 
ATOM     46  N   UNL A   1      42.913  29.400  28.539  1.00  0.00    -0.248 NA
ATOM     47  C   UNL A   1      43.242  27.524  27.192  1.00  0.00     0.031 C 
ATOM     48  C   UNL A   1      38.535  28.593  28.630  1.00  0.00     0.029 A 
ATOM     49  N   UNL A   1      40.150  30.088  29.008  1.00  0.00    -0.354 N 
ATOM     50  C   UNL A   1      44.268  29.278  28.244  1.00  0.00     0.074 A 
ATOM     51  C   UNL A   1      44.417  28.085  27.441  1.00  0.00     0.031 C 
ATOM     52  C   UNL A   1      37.946  29.721  29.046  1.00  0.00     0.029 A 
ATOM     53  C   UNL A   1      38.976  30.693  29.387  1.00  0.00     0.049 A 
ATOM     54  H   UNL A   1      41.028  30.530  29.067  1.00  0.00     0.167 HD
ATOM     55  C   UNL A   1      45.296  30.080  28.617  1.00  0.00     0.031 A 
ATOM     56  C   UNL A   1      38.737  31.864  30.005  1.00  0.00     0.031 A 
ATOM     57  C   UNL A   1      45.147  31.314  29.346  1.00  0.00     0.049 A 
ATOM     58  C   UNL A   1      39.884  32.722  30.446  1.00  0.00     0.074 A 
ATOM     59  C   UNL A   1      46.126  32.232  29.692  1.00  0.00     0.029 A 
ATOM     60  N   UNL A   1      43.950  31.808  29.834  1.00  0.00    -0.354 N 
ATOM     61  N   UNL A   1      41.169  32.520  30.291  1.00  0.00    -0.248 NA
ATOM     62  C   UNL A   1      39.548  33.952  31.177  1.00  0.00     0.031 C 
ATOM     63  C   UNL A   1      45.520  33.279  30.395  1.00  0.00     0.029 A 
ATOM     64  C   UNL A   1      44.158  33.036  30.441  1.00  0.00     0.049 A 
ATOM     65  H   UNL A   1      43.079  31.353  29.760  1.00  0.00     0.167 HD
ATOM     66  C   UNL A   1      41.794  33.600  30.897  1.00  0.00     0.074 A 
ATOM     67  C   UNL A   1      40.749  34.459  31.412  1.00  0.00     0.031 C 
ATOM     68  C   UNL A   1      43.120  33.862  30.998  1.00  0.00     0.031 A 
BRANCH  55  69
ATOM     69  C   UNL A   1      46.694  29.640  28.277  1.00  0.00    -0.014 A 
ATOM     70  C   UNL A   1      47.327  30.025  27.085  1.00  0.00     0.009 A 
ATOM     71  C   UNL A   1      47.415  28.875  29.209  1.00  0.00     0.009 A 
ATOM     72  C   UNL A   1      48.641  29.627  26.823  1.00  0.00     0.001 A 
ATOM     73  C   UNL A   1      48.736  28.500  28.957  1.00  0.00     0.001 A 
ATOM     74  C   UNL A   1      49.345  28.870  27.761  1.00  0.00     0.000 A 
ENDBRANCH  55  69
BRANCH  56  75
ATOM     75  C   UNL A   1      37.337  32.254  30.318  1.00  0.00    -0.014 A 
ATOM     76  C   UNL A   1      36.708  31.783  31.479  1.00  0.00     0.009 A 
ATOM     77  C   UNL A   1      36.637  33.125  29.467  1.00  0.00     0.009 A 
ATOM     78  C   UNL A   1      35.403  32.176  31.780  1.00  0.00     0.001 A 
ATOM     79  C   UNL A   1      35.345  33.542  29.788  1.00  0.00     0.001 A 
ATOM     80  C   UNL A   1      34.726  33.063  30.941  1.00  0.00     0.000 A 
ENDBRANCH  56  75
BRANCH  68  81
ATOM     81  C   UNL A   1      43.508  35.143  31.676  1.00  0.00    -0.014 A 
ATOM     82  C   UNL A   1      43.704  36.321  30.942  1.00  0.00     0.009 A 
ATOM     83  C   UNL A   1      43.675  35.169  33.070  1.00  0.00     0.009 A 
ATOM     84  C   UNL A   1      44.090  37.497  31.589  1.00  0.00     0.001 A 
ATOM     85  C   UNL A   1      44.039  36.350  33.715  1.00  0.00     0.001 A 
ATOM     86  C   UNL A   1      44.255  37.511  32.973  1.00  0.00     0.000 A 
ENDBRANCH  68  81
ENDBRANCH  42  43
ENDBRANCH  35  37
ENDBRANCH  34  35
ENDBRANCH  33  34
ENDBRANCH   1  33
TORSDOF 16
ENDMDL
MODEL 3
REMARK VINA RESULT:      -9.5      3.628     10.535
REMARK SMILES CS(=O)(=O)c1ccc(/C=C(/C(=O)OCCOC(=O)c2ccc(-c3c4nc(c(-c5ccccc5)c5ccc([nH]5)c(-c5ccccc5)c5nc(c(-c6ccccc6)c6ccc3[nH]6)C=C5)C=C4)cc2)c2ccc(-c3ccc(S(C)(=O)=O)cc3)cc2)cc1
REMARK SMILES IDX 14 1 13 2 11 3 12 4 10 5 9 6 8 7 5 8 6 9 84 10 7 11 83 12
REMARK SMILES IDX 2 13 1 14 3 15 4 16 67 17 68 18 82 19 69 20 81 21 70 22
REMARK SMILES IDX 71 23 72 24 80 25 73 26 79 27 74 28 75 29 76 30 77 31 78 32
REMARK SMILES IDX 15 33 16 34 17 35 18 36 19 37 20 38 66 39 21 40 65 41 22 42
REMARK SMILES IDX 23 43 24 44 59 45 25 46 64 47 58 48 60 49 26 50 63 51 57 52
REMARK SMILES IDX 56 53 27 55 49 56 34 57 48 58 35 59 38 60 47 61 61 62 36 63
REMARK SMILES IDX 37 64 46 66 62 67 39 68 28 69 29 70 33 71 30 72 32 73 31 74
REMARK SMILES IDX 50 75 51 76 55 77 52 78 54 79 53 80 40 81 41 82 45 83 42 84
REMARK SMILES IDX 44 85 43 86
REMARK H PARENT 60 54 38 65
REMARK Flexibility Score: inf
ROOT
ATOM      1  C   UNL A   1      34.212  33.741  32.268  1.00  0.00     0.275 C 
ENDROOT
BRANCH   1   2
ATOM      2  O   UNL A   1      35.208  33.376  33.248  1.00  0.00    -0.458 OA
BRANCH   2   3
ATOM      3  C   UNL A   1      36.252  34.236  33.360  1.00  0.00     0.338 C 
ATOM      4  O   UNL A   1      36.170  35.456  33.396  1.00  0.00    -0.246 OA
BRANCH   3   5
ATOM      5  C   UNL A   1      37.555  33.518  33.497  1.00  0.00     0.067 C 
ATOM      6  C   UNL A   1      37.679  32.566  34.450  1.00  0.00     0.024 C 
BRANCH   6   7
ATOM      7  C   UNL A   1      38.754  31.553  34.587  1.00  0.00    -0.025 A 
ATOM      8  C   UNL A   1      40.661  29.585  35.203  1.00  0.00     0.067 A 
ATOM      9  C   UNL A   1      39.706  29.336  34.224  1.00  0.00     0.021 A 
ATOM     10  C   UNL A   1      40.746  30.840  35.805  1.00  0.00     0.021 A 
ATOM     11  C   UNL A   1      38.782  30.330  33.902  1.00  0.00     0.009 A 
ATOM     12  C   UNL A   1      39.789  31.815  35.500  1.00  0.00     0.009 A 
BRANCH   8  13
ATOM     13  S   UNL A   1      41.771  28.285  35.681  1.00  0.00     0.175 S 
ATOM     14  C   UNL A   1      43.211  29.174  36.221  1.00  0.00     0.163 C 
ATOM     15  O   UNL A   1      42.116  27.539  34.492  1.00  0.00    -0.224 OA
ATOM     16  O   UNL A   1      41.187  27.622  36.838  1.00  0.00    -0.224 OA
ENDBRANCH   8  13
ENDBRANCH   6   7
BRANCH   5  17
ATOM     17  C   UNL A   1      38.581  33.773  32.472  1.00  0.00    -0.011 A 
ATOM     18  C   UNL A   1      39.794  34.364  32.844  1.00  0.00     0.009 A 
ATOM     19  C   UNL A   1      38.397  33.381  31.145  1.00  0.00     0.009 A 
ATOM     20  C   UNL A   1      40.817  34.536  31.904  1.00  0.00     0.009 A 
ATOM     21  C   UNL A   1      39.424  33.560  30.211  1.00  0.00     0.009 A 
ATOM     22  C   UNL A   1      40.657  34.143  30.565  1.00  0.00    -0.018 A 
BRANCH  22  23
ATOM     23  C   UNL A   1      41.737  34.335  29.567  1.00  0.00    -0.018 A 
ATOM     24  C   UNL A   1      42.801  33.420  29.449  1.00  0.00     0.010 A 
ATOM     25  C   UNL A   1      41.731  35.434  28.685  1.00  0.00     0.010 A 
ATOM     26  C   UNL A   1      43.801  33.578  28.484  1.00  0.00     0.021 A 
ATOM     27  C   UNL A   1      42.719  35.596  27.707  1.00  0.00     0.021 A 
ATOM     28  C   UNL A   1      43.748  34.664  27.613  1.00  0.00     0.067 A 
BRANCH  28  29
ATOM     29  S   UNL A   1      44.975  34.819  26.340  1.00  0.00     0.175 S 
ATOM     30  C   UNL A   1      44.180  34.164  24.904  1.00  0.00     0.163 C 
ATOM     31  O   UNL A   1      45.195  36.239  26.138  1.00  0.00    -0.224 OA
ATOM     32  O   UNL A   1      46.080  33.942  26.682  1.00  0.00    -0.224 OA
ENDBRANCH  28  29
ENDBRANCH  22  23
ENDBRANCH   5  17
ENDBRANCH   3   5
ENDBRANCH   2   3
ENDBRANCH   1   2
BRANCH   1  33
ATOM     33  C   UNL A   1      34.683  33.387  30.860  1.00  0.00     0.275 C 
BRANCH  33  34
ATOM     34  O   UNL A   1      35.189  32.039  30.835  1.00  0.00    -0.458 OA
BRANCH  34  35
ATOM     35  C   UNL A   1      35.311  31.475  29.613  1.00  0.00     0.338 C 
ATOM     36  O   UNL A   1      34.581  31.637  28.647  1.00  0.00    -0.246 OA
BRANCH  35  37
ATOM     37  C   UNL A   1      36.510  30.617  29.553  1.00  0.00     0.060 A 
ATOM     38  C   UNL A   1      36.769  29.707  30.571  1.00  0.00     0.016 A 
ATOM     39  C   UNL A   1      37.477  30.848  28.573  1.00  0.00     0.016 A 
ATOM     40  C   UNL A   1      38.042  29.150  30.692  1.00  0.00     0.010 A 
ATOM     41  C   UNL A   1      38.713  30.190  28.638  1.00  0.00     0.010 A 
ATOM     42  C   UNL A   1      39.046  29.382  29.739  1.00  0.00    -0.014 A 
BRANCH  42  43
ATOM     43  C   UNL A   1      40.437  28.849  29.925  1.00  0.00     0.031 A 
ATOM     44  C   UNL A   1      41.449  29.597  30.770  1.00  0.00     0.074 A 
ATOM     45  C   UNL A   1      40.823  27.679  29.373  1.00  0.00     0.049 A 
ATOM     46  N   UNL A   1      42.749  29.432  30.849  1.00  0.00    -0.248 NA
ATOM     47  C   UNL A   1      40.938  30.681  31.625  1.00  0.00     0.031 C 
ATOM     48  C   UNL A   1      39.976  26.779  28.589  1.00  0.00     0.029 A 
ATOM     49  N   UNL A   1      42.040  27.037  29.402  1.00  0.00    -0.354 N 
ATOM     50  C   UNL A   1      43.215  30.452  31.673  1.00  0.00     0.074 A 
ATOM     51  C   UNL A   1      42.058  31.212  32.094  1.00  0.00     0.031 C 
ATOM     52  C   UNL A   1      40.668  25.674  28.282  1.00  0.00     0.029 A 
ATOM     53  C   UNL A   1      42.047  25.844  28.721  1.00  0.00     0.049 A 
ATOM     54  H   UNL A   1      42.830  27.398  29.867  1.00  0.00     0.167 HD
ATOM     55  C   UNL A   1      44.490  30.738  32.037  1.00  0.00     0.031 A 
ATOM     56  C   UNL A   1      43.049  25.001  28.411  1.00  0.00     0.031 A 
ATOM     57  C   UNL A   1      45.637  29.940  31.690  1.00  0.00     0.049 A 
ATOM     58  C   UNL A   1      44.458  25.349  28.786  1.00  0.00     0.074 A 
ATOM     59  C   UNL A   1      46.954  30.108  32.086  1.00  0.00     0.029 A 
ATOM     60  N   UNL A   1      45.608  28.821  30.875  1.00  0.00    -0.354 N 
ATOM     61  N   UNL A   1      44.901  26.395  29.437  1.00  0.00    -0.248 NA
ATOM     62  C   UNL A   1      45.507  24.416  28.352  1.00  0.00     0.031 C 
ATOM     63  C   UNL A   1      47.723  29.094  31.506  1.00  0.00     0.029 A 
ATOM     64  C   UNL A   1      46.875  28.266  30.790  1.00  0.00     0.049 A 
ATOM     65  H   UNL A   1      44.806  28.472  30.422  1.00  0.00     0.167 HD
ATOM     66  C   UNL A   1      46.279  26.243  29.499  1.00  0.00     0.074 A 
ATOM     67  C   UNL A   1      46.597  24.999  28.830  1.00  0.00     0.031 C 
ATOM     68  C   UNL A   1      47.194  27.056  30.079  1.00  0.00     0.031 A 
BRANCH  55  69
ATOM     69  C   UNL A   1      44.733  31.993  32.831  1.00  0.00    -0.014 A 
ATOM     70  C   UNL A   1      44.708  32.004  34.233  1.00  0.00     0.009 A 
ATOM     71  C   UNL A   1      45.060  33.178  32.151  1.00  0.00     0.009 A 
ATOM     72  C   UNL A   1      44.977  33.181  34.936  1.00  0.00     0.001 A 
ATOM     73  C   UNL A   1      45.354  34.348  32.855  1.00  0.00     0.001 A 
ATOM     74  C   UNL A   1      45.305  34.350  34.247  1.00  0.00     0.000 A 
ENDBRANCH  55  69
BRANCH  56  75
ATOM     75  C   UNL A   1      42.757  23.774  27.625  1.00  0.00    -0.014 A 
ATOM     76  C   UNL A   1      42.344  22.598  28.267  1.00  0.00     0.009 A 
ATOM     77  C   UNL A   1      42.861  23.788  26.225  1.00  0.00     0.009 A 
ATOM     78  C   UNL A   1      42.043  21.458  27.519  1.00  0.00     0.001 A 
ATOM     79  C   UNL A   1      42.529  22.656  25.479  1.00  0.00     0.001 A 
ATOM     80  C   UNL A   1      42.126  21.491  26.127  1.00  0.00     0.000 A 
ENDBRANCH  56  75
BRANCH  68  81
ATOM     81  C   UNL A   1      48.625  26.610  30.028  1.00  0.00    -0.014 A 
ATOM     82  C   UNL A   1      49.159  25.774  31.019  1.00  0.00     0.009 A 
ATOM     83  C   UNL A   1      49.448  27.031  28.971  1.00  0.00     0.009 A 
ATOM     84  C   UNL A   1      50.501  25.391  30.968  1.00  0.00     0.001 A 
ATOM     85  C   UNL A   1      50.782  26.627  28.911  1.00  0.00     0.001 A 
ATOM     86  C   UNL A   1      51.310  25.815  29.914  1.00  0.00     0.000 A 
ENDBRANCH  68  81
ENDBRANCH  42  43
ENDBRANCH  35  37
ENDBRANCH  34  35
ENDBRANCH  33  34
ENDBRANCH   1  33
TORSDOF 16
ENDMDL
