MODEL 1
REMARK VINA RESULT:     -12.1      0.000      0.000
REMARK SMILES Cc1c(NC(=O)[C@@H]2CC=CC[C@@H]2C(=O)OCCOC(=O)c2ccc(-c3c4nc(c(-c5ccccc5)c5ccc([nH]5)c(-c5ccccc5)c5nc(c(-c6ccccc6)c6ccc3[nH]6)C=C5)C=C4)cc2)cccc1C(=O)N1CCOCC1
REMARK SMILES IDX 16 1 15 2 13 3 14 4 12 5 7 6 8 7 9 8 11 9 10 10 5 11 4 12
REMARK SMILES IDX 6 14 3 15 1 16 2 17 72 18 69 19 71 20 70 21 73 22 74 23
REMARK SMILES IDX 75 24 76 25 80 26 77 27 79 28 78 29 17 30 18 31 19 32 20 33
REMARK SMILES IDX 21 34 22 35 68 36 23 37 67 38 24 39 25 40 26 41 61 42 27 43
REMARK SMILES IDX 66 44 60 45 62 46 28 47 65 48 59 49 58 50 29 52 51 53 36 54
REMARK SMILES IDX 50 55 37 56 40 57 49 58 63 59 38 60 39 61 48 63 64 64 41 65
REMARK SMILES IDX 30 66 31 67 35 68 32 69 34 70 33 71 52 72 53 73 57 74 54 75
REMARK SMILES IDX 56 76 55 77 42 78 43 79 47 80 44 81 46 82 45 83
REMARK H PARENT 4 13 62 51 40 62
REMARK Flexibility Score: inf
ROOT
ATOM      1  C   UNL A   1      37.185  22.092  25.535  1.00  0.00     0.274 C 
ENDROOT
BRANCH   1   2
ATOM      2  O   UNL A   1      35.970  22.212  24.804  1.00  0.00    -0.462 OA
BRANCH   2   3
ATOM      3  C   UNL A   1      35.197  21.112  24.754  1.00  0.00     0.310 C 
ATOM      4  O   UNL A   1      35.621  19.961  24.868  1.00  0.00    -0.252 OA
BRANCH   3   5
ATOM      5  C   UNL A   1      33.751  21.412  24.432  1.00  0.00     0.116 C 
ATOM      6  C   UNL A   1      32.953  21.209  25.715  1.00  0.00     0.097 C 
ATOM      7  C   UNL A   1      32.996  19.759  26.193  1.00  0.00     0.041 C 
ATOM      8  C   UNL A   1      32.658  18.828  25.055  1.00  0.00    -0.030 C 
ATOM      9  C   UNL A   1      33.124  20.571  23.314  1.00  0.00     0.043 C 
ATOM     10  C   UNL A   1      32.683  19.206  23.765  1.00  0.00    -0.030 C 
BRANCH   6  11
ATOM     11  C   UNL A   1      33.440  22.203  26.738  1.00  0.00     0.228 C 
ATOM     12  N   UNL A   1      33.729  23.462  26.249  1.00  0.00    -0.326 N 
ATOM     13  H   UNL A   1      34.652  23.746  26.059  1.00  0.00     0.169 HD
ATOM     14  O   UNL A   1      33.689  21.914  27.905  1.00  0.00    -0.274 OA
BRANCH  12  15
ATOM     15  C   UNL A   1      32.622  24.325  26.037  1.00  0.00     0.044 A 
ATOM     16  C   UNL A   1      34.260  25.922  25.017  1.00  0.00     0.047 C 
ATOM     17  C   UNL A   1      32.846  25.566  25.399  1.00  0.00    -0.015 A 
ATOM     18  C   UNL A   1      31.749  26.441  25.236  1.00  0.00     0.045 A 
ATOM     19  C   UNL A   1      31.368  23.998  26.561  1.00  0.00     0.026 A 
ATOM     20  C   UNL A   1      30.521  26.120  25.851  1.00  0.00     0.014 A 
ATOM     21  C   UNL A   1      30.335  24.919  26.525  1.00  0.00     0.003 A 
BRANCH  18  22
ATOM     22  C   UNL A   1      31.810  27.807  24.628  1.00  0.00     0.254 C 
ATOM     23  O   UNL A   1      31.360  27.958  23.492  1.00  0.00    -0.269 OA
ATOM     24  N   UNL A   1      32.246  28.892  25.369  1.00  0.00    -0.334 N 
ATOM     25  C   UNL A   1      33.518  28.980  26.094  1.00  0.00     0.148 C 
ATOM     26  C   UNL A   1      31.607  30.175  25.108  1.00  0.00     0.148 C 
ATOM     27  C   UNL A   1      33.426  29.934  27.304  1.00  0.00     0.181 C 
ATOM     28  C   UNL A   1      31.481  30.954  26.414  1.00  0.00     0.181 C 
ATOM     29  O   UNL A   1      32.781  31.177  26.985  1.00  0.00    -0.378 OA
ENDBRANCH  18  22
ENDBRANCH  12  15
ENDBRANCH   6  11
ENDBRANCH   3   5
ENDBRANCH   2   3
ENDBRANCH   1   2
BRANCH   1  30
ATOM     30  C   UNL A   1      37.784  23.484  25.742  1.00  0.00     0.275 C 
BRANCH  30  31
ATOM     31  O   UNL A   1      38.694  23.693  26.882  1.00  0.00    -0.458 OA
BRANCH  31  32
ATOM     32  C   UNL A   1      39.740  24.543  27.080  1.00  0.00     0.338 C 
ATOM     33  O   UNL A   1      40.864  24.297  26.655  1.00  0.00    -0.246 OA
BRANCH  32  34
ATOM     34  C   UNL A   1      39.491  25.814  27.779  1.00  0.00     0.060 A 
ATOM     35  C   UNL A   1      38.997  25.850  29.100  1.00  0.00     0.016 A 
ATOM     36  C   UNL A   1      39.871  26.975  27.140  1.00  0.00     0.016 A 
ATOM     37  C   UNL A   1      39.004  27.048  29.815  1.00  0.00     0.010 A 
ATOM     38  C   UNL A   1      40.113  28.080  27.906  1.00  0.00     0.010 A 
ATOM     39  C   UNL A   1      39.601  28.153  29.212  1.00  0.00    -0.014 A 
BRANCH  39  40
ATOM     40  C   UNL A   1      39.461  29.528  29.666  1.00  0.00     0.031 A 
ATOM     41  C   UNL A   1      38.431  30.445  29.150  1.00  0.00     0.074 A 
ATOM     42  C   UNL A   1      40.330  29.782  30.676  1.00  0.00     0.049 A 
ATOM     43  N   UNL A   1      38.590  31.721  29.095  1.00  0.00    -0.248 NA
ATOM     44  C   UNL A   1      37.126  30.035  28.624  1.00  0.00     0.031 C 
ATOM     45  C   UNL A   1      40.483  30.872  31.613  1.00  0.00     0.029 A 
ATOM     46  N   UNL A   1      41.448  28.973  30.955  1.00  0.00    -0.354 N 
ATOM     47  C   UNL A   1      37.336  32.278  28.939  1.00  0.00     0.074 A 
ATOM     48  C   UNL A   1      36.490  31.208  28.482  1.00  0.00     0.031 C 
ATOM     49  C   UNL A   1      41.754  30.850  32.080  1.00  0.00     0.029 A 
ATOM     50  C   UNL A   1      42.478  29.796  31.367  1.00  0.00     0.049 A 
ATOM     51  H   UNL A   1      41.488  27.993  30.871  1.00  0.00     0.167 HD
ATOM     52  C   UNL A   1      37.107  33.521  29.446  1.00  0.00     0.031 A 
ATOM     53  C   UNL A   1      43.512  29.940  30.487  1.00  0.00     0.031 A 
ATOM     54  C   UNL A   1      38.326  34.032  30.064  1.00  0.00     0.049 A 
ATOM     55  C   UNL A   1      43.503  31.348  29.950  1.00  0.00     0.074 A 
ATOM     56  C   UNL A   1      38.762  34.015  31.379  1.00  0.00     0.029 A 
ATOM     57  N   UNL A   1      39.448  34.231  29.272  1.00  0.00    -0.354 N 
ATOM     58  N   UNL A   1      42.423  32.059  29.759  1.00  0.00    -0.248 NA
ATOM     59  C   UNL A   1      44.729  32.090  29.693  1.00  0.00     0.031 C 
ATOM     60  C   UNL A   1      40.178  34.120  31.363  1.00  0.00     0.029 A 
ATOM     61  C   UNL A   1      40.594  34.197  30.045  1.00  0.00     0.049 A 
ATOM     62  H   UNL A   1      39.430  34.377  28.299  1.00  0.00     0.167 HD
ATOM     63  C   UNL A   1      42.786  33.353  29.500  1.00  0.00     0.074 A 
ATOM     64  C   UNL A   1      44.237  33.311  29.426  1.00  0.00     0.031 C 
ATOM     65  C   UNL A   1      41.894  34.384  29.421  1.00  0.00     0.031 A 
BRANCH  52  66
ATOM     66  C   UNL A   1      35.747  34.125  29.695  1.00  0.00    -0.014 A 
ATOM     67  C   UNL A   1      35.009  34.615  28.596  1.00  0.00     0.009 A 
ATOM     68  C   UNL A   1      35.135  34.239  30.954  1.00  0.00     0.009 A 
ATOM     69  C   UNL A   1      33.755  35.216  28.739  1.00  0.00     0.001 A 
ATOM     70  C   UNL A   1      33.876  34.852  31.104  1.00  0.00     0.001 A 
ATOM     71  C   UNL A   1      33.189  35.342  29.997  1.00  0.00     0.000 A 
ENDBRANCH  52  66
BRANCH  53  72
ATOM     72  C   UNL A   1      43.853  28.696  29.695  1.00  0.00    -0.014 A 
ATOM     73  C   UNL A   1      44.069  27.481  30.395  1.00  0.00     0.009 A 
ATOM     74  C   UNL A   1      43.728  28.612  28.301  1.00  0.00     0.009 A 
ATOM     75  C   UNL A   1      44.049  26.237  29.750  1.00  0.00     0.001 A 
ATOM     76  C   UNL A   1      43.746  27.363  27.649  1.00  0.00     0.001 A 
ATOM     77  C   UNL A   1      43.875  26.177  28.374  1.00  0.00     0.000 A 
ENDBRANCH  53  72
BRANCH  65  78
ATOM     78  C   UNL A   1      42.180  35.735  28.822  1.00  0.00    -0.014 A 
ATOM     79  C   UNL A   1      42.909  36.735  29.469  1.00  0.00     0.009 A 
ATOM     80  C   UNL A   1      41.839  35.973  27.469  1.00  0.00     0.009 A 
ATOM     81  C   UNL A   1      43.224  37.936  28.826  1.00  0.00     0.001 A 
ATOM     82  C   UNL A   1      42.214  37.136  26.801  1.00  0.00     0.001 A 
ATOM     83  C   UNL A   1      42.890  38.129  27.489  1.00  0.00     0.000 A 
ENDBRANCH  65  78
ENDBRANCH  39  40
ENDBRANCH  32  34
ENDBRANCH  31  32
ENDBRANCH  30  31
ENDBRANCH   1  30
TORSDOF 14
ENDMDL
MODEL 2
REMARK VINA RESULT:     -12.0      1.876      2.817
REMARK SMILES Cc1c(NC(=O)[C@@H]2CC=CC[C@@H]2C(=O)OCCOC(=O)c2ccc(-c3c4nc(c(-c5ccccc5)c5ccc([nH]5)c(-c5ccccc5)c5nc(c(-c6ccccc6)c6ccc3[nH]6)C=C5)C=C4)cc2)cccc1C(=O)N1CCOCC1
REMARK SMILES IDX 16 1 15 2 13 3 14 4 12 5 7 6 8 7 9 8 11 9 10 10 5 11 4 12
REMARK SMILES IDX 6 14 3 15 1 16 2 17 72 18 69 19 71 20 70 21 73 22 74 23
REMARK SMILES IDX 75 24 76 25 80 26 77 27 79 28 78 29 17 30 18 31 19 32 20 33
REMARK SMILES IDX 21 34 22 35 68 36 23 37 67 38 24 39 25 40 26 41 61 42 27 43
REMARK SMILES IDX 66 44 60 45 62 46 28 47 65 48 59 49 58 50 29 52 51 53 36 54
REMARK SMILES IDX 50 55 37 56 40 57 49 58 63 59 38 60 39 61 48 63 64 64 41 65
REMARK SMILES IDX 30 66 31 67 35 68 32 69 34 70 33 71 52 72 53 73 57 74 54 75
REMARK SMILES IDX 56 76 55 77 42 78 43 79 47 80 44 81 46 82 45 83
REMARK H PARENT 4 13 62 51 40 62
REMARK Flexibility Score: inf
ROOT
ATOM      1  C   UNL A   1      37.395  21.034  24.583  1.00  0.00     0.274 C 
ENDROOT
BRANCH   1   2
ATOM      2  O   UNL A   1      35.997  21.292  24.633  1.00  0.00    -0.462 OA
BRANCH   2   3
ATOM      3  C   UNL A   1      35.539  22.239  23.795  1.00  0.00     0.310 C 
ATOM      4  O   UNL A   1      36.246  22.865  23.003  1.00  0.00    -0.252 OA
BRANCH   3   5
ATOM      5  C   UNL A   1      34.073  22.551  23.990  1.00  0.00     0.116 C 
ATOM      6  C   UNL A   1      33.946  23.302  25.311  1.00  0.00     0.097 C 
ATOM      7  C   UNL A   1      34.366  22.442  26.501  1.00  0.00     0.041 C 
ATOM      8  C   UNL A   1      33.679  21.101  26.439  1.00  0.00    -0.030 C 
ATOM      9  C   UNL A   1      33.127  21.346  24.006  1.00  0.00     0.043 C 
ATOM     10  C   UNL A   1      33.093  20.626  25.326  1.00  0.00    -0.030 C 
BRANCH   6  11
ATOM     11  C   UNL A   1      34.708  24.597  25.194  1.00  0.00     0.228 C 
ATOM     12  N   UNL A   1      34.192  25.509  24.296  1.00  0.00    -0.326 N 
ATOM     13  H   UNL A   1      34.571  25.620  23.394  1.00  0.00     0.169 HD
ATOM     14  O   UNL A   1      35.781  24.809  25.753  1.00  0.00    -0.274 OA
BRANCH  12  15
ATOM     15  C   UNL A   1      33.087  26.279  24.744  1.00  0.00     0.044 A 
ATOM     16  C   UNL A   1      31.851  25.375  22.762  1.00  0.00     0.047 C 
ATOM     17  C   UNL A   1      31.881  26.221  24.008  1.00  0.00    -0.015 A 
ATOM     18  C   UNL A   1      30.801  27.027  24.431  1.00  0.00     0.045 A 
ATOM     19  C   UNL A   1      33.237  27.163  25.816  1.00  0.00     0.026 A 
ATOM     20  C   UNL A   1      31.013  27.970  25.460  1.00  0.00     0.014 A 
ATOM     21  C   UNL A   1      32.225  28.052  26.135  1.00  0.00     0.003 A 
BRANCH  18  22
ATOM     22  C   UNL A   1      29.473  27.128  23.749  1.00  0.00     0.254 C 
ATOM     23  O   UNL A   1      28.667  26.212  23.910  1.00  0.00    -0.269 OA
ATOM     24  N   UNL A   1      29.116  28.275  23.061  1.00  0.00    -0.334 N 
ATOM     25  C   UNL A   1      29.896  28.911  21.993  1.00  0.00     0.148 C 
ATOM     26  C   UNL A   1      27.714  28.668  23.104  1.00  0.00     0.148 C 
ATOM     27  C   UNL A   1      29.630  30.429  21.912  1.00  0.00     0.181 C 
ATOM     28  C   UNL A   1      27.615  30.190  23.137  1.00  0.00     0.181 C 
ATOM     29  O   UNL A   1      28.231  30.752  21.967  1.00  0.00    -0.378 OA
ENDBRANCH  18  22
ENDBRANCH  12  15
ENDBRANCH   6  11
ENDBRANCH   3   5
ENDBRANCH   2   3
ENDBRANCH   1   2
BRANCH   1  30
ATOM     30  C   UNL A   1      38.035  21.487  25.898  1.00  0.00     0.275 C 
BRANCH  30  31
ATOM     31  O   UNL A   1      38.720  22.790  25.933  1.00  0.00    -0.458 OA
BRANCH  31  32
ATOM     32  C   UNL A   1      39.969  23.162  26.330  1.00  0.00     0.338 C 
ATOM     33  O   UNL A   1      40.951  22.456  26.124  1.00  0.00    -0.246 OA
BRANCH  32  34
ATOM     34  C   UNL A   1      40.140  24.473  26.977  1.00  0.00     0.060 A 
ATOM     35  C   UNL A   1      40.650  25.586  26.277  1.00  0.00     0.016 A 
ATOM     36  C   UNL A   1      39.671  24.609  28.268  1.00  0.00     0.016 A 
ATOM     37  C   UNL A   1      40.571  26.860  26.840  1.00  0.00     0.010 A 
ATOM     38  C   UNL A   1      39.366  25.865  28.710  1.00  0.00     0.010 A 
ATOM     39  C   UNL A   1      39.891  26.988  28.049  1.00  0.00    -0.014 A 
BRANCH  39  40
ATOM     40  C   UNL A   1      39.943  28.155  28.916  1.00  0.00     0.031 A 
ATOM     41  C   UNL A   1      38.915  29.210  28.908  1.00  0.00     0.074 A 
ATOM     42  C   UNL A   1      40.993  28.062  29.769  1.00  0.00     0.049 A 
ATOM     43  N   UNL A   1      39.164  30.435  29.212  1.00  0.00    -0.248 NA
ATOM     44  C   UNL A   1      37.510  29.013  28.542  1.00  0.00     0.031 C 
ATOM     45  C   UNL A   1      41.394  28.802  30.946  1.00  0.00     0.029 A 
ATOM     46  N   UNL A   1      42.074  27.182  29.572  1.00  0.00    -0.354 N 
ATOM     47  C   UNL A   1      37.951  31.040  29.474  1.00  0.00     0.074 A 
ATOM     48  C   UNL A   1      36.955  30.186  28.885  1.00  0.00     0.031 C 
ATOM     49  C   UNL A   1      42.721  28.607  31.132  1.00  0.00     0.029 A 
ATOM     50  C   UNL A   1      43.222  27.813  30.010  1.00  0.00     0.049 A 
ATOM     51  H   UNL A   1      42.020  26.277  29.190  1.00  0.00     0.167 HD
ATOM     52  C   UNL A   1      37.914  32.068  30.367  1.00  0.00     0.031 A 
ATOM     53  C   UNL A   1      44.094  28.202  29.034  1.00  0.00     0.031 A 
ATOM     54  C   UNL A   1      39.259  32.334  30.866  1.00  0.00     0.049 A 
ATOM     55  C   UNL A   1      44.105  29.706  28.960  1.00  0.00     0.074 A 
ATOM     56  C   UNL A   1      39.916  31.898  32.005  1.00  0.00     0.029 A 
ATOM     57  N   UNL A   1      40.238  32.745  29.973  1.00  0.00    -0.354 N 
ATOM     58  N   UNL A   1      43.068  30.465  29.203  1.00  0.00    -0.248 NA
ATOM     59  C   UNL A   1      45.322  30.464  28.709  1.00  0.00     0.031 C 
ATOM     60  C   UNL A   1      41.311  31.972  31.752  1.00  0.00     0.029 A 
ATOM     61  C   UNL A   1      41.495  32.446  30.465  1.00  0.00     0.049 A 
ATOM     62  H   UNL A   1      40.062  33.188  29.111  1.00  0.00     0.167 HD
ATOM     63  C   UNL A   1      43.483  31.767  29.282  1.00  0.00     0.074 A 
ATOM     64  C   UNL A   1      44.891  31.718  28.924  1.00  0.00     0.031 C 
ATOM     65  C   UNL A   1      42.676  32.790  29.691  1.00  0.00     0.031 A 
BRANCH  52  66
ATOM     66  C   UNL A   1      36.672  32.594  31.042  1.00  0.00    -0.014 A 
ATOM     67  C   UNL A   1      35.909  33.585  30.387  1.00  0.00     0.009 A 
ATOM     68  C   UNL A   1      36.192  32.169  32.291  1.00  0.00     0.009 A 
ATOM     69  C   UNL A   1      34.761  34.149  30.951  1.00  0.00     0.001 A 
ATOM     70  C   UNL A   1      35.042  32.740  32.869  1.00  0.00     0.001 A 
ATOM     71  C   UNL A   1      34.330  33.731  32.200  1.00  0.00     0.000 A 
ENDBRANCH  52  66
BRANCH  53  72
ATOM     72  C   UNL A   1      44.191  27.259  27.853  1.00  0.00    -0.014 A 
ATOM     73  C   UNL A   1      43.996  27.780  26.548  1.00  0.00     0.009 A 
ATOM     74  C   UNL A   1      44.704  25.957  27.947  1.00  0.00     0.009 A 
ATOM     75  C   UNL A   1      44.395  27.081  25.400  1.00  0.00     0.001 A 
ATOM     76  C   UNL A   1      45.070  25.241  26.790  1.00  0.00     0.001 A 
ATOM     77  C   UNL A   1      44.945  25.812  25.522  1.00  0.00     0.000 A 
ENDBRANCH  53  72
BRANCH  65  78
ATOM     78  C   UNL A   1      42.961  34.255  29.485  1.00  0.00    -0.014 A 
ATOM     79  C   UNL A   1      42.567  34.973  28.354  1.00  0.00     0.009 A 
ATOM     80  C   UNL A   1      43.515  35.003  30.551  1.00  0.00     0.009 A 
ATOM     81  C   UNL A   1      42.777  36.352  28.261  1.00  0.00     0.001 A 
ATOM     82  C   UNL A   1      43.657  36.387  30.494  1.00  0.00     0.001 A 
ATOM     83  C   UNL A   1      43.307  37.060  29.335  1.00  0.00     0.000 A 
ENDBRANCH  65  78
ENDBRANCH  39  40
ENDBRANCH  32  34
ENDBRANCH  31  32
ENDBRANCH  30  31
ENDBRANCH   1  30
TORSDOF 14
ENDMDL
MODEL 3
REMARK VINA RESULT:     -12.0      2.744      4.703
REMARK SMILES Cc1c(NC(=O)[C@@H]2CC=CC[C@@H]2C(=O)OCCOC(=O)c2ccc(-c3c4nc(c(-c5ccccc5)c5ccc([nH]5)c(-c5ccccc5)c5nc(c(-c6ccccc6)c6ccc3[nH]6)C=C5)C=C4)cc2)cccc1C(=O)N1CCOCC1
REMARK SMILES IDX 16 1 15 2 13 3 14 4 12 5 7 6 8 7 9 8 11 9 10 10 5 11 4 12
REMARK SMILES IDX 6 14 3 15 1 16 2 17 72 18 69 19 71 20 70 21 73 22 74 23
REMARK SMILES IDX 75 24 76 25 80 26 77 27 79 28 78 29 17 30 18 31 19 32 20 33
REMARK SMILES IDX 21 34 22 35 68 36 23 37 67 38 24 39 25 40 26 41 61 42 27 43
REMARK SMILES IDX 66 44 60 45 62 46 28 47 65 48 59 49 58 50 29 52 51 53 36 54
REMARK SMILES IDX 50 55 37 56 40 57 49 58 63 59 38 60 39 61 48 63 64 64 41 65
REMARK SMILES IDX 30 66 31 67 35 68 32 69 34 70 33 71 52 72 53 73 57 74 54 75
REMARK SMILES IDX 56 76 55 77 42 78 43 79 47 80 44 81 46 82 45 83
REMARK H PARENT 4 13 62 51 40 62
REMARK Flexibility Score: inf
ROOT
ATOM      1  C   UNL A   1      36.031  20.997  24.922  1.00  0.00     0.274 C 
ENDROOT
BRANCH   1   2
ATOM      2  O   UNL A   1      34.828  21.756  24.942  1.00  0.00    -0.462 OA
BRANCH   2   3
ATOM      3  C   UNL A   1      34.609  22.549  23.878  1.00  0.00     0.310 C 
ATOM      4  O   UNL A   1      35.471  22.851  23.050  1.00  0.00    -0.252 OA
BRANCH   3   5
ATOM      5  C   UNL A   1      33.218  23.136  23.845  1.00  0.00     0.116 C 
ATOM      6  C   UNL A   1      33.128  24.141  24.989  1.00  0.00     0.097 C 
ATOM      7  C   UNL A   1      33.281  23.471  26.353  1.00  0.00     0.041 C 
ATOM      8  C   UNL A   1      32.362  22.280  26.452  1.00  0.00    -0.030 C 
ATOM      9  C   UNL A   1      32.064  22.135  23.967  1.00  0.00     0.043 C 
ATOM     10  C   UNL A   1      31.789  21.703  25.380  1.00  0.00    -0.030 C 
BRANCH   6  11
ATOM     11  C   UNL A   1      34.126  25.241  24.733  1.00  0.00     0.228 C 
ATOM     12  N   UNL A   1      33.775  26.140  23.746  1.00  0.00    -0.326 N 
ATOM     13  H   UNL A   1      34.144  26.082  22.835  1.00  0.00     0.169 HD
ATOM     14  O   UNL A   1      35.233  25.292  25.260  1.00  0.00    -0.274 OA
BRANCH  12  15
ATOM     15  C   UNL A   1      32.854  27.156  24.117  1.00  0.00     0.044 A 
ATOM     16  C   UNL A   1      31.244  26.053  22.548  1.00  0.00     0.047 C 
ATOM     17  C   UNL A   1      31.560  27.133  23.550  1.00  0.00    -0.015 A 
ATOM     18  C   UNL A   1      30.666  28.173  23.886  1.00  0.00     0.045 A 
ATOM     19  C   UNL A   1      33.269  28.215  24.928  1.00  0.00     0.026 A 
ATOM     20  C   UNL A   1      31.142  29.270  24.634  1.00  0.00     0.014 A 
ATOM     21  C   UNL A   1      32.437  29.302  25.136  1.00  0.00     0.003 A 
BRANCH  18  22
ATOM     22  C   UNL A   1      29.279  28.335  23.346  1.00  0.00     0.254 C 
ATOM     23  O   UNL A   1      28.523  27.364  23.388  1.00  0.00    -0.269 OA
ATOM     24  N   UNL A   1      28.822  29.573  22.928  1.00  0.00    -0.334 N 
ATOM     25  C   UNL A   1      29.480  30.443  21.947  1.00  0.00     0.148 C 
ATOM     26  C   UNL A   1      27.416  29.876  23.161  1.00  0.00     0.148 C 
ATOM     27  C   UNL A   1      29.155  31.932  22.188  1.00  0.00     0.181 C 
ATOM     28  C   UNL A   1      27.266  31.357  23.501  1.00  0.00     0.181 C 
ATOM     29  O   UNL A   1      27.755  32.165  22.419  1.00  0.00    -0.378 OA
ENDBRANCH  18  22
ENDBRANCH  12  15
ENDBRANCH   6  11
ENDBRANCH   3   5
ENDBRANCH   2   3
ENDBRANCH   1   2
BRANCH   1  30
ATOM     30  C   UNL A   1      37.115  21.755  25.692  1.00  0.00     0.275 C 
BRANCH  30  31
ATOM     31  O   UNL A   1      38.525  21.506  25.347  1.00  0.00    -0.458 OA
BRANCH  31  32
ATOM     32  C   UNL A   1      39.637  21.311  26.108  1.00  0.00     0.338 C 
ATOM     33  O   UNL A   1      40.254  20.250  26.093  1.00  0.00    -0.246 OA
BRANCH  32  34
ATOM     34  C   UNL A   1      40.134  22.427  26.929  1.00  0.00     0.060 A 
ATOM     35  C   UNL A   1      41.039  22.222  27.992  1.00  0.00     0.016 A 
ATOM     36  C   UNL A   1      39.775  23.703  26.548  1.00  0.00     0.016 A 
ATOM     37  C   UNL A   1      41.674  23.312  28.586  1.00  0.00     0.010 A 
ATOM     38  C   UNL A   1      40.569  24.739  26.948  1.00  0.00     0.010 A 
ATOM     39  C   UNL A   1      41.453  24.569  28.026  1.00  0.00    -0.014 A 
BRANCH  39  40
ATOM     40  C   UNL A   1      41.791  25.835  28.659  1.00  0.00     0.031 A 
ATOM     41  C   UNL A   1      40.789  26.863  28.988  1.00  0.00     0.074 A 
ATOM     42  C   UNL A   1      43.109  25.866  28.979  1.00  0.00     0.049 A 
ATOM     43  N   UNL A   1      41.060  28.120  29.026  1.00  0.00    -0.248 NA
ATOM     44  C   UNL A   1      39.379  26.598  29.290  1.00  0.00     0.031 C 
ATOM     45  C   UNL A   1      43.923  26.751  29.782  1.00  0.00     0.029 A 
ATOM     46  N   UNL A   1      44.059  24.987  28.425  1.00  0.00    -0.354 N 
ATOM     47  C   UNL A   1      40.036  28.732  29.724  1.00  0.00     0.074 A 
ATOM     48  C   UNL A   1      38.946  27.794  29.716  1.00  0.00     0.031 C 
ATOM     49  C   UNL A   1      45.211  26.604  29.394  1.00  0.00     0.029 A 
ATOM     50  C   UNL A   1      45.238  25.686  28.254  1.00  0.00     0.049 A 
ATOM     51  H   UNL A   1      43.909  24.041  28.200  1.00  0.00     0.167 HD
ATOM     52  C   UNL A   1      40.315  29.861  30.433  1.00  0.00     0.031 A 
ATOM     53  C   UNL A   1      45.580  25.967  26.963  1.00  0.00     0.031 A 
ATOM     54  C   UNL A   1      41.722  30.209  30.270  1.00  0.00     0.049 A 
ATOM     55  C   UNL A   1      45.454  27.451  26.736  1.00  0.00     0.074 A 
ATOM     56  C   UNL A   1      42.831  29.928  31.051  1.00  0.00     0.029 A 
ATOM     57  N   UNL A   1      42.194  30.525  29.004  1.00  0.00    -0.354 N 
ATOM     58  N   UNL A   1      44.572  28.216  27.324  1.00  0.00    -0.248 NA
ATOM     59  C   UNL A   1      46.392  28.194  25.907  1.00  0.00     0.031 C 
ATOM     60  C   UNL A   1      43.975  29.994  30.213  1.00  0.00     0.029 A 
ATOM     61  C   UNL A   1      43.557  30.310  28.931  1.00  0.00     0.049 A 
ATOM     62  H   UNL A   1      41.636  30.855  28.263  1.00  0.00     0.167 HD
ATOM     63  C   UNL A   1      44.890  29.525  27.081  1.00  0.00     0.074 A 
ATOM     64  C   UNL A   1      46.009  29.457  26.156  1.00  0.00     0.031 C 
ATOM     65  C   UNL A   1      44.267  30.577  27.691  1.00  0.00     0.031 A 
BRANCH  52  66
ATOM     66  C   UNL A   1      39.448  30.444  31.521  1.00  0.00    -0.014 A 
ATOM     67  C   UNL A   1      39.394  29.791  32.771  1.00  0.00     0.009 A 
ATOM     68  C   UNL A   1      38.678  31.612  31.399  1.00  0.00     0.009 A 
ATOM     69  C   UNL A   1      38.595  30.245  33.825  1.00  0.00     0.001 A 
ATOM     70  C   UNL A   1      37.866  32.070  32.453  1.00  0.00     0.001 A 
ATOM     71  C   UNL A   1      37.823  31.384  33.665  1.00  0.00     0.000 A 
ENDBRANCH  52  66
BRANCH  53  72
ATOM     72  C   UNL A   1      45.227  24.889  25.961  1.00  0.00    -0.014 A 
ATOM     73  C   UNL A   1      46.062  23.745  25.868  1.00  0.00     0.009 A 
ATOM     74  C   UNL A   1      43.994  24.831  25.294  1.00  0.00     0.009 A 
ATOM     75  C   UNL A   1      45.642  22.567  25.236  1.00  0.00     0.001 A 
ATOM     76  C   UNL A   1      43.590  23.658  24.627  1.00  0.00     0.001 A 
ATOM     77  C   UNL A   1      44.396  22.519  24.624  1.00  0.00     0.000 A 
ENDBRANCH  53  72
BRANCH  65  78
ATOM     78  C   UNL A   1      44.335  32.009  27.232  1.00  0.00    -0.014 A 
ATOM     79  C   UNL A   1      44.146  32.413  25.909  1.00  0.00     0.009 A 
ATOM     80  C   UNL A   1      44.437  33.036  28.201  1.00  0.00     0.009 A 
ATOM     81  C   UNL A   1      44.128  33.766  25.558  1.00  0.00     0.001 A 
ATOM     82  C   UNL A   1      44.344  34.385  27.868  1.00  0.00     0.001 A 
ATOM     83  C   UNL A   1      44.211  34.750  26.538  1.00  0.00     0.000 A 
ENDBRANCH  65  78
ENDBRANCH  39  40
ENDBRANCH  32  34
ENDBRANCH  31  32
ENDBRANCH  30  31
ENDBRANCH   1  30
TORSDOF 14
ENDMDL
