MODEL 1
REMARK VINA RESULT:     -10.4      0.000      0.000
REMARK SMILES [NH3+][C@H](Cc1cnc2[nH]cccc1-2)C(=O)OCCOC(=O)c1ccc(-c2c3nc(c(-c4ccccc4)c4ccc([nH]4)c(-c4ccccc4)c4nc(c(-c5ccccc5)c5ccc2[nH]5)C=C4)C=C3)cc1
REMARK SMILES IDX 16 1 15 2 13 3 14 4 2 5 1 6 3 10 4 11 5 12 12 13 6 14 7 15
REMARK SMILES IDX 11 16 8 17 10 18 9 19 17 21 18 22 19 23 20 24 21 25 22 26
REMARK SMILES IDX 68 27 23 28 67 29 24 30 25 31 26 32 61 33 27 34 66 35 60 36
REMARK SMILES IDX 62 37 28 38 65 39 59 40 58 41 29 43 51 44 36 45 50 46 37 47
REMARK SMILES IDX 40 48 49 49 63 50 38 51 39 52 48 54 64 55 41 56 30 57 31 58
REMARK SMILES IDX 35 59 32 60 34 61 33 62 52 63 53 64 57 65 54 66 56 67 55 68
REMARK SMILES IDX 42 69 43 70 47 71 44 72 46 73 45 74
REMARK H PARENT 1 7 1 8 1 9 8 20 62 42 40 53
REMARK Flexibility Score: inf
ROOT
ATOM      1  C   UNL A   1      33.798  34.345  29.643  1.00  0.00     0.274 C 
ENDROOT
BRANCH   1   2
ATOM      2  O   UNL A   1      32.683  35.163  30.058  1.00  0.00    -0.458 OA
BRANCH   2   3
ATOM      3  C   UNL A   1      32.933  36.251  30.837  1.00  0.00     0.365 C 
ATOM      4  O   UNL A   1      32.904  37.408  30.433  1.00  0.00    -0.245 OA
BRANCH   3   5
ATOM      5  C   UNL A   1      33.226  35.855  32.309  1.00  0.00     0.296 C 
BRANCH   5   6
ATOM      6  N   UNL A   1      32.213  36.384  33.251  1.00  0.00    -0.346 N 
ATOM      7  H   UNL A   1      31.694  35.609  33.663  1.00  0.00     0.345 HD
ATOM      8  H   UNL A   1      31.569  36.995  32.749  1.00  0.00     0.345 HD
ATOM      9  H   UNL A   1      32.678  36.913  33.988  1.00  0.00     0.345 HD
ENDBRANCH   5   6
BRANCH   5  10
ATOM     10  C   UNL A   1      34.668  36.078  32.790  1.00  0.00     0.115 C 
BRANCH  10  11
ATOM     11  C   UNL A   1      35.363  34.887  33.351  1.00  0.00    -0.012 A 
ATOM     12  C   UNL A   1      35.135  34.164  34.469  1.00  0.00     0.118 A 
ATOM     13  C   UNL A   1      36.568  34.339  32.816  1.00  0.00     0.022 A 
ATOM     14  N   UNL A   1      36.068  33.179  34.751  1.00  0.00    -0.238 NA
ATOM     15  C   UNL A   1      36.946  33.274  33.789  1.00  0.00     0.137 A 
ATOM     16  C   UNL A   1      37.369  34.556  31.764  1.00  0.00     0.014 A 
ATOM     17  N   UNL A   1      38.091  32.559  33.601  1.00  0.00    -0.346 N 
ATOM     18  C   UNL A   1      38.579  33.747  31.597  1.00  0.00     0.018 A 
ATOM     19  C   UNL A   1      38.890  32.805  32.509  1.00  0.00     0.084 A 
ATOM     20  H   UNL A   1      38.347  31.864  34.249  1.00  0.00     0.167 HD
ENDBRANCH  10  11
ENDBRANCH   5  10
ENDBRANCH   3   5
ENDBRANCH   2   3
ENDBRANCH   1   2
BRANCH   1  21
ATOM     21  C   UNL A   1      33.809  34.254  28.114  1.00  0.00     0.275 C 
BRANCH  21  22
ATOM     22  O   UNL A   1      34.858  33.352  27.722  1.00  0.00    -0.458 OA
BRANCH  22  23
ATOM     23  C   UNL A   1      34.659  32.053  28.046  1.00  0.00     0.338 C 
ATOM     24  O   UNL A   1      33.587  31.462  28.081  1.00  0.00    -0.246 OA
BRANCH  23  25
ATOM     25  C   UNL A   1      35.972  31.373  27.975  1.00  0.00     0.060 A 
ATOM     26  C   UNL A   1      36.090  30.040  27.564  1.00  0.00     0.016 A 
ATOM     27  C   UNL A   1      37.049  32.017  28.590  1.00  0.00     0.016 A 
ATOM     28  C   UNL A   1      37.214  29.306  27.936  1.00  0.00     0.010 A 
ATOM     29  C   UNL A   1      38.166  31.278  28.961  1.00  0.00     0.010 A 
ATOM     30  C   UNL A   1      38.213  29.899  28.717  1.00  0.00    -0.014 A 
BRANCH  30  31
ATOM     31  C   UNL A   1      39.439  29.147  29.008  1.00  0.00     0.031 A 
ATOM     32  C   UNL A   1      39.624  29.029  30.465  1.00  0.00     0.074 A 
ATOM     33  C   UNL A   1      40.321  28.544  28.180  1.00  0.00     0.049 A 
ATOM     34  N   UNL A   1      40.419  29.752  31.178  1.00  0.00    -0.248 NA
ATOM     35  C   UNL A   1      38.692  28.195  31.237  1.00  0.00     0.031 C 
ATOM     36  C   UNL A   1      40.260  28.375  26.734  1.00  0.00     0.029 A 
ATOM     37  N   UNL A   1      41.472  27.867  28.497  1.00  0.00    -0.354 N 
ATOM     38  C   UNL A   1      40.235  29.318  32.477  1.00  0.00     0.074 A 
ATOM     39  C   UNL A   1      39.018  28.548  32.480  1.00  0.00     0.031 C 
ATOM     40  C   UNL A   1      41.156  27.439  26.331  1.00  0.00     0.029 A 
ATOM     41  C   UNL A   1      41.995  27.090  27.463  1.00  0.00     0.049 A 
ATOM     42  H   UNL A   1      41.896  27.926  29.383  1.00  0.00     0.167 HD
ATOM     43  C   UNL A   1      41.255  29.364  33.372  1.00  0.00     0.031 A 
ATOM     44  C   UNL A   1      43.068  26.256  27.520  1.00  0.00     0.031 A 
ATOM     45  C   UNL A   1      42.331  30.208  32.913  1.00  0.00     0.049 A 
ATOM     46  C   UNL A   1      43.923  26.723  28.627  1.00  0.00     0.074 A 
ATOM     47  C   UNL A   1      42.459  31.538  32.568  1.00  0.00     0.029 A 
ATOM     48  N   UNL A   1      43.410  29.559  32.365  1.00  0.00    -0.354 N 
ATOM     49  N   UNL A   1      44.603  27.831  28.596  1.00  0.00    -0.248 NA
ATOM     50  C   UNL A   1      43.752  26.124  29.937  1.00  0.00     0.031 C 
ATOM     51  C   UNL A   1      43.405  31.565  31.501  1.00  0.00     0.029 A 
ATOM     52  C   UNL A   1      43.857  30.264  31.280  1.00  0.00     0.049 A 
ATOM     53  H   UNL A   1      43.802  28.721  32.701  1.00  0.00     0.167 HD
ATOM     54  C   UNL A   1      44.523  28.311  29.890  1.00  0.00     0.074 A 
ATOM     55  C   UNL A   1      44.127  27.157  30.694  1.00  0.00     0.031 C 
ATOM     56  C   UNL A   1      44.499  29.654  30.131  1.00  0.00     0.031 A 
BRANCH  43  57
ATOM     57  C   UNL A   1      41.458  28.292  34.411  1.00  0.00    -0.014 A 
ATOM     58  C   UNL A   1      41.538  26.916  34.108  1.00  0.00     0.009 A 
ATOM     59  C   UNL A   1      41.846  28.673  35.704  1.00  0.00     0.009 A 
ATOM     60  C   UNL A   1      41.970  25.971  35.038  1.00  0.00     0.001 A 
ATOM     61  C   UNL A   1      42.327  27.735  36.624  1.00  0.00     0.001 A 
ATOM     62  C   UNL A   1      42.386  26.384  36.292  1.00  0.00     0.000 A 
ENDBRANCH  43  57
BRANCH  44  63
ATOM     63  C   UNL A   1      43.301  24.921  26.915  1.00  0.00    -0.014 A 
ATOM     64  C   UNL A   1      44.177  24.788  25.826  1.00  0.00     0.009 A 
ATOM     65  C   UNL A   1      42.399  23.864  27.159  1.00  0.00     0.009 A 
ATOM     66  C   UNL A   1      44.104  23.681  24.969  1.00  0.00     0.001 A 
ATOM     67  C   UNL A   1      42.325  22.758  26.298  1.00  0.00     0.001 A 
ATOM     68  C   UNL A   1      43.162  22.679  25.191  1.00  0.00     0.000 A 
ENDBRANCH  44  63
BRANCH  56  69
ATOM     69  C   UNL A   1      44.949  30.588  29.028  1.00  0.00    -0.014 A 
ATOM     70  C   UNL A   1      44.011  30.926  28.039  1.00  0.00     0.009 A 
ATOM     71  C   UNL A   1      46.275  31.027  28.858  1.00  0.00     0.009 A 
ATOM     72  C   UNL A   1      44.381  31.662  26.912  1.00  0.00     0.001 A 
ATOM     73  C   UNL A   1      46.639  31.793  27.744  1.00  0.00     0.001 A 
ATOM     74  C   UNL A   1      45.694  32.099  26.766  1.00  0.00     0.000 A 
ENDBRANCH  56  69
ENDBRANCH  30  31
ENDBRANCH  23  25
ENDBRANCH  22  23
ENDBRANCH  21  22
ENDBRANCH   1  21
TORSDOF 14
ENDMDL
MODEL 2
REMARK VINA RESULT:     -10.1      1.607      2.338
REMARK SMILES [NH3+][C@H](Cc1cnc2[nH]cccc1-2)C(=O)OCCOC(=O)c1ccc(-c2c3nc(c(-c4ccccc4)c4ccc([nH]4)c(-c4ccccc4)c4nc(c(-c5ccccc5)c5ccc2[nH]5)C=C4)C=C3)cc1
REMARK SMILES IDX 16 1 15 2 13 3 14 4 2 5 1 6 3 10 4 11 5 12 12 13 6 14 7 15
REMARK SMILES IDX 11 16 8 17 10 18 9 19 17 21 18 22 19 23 20 24 21 25 22 26
REMARK SMILES IDX 68 27 23 28 67 29 24 30 25 31 26 32 61 33 27 34 66 35 60 36
REMARK SMILES IDX 62 37 28 38 65 39 59 40 58 41 29 43 51 44 36 45 50 46 37 47
REMARK SMILES IDX 40 48 49 49 63 50 38 51 39 52 48 54 64 55 41 56 30 57 31 58
REMARK SMILES IDX 35 59 32 60 34 61 33 62 52 63 53 64 57 65 54 66 56 67 55 68
REMARK SMILES IDX 42 69 43 70 47 71 44 72 46 73 45 74
REMARK H PARENT 1 7 1 8 1 9 8 20 62 42 40 53
REMARK Flexibility Score: inf
ROOT
ATOM      1  C   UNL A   1      33.459  33.442  27.794  1.00  0.00     0.274 C 
ENDROOT
BRANCH   1   2
ATOM      2  O   UNL A   1      32.948  34.314  28.825  1.00  0.00    -0.458 OA
BRANCH   2   3
ATOM      3  C   UNL A   1      33.452  35.575  28.915  1.00  0.00     0.365 C 
ATOM      4  O   UNL A   1      34.319  36.024  28.174  1.00  0.00    -0.245 OA
BRANCH   3   5
ATOM      5  C   UNL A   1      32.774  36.390  30.049  1.00  0.00     0.296 C 
BRANCH   5   6
ATOM      6  N   UNL A   1      33.479  37.661  30.333  1.00  0.00    -0.346 N 
ATOM      7  H   UNL A   1      33.700  37.712  31.328  1.00  0.00     0.345 HD
ATOM      8  H   UNL A   1      32.881  38.446  30.076  1.00  0.00     0.345 HD
ATOM      9  H   UNL A   1      34.342  37.699  29.790  1.00  0.00     0.345 HD
ENDBRANCH   5   6
BRANCH   5  10
ATOM     10  C   UNL A   1      32.418  35.604  31.321  1.00  0.00     0.115 C 
BRANCH  10  11
ATOM     11  C   UNL A   1      33.522  35.411  32.301  1.00  0.00    -0.012 A 
ATOM     12  C   UNL A   1      34.056  36.244  33.220  1.00  0.00     0.118 A 
ATOM     13  C   UNL A   1      34.354  34.252  32.349  1.00  0.00     0.022 A 
ATOM     14  N   UNL A   1      35.173  35.768  33.889  1.00  0.00    -0.238 NA
ATOM     15  C   UNL A   1      35.384  34.587  33.374  1.00  0.00     0.137 A 
ATOM     16  C   UNL A   1      34.431  33.065  31.731  1.00  0.00     0.014 A 
ATOM     17  N   UNL A   1      36.380  33.697  33.652  1.00  0.00    -0.346 N 
ATOM     18  C   UNL A   1      35.510  32.138  32.078  1.00  0.00     0.018 A 
ATOM     19  C   UNL A   1      36.429  32.487  33.001  1.00  0.00     0.084 A 
ATOM     20  H   UNL A   1      37.066  33.923  34.320  1.00  0.00     0.167 HD
ENDBRANCH  10  11
ENDBRANCH   5  10
ENDBRANCH   3   5
ENDBRANCH   2   3
ENDBRANCH   1   2
BRANCH   1  21
ATOM     21  C   UNL A   1      34.386  32.403  28.432  1.00  0.00     0.275 C 
BRANCH  21  22
ATOM     22  O   UNL A   1      35.679  32.510  27.813  1.00  0.00    -0.458 OA
BRANCH  22  23
ATOM     23  C   UNL A   1      36.671  32.963  28.614  1.00  0.00     0.338 C 
ATOM     24  O   UNL A   1      36.744  34.067  29.139  1.00  0.00    -0.246 OA
BRANCH  23  25
ATOM     25  C   UNL A   1      37.451  31.787  29.062  1.00  0.00     0.060 A 
ATOM     26  C   UNL A   1      38.576  31.918  29.884  1.00  0.00     0.016 A 
ATOM     27  C   UNL A   1      37.189  30.575  28.416  1.00  0.00     0.016 A 
ATOM     28  C   UNL A   1      39.528  30.902  29.909  1.00  0.00     0.010 A 
ATOM     29  C   UNL A   1      38.145  29.567  28.442  1.00  0.00     0.010 A 
ATOM     30  C   UNL A   1      39.359  29.762  29.112  1.00  0.00    -0.014 A 
BRANCH  30  31
ATOM     31  C   UNL A   1      40.314  28.655  29.232  1.00  0.00     0.031 A 
ATOM     32  C   UNL A   1      40.613  28.398  30.652  1.00  0.00     0.074 A 
ATOM     33  C   UNL A   1      40.867  27.862  28.287  1.00  0.00     0.049 A 
ATOM     34  N   UNL A   1      41.668  28.798  31.277  1.00  0.00    -0.248 NA
ATOM     35  C   UNL A   1      39.559  27.844  31.513  1.00  0.00     0.031 C 
ATOM     36  C   UNL A   1      40.599  27.808  26.856  1.00  0.00     0.029 A 
ATOM     37  N   UNL A   1      41.779  26.847  28.443  1.00  0.00    -0.354 N 
ATOM     38  C   UNL A   1      41.502  28.364  32.578  1.00  0.00     0.074 A 
ATOM     39  C   UNL A   1      40.113  28.005  32.714  1.00  0.00     0.031 C 
ATOM     40  C   UNL A   1      41.108  26.668  26.324  1.00  0.00     0.029 A 
ATOM     41  C   UNL A   1      41.916  26.010  27.335  1.00  0.00     0.049 A 
ATOM     42  H   UNL A   1      42.295  26.719  29.272  1.00  0.00     0.167 HD
ATOM     43  C   UNL A   1      42.577  28.040  33.342  1.00  0.00     0.031 A 
ATOM     44  C   UNL A   1      42.676  24.887  27.239  1.00  0.00     0.031 A 
ATOM     45  C   UNL A   1      43.805  28.540  32.773  1.00  0.00     0.049 A 
ATOM     46  C   UNL A   1      43.749  25.001  28.243  1.00  0.00     0.074 A 
ATOM     47  C   UNL A   1      44.302  29.785  32.447  1.00  0.00     0.029 A 
ATOM     48  N   UNL A   1      44.561  27.626  32.081  1.00  0.00    -0.354 N 
ATOM     49  N   UNL A   1      44.733  25.847  28.154  1.00  0.00    -0.248 NA
ATOM     50  C   UNL A   1      43.546  24.405  29.550  1.00  0.00     0.031 C 
ATOM     51  C   UNL A   1      45.085  29.585  31.271  1.00  0.00     0.029 A 
ATOM     52  C   UNL A   1      45.083  28.224  30.965  1.00  0.00     0.049 A 
ATOM     53  H   UNL A   1      44.707  26.689  32.347  1.00  0.00     0.167 HD
ATOM     54  C   UNL A   1      44.950  26.249  29.459  1.00  0.00     0.074 A 
ATOM     55  C   UNL A   1      44.305  25.226  30.279  1.00  0.00     0.031 C 
ATOM     56  C   UNL A   1      45.372  27.518  29.732  1.00  0.00     0.031 A 
BRANCH  43  57
ATOM     57  C   UNL A   1      42.549  26.896  34.323  1.00  0.00    -0.014 A 
ATOM     58  C   UNL A   1      41.703  26.856  35.451  1.00  0.00     0.009 A 
ATOM     59  C   UNL A   1      43.192  25.698  33.977  1.00  0.00     0.009 A 
ATOM     60  C   UNL A   1      41.512  25.695  36.199  1.00  0.00     0.001 A 
ATOM     61  C   UNL A   1      42.966  24.519  34.695  1.00  0.00     0.001 A 
ATOM     62  C   UNL A   1      42.128  24.518  35.808  1.00  0.00     0.000 A 
ENDBRANCH  43  57
BRANCH  44  63
ATOM     63  C   UNL A   1      42.413  23.584  26.579  1.00  0.00    -0.014 A 
ATOM     64  C   UNL A   1      41.152  22.979  26.699  1.00  0.00     0.009 A 
ATOM     65  C   UNL A   1      43.487  22.772  26.157  1.00  0.00     0.009 A 
ATOM     66  C   UNL A   1      40.984  21.604  26.481  1.00  0.00     0.001 A 
ATOM     67  C   UNL A   1      43.319  21.395  25.943  1.00  0.00     0.001 A 
ATOM     68  C   UNL A   1      42.072  20.809  26.127  1.00  0.00     0.000 A 
ENDBRANCH  44  63
BRANCH  56  69
ATOM     69  C   UNL A   1      45.966  28.334  28.604  1.00  0.00    -0.014 A 
ATOM     70  C   UNL A   1      45.081  29.063  27.794  1.00  0.00     0.009 A 
ATOM     71  C   UNL A   1      47.324  28.301  28.237  1.00  0.00     0.009 A 
ATOM     72  C   UNL A   1      45.528  29.725  26.648  1.00  0.00     0.001 A 
ATOM     73  C   UNL A   1      47.777  28.990  27.105  1.00  0.00     0.001 A 
ATOM     74  C   UNL A   1      46.876  29.691  26.306  1.00  0.00     0.000 A 
ENDBRANCH  56  69
ENDBRANCH  30  31
ENDBRANCH  23  25
ENDBRANCH  22  23
ENDBRANCH  21  22
ENDBRANCH   1  21
TORSDOF 14
ENDMDL
MODEL 3
REMARK VINA RESULT:      -9.9      4.064      6.294
REMARK SMILES [NH3+][C@H](Cc1cnc2[nH]cccc1-2)C(=O)OCCOC(=O)c1ccc(-c2c3nc(c(-c4ccccc4)c4ccc([nH]4)c(-c4ccccc4)c4nc(c(-c5ccccc5)c5ccc2[nH]5)C=C4)C=C3)cc1
REMARK SMILES IDX 16 1 15 2 13 3 14 4 2 5 1 6 3 10 4 11 5 12 12 13 6 14 7 15
REMARK SMILES IDX 11 16 8 17 10 18 9 19 17 21 18 22 19 23 20 24 21 25 22 26
REMARK SMILES IDX 68 27 23 28 67 29 24 30 25 31 26 32 61 33 27 34 66 35 60 36
REMARK SMILES IDX 62 37 28 38 65 39 59 40 58 41 29 43 51 44 36 45 50 46 37 47
REMARK SMILES IDX 40 48 49 49 63 50 38 51 39 52 48 54 64 55 41 56 30 57 31 58
REMARK SMILES IDX 35 59 32 60 34 61 33 62 52 63 53 64 57 65 54 66 56 67 55 68
REMARK SMILES IDX 42 69 43 70 47 71 44 72 46 73 45 74
REMARK H PARENT 1 7 1 8 1 9 8 20 62 42 40 53
REMARK Flexibility Score: inf
ROOT
ATOM      1  C   UNL A   1      32.161  29.896  26.939  1.00  0.00     0.274 C 
ENDROOT
BRANCH   1   2
ATOM      2  O   UNL A   1      32.305  29.527  25.551  1.00  0.00    -0.458 OA
BRANCH   2   3
ATOM      3  C   UNL A   1      32.618  28.236  25.253  1.00  0.00     0.365 C 
ATOM      4  O   UNL A   1      32.518  27.304  26.042  1.00  0.00    -0.245 OA
BRANCH   3   5
ATOM      5  C   UNL A   1      33.084  28.078  23.781  1.00  0.00     0.296 C 
BRANCH   5   6
ATOM      6  N   UNL A   1      33.551  29.355  23.195  1.00  0.00    -0.346 N 
ATOM      7  H   UNL A   1      33.536  30.083  23.909  1.00  0.00     0.345 HD
ATOM      8  H   UNL A   1      32.937  29.621  22.426  1.00  0.00     0.345 HD
ATOM      9  H   UNL A   1      34.503  29.241  22.846  1.00  0.00     0.345 HD
ENDBRANCH   5   6
BRANCH   5  10
ATOM     10  C   UNL A   1      32.134  27.304  22.854  1.00  0.00     0.115 C 
BRANCH  10  11
ATOM     11  C   UNL A   1      30.678  27.495  23.103  1.00  0.00    -0.012 A 
ATOM     12  C   UNL A   1      29.758  26.691  23.678  1.00  0.00     0.118 A 
ATOM     13  C   UNL A   1      29.924  28.607  22.620  1.00  0.00     0.022 A 
ATOM     14  N   UNL A   1      28.449  27.143  23.632  1.00  0.00    -0.238 NA
ATOM     15  C   UNL A   1      28.517  28.277  22.988  1.00  0.00     0.137 A 
ATOM     16  C   UNL A   1      30.160  29.747  21.957  1.00  0.00     0.014 A 
ATOM     17  N   UNL A   1      27.507  29.125  22.637  1.00  0.00    -0.346 N 
ATOM     18  C   UNL A   1      29.043  30.632  21.620  1.00  0.00     0.018 A 
ATOM     19  C   UNL A   1      27.785  30.289  21.959  1.00  0.00     0.084 A 
ATOM     20  H   UNL A   1      26.578  28.902  22.870  1.00  0.00     0.167 HD
ENDBRANCH  10  11
ENDBRANCH   5  10
ENDBRANCH   3   5
ENDBRANCH   2   3
ENDBRANCH   1   2
BRANCH   1  21
ATOM     21  C   UNL A   1      32.763  31.289  27.151  1.00  0.00     0.275 C 
BRANCH  21  22
ATOM     22  O   UNL A   1      34.185  31.147  27.308  1.00  0.00    -0.458 OA
BRANCH  22  23
ATOM     23  C   UNL A   1      34.748  31.944  28.246  1.00  0.00     0.338 C 
ATOM     24  O   UNL A   1      34.236  32.916  28.787  1.00  0.00    -0.246 OA
BRANCH  23  25
ATOM     25  C   UNL A   1      35.925  31.227  28.788  1.00  0.00     0.060 A 
ATOM     26  C   UNL A   1      37.038  31.911  29.291  1.00  0.00     0.016 A 
ATOM     27  C   UNL A   1      36.002  29.855  28.529  1.00  0.00     0.016 A 
ATOM     28  C   UNL A   1      38.269  31.263  29.356  1.00  0.00     0.010 A 
ATOM     29  C   UNL A   1      37.233  29.215  28.592  1.00  0.00     0.010 A 
ATOM     30  C   UNL A   1      38.388  29.939  28.917  1.00  0.00    -0.014 A 
BRANCH  30  31
ATOM     31  C   UNL A   1      39.664  29.236  29.093  1.00  0.00     0.031 A 
ATOM     32  C   UNL A   1      39.972  29.103  30.529  1.00  0.00     0.074 A 
ATOM     33  C   UNL A   1      40.501  28.685  28.185  1.00  0.00     0.049 A 
ATOM     34  N   UNL A   1      40.791  29.848  31.189  1.00  0.00    -0.248 NA
ATOM     35  C   UNL A   1      39.142  28.216  31.356  1.00  0.00     0.031 C 
ATOM     36  C   UNL A   1      40.331  28.538  26.746  1.00  0.00     0.029 A 
ATOM     37  N   UNL A   1      41.702  28.054  28.396  1.00  0.00    -0.354 N 
ATOM     38  C   UNL A   1      40.731  29.385  32.490  1.00  0.00     0.074 A 
ATOM     39  C   UNL A   1      39.552  28.563  32.576  1.00  0.00     0.031 C 
ATOM     40  C   UNL A   1      41.229  27.648  26.254  1.00  0.00     0.029 A 
ATOM     41  C   UNL A   1      42.172  27.317  27.308  1.00  0.00     0.049 A 
ATOM     42  H   UNL A   1      42.193  28.117  29.246  1.00  0.00     0.167 HD
ATOM     43  C   UNL A   1      41.817  29.460  33.301  1.00  0.00     0.031 A 
ATOM     44  C   UNL A   1      43.279  26.530  27.262  1.00  0.00     0.031 A 
ATOM     45  C   UNL A   1      42.817  30.357  32.774  1.00  0.00     0.049 A 
ATOM     46  C   UNL A   1      44.200  27.015  28.306  1.00  0.00     0.074 A 
ATOM     47  C   UNL A   1      42.860  31.697  32.447  1.00  0.00     0.029 A 
ATOM     48  N   UNL A   1      43.874  29.765  32.129  1.00  0.00    -0.354 N 
ATOM     49  N   UNL A   1      44.829  28.151  28.242  1.00  0.00    -0.248 NA
ATOM     50  C   UNL A   1      44.162  26.388  29.614  1.00  0.00     0.031 C 
ATOM     51  C   UNL A   1      43.714  31.782  31.307  1.00  0.00     0.029 A 
ATOM     52  C   UNL A   1      44.202  30.506  31.025  1.00  0.00     0.049 A 
ATOM     53  H   UNL A   1      44.326  28.939  32.416  1.00  0.00     0.167 HD
ATOM     54  C   UNL A   1      44.834  28.606  29.548  1.00  0.00     0.074 A 
ATOM     55  C   UNL A   1      44.553  27.424  30.359  1.00  0.00     0.031 C 
ATOM     56  C   UNL A   1      44.773  29.943  29.817  1.00  0.00     0.031 A 
BRANCH  43  57
ATOM     57  C   UNL A   1      42.148  28.381  34.299  1.00  0.00    -0.014 A 
ATOM     58  C   UNL A   1      41.718  28.402  35.643  1.00  0.00     0.009 A 
ATOM     59  C   UNL A   1      42.682  27.172  33.829  1.00  0.00     0.009 A 
ATOM     60  C   UNL A   1      41.821  27.288  36.477  1.00  0.00     0.001 A 
ATOM     61  C   UNL A   1      42.742  26.038  34.647  1.00  0.00     0.001 A 
ATOM     62  C   UNL A   1      42.314  26.097  35.971  1.00  0.00     0.000 A 
ENDBRANCH  43  57
BRANCH  44  63
ATOM     63  C   UNL A   1      43.518  25.216  26.614  1.00  0.00    -0.014 A 
ATOM     64  C   UNL A   1      44.448  25.110  25.568  1.00  0.00     0.009 A 
ATOM     65  C   UNL A   1      42.585  24.169  26.766  1.00  0.00     0.009 A 
ATOM     66  C   UNL A   1      44.399  24.040  24.662  1.00  0.00     0.001 A 
ATOM     67  C   UNL A   1      42.535  23.102  25.856  1.00  0.00     0.001 A 
ATOM     68  C   UNL A   1      43.428  23.050  24.792  1.00  0.00     0.000 A 
ENDBRANCH  44  63
BRANCH  56  69
ATOM     69  C   UNL A   1      45.093  30.914  28.699  1.00  0.00    -0.014 A 
ATOM     70  C   UNL A   1      44.055  31.253  27.817  1.00  0.00     0.009 A 
ATOM     71  C   UNL A   1      46.386  31.388  28.412  1.00  0.00     0.009 A 
ATOM     72  C   UNL A   1      44.297  32.025  26.678  1.00  0.00     0.001 A 
ATOM     73  C   UNL A   1      46.623  32.188  27.288  1.00  0.00     0.001 A 
ATOM     74  C   UNL A   1      45.580  32.496  26.416  1.00  0.00     0.000 A 
ENDBRANCH  56  69
ENDBRANCH  30  31
ENDBRANCH  23  25
ENDBRANCH  22  23
ENDBRANCH  21  22
ENDBRANCH   1  21
TORSDOF 14
ENDMDL
