MODEL 1
REMARK VINA RESULT:     -10.3      0.000      0.000
REMARK SMILES CC(C)(C)SCC(=O)N1CC(n2cc(C(=O)OCCOC(=O)c3ccc(-c4c5nc(c(-c6ccccc6)c6ccc([nH]6)c(-c6ccccc6)c6nc(c(-c7ccccc7)c7ccc4[nH]7)C=C6)C=C5)cc3)nn2)C1
REMARK SMILES IDX 18 1 17 2 15 3 16 4 14 5 12 6 13 7 72 8 71 9 11 10 7 11 8 12
REMARK SMILES IDX 9 13 10 14 73 15 6 16 5 17 2 18 1 19 3 20 4 21 19 22 20 23
REMARK SMILES IDX 21 24 22 25 23 26 24 27 70 28 25 29 69 30 26 31 27 32 28 33
REMARK SMILES IDX 63 34 29 35 68 36 62 37 64 38 30 39 67 40 61 41 60 42 31 44
REMARK SMILES IDX 53 45 38 46 52 47 39 48 42 49 51 50 65 51 40 52 41 53 50 55
REMARK SMILES IDX 66 56 43 57 32 58 33 59 37 60 34 61 36 62 35 63 54 64 55 65
REMARK SMILES IDX 59 66 56 67 58 68 57 69 44 70 45 71 49 72 46 73 48 74 47 75
REMARK H PARENT 64 43 42 54
REMARK Flexibility Score: inf
ROOT
ATOM      1  C   UNL A   1      42.328  19.721  26.709  1.00  0.00     0.275 C 
ENDROOT
BRANCH   1   2
ATOM      2  O   UNL A   1      41.450  20.573  25.956  1.00  0.00    -0.457 OA
BRANCH   2   3
ATOM      3  C   UNL A   1      40.174  20.104  25.777  1.00  0.00     0.360 C 
ATOM      4  O   UNL A   1      39.887  18.912  25.690  1.00  0.00    -0.244 OA
BRANCH   3   5
ATOM      5  C   UNL A   1      39.192  21.172  25.748  1.00  0.00     0.190 A 
ATOM      6  N   UNL A   1      37.443  22.399  25.420  1.00  0.00    -0.245 N 
ATOM      7  C   UNL A   1      37.992  21.204  25.066  1.00  0.00     0.147 A 
ATOM      8  N   UNL A   1      38.255  23.095  26.228  1.00  0.00    -0.066 NA
ATOM      9  N   UNL A   1      39.343  22.361  26.424  1.00  0.00    -0.123 NA
BRANCH   6  10
ATOM     10  C   UNL A   1      36.100  22.751  25.102  1.00  0.00     0.148 C 
ATOM     11  C   UNL A   1      33.910  25.080  24.204  1.00  0.00     0.232 C 
ATOM     12  O   UNL A   1      33.386  24.903  23.100  1.00  0.00    -0.274 OA
ATOM     13  N   UNL A   1      35.016  24.372  24.560  1.00  0.00    -0.338 N 
ATOM     14  C   UNL A   1      35.837  23.457  23.768  1.00  0.00     0.148 C 
ATOM     15  C   UNL A   1      35.745  24.100  25.776  1.00  0.00     0.148 C 
BRANCH  11  16
ATOM     16  C   UNL A   1      33.401  26.199  25.099  1.00  0.00     0.170 C 
BRANCH  16  17
ATOM     17  S   UNL A   1      33.579  27.912  24.534  1.00  0.00    -0.146 SA
BRANCH  17  18
ATOM     18  C   UNL A   1      31.845  28.536  24.403  1.00  0.00     0.008 C 
ATOM     19  C   UNL A   1      30.970  27.411  24.988  1.00  0.00     0.022 C 
ATOM     20  C   UNL A   1      31.428  28.778  22.950  1.00  0.00     0.022 C 
ATOM     21  C   UNL A   1      31.648  29.805  25.239  1.00  0.00     0.022 C 
ENDBRANCH  17  18
ENDBRANCH  16  17
ENDBRANCH  11  16
ENDBRANCH   6  10
ENDBRANCH   3   5
ENDBRANCH   2   3
ENDBRANCH   1   2
BRANCH   1  22
ATOM     22  C   UNL A   1      43.290  18.983  25.791  1.00  0.00     0.275 C 
BRANCH  22  23
ATOM     23  O   UNL A   1      43.429  19.642  24.532  1.00  0.00    -0.458 OA
BRANCH  23  24
ATOM     24  C   UNL A   1      44.676  20.080  24.245  1.00  0.00     0.338 C 
ATOM     25  O   UNL A   1      45.622  19.410  23.865  1.00  0.00    -0.246 OA
BRANCH  24  26
ATOM     26  C   UNL A   1      44.812  21.459  24.724  1.00  0.00     0.060 A 
ATOM     27  C   UNL A   1      45.729  21.709  25.750  1.00  0.00     0.016 A 
ATOM     28  C   UNL A   1      43.835  22.399  24.364  1.00  0.00     0.016 A 
ATOM     29  C   UNL A   1      45.565  22.843  26.520  1.00  0.00     0.010 A 
ATOM     30  C   UNL A   1      43.652  23.509  25.149  1.00  0.00     0.010 A 
ATOM     31  C   UNL A   1      44.479  23.688  26.256  1.00  0.00    -0.014 A 
BRANCH  31  32
ATOM     32  C   UNL A   1      44.315  24.889  27.048  1.00  0.00     0.031 A 
ATOM     33  C   UNL A   1      45.415  25.854  26.819  1.00  0.00     0.074 A 
ATOM     34  C   UNL A   1      43.205  25.150  27.766  1.00  0.00     0.049 A 
ATOM     35  N   UNL A   1      46.336  26.201  27.652  1.00  0.00    -0.248 NA
ATOM     36  C   UNL A   1      45.631  26.341  25.443  1.00  0.00     0.031 C 
ATOM     37  C   UNL A   1      41.960  24.379  27.810  1.00  0.00     0.029 A 
ATOM     38  N   UNL A   1      42.913  26.240  28.525  1.00  0.00    -0.354 N 
ATOM     39  C   UNL A   1      47.114  27.130  26.971  1.00  0.00     0.074 A 
ATOM     40  C   UNL A   1      46.782  26.998  25.577  1.00  0.00     0.031 C 
ATOM     41  C   UNL A   1      40.981  25.145  28.348  1.00  0.00     0.029 A 
ATOM     42  C   UNL A   1      41.558  26.402  28.798  1.00  0.00     0.049 A 
ATOM     43  H   UNL A   1      43.601  26.863  28.854  1.00  0.00     0.167 HD
ATOM     44  C   UNL A   1      47.700  28.161  27.638  1.00  0.00     0.031 A 
ATOM     45  C   UNL A   1      40.957  27.516  29.292  1.00  0.00     0.031 A 
ATOM     46  C   UNL A   1      47.767  27.900  29.055  1.00  0.00     0.049 A 
ATOM     47  C   UNL A   1      42.013  28.360  29.898  1.00  0.00     0.074 A 
ATOM     48  C   UNL A   1      48.320  26.910  29.843  1.00  0.00     0.029 A 
ATOM     49  N   UNL A   1      46.839  28.539  29.842  1.00  0.00    -0.354 N 
ATOM     50  N   UNL A   1      42.657  28.032  30.980  1.00  0.00    -0.248 NA
ATOM     51  C   UNL A   1      42.671  29.341  29.050  1.00  0.00     0.031 C 
ATOM     52  C   UNL A   1      47.381  26.710  30.899  1.00  0.00     0.029 A 
ATOM     53  C   UNL A   1      46.349  27.637  30.746  1.00  0.00     0.049 A 
ATOM     54  H   UNL A   1      46.571  29.483  29.767  1.00  0.00     0.167 HD
ATOM     55  C   UNL A   1      43.972  28.386  30.720  1.00  0.00     0.074 A 
ATOM     56  C   UNL A   1      43.903  29.281  29.565  1.00  0.00     0.031 C 
ATOM     57  C   UNL A   1      45.005  27.686  31.275  1.00  0.00     0.031 A 
BRANCH  44  58
ATOM     58  C   UNL A   1      47.709  29.572  27.088  1.00  0.00    -0.014 A 
ATOM     59  C   UNL A   1      48.876  30.338  27.255  1.00  0.00     0.009 A 
ATOM     60  C   UNL A   1      46.546  30.272  26.712  1.00  0.00     0.009 A 
ATOM     61  C   UNL A   1      48.848  31.735  27.158  1.00  0.00     0.001 A 
ATOM     62  C   UNL A   1      46.525  31.660  26.571  1.00  0.00     0.001 A 
ATOM     63  C   UNL A   1      47.670  32.395  26.829  1.00  0.00     0.000 A 
ENDBRANCH  44  58
BRANCH  45  64
ATOM     64  C   UNL A   1      39.601  28.054  29.032  1.00  0.00    -0.014 A 
ATOM     65  C   UNL A   1      38.652  28.142  30.066  1.00  0.00     0.009 A 
ATOM     66  C   UNL A   1      39.329  28.750  27.841  1.00  0.00     0.009 A 
ATOM     67  C   UNL A   1      37.501  28.933  29.929  1.00  0.00     0.001 A 
ATOM     68  C   UNL A   1      38.178  29.537  27.703  1.00  0.00     0.001 A 
ATOM     69  C   UNL A   1      37.273  29.642  28.753  1.00  0.00     0.000 A 
ENDBRANCH  45  64
BRANCH  57  70
ATOM     70  C   UNL A   1      44.684  26.712  32.382  1.00  0.00    -0.014 A 
ATOM     71  C   UNL A   1      44.430  25.345  32.170  1.00  0.00     0.009 A 
ATOM     72  C   UNL A   1      44.779  27.174  33.703  1.00  0.00     0.009 A 
ATOM     73  C   UNL A   1      44.247  24.477  33.252  1.00  0.00     0.001 A 
ATOM     74  C   UNL A   1      44.619  26.304  34.781  1.00  0.00     0.001 A 
ATOM     75  C   UNL A   1      44.346  24.956  34.557  1.00  0.00     0.000 A 
ENDBRANCH  57  70
ENDBRANCH  31  32
ENDBRANCH  24  26
ENDBRANCH  23  24
ENDBRANCH  22  23
ENDBRANCH   1  22
TORSDOF 15
ENDMDL
MODEL 2
REMARK VINA RESULT:     -10.3      5.325     10.229
REMARK SMILES CC(C)(C)SCC(=O)N1CC(n2cc(C(=O)OCCOC(=O)c3ccc(-c4c5nc(c(-c6ccccc6)c6ccc([nH]6)c(-c6ccccc6)c6nc(c(-c7ccccc7)c7ccc4[nH]7)C=C6)C=C5)cc3)nn2)C1
REMARK SMILES IDX 18 1 17 2 15 3 16 4 14 5 12 6 13 7 72 8 71 9 11 10 7 11 8 12
REMARK SMILES IDX 9 13 10 14 73 15 6 16 5 17 2 18 1 19 3 20 4 21 19 22 20 23
REMARK SMILES IDX 21 24 22 25 23 26 24 27 70 28 25 29 69 30 26 31 27 32 28 33
REMARK SMILES IDX 63 34 29 35 68 36 62 37 64 38 30 39 67 40 61 41 60 42 31 44
REMARK SMILES IDX 53 45 38 46 52 47 39 48 42 49 51 50 65 51 40 52 41 53 50 55
REMARK SMILES IDX 66 56 43 57 32 58 33 59 37 60 34 61 36 62 35 63 54 64 55 65
REMARK SMILES IDX 59 66 56 67 58 68 57 69 44 70 45 71 49 72 46 73 48 74 47 75
REMARK H PARENT 64 43 42 54
REMARK Flexibility Score: inf
ROOT
ATOM      1  C   UNL A   1      33.766  35.146  28.714  1.00  0.00     0.275 C 
ENDROOT
BRANCH   1   2
ATOM      2  O   UNL A   1      33.583  33.722  28.703  1.00  0.00    -0.457 OA
BRANCH   2   3
ATOM      3  C   UNL A   1      34.482  33.011  27.952  1.00  0.00     0.360 C 
ATOM      4  O   UNL A   1      35.557  33.461  27.562  1.00  0.00    -0.244 OA
BRANCH   3   5
ATOM      5  C   UNL A   1      34.044  31.650  27.706  1.00  0.00     0.190 A 
ATOM      6  N   UNL A   1      32.907  29.860  27.285  1.00  0.00    -0.245 N 
ATOM      7  C   UNL A   1      32.753  31.191  27.531  1.00  0.00     0.147 A 
ATOM      8  N   UNL A   1      34.194  29.493  27.345  1.00  0.00    -0.066 NA
ATOM      9  N   UNL A   1      34.904  30.579  27.623  1.00  0.00    -0.123 NA
BRANCH   6  10
ATOM     10  C   UNL A   1      31.835  29.033  26.842  1.00  0.00     0.148 C 
ATOM     11  C   UNL A   1      30.568  27.024  24.522  1.00  0.00     0.232 C 
ATOM     12  O   UNL A   1      30.395  25.856  24.884  1.00  0.00    -0.274 OA
ATOM     13  N   UNL A   1      31.335  27.865  25.266  1.00  0.00    -0.338 N 
ATOM     14  C   UNL A   1      32.157  27.589  26.444  1.00  0.00     0.148 C 
ATOM     15  C   UNL A   1      31.572  29.287  25.338  1.00  0.00     0.148 C 
BRANCH  11  16
ATOM     16  C   UNL A   1      30.046  27.468  23.165  1.00  0.00     0.170 C 
BRANCH  16  17
ATOM     17  S   UNL A   1      28.465  28.350  23.090  1.00  0.00    -0.146 SA
BRANCH  17  18
ATOM     18  C   UNL A   1      28.901  30.022  22.432  1.00  0.00     0.008 C 
ATOM     19  C   UNL A   1      30.351  29.887  21.930  1.00  0.00     0.022 C 
ATOM     20  C   UNL A   1      28.857  31.099  23.520  1.00  0.00     0.022 C 
ATOM     21  C   UNL A   1      28.001  30.407  21.255  1.00  0.00     0.022 C 
ENDBRANCH  17  18
ENDBRANCH  16  17
ENDBRANCH  11  16
ENDBRANCH   6  10
ENDBRANCH   3   5
ENDBRANCH   2   3
ENDBRANCH   1   2
BRANCH   1  22
ATOM     22  C   UNL A   1      33.124  35.769  29.944  1.00  0.00     0.275 C 
BRANCH  22  23
ATOM     23  O   UNL A   1      33.986  35.703  31.080  1.00  0.00    -0.458 OA
BRANCH  23  24
ATOM     24  C   UNL A   1      33.656  34.768  32.001  1.00  0.00     0.338 C 
ATOM     25  O   UNL A   1      32.648  34.735  32.687  1.00  0.00    -0.246 OA
BRANCH  24  26
ATOM     26  C   UNL A   1      34.830  33.928  32.260  1.00  0.00     0.060 A 
ATOM     27  C   UNL A   1      36.042  34.565  32.543  1.00  0.00     0.016 A 
ATOM     28  C   UNL A   1      34.772  32.567  31.927  1.00  0.00     0.016 A 
ATOM     29  C   UNL A   1      37.216  33.868  32.339  1.00  0.00     0.010 A 
ATOM     30  C   UNL A   1      35.940  31.884  31.695  1.00  0.00     0.010 A 
ATOM     31  C   UNL A   1      37.149  32.560  31.842  1.00  0.00    -0.014 A 
BRANCH  31  32
ATOM     32  C   UNL A   1      38.377  31.819  31.647  1.00  0.00     0.031 A 
ATOM     33  C   UNL A   1      39.063  31.542  32.930  1.00  0.00     0.074 A 
ATOM     34  C   UNL A   1      38.744  31.305  30.457  1.00  0.00     0.049 A 
ATOM     35  N   UNL A   1      40.180  32.037  33.342  1.00  0.00    -0.248 NA
ATOM     36  C   UNL A   1      38.326  30.779  33.957  1.00  0.00     0.031 C 
ATOM     37  C   UNL A   1      37.978  31.290  29.208  1.00  0.00     0.029 A 
ATOM     38  N   UNL A   1      39.847  30.573  30.143  1.00  0.00    -0.354 N 
ATOM     39  C   UNL A   1      40.398  31.463  34.589  1.00  0.00     0.074 A 
ATOM     40  C   UNL A   1      39.140  30.899  35.004  1.00  0.00     0.031 C 
ATOM     41  C   UNL A   1      38.523  30.384  28.362  1.00  0.00     0.029 A 
ATOM     42  C   UNL A   1      39.740  29.855  28.957  1.00  0.00     0.049 A 
ATOM     43  H   UNL A   1      40.654  30.554  30.707  1.00  0.00     0.167 HD
ATOM     44  C   UNL A   1      41.662  31.192  35.013  1.00  0.00     0.031 A 
ATOM     45  C   UNL A   1      40.556  28.852  28.538  1.00  0.00     0.031 A 
ATOM     46  C   UNL A   1      42.640  31.936  34.259  1.00  0.00     0.049 A 
ATOM     47  C   UNL A   1      41.812  28.946  29.319  1.00  0.00     0.074 A 
ATOM     48  C   UNL A   1      42.875  33.274  34.012  1.00  0.00     0.029 A 
ATOM     49  N   UNL A   1      43.324  31.244  33.288  1.00  0.00    -0.354 N 
ATOM     50  N   UNL A   1      42.668  29.916  29.184  1.00  0.00    -0.248 NA
ATOM     51  C   UNL A   1      41.892  28.210  30.571  1.00  0.00     0.031 C 
ATOM     52  C   UNL A   1      43.302  33.329  32.651  1.00  0.00     0.029 A 
ATOM     53  C   UNL A   1      43.382  32.023  32.166  1.00  0.00     0.049 A 
ATOM     54  H   UNL A   1      43.705  30.341  33.384  1.00  0.00     0.167 HD
ATOM     55  C   UNL A   1      43.057  30.217  30.481  1.00  0.00     0.074 A 
ATOM     56  C   UNL A   1      42.631  29.068  31.281  1.00  0.00     0.031 C 
ATOM     57  C   UNL A   1      43.415  31.489  30.823  1.00  0.00     0.031 A 
BRANCH  44  58
ATOM     58  C   UNL A   1      42.014  29.895  35.712  1.00  0.00    -0.014 A 
ATOM     59  C   UNL A   1      43.120  29.892  36.580  1.00  0.00     0.009 A 
ATOM     60  C   UNL A   1      41.520  28.636  35.319  1.00  0.00     0.009 A 
ATOM     61  C   UNL A   1      43.758  28.699  36.940  1.00  0.00     0.001 A 
ATOM     62  C   UNL A   1      42.127  27.442  35.712  1.00  0.00     0.001 A 
ATOM     63  C   UNL A   1      43.269  27.476  36.494  1.00  0.00     0.000 A 
ENDBRANCH  44  58
BRANCH  45  64
ATOM     64  C   UNL A   1      40.241  27.647  27.735  1.00  0.00    -0.014 A 
ATOM     65  C   UNL A   1      40.964  27.354  26.565  1.00  0.00     0.009 A 
ATOM     66  C   UNL A   1      39.429  26.631  28.268  1.00  0.00     0.009 A 
ATOM     67  C   UNL A   1      40.911  26.080  25.980  1.00  0.00     0.001 A 
ATOM     68  C   UNL A   1      39.373  25.360  27.682  1.00  0.00     0.001 A 
ATOM     69  C   UNL A   1      40.127  25.079  26.549  1.00  0.00     0.000 A 
ENDBRANCH  45  64
BRANCH  57  70
ATOM     70  C   UNL A   1      43.643  32.483  29.711  1.00  0.00    -0.014 A 
ATOM     71  C   UNL A   1      42.690  33.437  29.310  1.00  0.00     0.009 A 
ATOM     72  C   UNL A   1      44.923  32.542  29.143  1.00  0.00     0.009 A 
ATOM     73  C   UNL A   1      43.007  34.400  28.346  1.00  0.00     0.001 A 
ATOM     74  C   UNL A   1      45.246  33.517  28.199  1.00  0.00     0.001 A 
ATOM     75  C   UNL A   1      44.287  34.442  27.794  1.00  0.00     0.000 A 
ENDBRANCH  57  70
ENDBRANCH  31  32
ENDBRANCH  24  26
ENDBRANCH  23  24
ENDBRANCH  22  23
ENDBRANCH   1  22
TORSDOF 15
ENDMDL
MODEL 3
REMARK VINA RESULT:     -10.3      3.444      8.592
REMARK SMILES CC(C)(C)SCC(=O)N1CC(n2cc(C(=O)OCCOC(=O)c3ccc(-c4c5nc(c(-c6ccccc6)c6ccc([nH]6)c(-c6ccccc6)c6nc(c(-c7ccccc7)c7ccc4[nH]7)C=C6)C=C5)cc3)nn2)C1
REMARK SMILES IDX 18 1 17 2 15 3 16 4 14 5 12 6 13 7 72 8 71 9 11 10 7 11 8 12
REMARK SMILES IDX 9 13 10 14 73 15 6 16 5 17 2 18 1 19 3 20 4 21 19 22 20 23
REMARK SMILES IDX 21 24 22 25 23 26 24 27 70 28 25 29 69 30 26 31 27 32 28 33
REMARK SMILES IDX 63 34 29 35 68 36 62 37 64 38 30 39 67 40 61 41 60 42 31 44
REMARK SMILES IDX 53 45 38 46 52 47 39 48 42 49 51 50 65 51 40 52 41 53 50 55
REMARK SMILES IDX 66 56 43 57 32 58 33 59 37 60 34 61 36 62 35 63 54 64 55 65
REMARK SMILES IDX 59 66 56 67 58 68 57 69 44 70 45 71 49 72 46 73 48 74 47 75
REMARK H PARENT 64 43 42 54
REMARK Flexibility Score: inf
ROOT
ATOM      1  C   UNL A   1      33.562  30.039  26.653  1.00  0.00     0.275 C 
ENDROOT
BRANCH   1   2
ATOM      2  O   UNL A   1      32.129  30.130  26.670  1.00  0.00    -0.457 OA
BRANCH   2   3
ATOM      3  C   UNL A   1      31.480  29.507  25.636  1.00  0.00     0.360 C 
ATOM      4  O   UNL A   1      31.050  30.092  24.645  1.00  0.00    -0.244 OA
BRANCH   3   5
ATOM      5  C   UNL A   1      31.398  28.071  25.821  1.00  0.00     0.190 A 
ATOM      6  N   UNL A   1      31.309  25.927  25.555  1.00  0.00    -0.245 N 
ATOM      7  C   UNL A   1      31.305  27.093  24.850  1.00  0.00     0.147 A 
ATOM      8  N   UNL A   1      31.352  26.149  26.875  1.00  0.00    -0.066 NA
ATOM      9  N   UNL A   1      31.387  27.463  27.056  1.00  0.00    -0.123 NA
BRANCH   6  10
ATOM     10  C   UNL A   1      31.435  24.653  24.930  1.00  0.00     0.148 C 
ATOM     11  C   UNL A   1      32.775  21.615  24.918  1.00  0.00     0.232 C 
ATOM     12  O   UNL A   1      31.966  20.690  25.052  1.00  0.00    -0.274 OA
ATOM     13  N   UNL A   1      32.403  22.894  25.191  1.00  0.00    -0.338 N 
ATOM     14  C   UNL A   1      31.164  23.405  25.777  1.00  0.00     0.148 C 
ATOM     15  C   UNL A   1      32.921  24.218  24.938  1.00  0.00     0.148 C 
BRANCH  11  16
ATOM     16  C   UNL A   1      34.225  21.295  24.594  1.00  0.00     0.170 C 
BRANCH  16  17
ATOM     17  S   UNL A   1      35.465  21.461  25.905  1.00  0.00    -0.146 SA
BRANCH  17  18
ATOM     18  C   UNL A   1      36.812  22.470  25.139  1.00  0.00     0.008 C 
ATOM     19  C   UNL A   1      38.100  21.659  25.374  1.00  0.00     0.022 C 
ATOM     20  C   UNL A   1      36.961  23.837  25.813  1.00  0.00     0.022 C 
ATOM     21  C   UNL A   1      36.594  22.632  23.632  1.00  0.00     0.022 C 
ENDBRANCH  17  18
ENDBRANCH  16  17
ENDBRANCH  11  16
ENDBRANCH   6  10
ENDBRANCH   3   5
ENDBRANCH   2   3
ENDBRANCH   1   2
BRANCH   1  22
ATOM     22  C   UNL A   1      34.182  30.997  27.658  1.00  0.00     0.275 C 
BRANCH  22  23
ATOM     23  O   UNL A   1      35.607  30.919  27.652  1.00  0.00    -0.458 OA
BRANCH  23  24
ATOM     24  C   UNL A   1      36.230  31.652  28.604  1.00  0.00     0.338 C 
ATOM     25  O   UNL A   1      36.142  32.856  28.781  1.00  0.00    -0.246 OA
BRANCH  24  26
ATOM     26  C   UNL A   1      37.258  30.822  29.238  1.00  0.00     0.060 A 
ATOM     27  C   UNL A   1      38.548  31.350  29.353  1.00  0.00     0.016 A 
ATOM     28  C   UNL A   1      37.001  29.456  29.429  1.00  0.00     0.016 A 
ATOM     29  C   UNL A   1      39.607  30.477  29.507  1.00  0.00     0.010 A 
ATOM     30  C   UNL A   1      38.056  28.587  29.549  1.00  0.00     0.010 A 
ATOM     31  C   UNL A   1      39.351  29.100  29.524  1.00  0.00    -0.014 A 
BRANCH  31  32
ATOM     32  C   UNL A   1      40.456  28.182  29.705  1.00  0.00     0.031 A 
ATOM     33  C   UNL A   1      40.933  28.164  31.107  1.00  0.00     0.074 A 
ATOM     34  C   UNL A   1      40.872  27.334  28.744  1.00  0.00     0.049 A 
ATOM     35  N   UNL A   1      42.059  28.602  31.555  1.00  0.00    -0.248 NA
ATOM     36  C   UNL A   1      39.966  27.796  32.160  1.00  0.00     0.031 C 
ATOM     37  C   UNL A   1      40.265  27.092  27.432  1.00  0.00     0.029 A 
ATOM     38  N   UNL A   1      41.870  26.411  28.790  1.00  0.00    -0.354 N 
ATOM     39  C   UNL A   1      42.033  28.350  32.922  1.00  0.00     0.074 A 
ATOM     40  C   UNL A   1      40.660  28.079  33.260  1.00  0.00     0.031 C 
ATOM     41  C   UNL A   1      40.750  25.934  26.924  1.00  0.00     0.029 A 
ATOM     42  C   UNL A   1      41.786  25.427  27.810  1.00  0.00     0.049 A 
ATOM     43  H   UNL A   1      42.591  26.436  29.460  1.00  0.00     0.167 HD
ATOM     44  C   UNL A   1      43.177  28.039  33.589  1.00  0.00     0.031 A 
ATOM     45  C   UNL A   1      42.472  24.254  27.775  1.00  0.00     0.031 A 
ATOM     46  C   UNL A   1      44.345  28.429  32.839  1.00  0.00     0.049 A 
ATOM     47  C   UNL A   1      43.625  24.387  28.695  1.00  0.00     0.074 A 
ATOM     48  C   UNL A   1      44.822  29.615  32.317  1.00  0.00     0.029 A 
ATOM     49  N   UNL A   1      45.016  27.427  32.181  1.00  0.00    -0.354 N 
ATOM     50  N   UNL A   1      44.638  25.171  28.465  1.00  0.00    -0.248 NA
ATOM     51  C   UNL A   1      43.437  23.999  30.084  1.00  0.00     0.031 C 
ATOM     52  C   UNL A   1      45.409  29.259  31.066  1.00  0.00     0.029 A 
ATOM     53  C   UNL A   1      45.332  27.872  30.927  1.00  0.00     0.049 A 
ATOM     54  H   UNL A   1      45.231  26.539  32.548  1.00  0.00     0.167 HD
ATOM     55  C   UNL A   1      44.917  25.746  29.696  1.00  0.00     0.074 A 
ATOM     56  C   UNL A   1      44.218  24.910  30.672  1.00  0.00     0.031 C 
ATOM     57  C   UNL A   1      45.434  27.007  29.774  1.00  0.00     0.031 A 
BRANCH  44  58
ATOM     58  C   UNL A   1      43.229  26.936  34.625  1.00  0.00    -0.014 A 
ATOM     59  C   UNL A   1      43.280  25.606  34.172  1.00  0.00     0.009 A 
ATOM     60  C   UNL A   1      42.912  27.125  35.985  1.00  0.00     0.009 A 
ATOM     61  C   UNL A   1      42.925  24.540  35.008  1.00  0.00     0.001 A 
ATOM     62  C   UNL A   1      42.600  26.061  36.832  1.00  0.00     0.001 A 
ATOM     63  C   UNL A   1      42.573  24.770  36.333  1.00  0.00     0.000 A 
ENDBRANCH  44  58
BRANCH  45  64
ATOM     64  C   UNL A   1      42.061  22.933  27.247  1.00  0.00    -0.014 A 
ATOM     65  C   UNL A   1      42.843  22.268  26.286  1.00  0.00     0.009 A 
ATOM     66  C   UNL A   1      41.057  22.189  27.894  1.00  0.00     0.009 A 
ATOM     67  C   UNL A   1      42.658  20.903  26.018  1.00  0.00     0.001 A 
ATOM     68  C   UNL A   1      40.870  20.828  27.623  1.00  0.00     0.001 A 
ATOM     69  C   UNL A   1      41.682  20.181  26.699  1.00  0.00     0.000 A 
ENDBRANCH  45  64
BRANCH  57  70
ATOM     70  C   UNL A   1      45.950  27.640  28.504  1.00  0.00    -0.014 A 
ATOM     71  C   UNL A   1      47.287  27.555  28.077  1.00  0.00     0.009 A 
ATOM     72  C   UNL A   1      45.012  28.226  27.643  1.00  0.00     0.009 A 
ATOM     73  C   UNL A   1      47.673  28.071  26.836  1.00  0.00     0.001 A 
ATOM     74  C   UNL A   1      45.393  28.720  26.396  1.00  0.00     0.001 A 
ATOM     75  C   UNL A   1      46.725  28.650  25.994  1.00  0.00     0.000 A 
ENDBRANCH  57  70
ENDBRANCH  31  32
ENDBRANCH  24  26
ENDBRANCH  23  24
ENDBRANCH  22  23
ENDBRANCH   1  22
TORSDOF 15
ENDMDL
