MODEL 1
REMARK VINA RESULT:      -9.8      0.000      0.000
REMARK SMILES O=C(CCC(=O)N1CCN(S(=O)(=O)c2cccs2)CC1)OCCOC(=O)c1ccc(-c2c3nc(c(-c4ccccc4)c4ccc([nH]4)c(-c4ccccc4)c4nc(c(-c5ccccc5)c5ccc2[nH]5)C=C4)C=C3)cc1
REMARK SMILES IDX 22 1 21 2 2 3 1 4 3 5 4 6 5 7 6 8 7 9 8 10 20 11 9 12 19 13
REMARK SMILES IDX 10 14 11 15 12 16 13 17 14 18 15 19 18 20 16 21 17 22 23 23
REMARK SMILES IDX 24 24 25 25 26 26 27 27 28 28 74 29 29 30 73 31 30 32 31 33
REMARK SMILES IDX 32 34 67 35 33 36 72 37 66 38 68 39 34 40 71 41 65 42 64 43
REMARK SMILES IDX 35 45 57 46 42 47 56 48 43 49 46 50 55 51 69 52 44 53 45 54
REMARK SMILES IDX 54 56 70 57 47 58 36 59 37 60 41 61 38 62 40 63 39 64 58 65
REMARK SMILES IDX 59 66 63 67 60 68 62 69 61 70 48 71 49 72 53 73 50 74 52 75
REMARK SMILES IDX 51 76
REMARK H PARENT 68 44 46 55
REMARK Flexibility Score: inf
ROOT
ATOM      1  C   UNL A   1      34.090  34.587  29.223  1.00  0.00     0.274 C 
ENDROOT
BRANCH   1   2
ATOM      2  O   UNL A   1      32.996  34.807  30.143  1.00  0.00    -0.462 OA
BRANCH   2   3
ATOM      3  C   UNL A   1      32.917  35.800  31.053  1.00  0.00     0.306 C 
ATOM      4  O   UNL A   1      31.902  36.494  31.108  1.00  0.00    -0.252 OA
BRANCH   3   5
ATOM      5  C   UNL A   1      34.014  35.986  32.065  1.00  0.00     0.132 C 
BRANCH   5   6
ATOM      6  C   UNL A   1      33.943  34.910  33.138  1.00  0.00     0.112 C 
BRANCH   6   7
ATOM      7  C   UNL A   1      34.627  33.618  32.730  1.00  0.00     0.223 C 
ATOM      8  O   UNL A   1      33.932  32.643  32.432  1.00  0.00    -0.275 OA
ATOM      9  N   UNL A   1      36.017  33.577  32.682  1.00  0.00    -0.340 N 
ATOM     10  C   UNL A   1      36.618  32.337  32.161  1.00  0.00     0.136 C 
ATOM     11  C   UNL A   1      36.869  34.425  33.528  1.00  0.00     0.136 C 
ATOM     12  C   UNL A   1      38.114  32.449  31.820  1.00  0.00     0.124 C 
ATOM     13  C   UNL A   1      38.351  34.456  33.163  1.00  0.00     0.124 C 
ATOM     14  N   UNL A   1      38.895  33.095  32.925  1.00  0.00    -0.194 NA
BRANCH  14  15
ATOM     15  S   UNL A   1      39.135  32.075  34.275  1.00  0.00     0.252 S 
ATOM     16  O   UNL A   1      39.815  32.836  35.303  1.00  0.00    -0.206 OA
ATOM     17  O   UNL A   1      37.874  31.428  34.561  1.00  0.00    -0.206 OA
BRANCH  15  18
ATOM     18  C   UNL A   1      40.312  30.801  33.874  1.00  0.00     0.135 A 
ATOM     19  C   UNL A   1      41.693  30.791  33.961  1.00  0.00     0.033 A 
ATOM     20  S   UNL A   1      39.709  29.307  33.310  1.00  0.00    -0.131 S 
ATOM     21  C   UNL A   1      42.251  29.529  33.614  1.00  0.00     0.013 A 
ATOM     22  C   UNL A   1      41.279  28.621  33.260  1.00  0.00     0.066 A 
ENDBRANCH  15  18
ENDBRANCH  14  15
ENDBRANCH   6   7
ENDBRANCH   5   6
ENDBRANCH   3   5
ENDBRANCH   2   3
ENDBRANCH   1   2
BRANCH   1  23
ATOM     23  C   UNL A   1      33.905  33.258  28.493  1.00  0.00     0.275 C 
BRANCH  23  24
ATOM     24  O   UNL A   1      34.842  32.288  28.992  1.00  0.00    -0.458 OA
BRANCH  24  25
ATOM     25  C   UNL A   1      34.806  31.076  28.377  1.00  0.00     0.338 C 
ATOM     26  O   UNL A   1      33.930  30.641  27.652  1.00  0.00    -0.246 OA
BRANCH  25  27
ATOM     27  C   UNL A   1      36.122  30.431  28.560  1.00  0.00     0.060 A 
ATOM     28  C   UNL A   1      36.397  29.805  29.783  1.00  0.00     0.016 A 
ATOM     29  C   UNL A   1      37.058  30.400  27.523  1.00  0.00     0.016 A 
ATOM     30  C   UNL A   1      37.608  29.139  29.973  1.00  0.00     0.010 A 
ATOM     31  C   UNL A   1      38.276  29.753  27.721  1.00  0.00     0.010 A 
ATOM     32  C   UNL A   1      38.561  29.133  28.949  1.00  0.00    -0.014 A 
BRANCH  32  33
ATOM     33  C   UNL A   1      39.929  28.622  29.182  1.00  0.00     0.031 A 
ATOM     34  C   UNL A   1      40.976  29.589  29.650  1.00  0.00     0.074 A 
ATOM     35  C   UNL A   1      40.248  27.347  28.898  1.00  0.00     0.049 A 
ATOM     36  N   UNL A   1      42.267  29.421  29.762  1.00  0.00    -0.248 NA
ATOM     37  C   UNL A   1      40.505  30.932  30.031  1.00  0.00     0.031 C 
ATOM     38  C   UNL A   1      39.312  26.311  28.463  1.00  0.00     0.029 A 
ATOM     39  N   UNL A   1      41.469  26.720  28.898  1.00  0.00    -0.354 N 
ATOM     40  C   UNL A   1      42.763  30.638  30.211  1.00  0.00     0.074 A 
ATOM     41  C   UNL A   1      41.640  31.538  30.344  1.00  0.00     0.031 C 
ATOM     42  C   UNL A   1      40.000  25.186  28.203  1.00  0.00     0.029 A 
ATOM     43  C   UNL A   1      41.425  25.435  28.416  1.00  0.00     0.049 A 
ATOM     44  H   UNL A   1      42.297  27.150  29.213  1.00  0.00     0.167 HD
ATOM     45  C   UNL A   1      44.044  30.975  30.481  1.00  0.00     0.031 A 
ATOM     46  C   UNL A   1      42.425  24.577  28.139  1.00  0.00     0.031 A 
ATOM     47  C   UNL A   1      45.162  30.087  30.327  1.00  0.00     0.049 A 
ATOM     48  C   UNL A   1      43.851  25.010  28.368  1.00  0.00     0.074 A 
ATOM     49  C   UNL A   1      46.495  30.323  30.611  1.00  0.00     0.029 A 
ATOM     50  N   UNL A   1      45.076  28.798  29.829  1.00  0.00    -0.354 N 
ATOM     51  N   UNL A   1      44.305  26.142  28.848  1.00  0.00    -0.248 NA
ATOM     52  C   UNL A   1      44.903  24.046  28.008  1.00  0.00     0.031 C 
ATOM     53  C   UNL A   1      47.225  29.192  30.232  1.00  0.00     0.029 A 
ATOM     54  C   UNL A   1      46.338  28.238  29.757  1.00  0.00     0.049 A 
ATOM     55  H   UNL A   1      44.241  28.347  29.565  1.00  0.00     0.167 HD
ATOM     56  C   UNL A   1      45.690  26.019  28.865  1.00  0.00     0.074 A 
ATOM     57  C   UNL A   1      46.001  24.697  28.364  1.00  0.00     0.031 C 
ATOM     58  C   UNL A   1      46.623  26.921  29.256  1.00  0.00     0.031 A 
BRANCH  45  59
ATOM     59  C   UNL A   1      44.309  32.380  30.931  1.00  0.00    -0.014 A 
ATOM     60  C   UNL A   1      44.480  33.419  30.002  1.00  0.00     0.009 A 
ATOM     61  C   UNL A   1      44.344  32.675  32.301  1.00  0.00     0.009 A 
ATOM     62  C   UNL A   1      44.702  34.725  30.443  1.00  0.00     0.001 A 
ATOM     63  C   UNL A   1      44.545  33.985  32.738  1.00  0.00     0.001 A 
ATOM     64  C   UNL A   1      44.728  35.008  31.808  1.00  0.00     0.000 A 
ENDBRANCH  45  59
BRANCH  46  65
ATOM     65  C   UNL A   1      42.136  23.242  27.555  1.00  0.00    -0.014 A 
ATOM     66  C   UNL A   1      42.317  23.005  26.183  1.00  0.00     0.009 A 
ATOM     67  C   UNL A   1      41.621  22.211  28.357  1.00  0.00     0.009 A 
ATOM     68  C   UNL A   1      41.958  21.777  25.623  1.00  0.00     0.001 A 
ATOM     69  C   UNL A   1      41.288  20.975  27.799  1.00  0.00     0.001 A 
ATOM     70  C   UNL A   1      41.445  20.763  26.431  1.00  0.00     0.000 A 
ENDBRANCH  46  65
BRANCH  58  71
ATOM     71  C   UNL A   1      48.062  26.502  29.178  1.00  0.00    -0.014 A 
ATOM     72  C   UNL A   1      48.674  25.819  30.240  1.00  0.00     0.009 A 
ATOM     73  C   UNL A   1      48.795  26.737  28.004  1.00  0.00     0.009 A 
ATOM     74  C   UNL A   1      50.001  25.398  30.135  1.00  0.00     0.001 A 
ATOM     75  C   UNL A   1      50.112  26.293  27.892  1.00  0.00     0.001 A 
ATOM     76  C   UNL A   1      50.716  25.630  28.960  1.00  0.00     0.000 A 
ENDBRANCH  58  71
ENDBRANCH  32  33
ENDBRANCH  25  27
ENDBRANCH  24  25
ENDBRANCH  23  24
ENDBRANCH   1  23
TORSDOF 15
ENDMDL
MODEL 2
REMARK VINA RESULT:      -9.8      4.946     10.296
REMARK SMILES O=C(CCC(=O)N1CCN(S(=O)(=O)c2cccs2)CC1)OCCOC(=O)c1ccc(-c2c3nc(c(-c4ccccc4)c4ccc([nH]4)c(-c4ccccc4)c4nc(c(-c5ccccc5)c5ccc2[nH]5)C=C4)C=C3)cc1
REMARK SMILES IDX 22 1 21 2 2 3 1 4 3 5 4 6 5 7 6 8 7 9 8 10 20 11 9 12 19 13
REMARK SMILES IDX 10 14 11 15 12 16 13 17 14 18 15 19 18 20 16 21 17 22 23 23
REMARK SMILES IDX 24 24 25 25 26 26 27 27 28 28 74 29 29 30 73 31 30 32 31 33
REMARK SMILES IDX 32 34 67 35 33 36 72 37 66 38 68 39 34 40 71 41 65 42 64 43
REMARK SMILES IDX 35 45 57 46 42 47 56 48 43 49 46 50 55 51 69 52 44 53 45 54
REMARK SMILES IDX 54 56 70 57 47 58 36 59 37 60 41 61 38 62 40 63 39 64 58 65
REMARK SMILES IDX 59 66 63 67 60 68 62 69 61 70 48 71 49 72 53 73 50 74 52 75
REMARK SMILES IDX 51 76
REMARK H PARENT 68 44 46 55
REMARK Flexibility Score: inf
ROOT
ATOM      1  C   UNL A   1      36.802  20.857  25.350  1.00  0.00     0.274 C 
ENDROOT
BRANCH   1   2
ATOM      2  O   UNL A   1      35.456  21.168  24.926  1.00  0.00    -0.462 OA
BRANCH   2   3
ATOM      3  C   UNL A   1      34.334  20.975  25.651  1.00  0.00     0.306 C 
ATOM      4  O   UNL A   1      34.290  21.369  26.817  1.00  0.00    -0.252 OA
BRANCH   3   5
ATOM      5  C   UNL A   1      33.111  20.383  25.008  1.00  0.00     0.132 C 
BRANCH   5   6
ATOM      6  C   UNL A   1      31.982  21.401  24.962  1.00  0.00     0.112 C 
BRANCH   6   7
ATOM      7  C   UNL A   1      32.213  22.499  23.940  1.00  0.00     0.223 C 
ATOM      8  O   UNL A   1      32.646  22.195  22.826  1.00  0.00    -0.275 OA
ATOM      9  N   UNL A   1      31.908  23.813  24.281  1.00  0.00    -0.340 N 
ATOM     10  C   UNL A   1      32.036  24.815  23.208  1.00  0.00     0.136 C 
ATOM     11  C   UNL A   1      31.957  24.309  25.664  1.00  0.00     0.136 C 
ATOM     12  C   UNL A   1      31.389  26.174  23.526  1.00  0.00     0.124 C 
ATOM     13  C   UNL A   1      31.337  25.684  25.902  1.00  0.00     0.124 C 
ATOM     14  N   UNL A   1      31.773  26.675  24.885  1.00  0.00    -0.194 NA
BRANCH  14  15
ATOM     15  S   UNL A   1      33.376  27.262  24.967  1.00  0.00     0.252 S 
ATOM     16  O   UNL A   1      34.177  26.294  25.688  1.00  0.00    -0.206 OA
ATOM     17  O   UNL A   1      33.756  27.676  23.635  1.00  0.00    -0.206 OA
BRANCH  15  18
ATOM     18  C   UNL A   1      33.445  28.699  26.015  1.00  0.00     0.135 A 
ATOM     19  C   UNL A   1      34.441  29.147  26.865  1.00  0.00     0.033 A 
ATOM     20  S   UNL A   1      32.111  29.763  25.998  1.00  0.00    -0.131 S 
ATOM     21  C   UNL A   1      34.125  30.399  27.463  1.00  0.00     0.013 A 
ATOM     22  C   UNL A   1      32.891  30.860  27.059  1.00  0.00     0.066 A 
ENDBRANCH  15  18
ENDBRANCH  14  15
ENDBRANCH   6   7
ENDBRANCH   5   6
ENDBRANCH   3   5
ENDBRANCH   2   3
ENDBRANCH   1   2
BRANCH   1  23
ATOM     23  C   UNL A   1      37.749  21.997  24.979  1.00  0.00     0.275 C 
BRANCH  23  24
ATOM     24  O   UNL A   1      38.098  22.748  26.155  1.00  0.00    -0.458 OA
BRANCH  24  25
ATOM     25  C   UNL A   1      39.431  22.876  26.387  1.00  0.00     0.338 C 
ATOM     26  O   UNL A   1      40.318  22.116  26.039  1.00  0.00    -0.246 OA
BRANCH  25  27
ATOM     27  C   UNL A   1      39.669  24.216  26.960  1.00  0.00     0.060 A 
ATOM     28  C   UNL A   1      40.359  25.161  26.190  1.00  0.00     0.016 A 
ATOM     29  C   UNL A   1      39.177  24.556  28.223  1.00  0.00     0.016 A 
ATOM     30  C   UNL A   1      40.555  26.454  26.677  1.00  0.00     0.010 A 
ATOM     31  C   UNL A   1      39.392  25.840  28.718  1.00  0.00     0.010 A 
ATOM     32  C   UNL A   1      40.092  26.789  27.954  1.00  0.00    -0.014 A 
BRANCH  32  33
ATOM     33  C   UNL A   1      40.459  28.074  28.586  1.00  0.00     0.031 A 
ATOM     34  C   UNL A   1      41.802  28.181  29.245  1.00  0.00     0.074 A 
ATOM     35  C   UNL A   1      39.580  29.089  28.648  1.00  0.00     0.049 A 
ATOM     36  N   UNL A   1      42.279  29.133  30.002  1.00  0.00    -0.248 NA
ATOM     37  C   UNL A   1      42.729  27.054  29.033  1.00  0.00     0.031 C 
ATOM     38  C   UNL A   1      38.259  29.111  28.023  1.00  0.00     0.029 A 
ATOM     39  N   UNL A   1      39.662  30.291  29.307  1.00  0.00    -0.354 N 
ATOM     40  C   UNL A   1      43.553  28.716  30.368  1.00  0.00     0.074 A 
ATOM     41  C   UNL A   1      43.773  27.422  29.759  1.00  0.00     0.031 C 
ATOM     42  C   UNL A   1      37.637  30.255  28.360  1.00  0.00     0.029 A 
ATOM     43  C   UNL A   1      38.502  31.025  29.253  1.00  0.00     0.049 A 
ATOM     44  H   UNL A   1      40.472  30.597  29.774  1.00  0.00     0.167 HD
ATOM     45  C   UNL A   1      44.454  29.352  31.149  1.00  0.00     0.031 A 
ATOM     46  C   UNL A   1      38.166  32.164  29.887  1.00  0.00     0.031 A 
ATOM     47  C   UNL A   1      44.226  30.626  31.770  1.00  0.00     0.049 A 
ATOM     48  C   UNL A   1      39.159  32.808  30.821  1.00  0.00     0.074 A 
ATOM     49  C   UNL A   1      45.092  31.372  32.550  1.00  0.00     0.029 A 
ATOM     50  N   UNL A   1      43.037  31.332  31.698  1.00  0.00    -0.354 N 
ATOM     51  N   UNL A   1      40.382  32.436  31.113  1.00  0.00    -0.248 NA
ATOM     52  C   UNL A   1      38.721  34.028  31.517  1.00  0.00     0.031 C 
ATOM     53  C   UNL A   1      44.406  32.506  32.994  1.00  0.00     0.029 A 
ATOM     54  C   UNL A   1      43.131  32.486  32.453  1.00  0.00     0.049 A 
ATOM     55  H   UNL A   1      42.243  31.053  31.186  1.00  0.00     0.167 HD
ATOM     56  C   UNL A   1      40.863  33.382  32.011  1.00  0.00     0.074 A 
ATOM     57  C   UNL A   1      39.808  34.355  32.201  1.00  0.00     0.031 C 
ATOM     58  C   UNL A   1      42.068  33.440  32.627  1.00  0.00     0.031 A 
BRANCH  45  59
ATOM     59  C   UNL A   1      45.757  28.657  31.408  1.00  0.00    -0.014 A 
ATOM     60  C   UNL A   1      46.868  28.866  30.576  1.00  0.00     0.009 A 
ATOM     61  C   UNL A   1      45.885  27.817  32.524  1.00  0.00     0.009 A 
ATOM     62  C   UNL A   1      48.080  28.228  30.850  1.00  0.00     0.001 A 
ATOM     63  C   UNL A   1      47.103  27.197  32.805  1.00  0.00     0.001 A 
ATOM     64  C   UNL A   1      48.198  27.400  31.966  1.00  0.00     0.000 A 
ENDBRANCH  45  59
BRANCH  46  65
ATOM     65  C   UNL A   1      36.810  32.750  29.722  1.00  0.00    -0.014 A 
ATOM     66  C   UNL A   1      35.780  32.438  30.623  1.00  0.00     0.009 A 
ATOM     67  C   UNL A   1      36.523  33.580  28.626  1.00  0.00     0.009 A 
ATOM     68  C   UNL A   1      34.486  32.918  30.412  1.00  0.00     0.001 A 
ATOM     69  C   UNL A   1      35.234  34.080  28.433  1.00  0.00     0.001 A 
ATOM     70  C   UNL A   1      34.214  33.739  29.318  1.00  0.00     0.000 A 
ENDBRANCH  46  65
BRANCH  58  71
ATOM     71  C   UNL A   1      42.319  34.601  33.544  1.00  0.00    -0.014 A 
ATOM     72  C   UNL A   1      42.087  34.494  34.924  1.00  0.00     0.009 A 
ATOM     73  C   UNL A   1      42.852  35.794  33.031  1.00  0.00     0.009 A 
ATOM     74  C   UNL A   1      42.365  35.569  35.770  1.00  0.00     0.001 A 
ATOM     75  C   UNL A   1      43.153  36.857  33.882  1.00  0.00     0.001 A 
ATOM     76  C   UNL A   1      42.904  36.746  35.249  1.00  0.00     0.000 A 
ENDBRANCH  58  71
ENDBRANCH  32  33
ENDBRANCH  25  27
ENDBRANCH  24  25
ENDBRANCH  23  24
ENDBRANCH   1  23
TORSDOF 15
ENDMDL
MODEL 3
REMARK VINA RESULT:      -9.8      4.147      6.706
REMARK SMILES O=C(CCC(=O)N1CCN(S(=O)(=O)c2cccs2)CC1)OCCOC(=O)c1ccc(-c2c3nc(c(-c4ccccc4)c4ccc([nH]4)c(-c4ccccc4)c4nc(c(-c5ccccc5)c5ccc2[nH]5)C=C4)C=C3)cc1
REMARK SMILES IDX 22 1 21 2 2 3 1 4 3 5 4 6 5 7 6 8 7 9 8 10 20 11 9 12 19 13
REMARK SMILES IDX 10 14 11 15 12 16 13 17 14 18 15 19 18 20 16 21 17 22 23 23
REMARK SMILES IDX 24 24 25 25 26 26 27 27 28 28 74 29 29 30 73 31 30 32 31 33
REMARK SMILES IDX 32 34 67 35 33 36 72 37 66 38 68 39 34 40 71 41 65 42 64 43
REMARK SMILES IDX 35 45 57 46 42 47 56 48 43 49 46 50 55 51 69 52 44 53 45 54
REMARK SMILES IDX 54 56 70 57 47 58 36 59 37 60 41 61 38 62 40 63 39 64 58 65
REMARK SMILES IDX 59 66 63 67 60 68 62 69 61 70 48 71 49 72 53 73 50 74 52 75
REMARK SMILES IDX 51 76
REMARK H PARENT 68 44 46 55
REMARK Flexibility Score: inf
ROOT
ATOM      1  C   UNL A   1      31.872  29.827  26.295  1.00  0.00     0.274 C 
ENDROOT
BRANCH   1   2
ATOM      2  O   UNL A   1      31.305  28.818  25.428  1.00  0.00    -0.462 OA
BRANCH   2   3
ATOM      3  C   UNL A   1      30.908  29.005  24.152  1.00  0.00     0.306 C 
ATOM      4  O   UNL A   1      30.158  29.942  23.881  1.00  0.00    -0.252 OA
BRANCH   3   5
ATOM      5  C   UNL A   1      31.466  28.143  23.053  1.00  0.00     0.132 C 
BRANCH   5   6
ATOM      6  C   UNL A   1      30.530  26.982  22.754  1.00  0.00     0.112 C 
BRANCH   6   7
ATOM      7  C   UNL A   1      30.485  25.952  23.868  1.00  0.00     0.223 C 
ATOM      8  O   UNL A   1      29.579  26.015  24.703  1.00  0.00    -0.275 OA
ATOM      9  N   UNL A   1      31.453  24.953  23.902  1.00  0.00    -0.340 N 
ATOM     10  C   UNL A   1      31.284  23.913  24.931  1.00  0.00     0.136 C 
ATOM     11  C   UNL A   1      32.804  25.134  23.353  1.00  0.00     0.136 C 
ATOM     12  C   UNL A   1      32.170  22.671  24.732  1.00  0.00     0.124 C 
ATOM     13  C   UNL A   1      33.647  23.868  23.224  1.00  0.00     0.124 C 
ATOM     14  N   UNL A   1      33.597  23.036  24.454  1.00  0.00    -0.194 NA
BRANCH  14  15
ATOM     15  S   UNL A   1      34.440  23.589  25.834  1.00  0.00     0.252 S 
ATOM     16  O   UNL A   1      34.545  25.031  25.754  1.00  0.00    -0.206 OA
ATOM     17  O   UNL A   1      33.837  22.964  26.991  1.00  0.00    -0.206 OA
BRANCH  15  18
ATOM     18  C   UNL A   1      36.137  23.058  25.763  1.00  0.00     0.135 A 
ATOM     19  C   UNL A   1      37.304  23.725  26.095  1.00  0.00     0.033 A 
ATOM     20  S   UNL A   1      36.454  21.466  25.236  1.00  0.00    -0.131 S 
ATOM     21  C   UNL A   1      38.457  22.901  25.966  1.00  0.00     0.013 A 
ATOM     22  C   UNL A   1      38.135  21.637  25.526  1.00  0.00     0.066 A 
ENDBRANCH  15  18
ENDBRANCH  14  15
ENDBRANCH   6   7
ENDBRANCH   5   6
ENDBRANCH   3   5
ENDBRANCH   2   3
ENDBRANCH   1   2
BRANCH   1  23
ATOM     23  C   UNL A   1      33.388  29.888  26.111  1.00  0.00     0.275 C 
BRANCH  23  24
ATOM     24  O   UNL A   1      34.046  29.533  27.339  1.00  0.00    -0.458 OA
BRANCH  24  25
ATOM     25  C   UNL A   1      34.659  30.558  27.986  1.00  0.00     0.338 C 
ATOM     26  O   UNL A   1      34.156  31.603  28.361  1.00  0.00    -0.246 OA
BRANCH  25  27
ATOM     27  C   UNL A   1      36.018  30.115  28.361  1.00  0.00     0.060 A 
ATOM     28  C   UNL A   1      37.032  30.173  27.396  1.00  0.00     0.016 A 
ATOM     29  C   UNL A   1      36.304  29.694  29.663  1.00  0.00     0.016 A 
ATOM     30  C   UNL A   1      38.338  29.814  27.729  1.00  0.00     0.010 A 
ATOM     31  C   UNL A   1      37.604  29.315  29.989  1.00  0.00     0.010 A 
ATOM     32  C   UNL A   1      38.622  29.361  29.022  1.00  0.00    -0.014 A 
BRANCH  32  33
ATOM     33  C   UNL A   1      39.939  28.778  29.354  1.00  0.00     0.031 A 
ATOM     34  C   UNL A   1      40.969  29.667  29.985  1.00  0.00     0.074 A 
ATOM     35  C   UNL A   1      40.238  27.511  29.018  1.00  0.00     0.049 A 
ATOM     36  N   UNL A   1      42.235  29.437  30.211  1.00  0.00    -0.248 NA
ATOM     37  C   UNL A   1      40.513  31.004  30.407  1.00  0.00     0.031 C 
ATOM     38  C   UNL A   1      39.312  26.546  28.426  1.00  0.00     0.029 A 
ATOM     39  N   UNL A   1      41.429  26.832  29.096  1.00  0.00    -0.354 N 
ATOM     40  C   UNL A   1      42.729  30.600  30.787  1.00  0.00     0.074 A 
ATOM     41  C   UNL A   1      41.632  31.539  30.868  1.00  0.00     0.031 C 
ATOM     42  C   UNL A   1      39.981  25.410  28.160  1.00  0.00     0.029 A 
ATOM     43  C   UNL A   1      41.385  25.583  28.528  1.00  0.00     0.049 A 
ATOM     44  H   UNL A   1      42.236  27.205  29.519  1.00  0.00     0.167 HD
ATOM     45  C   UNL A   1      43.988  30.864  31.202  1.00  0.00     0.031 A 
ATOM     46  C   UNL A   1      42.376  24.701  28.294  1.00  0.00     0.031 A 
ATOM     47  C   UNL A   1      45.082  29.939  31.101  1.00  0.00     0.049 A 
ATOM     48  C   UNL A   1      43.787  25.056  28.689  1.00  0.00     0.074 A 
ATOM     49  C   UNL A   1      46.388  30.098  31.529  1.00  0.00     0.029 A 
ATOM     50  N   UNL A   1      44.998  28.688  30.512  1.00  0.00    -0.354 N 
ATOM     51  N   UNL A   1      44.232  26.135  29.286  1.00  0.00    -0.248 NA
ATOM     52  C   UNL A   1      44.832  24.071  28.371  1.00  0.00     0.031 C 
ATOM     53  C   UNL A   1      47.109  28.962  31.148  1.00  0.00     0.029 A 
ATOM     54  C   UNL A   1      46.240  28.080  30.526  1.00  0.00     0.049 A 
ATOM     55  H   UNL A   1      44.178  28.292  30.138  1.00  0.00     0.167 HD
ATOM     56  C   UNL A   1      45.602  25.951  29.430  1.00  0.00     0.074 A 
ATOM     57  C   UNL A   1      45.913  24.651  28.875  1.00  0.00     0.031 C 
ATOM     58  C   UNL A   1      46.524  26.785  29.969  1.00  0.00     0.031 A 
BRANCH  45  59
ATOM     59  C   UNL A   1      44.258  32.225  31.768  1.00  0.00    -0.014 A 
ATOM     60  C   UNL A   1      44.137  32.476  33.144  1.00  0.00     0.009 A 
ATOM     61  C   UNL A   1      44.682  33.258  30.919  1.00  0.00     0.009 A 
ATOM     62  C   UNL A   1      44.417  33.745  33.654  1.00  0.00     0.001 A 
ATOM     63  C   UNL A   1      44.981  34.519  31.435  1.00  0.00     0.001 A 
ATOM     64  C   UNL A   1      44.844  34.763  32.801  1.00  0.00     0.000 A 
ENDBRANCH  45  59
BRANCH  46  65
ATOM     65  C   UNL A   1      42.097  23.418  27.597  1.00  0.00    -0.014 A 
ATOM     66  C   UNL A   1      41.590  22.316  28.301  1.00  0.00     0.009 A 
ATOM     67  C   UNL A   1      42.393  23.273  26.232  1.00  0.00     0.009 A 
ATOM     68  C   UNL A   1      41.416  21.086  27.661  1.00  0.00     0.001 A 
ATOM     69  C   UNL A   1      42.192  22.050  25.588  1.00  0.00     0.001 A 
ATOM     70  C   UNL A   1      41.715  20.954  26.306  1.00  0.00     0.000 A 
ENDBRANCH  46  65
BRANCH  58  71
ATOM     71  C   UNL A   1      47.947  26.309  30.005  1.00  0.00    -0.014 A 
ATOM     72  C   UNL A   1      48.809  26.527  28.919  1.00  0.00     0.009 A 
ATOM     73  C   UNL A   1      48.448  25.693  31.163  1.00  0.00     0.009 A 
ATOM     74  C   UNL A   1      50.142  26.117  28.985  1.00  0.00     0.001 A 
ATOM     75  C   UNL A   1      49.786  25.308  31.235  1.00  0.00     0.001 A 
ATOM     76  C   UNL A   1      50.630  25.514  30.144  1.00  0.00     0.000 A 
ENDBRANCH  58  71
ENDBRANCH  32  33
ENDBRANCH  25  27
ENDBRANCH  24  25
ENDBRANCH  23  24
ENDBRANCH   1  23
TORSDOF 15
ENDMDL
