MODEL 1
REMARK VINA RESULT:      -8.5      0.000      0.000
REMARK SMILES CCN(C(=O)N(CCOC)CC(=O)OCCOC(=O)c1ccc(-c2c3nc(c(-c4ccccc4)c4ccc([nH]4)c(-c4ccccc4)c4nc(c(-c5ccccc5)c5ccc2[nH]5)C=C4)C=C3)cc1)C1CCCC1
REMARK SMILES IDX 15 1 14 2 12 3 13 4 11 5 6 6 4 7 5 8 3 9 2 10 1 11 68 12
REMARK SMILES IDX 69 13 72 14 70 15 71 16 7 17 8 18 9 19 10 20 16 21 17 22
REMARK SMILES IDX 18 23 19 24 20 25 21 26 67 27 22 28 66 29 23 30 24 31 25 32
REMARK SMILES IDX 60 33 26 34 65 35 59 36 61 37 27 38 64 39 58 40 57 41 28 43
REMARK SMILES IDX 50 44 35 45 49 46 36 47 39 48 48 49 62 50 37 51 38 52 47 54
REMARK SMILES IDX 63 55 40 56 29 57 30 58 34 59 31 60 33 61 32 62 51 63 52 64
REMARK SMILES IDX 56 65 53 66 55 67 54 68 41 69 42 70 46 71 43 72 45 73 44 74
REMARK H PARENT 61 42 39 53
REMARK Flexibility Score: inf
ROOT
ATOM      1  C   UNL A   1      33.552  29.091  25.309  1.00  0.00     0.274 C 
ENDROOT
BRANCH   1   2
ATOM      2  O   UNL A   1      32.664  28.052  24.840  1.00  0.00    -0.461 OA
BRANCH   2   3
ATOM      3  C   UNL A   1      32.882  26.817  25.376  1.00  0.00     0.325 C 
ATOM      4  O   UNL A   1      32.346  26.406  26.404  1.00  0.00    -0.250 OA
BRANCH   3   5
ATOM      5  C   UNL A   1      33.838  25.933  24.568  1.00  0.00     0.244 C 
BRANCH   5   6
ATOM      6  N   UNL A   1      33.280  24.851  23.733  1.00  0.00    -0.311 N 
BRANCH   6   7
ATOM      7  C   UNL A   1      33.794  23.593  23.992  1.00  0.00     0.320 C 
ATOM      8  O   UNL A   1      33.616  22.717  23.135  1.00  0.00    -0.248 OA
BRANCH   7   9
ATOM      9  N   UNL A   1      34.486  23.279  25.149  1.00  0.00    -0.322 N 
BRANCH   9  10
ATOM     10  C   UNL A   1      33.993  23.280  26.526  1.00  0.00     0.118 C 
ATOM     11  C   UNL A   1      32.695  22.488  26.652  1.00  0.00     0.027 C 
ENDBRANCH   9  10
BRANCH   9  12
ATOM     12  C   UNL A   1      35.936  23.003  25.060  1.00  0.00     0.087 C 
ATOM     13  C   UNL A   1      36.853  23.700  26.067  1.00  0.00     0.025 C 
ATOM     14  C   UNL A   1      36.335  21.528  25.149  1.00  0.00     0.025 C 
ATOM     15  C   UNL A   1      38.185  22.993  25.834  1.00  0.00     0.002 C 
ATOM     16  C   UNL A   1      37.829  21.547  25.479  1.00  0.00     0.002 C 
ENDBRANCH   9  12
ENDBRANCH   7   9
ENDBRANCH   6   7
BRANCH   6  17
ATOM     17  C   UNL A   1      32.352  25.343  22.703  1.00  0.00     0.150 C 
BRANCH  17  18
ATOM     18  C   UNL A   1      33.054  26.257  21.687  1.00  0.00     0.181 C 
BRANCH  18  19
ATOM     19  O   UNL A   1      33.310  25.488  20.506  1.00  0.00    -0.383 OA
ATOM     20  C   UNL A   1      32.238  25.513  19.578  1.00  0.00     0.194 C 
ENDBRANCH  18  19
ENDBRANCH  17  18
ENDBRANCH   6  17
ENDBRANCH   5   6
ENDBRANCH   3   5
ENDBRANCH   2   3
ENDBRANCH   1   2
BRANCH   1  21
ATOM     21  C   UNL A   1      33.021  29.731  26.589  1.00  0.00     0.275 C 
BRANCH  21  22
ATOM     22  O   UNL A   1      33.920  29.440  27.667  1.00  0.00    -0.458 OA
BRANCH  22  23
ATOM     23  C   UNL A   1      34.680  30.472  28.099  1.00  0.00     0.338 C 
ATOM     24  O   UNL A   1      34.337  31.642  28.210  1.00  0.00    -0.246 OA
BRANCH  23  25
ATOM     25  C   UNL A   1      36.055  29.993  28.342  1.00  0.00     0.060 A 
ATOM     26  C   UNL A   1      36.428  29.453  29.577  1.00  0.00     0.016 A 
ATOM     27  C   UNL A   1      36.996  30.101  27.321  1.00  0.00     0.016 A 
ATOM     28  C   UNL A   1      37.741  29.058  29.811  1.00  0.00     0.010 A 
ATOM     29  C   UNL A   1      38.291  29.625  27.525  1.00  0.00     0.010 A 
ATOM     30  C   UNL A   1      38.675  29.104  28.773  1.00  0.00    -0.014 A 
BRANCH  30  31
ATOM     31  C   UNL A   1      40.051  28.590  28.963  1.00  0.00     0.031 A 
ATOM     32  C   UNL A   1      41.142  29.522  29.398  1.00  0.00     0.074 A 
ATOM     33  C   UNL A   1      40.327  27.301  28.689  1.00  0.00     0.049 A 
ATOM     34  N   UNL A   1      42.437  29.341  29.386  1.00  0.00    -0.248 NA
ATOM     35  C   UNL A   1      40.720  30.841  29.898  1.00  0.00     0.031 C 
ATOM     36  C   UNL A   1      39.345  26.282  28.310  1.00  0.00     0.029 A 
ATOM     37  N   UNL A   1      41.524  26.630  28.671  1.00  0.00    -0.354 N 
ATOM     38  C   UNL A   1      42.987  30.538  29.827  1.00  0.00     0.074 A 
ATOM     39  C   UNL A   1      41.887  31.438  30.099  1.00  0.00     0.031 C 
ATOM     40  C   UNL A   1      39.976  25.116  28.107  1.00  0.00     0.029 A 
ATOM     41  C   UNL A   1      41.411  25.325  28.258  1.00  0.00     0.049 A 
ATOM     42  H   UNL A   1      42.379  27.044  28.927  1.00  0.00     0.167 HD
ATOM     43  C   UNL A   1      44.295  30.853  29.982  1.00  0.00     0.031 A 
ATOM     44  C   UNL A   1      42.358  24.412  27.977  1.00  0.00     0.031 A 
ATOM     45  C   UNL A   1      45.379  29.943  29.719  1.00  0.00     0.049 A 
ATOM     46  C   UNL A   1      43.801  24.809  28.088  1.00  0.00     0.074 A 
ATOM     47  C   UNL A   1      46.739  30.159  29.852  1.00  0.00     0.029 A 
ATOM     48  N   UNL A   1      45.221  28.640  29.274  1.00  0.00    -0.354 N 
ATOM     49  N   UNL A   1      44.316  25.953  28.469  1.00  0.00    -0.248 NA
ATOM     50  C   UNL A   1      44.794  23.794  27.712  1.00  0.00     0.031 C 
ATOM     51  C   UNL A   1      47.407  28.997  29.444  1.00  0.00     0.029 A 
ATOM     52  C   UNL A   1      46.459  28.044  29.105  1.00  0.00     0.049 A 
ATOM     53  H   UNL A   1      44.355  28.202  29.103  1.00  0.00     0.167 HD
ATOM     54  C   UNL A   1      45.691  25.795  28.387  1.00  0.00     0.074 A 
ATOM     55  C   UNL A   1      45.931  24.437  27.941  1.00  0.00     0.031 C 
ATOM     56  C   UNL A   1      46.670  26.694  28.651  1.00  0.00     0.031 A 
BRANCH  43  57
ATOM     57  C   UNL A   1      44.620  32.256  30.409  1.00  0.00    -0.014 A 
ATOM     58  C   UNL A   1      44.872  32.575  31.751  1.00  0.00     0.009 A 
ATOM     59  C   UNL A   1      44.696  33.273  29.443  1.00  0.00     0.009 A 
ATOM     60  C   UNL A   1      45.160  33.891  32.123  1.00  0.00     0.001 A 
ATOM     61  C   UNL A   1      45.007  34.583  29.814  1.00  0.00     0.001 A 
ATOM     62  C   UNL A   1      45.230  34.892  31.156  1.00  0.00     0.000 A 
ENDBRANCH  43  57
BRANCH  44  63
ATOM     63  C   UNL A   1      41.969  23.057  27.510  1.00  0.00    -0.014 A 
ATOM     64  C   UNL A   1      41.578  22.073  28.429  1.00  0.00     0.009 A 
ATOM     65  C   UNL A   1      41.969  22.746  26.140  1.00  0.00     0.009 A 
ATOM     66  C   UNL A   1      41.209  20.801  27.986  1.00  0.00     0.001 A 
ATOM     67  C   UNL A   1      41.572  21.482  25.699  1.00  0.00     0.001 A 
ATOM     68  C   UNL A   1      41.199  20.509  26.623  1.00  0.00     0.000 A 
ENDBRANCH  44  63
BRANCH  56  69
ATOM     69  C   UNL A   1      48.084  26.222  28.485  1.00  0.00    -0.014 A 
ATOM     70  C   UNL A   1      48.734  26.307  27.244  1.00  0.00     0.009 A 
ATOM     71  C   UNL A   1      48.781  25.710  29.590  1.00  0.00     0.009 A 
ATOM     72  C   UNL A   1      50.050  25.860  27.108  1.00  0.00     0.001 A 
ATOM     73  C   UNL A   1      50.103  25.287  29.456  1.00  0.00     0.001 A 
ATOM     74  C   UNL A   1      50.734  25.355  28.214  1.00  0.00     0.000 A 
ENDBRANCH  56  69
ENDBRANCH  30  31
ENDBRANCH  23  25
ENDBRANCH  22  23
ENDBRANCH  21  22
ENDBRANCH   1  21
TORSDOF 19
ENDMDL
MODEL 2
REMARK VINA RESULT:      -8.5      3.741      6.913
REMARK SMILES CCN(C(=O)N(CCOC)CC(=O)OCCOC(=O)c1ccc(-c2c3nc(c(-c4ccccc4)c4ccc([nH]4)c(-c4ccccc4)c4nc(c(-c5ccccc5)c5ccc2[nH]5)C=C4)C=C3)cc1)C1CCCC1
REMARK SMILES IDX 15 1 14 2 12 3 13 4 11 5 6 6 4 7 5 8 3 9 2 10 1 11 68 12
REMARK SMILES IDX 69 13 72 14 70 15 71 16 7 17 8 18 9 19 10 20 16 21 17 22
REMARK SMILES IDX 18 23 19 24 20 25 21 26 67 27 22 28 66 29 23 30 24 31 25 32
REMARK SMILES IDX 60 33 26 34 65 35 59 36 61 37 27 38 64 39 58 40 57 41 28 43
REMARK SMILES IDX 50 44 35 45 49 46 36 47 39 48 48 49 62 50 37 51 38 52 47 54
REMARK SMILES IDX 63 55 40 56 29 57 30 58 34 59 31 60 33 61 32 62 51 63 52 64
REMARK SMILES IDX 56 65 53 66 55 67 54 68 41 69 42 70 46 71 43 72 45 73 44 74
REMARK H PARENT 61 42 39 53
REMARK Flexibility Score: inf
ROOT
ATOM      1  C   UNL A   1      31.399  28.293  24.911  1.00  0.00     0.274 C 
ENDROOT
BRANCH   1   2
ATOM      2  O   UNL A   1      31.375  27.437  26.074  1.00  0.00    -0.461 OA
BRANCH   2   3
ATOM      3  C   UNL A   1      31.024  26.141  25.833  1.00  0.00     0.325 C 
ATOM      4  O   UNL A   1      29.863  25.748  25.733  1.00  0.00    -0.250 OA
BRANCH   3   5
ATOM      5  C   UNL A   1      32.207  25.185  25.650  1.00  0.00     0.244 C 
BRANCH   5   6
ATOM      6  N   UNL A   1      32.078  24.055  24.708  1.00  0.00    -0.311 N 
BRANCH   6   7
ATOM      7  C   UNL A   1      32.035  22.806  25.300  1.00  0.00     0.320 C 
ATOM      8  O   UNL A   1      30.952  22.436  25.772  1.00  0.00    -0.248 OA
BRANCH   7   9
ATOM      9  N   UNL A   1      33.135  21.969  25.386  1.00  0.00    -0.322 N 
BRANCH   9  10
ATOM     10  C   UNL A   1      34.369  22.173  26.143  1.00  0.00     0.118 C 
ATOM     11  C   UNL A   1      34.082  22.389  27.627  1.00  0.00     0.027 C 
ENDBRANCH   9  10
BRANCH   9  12
ATOM     12  C   UNL A   1      33.171  20.752  24.548  1.00  0.00     0.087 C 
ATOM     13  C   UNL A   1      32.817  19.421  25.214  1.00  0.00     0.025 C 
ATOM     14  C   UNL A   1      32.297  20.787  23.293  1.00  0.00     0.025 C 
ATOM     15  C   UNL A   1      32.718  18.478  24.019  1.00  0.00     0.002 C 
ATOM     16  C   UNL A   1      32.161  19.322  22.870  1.00  0.00     0.002 C 
ENDBRANCH   9  12
ENDBRANCH   7   9
ENDBRANCH   6   7
BRANCH   6  17
ATOM     17  C   UNL A   1      32.125  24.477  23.299  1.00  0.00     0.150 C 
BRANCH  17  18
ATOM     18  C   UNL A   1      33.558  24.461  22.744  1.00  0.00     0.181 C 
BRANCH  18  19
ATOM     19  O   UNL A   1      33.653  25.480  21.742  1.00  0.00    -0.383 OA
ATOM     20  C   UNL A   1      32.406  26.078  21.429  1.00  0.00     0.194 C 
ENDBRANCH  18  19
ENDBRANCH  17  18
ENDBRANCH   6  17
ENDBRANCH   5   6
ENDBRANCH   3   5
ENDBRANCH   2   3
ENDBRANCH   1   2
BRANCH   1  21
ATOM     21  C   UNL A   1      31.556  29.758  25.311  1.00  0.00     0.275 C 
BRANCH  21  22
ATOM     22  O   UNL A   1      32.881  29.968  25.816  1.00  0.00    -0.458 OA
BRANCH  22  23
ATOM     23  C   UNL A   1      33.018  30.960  26.723  1.00  0.00     0.338 C 
ATOM     24  O   UNL A   1      32.262  31.908  26.898  1.00  0.00    -0.246 OA
BRANCH  23  25
ATOM     25  C   UNL A   1      34.297  30.789  27.440  1.00  0.00     0.060 A 
ATOM     26  C   UNL A   1      35.107  31.885  27.754  1.00  0.00     0.016 A 
ATOM     27  C   UNL A   1      34.706  29.504  27.790  1.00  0.00     0.016 A 
ATOM     28  C   UNL A   1      36.335  31.704  28.379  1.00  0.00     0.010 A 
ATOM     29  C   UNL A   1      35.897  29.328  28.494  1.00  0.00     0.010 A 
ATOM     30  C   UNL A   1      36.723  30.426  28.790  1.00  0.00    -0.014 A 
BRANCH  30  31
ATOM     31  C   UNL A   1      37.977  30.219  29.551  1.00  0.00     0.031 A 
ATOM     32  C   UNL A   1      39.082  29.395  28.961  1.00  0.00     0.074 A 
ATOM     33  C   UNL A   1      38.095  30.724  30.795  1.00  0.00     0.049 A 
ATOM     34  N   UNL A   1      40.139  28.892  29.543  1.00  0.00    -0.248 NA
ATOM     35  C   UNL A   1      38.973  29.081  27.526  1.00  0.00     0.031 C 
ATOM     36  C   UNL A   1      37.114  31.585  31.460  1.00  0.00     0.029 A 
ATOM     37  N   UNL A   1      39.088  30.568  31.729  1.00  0.00    -0.354 N 
ATOM     38  C   UNL A   1      40.796  28.162  28.561  1.00  0.00     0.074 A 
ATOM     39  C   UNL A   1      40.018  28.286  27.346  1.00  0.00     0.031 C 
ATOM     40  C   UNL A   1      37.559  31.890  32.688  1.00  0.00     0.029 A 
ATOM     41  C   UNL A   1      38.809  31.180  32.927  1.00  0.00     0.049 A 
ATOM     42  H   UNL A   1      39.918  30.068  31.557  1.00  0.00     0.167 HD
ATOM     43  C   UNL A   1      41.940  27.447  28.671  1.00  0.00     0.031 A 
ATOM     44  C   UNL A   1      39.457  31.129  34.105  1.00  0.00     0.031 A 
ATOM     45  C   UNL A   1      42.710  27.341  29.883  1.00  0.00     0.049 A 
ATOM     46  C   UNL A   1      40.683  30.273  34.221  1.00  0.00     0.074 A 
ATOM     47  C   UNL A   1      43.888  26.650  30.101  1.00  0.00     0.029 A 
ATOM     48  N   UNL A   1      42.375  27.953  31.082  1.00  0.00    -0.354 N 
ATOM     49  N   UNL A   1      41.278  29.553  33.300  1.00  0.00    -0.248 NA
ATOM     50  C   UNL A   1      41.317  30.205  35.544  1.00  0.00     0.031 C 
ATOM     51  C   UNL A   1      44.244  26.809  31.446  1.00  0.00     0.029 A 
ATOM     52  C   UNL A   1      43.312  27.637  32.051  1.00  0.00     0.049 A 
ATOM     53  H   UNL A   1      41.587  28.526  31.224  1.00  0.00     0.167 HD
ATOM     54  C   UNL A   1      42.360  28.955  33.927  1.00  0.00     0.074 A 
ATOM     55  C   UNL A   1      42.352  29.413  35.302  1.00  0.00     0.031 C 
ATOM     56  C   UNL A   1      43.276  28.098  33.415  1.00  0.00     0.031 A 
BRANCH  43  57
ATOM     57  C   UNL A   1      42.397  26.683  27.460  1.00  0.00    -0.014 A 
ATOM     58  C   UNL A   1      43.268  27.253  26.520  1.00  0.00     0.009 A 
ATOM     59  C   UNL A   1      41.961  25.362  27.271  1.00  0.00     0.009 A 
ATOM     60  C   UNL A   1      43.667  26.525  25.395  1.00  0.00     0.001 A 
ATOM     61  C   UNL A   1      42.381  24.629  26.159  1.00  0.00     0.001 A 
ATOM     62  C   UNL A   1      43.226  25.215  25.218  1.00  0.00     0.000 A 
ENDBRANCH  43  57
BRANCH  44  63
ATOM     63  C   UNL A   1      38.922  31.867  35.278  1.00  0.00    -0.014 A 
ATOM     64  C   UNL A   1      38.164  31.201  36.252  1.00  0.00     0.009 A 
ATOM     65  C   UNL A   1      39.182  33.238  35.440  1.00  0.00     0.009 A 
ATOM     66  C   UNL A   1      37.666  31.897  37.356  1.00  0.00     0.001 A 
ATOM     67  C   UNL A   1      38.707  33.924  36.558  1.00  0.00     0.001 A 
ATOM     68  C   UNL A   1      37.943  33.254  37.512  1.00  0.00     0.000 A 
ENDBRANCH  44  63
BRANCH  56  69
ATOM     69  C   UNL A   1      44.354  27.626  34.345  1.00  0.00    -0.014 A 
ATOM     70  C   UNL A   1      45.542  28.356  34.505  1.00  0.00     0.009 A 
ATOM     71  C   UNL A   1      44.167  26.450  35.087  1.00  0.00     0.009 A 
ATOM     72  C   UNL A   1      46.536  27.900  35.373  1.00  0.00     0.001 A 
ATOM     73  C   UNL A   1      45.151  26.010  35.972  1.00  0.00     0.001 A 
ATOM     74  C   UNL A   1      46.338  26.731  36.109  1.00  0.00     0.000 A 
ENDBRANCH  56  69
ENDBRANCH  30  31
ENDBRANCH  23  25
ENDBRANCH  22  23
ENDBRANCH  21  22
ENDBRANCH   1  21
TORSDOF 19
ENDMDL
MODEL 3
REMARK VINA RESULT:      -8.3      3.442      7.570
REMARK SMILES CCN(C(=O)N(CCOC)CC(=O)OCCOC(=O)c1ccc(-c2c3nc(c(-c4ccccc4)c4ccc([nH]4)c(-c4ccccc4)c4nc(c(-c5ccccc5)c5ccc2[nH]5)C=C4)C=C3)cc1)C1CCCC1
REMARK SMILES IDX 15 1 14 2 12 3 13 4 11 5 6 6 4 7 5 8 3 9 2 10 1 11 68 12
REMARK SMILES IDX 69 13 72 14 70 15 71 16 7 17 8 18 9 19 10 20 16 21 17 22
REMARK SMILES IDX 18 23 19 24 20 25 21 26 67 27 22 28 66 29 23 30 24 31 25 32
REMARK SMILES IDX 60 33 26 34 65 35 59 36 61 37 27 38 64 39 58 40 57 41 28 43
REMARK SMILES IDX 50 44 35 45 49 46 36 47 39 48 48 49 62 50 37 51 38 52 47 54
REMARK SMILES IDX 63 55 40 56 29 57 30 58 34 59 31 60 33 61 32 62 51 63 52 64
REMARK SMILES IDX 56 65 53 66 55 67 54 68 41 69 42 70 46 71 43 72 45 73 44 74
REMARK H PARENT 61 42 39 53
REMARK Flexibility Score: inf
ROOT
ATOM      1  C   UNL A   1      32.340  30.752  26.894  1.00  0.00     0.274 C 
ENDROOT
BRANCH   1   2
ATOM      2  O   UNL A   1      31.430  29.673  27.204  1.00  0.00    -0.461 OA
BRANCH   2   3
ATOM      3  C   UNL A   1      31.873  28.427  26.870  1.00  0.00     0.325 C 
ATOM      4  O   UNL A   1      31.676  27.421  27.549  1.00  0.00    -0.250 OA
BRANCH   3   5
ATOM      5  C   UNL A   1      32.619  28.354  25.534  1.00  0.00     0.244 C 
BRANCH   5   6
ATOM      6  N   UNL A   1      31.896  27.890  24.333  1.00  0.00    -0.311 N 
BRANCH   6   7
ATOM      7  C   UNL A   1      31.938  26.523  24.122  1.00  0.00     0.320 C 
ATOM      8  O   UNL A   1      30.990  25.851  24.551  1.00  0.00    -0.248 OA
BRANCH   7   9
ATOM      9  N   UNL A   1      32.977  25.888  23.463  1.00  0.00    -0.322 N 
BRANCH   9  10
ATOM     10  C   UNL A   1      33.449  26.105  22.096  1.00  0.00     0.118 C 
ATOM     11  C   UNL A   1      32.398  25.684  21.072  1.00  0.00     0.027 C 
ENDBRANCH   9  10
BRANCH   9  12
ATOM     12  C   UNL A   1      33.666  24.765  24.135  1.00  0.00     0.087 C 
ATOM     13  C   UNL A   1      34.739  24.017  23.343  1.00  0.00     0.025 C 
ATOM     14  C   UNL A   1      34.348  25.107  25.461  1.00  0.00     0.025 C 
ATOM     15  C   UNL A   1      35.375  23.136  24.414  1.00  0.00     0.002 C 
ATOM     16  C   UNL A   1      35.323  23.953  25.707  1.00  0.00     0.002 C 
ENDBRANCH   9  12
ENDBRANCH   7   9
ENDBRANCH   6   7
BRANCH   6  17
ATOM     17  C   UNL A   1      31.355  28.995  23.528  1.00  0.00     0.150 C 
BRANCH  17  18
ATOM     18  C   UNL A   1      29.838  28.865  23.322  1.00  0.00     0.181 C 
BRANCH  18  19
ATOM     19  O   UNL A   1      29.551  29.176  21.954  1.00  0.00    -0.383 OA
ATOM     20  C   UNL A   1      28.322  29.863  21.781  1.00  0.00     0.194 C 
ENDBRANCH  18  19
ENDBRANCH  17  18
ENDBRANCH   6  17
ENDBRANCH   5   6
ENDBRANCH   3   5
ENDBRANCH   2   3
ENDBRANCH   1   2
BRANCH   1  21
ATOM     21  C   UNL A   1      31.705  32.108  27.191  1.00  0.00     0.275 C 
BRANCH  21  22
ATOM     22  O   UNL A   1      32.687  33.137  27.005  1.00  0.00    -0.458 OA
BRANCH  22  23
ATOM     23  C   UNL A   1      33.038  33.826  28.113  1.00  0.00     0.338 C 
ATOM     24  O   UNL A   1      32.417  34.741  28.640  1.00  0.00    -0.246 OA
BRANCH  23  25
ATOM     25  C   UNL A   1      34.367  33.369  28.567  1.00  0.00     0.060 A 
ATOM     26  C   UNL A   1      35.538  33.813  27.946  1.00  0.00     0.016 A 
ATOM     27  C   UNL A   1      34.444  32.464  29.623  1.00  0.00     0.016 A 
ATOM     28  C   UNL A   1      36.780  33.332  28.346  1.00  0.00     0.010 A 
ATOM     29  C   UNL A   1      35.692  32.047  30.083  1.00  0.00     0.010 A 
ATOM     30  C   UNL A   1      36.870  32.474  29.445  1.00  0.00    -0.014 A 
BRANCH  30  31
ATOM     31  C   UNL A   1      38.187  32.029  29.959  1.00  0.00     0.031 A 
ATOM     32  C   UNL A   1      38.802  30.763  29.441  1.00  0.00     0.074 A 
ATOM     33  C   UNL A   1      38.797  32.735  30.930  1.00  0.00     0.049 A 
ATOM     34  N   UNL A   1      39.806  30.076  29.921  1.00  0.00    -0.248 NA
ATOM     35  C   UNL A   1      38.196  30.185  28.231  1.00  0.00     0.031 C 
ATOM     36  C   UNL A   1      38.328  34.009  31.480  1.00  0.00     0.029 A 
ATOM     37  N   UNL A   1      39.940  32.467  31.641  1.00  0.00    -0.354 N 
ATOM     38  C   UNL A   1      39.920  28.960  29.103  1.00  0.00     0.074 A 
ATOM     39  C   UNL A   1      38.884  29.061  28.097  1.00  0.00     0.031 C 
ATOM     40  C   UNL A   1      39.179  34.417  32.433  1.00  0.00     0.029 A 
ATOM     41  C   UNL A   1      40.203  33.396  32.619  1.00  0.00     0.049 A 
ATOM     42  H   UNL A   1      40.514  31.687  31.468  1.00  0.00     0.167 HD
ATOM     43  C   UNL A   1      40.807  27.941  29.194  1.00  0.00     0.031 A 
ATOM     44  C   UNL A   1      41.129  33.398  33.595  1.00  0.00     0.031 A 
ATOM     45  C   UNL A   1      41.841  27.860  30.193  1.00  0.00     0.049 A 
ATOM     46  C   UNL A   1      42.054  32.224  33.718  1.00  0.00     0.074 A 
ATOM     47  C   UNL A   1      42.797  26.876  30.369  1.00  0.00     0.029 A 
ATOM     48  N   UNL A   1      42.052  28.807  31.183  1.00  0.00    -0.354 N 
ATOM     49  N   UNL A   1      42.133  31.152  32.966  1.00  0.00    -0.248 NA
ATOM     50  C   UNL A   1      43.006  32.249  34.837  1.00  0.00     0.031 C 
ATOM     51  C   UNL A   1      43.561  27.207  31.495  1.00  0.00     0.029 A 
ATOM     52  C   UNL A   1      43.110  28.421  31.988  1.00  0.00     0.049 A 
ATOM     53  H   UNL A   1      41.527  29.632  31.297  1.00  0.00     0.167 HD
ATOM     54  C   UNL A   1      43.147  30.380  33.513  1.00  0.00     0.074 A 
ATOM     55  C   UNL A   1      43.668  31.116  34.647  1.00  0.00     0.031 C 
ATOM     56  C   UNL A   1      43.603  29.167  33.117  1.00  0.00     0.031 A 
BRANCH  43  57
ATOM     57  C   UNL A   1      40.663  26.810  28.215  1.00  0.00    -0.014 A 
ATOM     58  C   UNL A   1      39.872  25.688  28.502  1.00  0.00     0.009 A 
ATOM     59  C   UNL A   1      41.316  26.882  26.975  1.00  0.00     0.009 A 
ATOM     60  C   UNL A   1      39.765  24.644  27.580  1.00  0.00     0.001 A 
ATOM     61  C   UNL A   1      41.188  25.849  26.044  1.00  0.00     0.001 A 
ATOM     62  C   UNL A   1      40.420  24.726  26.352  1.00  0.00     0.000 A 
ENDBRANCH  43  57
BRANCH  44  63
ATOM     63  C   UNL A   1      41.184  34.524  34.563  1.00  0.00    -0.014 A 
ATOM     64  C   UNL A   1      40.446  34.475  35.754  1.00  0.00     0.009 A 
ATOM     65  C   UNL A   1      41.990  35.646  34.309  1.00  0.00     0.009 A 
ATOM     66  C   UNL A   1      40.503  35.533  36.664  1.00  0.00     0.001 A 
ATOM     67  C   UNL A   1      42.066  36.689  35.233  1.00  0.00     0.001 A 
ATOM     68  C   UNL A   1      41.317  36.634  36.407  1.00  0.00     0.000 A 
ENDBRANCH  44  63
BRANCH  56  69
ATOM     69  C   UNL A   1      44.736  28.581  33.906  1.00  0.00    -0.014 A 
ATOM     70  C   UNL A   1      44.494  27.724  34.991  1.00  0.00     0.009 A 
ATOM     71  C   UNL A   1      46.060  28.870  33.543  1.00  0.00     0.009 A 
ATOM     72  C   UNL A   1      45.561  27.189  35.716  1.00  0.00     0.001 A 
ATOM     73  C   UNL A   1      47.124  28.314  34.254  1.00  0.00     0.001 A 
ATOM     74  C   UNL A   1      46.873  27.481  35.344  1.00  0.00     0.000 A 
ENDBRANCH  56  69
ENDBRANCH  30  31
ENDBRANCH  23  25
ENDBRANCH  22  23
ENDBRANCH  21  22
ENDBRANCH   1  21
TORSDOF 19
ENDMDL
