MODEL 1
REMARK VINA RESULT:     -10.6      0.000      0.000
REMARK SMILES C[C@@H]1[NH2+]CC[C@H]1C(=O)N[C@@H]1CCC[C@H](C(=O)OCCOC(=O)c2ccc(-c3c4nc(c(-c5ccccc5)c5ccc([nH]5)c(-c5ccccc5)c5nc(c(-c6ccccc6)c6ccc3[nH]6)C=C5)C=C4)cc2)C1
REMARK SMILES IDX 18 1 17 2 15 3 16 4 14 5 10 6 11 7 71 8 12 9 13 10 9 11 7 12
REMARK SMILES IDX 8 13 6 15 1 16 2 17 3 18 4 19 5 22 19 23 20 24 21 25 22 26
REMARK SMILES IDX 23 27 24 28 70 29 25 30 69 31 26 32 27 33 28 34 63 35 29 36
REMARK SMILES IDX 68 37 62 38 64 39 30 40 67 41 61 42 60 43 31 45 53 46 38 47
REMARK SMILES IDX 52 48 39 49 42 50 51 51 65 52 40 53 41 54 50 56 66 57 43 58
REMARK SMILES IDX 32 59 33 60 37 61 34 62 36 63 35 64 54 65 55 66 59 67 56 68
REMARK SMILES IDX 58 69 57 70 44 71 45 72 49 73 46 74 48 75 47 76
REMARK H PARENT 9 14 3 20 3 21 64 44 42 55
REMARK Flexibility Score: inf
ROOT
ATOM      1  C   UNL A   1      34.008  35.462  28.835  1.00  0.00     0.274 C 
ENDROOT
BRANCH   1   2
ATOM      2  O   UNL A   1      34.093  34.088  28.403  1.00  0.00    -0.462 OA
BRANCH   2   3
ATOM      3  C   UNL A   1      35.326  33.548  28.530  1.00  0.00     0.309 C 
ATOM      4  O   UNL A   1      36.272  34.111  29.077  1.00  0.00    -0.252 OA
BRANCH   3   5
ATOM      5  C   UNL A   1      35.522  32.224  27.824  1.00  0.00     0.101 C 
ATOM      6  C   UNL A   1      34.069  30.196  27.289  1.00  0.00     0.082 C 
ATOM      7  C   UNL A   1      35.324  29.315  27.473  1.00  0.00     0.025 C 
ATOM      8  C   UNL A   1      34.240  31.464  28.084  1.00  0.00     0.040 C 
ATOM      9  C   UNL A   1      36.653  30.075  27.316  1.00  0.00     0.003 C 
ATOM     10  C   UNL A   1      36.717  31.352  28.166  1.00  0.00     0.015 C 
BRANCH   6  11
ATOM     11  N   UNL A   1      32.863  29.466  27.717  1.00  0.00    -0.353 N 
ATOM     12  C   UNL A   1      32.054  28.502  27.202  1.00  0.00     0.229 C 
ATOM     13  O   UNL A   1      31.148  28.132  27.964  1.00  0.00    -0.275 OA
ATOM     14  H   UNL A   1      32.565  29.752  28.611  1.00  0.00     0.163 HD
BRANCH  12  15
ATOM     15  C   UNL A   1      32.130  27.867  25.810  1.00  0.00     0.142 C 
ATOM     16  C   UNL A   1      30.722  29.208  24.138  1.00  0.00     0.076 C 
ATOM     17  C   UNL A   1      32.116  28.826  24.618  1.00  0.00     0.192 C 
ATOM     18  N   UNL A   1      32.817  28.113  23.542  1.00  0.00    -0.343 N 
ATOM     19  C   UNL A   1      33.760  27.174  24.146  1.00  0.00     0.261 C 
ATOM     20  H   UNL A   1      33.322  28.780  22.959  1.00  0.00     0.346 HD
ATOM     21  H   UNL A   1      32.147  27.610  22.961  1.00  0.00     0.346 HD
ATOM     22  C   UNL A   1      33.293  26.913  25.571  1.00  0.00     0.081 C 
ENDBRANCH  12  15
ENDBRANCH   6  11
ENDBRANCH   3   5
ENDBRANCH   2   3
ENDBRANCH   1   2
BRANCH   1  23
ATOM     23  C   UNL A   1      32.762  35.755  29.681  1.00  0.00     0.275 C 
BRANCH  23  24
ATOM     24  O   UNL A   1      33.061  36.399  30.936  1.00  0.00    -0.458 OA
BRANCH  24  25
ATOM     25  C   UNL A   1      32.662  35.715  32.034  1.00  0.00     0.338 C 
ATOM     26  O   UNL A   1      31.521  35.559  32.434  1.00  0.00    -0.246 OA
BRANCH  25  27
ATOM     27  C   UNL A   1      33.803  35.024  32.655  1.00  0.00     0.060 A 
ATOM     28  C   UNL A   1      35.070  35.596  32.512  1.00  0.00     0.016 A 
ATOM     29  C   UNL A   1      33.661  33.762  33.231  1.00  0.00     0.016 A 
ATOM     30  C   UNL A   1      36.207  34.911  32.918  1.00  0.00     0.010 A 
ATOM     31  C   UNL A   1      34.806  33.067  33.637  1.00  0.00     0.010 A 
ATOM     32  C   UNL A   1      36.082  33.630  33.458  1.00  0.00    -0.014 A 
BRANCH  32  33
ATOM     33  C   UNL A   1      37.306  32.847  33.728  1.00  0.00     0.031 A 
ATOM     34  C   UNL A   1      38.042  33.057  35.018  1.00  0.00     0.074 A 
ATOM     35  C   UNL A   1      37.717  31.912  32.855  1.00  0.00     0.049 A 
ATOM     36  N   UNL A   1      39.181  32.547  35.413  1.00  0.00    -0.248 NA
ATOM     37  C   UNL A   1      37.409  33.955  35.997  1.00  0.00     0.031 C 
ATOM     38  C   UNL A   1      37.030  31.553  31.613  1.00  0.00     0.029 A 
ATOM     39  N   UNL A   1      38.813  31.090  32.884  1.00  0.00    -0.354 N 
ATOM     40  C   UNL A   1      39.414  33.082  36.672  1.00  0.00     0.074 A 
ATOM     41  C   UNL A   1      38.303  33.958  36.976  1.00  0.00     0.031 C 
ATOM     42  C   UNL A   1      37.728  30.587  30.994  1.00  0.00     0.029 A 
ATOM     43  C   UNL A   1      38.931  30.297  31.770  1.00  0.00     0.049 A 
ATOM     44  H   UNL A   1      39.455  31.071  33.630  1.00  0.00     0.167 HD
ATOM     45  C   UNL A   1      40.464  32.867  37.498  1.00  0.00     0.031 A 
ATOM     46  C   UNL A   1      39.918  29.462  31.400  1.00  0.00     0.031 A 
ATOM     47  C   UNL A   1      41.570  32.002  37.188  1.00  0.00     0.049 A 
ATOM     48  C   UNL A   1      41.116  29.303  32.293  1.00  0.00     0.074 A 
ATOM     49  C   UNL A   1      42.700  31.738  37.941  1.00  0.00     0.029 A 
ATOM     50  N   UNL A   1      41.678  31.253  36.026  1.00  0.00    -0.354 N 
ATOM     51  N   UNL A   1      41.354  29.854  33.459  1.00  0.00    -0.248 NA
ATOM     52  C   UNL A   1      42.183  28.414  31.815  1.00  0.00     0.031 C 
ATOM     53  C   UNL A   1      43.511  30.857  37.217  1.00  0.00     0.029 A 
ATOM     54  C   UNL A   1      42.863  30.539  36.032  1.00  0.00     0.049 A 
ATOM     55  H   UNL A   1      41.010  31.234  35.303  1.00  0.00     0.167 HD
ATOM     56  C   UNL A   1      42.594  29.373  33.858  1.00  0.00     0.074 A 
ATOM     57  C   UNL A   1      43.048  28.471  32.818  1.00  0.00     0.031 C 
ATOM     58  C   UNL A   1      43.296  29.655  34.982  1.00  0.00     0.031 A 
BRANCH  45  59
ATOM     59  C   UNL A   1      40.484  33.630  38.790  1.00  0.00    -0.014 A 
ATOM     60  C   UNL A   1      41.101  34.887  38.886  1.00  0.00     0.009 A 
ATOM     61  C   UNL A   1      39.876  33.080  39.928  1.00  0.00     0.009 A 
ATOM     62  C   UNL A   1      41.137  35.562  40.108  1.00  0.00     0.001 A 
ATOM     63  C   UNL A   1      39.894  33.767  41.143  1.00  0.00     0.001 A 
ATOM     64  C   UNL A   1      40.532  35.003  41.234  1.00  0.00     0.000 A 
ENDBRANCH  45  59
BRANCH  46  65
ATOM     65  C   UNL A   1      39.836  28.756  30.096  1.00  0.00    -0.014 A 
ATOM     66  C   UNL A   1      40.225  29.393  28.910  1.00  0.00     0.009 A 
ATOM     67  C   UNL A   1      39.375  27.431  30.039  1.00  0.00     0.009 A 
ATOM     68  C   UNL A   1      40.141  28.720  27.689  1.00  0.00     0.001 A 
ATOM     69  C   UNL A   1      39.316  26.753  28.821  1.00  0.00     0.001 A 
ATOM     70  C   UNL A   1      39.693  27.399  27.646  1.00  0.00     0.000 A 
ENDBRANCH  46  65
BRANCH  58  71
ATOM     71  C   UNL A   1      44.618  28.964  35.149  1.00  0.00    -0.014 A 
ATOM     72  C   UNL A   1      45.802  29.544  34.672  1.00  0.00     0.009 A 
ATOM     73  C   UNL A   1      44.680  27.735  35.825  1.00  0.00     0.009 A 
ATOM     74  C   UNL A   1      47.024  28.891  34.844  1.00  0.00     0.001 A 
ATOM     75  C   UNL A   1      45.905  27.096  36.014  1.00  0.00     0.001 A 
ATOM     76  C   UNL A   1      47.074  27.671  35.518  1.00  0.00     0.000 A 
ENDBRANCH  58  71
ENDBRANCH  32  33
ENDBRANCH  25  27
ENDBRANCH  24  25
ENDBRANCH  23  24
ENDBRANCH   1  23
TORSDOF 13
ENDMDL
MODEL 2
REMARK VINA RESULT:     -10.5      7.691     12.791
REMARK SMILES C[C@@H]1[NH2+]CC[C@H]1C(=O)N[C@@H]1CCC[C@H](C(=O)OCCOC(=O)c2ccc(-c3c4nc(c(-c5ccccc5)c5ccc([nH]5)c(-c5ccccc5)c5nc(c(-c6ccccc6)c6ccc3[nH]6)C=C5)C=C4)cc2)C1
REMARK SMILES IDX 18 1 17 2 15 3 16 4 14 5 10 6 11 7 71 8 12 9 13 10 9 11 7 12
REMARK SMILES IDX 8 13 6 15 1 16 2 17 3 18 4 19 5 22 19 23 20 24 21 25 22 26
REMARK SMILES IDX 23 27 24 28 70 29 25 30 69 31 26 32 27 33 28 34 63 35 29 36
REMARK SMILES IDX 68 37 62 38 64 39 30 40 67 41 61 42 60 43 31 45 53 46 38 47
REMARK SMILES IDX 52 48 39 49 42 50 51 51 65 52 40 53 41 54 50 56 66 57 43 58
REMARK SMILES IDX 32 59 33 60 37 61 34 62 36 63 35 64 54 65 55 66 59 67 56 68
REMARK SMILES IDX 58 69 57 70 44 71 45 72 49 73 46 74 48 75 47 76
REMARK H PARENT 9 14 3 20 3 21 64 44 42 55
REMARK Flexibility Score: inf
ROOT
ATOM      1  C   UNL A   1      42.390  19.055  26.767  1.00  0.00     0.274 C 
ENDROOT
BRANCH   1   2
ATOM      2  O   UNL A   1      41.779  20.305  26.389  1.00  0.00    -0.462 OA
BRANCH   2   3
ATOM      3  C   UNL A   1      40.442  20.226  26.195  1.00  0.00     0.309 C 
ATOM      4  O   UNL A   1      39.883  19.291  25.627  1.00  0.00    -0.252 OA
BRANCH   3   5
ATOM      5  C   UNL A   1      39.661  21.454  26.613  1.00  0.00     0.101 C 
ATOM      6  C   UNL A   1      37.562  22.657  25.802  1.00  0.00     0.082 C 
ATOM      7  C   UNL A   1      38.230  23.987  26.214  1.00  0.00     0.025 C 
ATOM      8  C   UNL A   1      38.635  21.638  25.516  1.00  0.00     0.040 C 
ATOM      9  C   UNL A   1      39.352  23.830  27.256  1.00  0.00     0.003 C 
ATOM     10  C   UNL A   1      40.386  22.763  26.867  1.00  0.00     0.015 C 
BRANCH   6  11
ATOM     11  N   UNL A   1      36.702  22.858  24.623  1.00  0.00    -0.353 N 
ATOM     12  C   UNL A   1      35.375  22.782  24.341  1.00  0.00     0.229 C 
ATOM     13  O   UNL A   1      35.077  23.101  23.180  1.00  0.00    -0.275 OA
ATOM     14  H   UNL A   1      37.228  23.117  23.831  1.00  0.00     0.163 HD
BRANCH  12  15
ATOM     15  C   UNL A   1      34.247  22.328  25.275  1.00  0.00     0.142 C 
ATOM     16  C   UNL A   1      33.473  19.963  24.656  1.00  0.00     0.076 C 
ATOM     17  C   UNL A   1      34.223  20.844  25.646  1.00  0.00     0.192 C 
ATOM     18  N   UNL A   1      33.548  20.785  26.950  1.00  0.00    -0.343 N 
ATOM     19  C   UNL A   1      33.762  22.055  27.640  1.00  0.00     0.261 C 
ATOM     20  H   UNL A   1      33.936  20.023  27.505  1.00  0.00     0.346 HD
ATOM     21  H   UNL A   1      32.550  20.621  26.821  1.00  0.00     0.346 HD
ATOM     22  C   UNL A   1      34.113  23.094  26.584  1.00  0.00     0.081 C 
ENDBRANCH  12  15
ENDBRANCH   6  11
ENDBRANCH   3   5
ENDBRANCH   2   3
ENDBRANCH   1   2
BRANCH   1  23
ATOM     23  C   UNL A   1      43.384  18.527  25.724  1.00  0.00     0.275 C 
BRANCH  23  24
ATOM     24  O   UNL A   1      43.535  19.396  24.584  1.00  0.00    -0.458 OA
BRANCH  24  25
ATOM     25  C   UNL A   1      44.816  19.636  24.220  1.00  0.00     0.338 C 
ATOM     26  O   UNL A   1      45.568  18.882  23.625  1.00  0.00    -0.246 OA
BRANCH  25  27
ATOM     27  C   UNL A   1      45.186  21.029  24.513  1.00  0.00     0.060 A 
ATOM     28  C   UNL A   1      45.701  21.316  25.781  1.00  0.00     0.016 A 
ATOM     29  C   UNL A   1      44.890  22.061  23.624  1.00  0.00     0.016 A 
ATOM     30  C   UNL A   1      45.903  22.628  26.183  1.00  0.00     0.010 A 
ATOM     31  C   UNL A   1      45.088  23.386  24.029  1.00  0.00     0.010 A 
ATOM     32  C   UNL A   1      45.572  23.672  25.318  1.00  0.00    -0.014 A 
BRANCH  32  33
ATOM     33  C   UNL A   1      45.633  25.061  25.820  1.00  0.00     0.031 A 
ATOM     34  C   UNL A   1      46.938  25.800  25.778  1.00  0.00     0.074 A 
ATOM     35  C   UNL A   1      44.516  25.674  26.248  1.00  0.00     0.049 A 
ATOM     36  N   UNL A   1      47.232  26.984  26.250  1.00  0.00    -0.248 NA
ATOM     37  C   UNL A   1      48.058  25.118  25.111  1.00  0.00     0.031 C 
ATOM     38  C   UNL A   1      43.175  25.089  26.246  1.00  0.00     0.029 A 
ATOM     39  N   UNL A   1      44.336  26.931  26.765  1.00  0.00    -0.354 N 
ATOM     40  C   UNL A   1      48.576  27.178  25.962  1.00  0.00     0.074 A 
ATOM     41  C   UNL A   1      49.041  25.991  25.278  1.00  0.00     0.031 C 
ATOM     42  C   UNL A   1      42.309  25.985  26.747  1.00  0.00     0.029 A 
ATOM     43  C   UNL A   1      43.043  27.183  27.148  1.00  0.00     0.049 A 
ATOM     44  H   UNL A   1      45.063  27.589  26.853  1.00  0.00     0.167 HD
ATOM     45  C   UNL A   1      49.353  28.249  26.248  1.00  0.00     0.031 A 
ATOM     46  C   UNL A   1      42.519  28.244  27.788  1.00  0.00     0.031 A 
ATOM     47  C   UNL A   1      48.888  29.423  26.935  1.00  0.00     0.049 A 
ATOM     48  C   UNL A   1      43.417  29.385  28.172  1.00  0.00     0.074 A 
ATOM     49  C   UNL A   1      49.601  30.551  27.302  1.00  0.00     0.029 A 
ATOM     50  N   UNL A   1      47.581  29.620  27.353  1.00  0.00    -0.354 N 
ATOM     51  N   UNL A   1      44.700  29.537  27.942  1.00  0.00    -0.248 NA
ATOM     52  C   UNL A   1      42.799  30.494  28.909  1.00  0.00     0.031 C 
ATOM     53  C   UNL A   1      48.731  31.415  27.977  1.00  0.00     0.029 A 
ATOM     54  C   UNL A   1      47.468  30.843  27.990  1.00  0.00     0.049 A 
ATOM     55  H   UNL A   1      46.842  28.983  27.218  1.00  0.00     0.167 HD
ATOM     56  C   UNL A   1      45.040  30.762  28.500  1.00  0.00     0.074 A 
ATOM     57  C   UNL A   1      43.825  31.320  29.061  1.00  0.00     0.031 C 
ATOM     58  C   UNL A   1      46.251  31.371  28.547  1.00  0.00     0.031 A 
BRANCH  45  59
ATOM     59  C   UNL A   1      50.801  28.162  25.864  1.00  0.00    -0.014 A 
ATOM     60  C   UNL A   1      51.764  27.661  26.754  1.00  0.00     0.009 A 
ATOM     61  C   UNL A   1      51.206  28.592  24.591  1.00  0.00     0.009 A 
ATOM     62  C   UNL A   1      53.111  27.624  26.385  1.00  0.00     0.001 A 
ATOM     63  C   UNL A   1      52.550  28.532  24.218  1.00  0.00     0.001 A 
ATOM     64  C   UNL A   1      53.503  28.057  25.119  1.00  0.00     0.000 A 
ENDBRANCH  45  59
BRANCH  46  65
ATOM     65  C   UNL A   1      41.080  28.247  28.151  1.00  0.00    -0.014 A 
ATOM     66  C   UNL A   1      40.137  28.900  27.345  1.00  0.00     0.009 A 
ATOM     67  C   UNL A   1      40.643  27.582  29.309  1.00  0.00     0.009 A 
ATOM     68  C   UNL A   1      38.785  28.897  27.699  1.00  0.00     0.001 A 
ATOM     69  C   UNL A   1      39.289  27.560  29.645  1.00  0.00     0.001 A 
ATOM     70  C   UNL A   1      38.362  28.223  28.844  1.00  0.00     0.000 A 
ENDBRANCH  46  65
BRANCH  58  71
ATOM     71  C   UNL A   1      46.309  32.716  29.211  1.00  0.00    -0.014 A 
ATOM     72  C   UNL A   1      46.604  32.834  30.577  1.00  0.00     0.009 A 
ATOM     73  C   UNL A   1      46.102  33.877  28.451  1.00  0.00     0.009 A 
ATOM     74  C   UNL A   1      46.664  34.093  31.177  1.00  0.00     0.001 A 
ATOM     75  C   UNL A   1      46.184  35.134  29.049  1.00  0.00     0.001 A 
ATOM     76  C   UNL A   1      46.458  35.241  30.412  1.00  0.00     0.000 A 
ENDBRANCH  58  71
ENDBRANCH  32  33
ENDBRANCH  25  27
ENDBRANCH  24  25
ENDBRANCH  23  24
ENDBRANCH   1  23
TORSDOF 13
ENDMDL
MODEL 3
REMARK VINA RESULT:     -10.2      7.050     11.347
REMARK SMILES C[C@@H]1[NH2+]CC[C@H]1C(=O)N[C@@H]1CCC[C@H](C(=O)OCCOC(=O)c2ccc(-c3c4nc(c(-c5ccccc5)c5ccc([nH]5)c(-c5ccccc5)c5nc(c(-c6ccccc6)c6ccc3[nH]6)C=C5)C=C4)cc2)C1
REMARK SMILES IDX 18 1 17 2 15 3 16 4 14 5 10 6 11 7 71 8 12 9 13 10 9 11 7 12
REMARK SMILES IDX 8 13 6 15 1 16 2 17 3 18 4 19 5 22 19 23 20 24 21 25 22 26
REMARK SMILES IDX 23 27 24 28 70 29 25 30 69 31 26 32 27 33 28 34 63 35 29 36
REMARK SMILES IDX 68 37 62 38 64 39 30 40 67 41 61 42 60 43 31 45 53 46 38 47
REMARK SMILES IDX 52 48 39 49 42 50 51 51 65 52 40 53 41 54 50 56 66 57 43 58
REMARK SMILES IDX 32 59 33 60 37 61 34 62 36 63 35 64 54 65 55 66 59 67 56 68
REMARK SMILES IDX 58 69 57 70 44 71 45 72 49 73 46 74 48 75 47 76
REMARK H PARENT 9 14 3 20 3 21 64 44 42 55
REMARK Flexibility Score: inf
ROOT
ATOM      1  C   UNL A   1      38.519  20.327  25.096  1.00  0.00     0.274 C 
ENDROOT
BRANCH   1   2
ATOM      2  O   UNL A   1      38.252  21.733  25.279  1.00  0.00    -0.462 OA
BRANCH   2   3
ATOM      3  C   UNL A   1      37.134  22.166  24.654  1.00  0.00     0.309 C 
ATOM      4  O   UNL A   1      37.060  22.384  23.447  1.00  0.00    -0.252 OA
BRANCH   3   5
ATOM      5  C   UNL A   1      35.977  22.504  25.571  1.00  0.00     0.101 C 
ATOM      6  C   UNL A   1      34.075  21.214  26.679  1.00  0.00     0.082 C 
ATOM      7  C   UNL A   1      33.192  22.469  26.501  1.00  0.00     0.025 C 
ATOM      8  C   UNL A   1      35.163  21.230  25.637  1.00  0.00     0.040 C 
ATOM      9  C   UNL A   1      33.987  23.776  26.328  1.00  0.00     0.003 C 
ATOM     10  C   UNL A   1      35.072  23.678  25.246  1.00  0.00     0.015 C 
BRANCH   6  11
ATOM     11  N   UNL A   1      33.258  19.993  26.566  1.00  0.00    -0.353 N 
ATOM     12  C   UNL A   1      32.823  19.182  25.565  1.00  0.00     0.229 C 
ATOM     13  O   UNL A   1      32.178  18.195  25.948  1.00  0.00    -0.275 OA
ATOM     14  H   UNL A   1      32.947  19.682  27.447  1.00  0.00     0.163 HD
BRANCH  12  15
ATOM     15  C   UNL A   1      33.018  19.375  24.057  1.00  0.00     0.142 C 
ATOM     16  C   UNL A   1      33.591  17.140  22.938  1.00  0.00     0.076 C 
ATOM     17  C   UNL A   1      32.551  18.231  23.156  1.00  0.00     0.192 C 
ATOM     18  N   UNL A   1      32.238  18.861  21.866  1.00  0.00    -0.343 N 
ATOM     19  C   UNL A   1      31.859  20.252  22.109  1.00  0.00     0.261 C 
ATOM     20  H   UNL A   1      31.464  18.368  21.420  1.00  0.00     0.346 HD
ATOM     21  H   UNL A   1      33.049  18.822  21.250  1.00  0.00     0.346 HD
ATOM     22  C   UNL A   1      32.432  20.649  23.463  1.00  0.00     0.081 C 
ENDBRANCH  12  15
ENDBRANCH   6  11
ENDBRANCH   3   5
ENDBRANCH   2   3
ENDBRANCH   1   2
BRANCH   1  23
ATOM     23  C   UNL A   1      39.526  19.765  26.108  1.00  0.00     0.275 C 
BRANCH  23  24
ATOM     24  O   UNL A   1      40.597  19.018  25.495  1.00  0.00    -0.458 OA
BRANCH  24  25
ATOM     25  C   UNL A   1      41.814  19.210  26.056  1.00  0.00     0.338 C 
ATOM     26  O   UNL A   1      42.740  18.418  26.098  1.00  0.00    -0.246 OA
BRANCH  25  27
ATOM     27  C   UNL A   1      41.959  20.600  26.516  1.00  0.00     0.060 A 
ATOM     28  C   UNL A   1      42.211  21.583  25.556  1.00  0.00     0.016 A 
ATOM     29  C   UNL A   1      42.002  20.913  27.874  1.00  0.00     0.016 A 
ATOM     30  C   UNL A   1      42.532  22.878  25.937  1.00  0.00     0.010 A 
ATOM     31  C   UNL A   1      42.331  22.217  28.261  1.00  0.00     0.010 A 
ATOM     32  C   UNL A   1      42.620  23.195  27.293  1.00  0.00    -0.014 A 
BRANCH  32  33
ATOM     33  C   UNL A   1      43.126  24.528  27.683  1.00  0.00     0.031 A 
ATOM     34  C   UNL A   1      42.155  25.580  28.132  1.00  0.00     0.074 A 
ATOM     35  C   UNL A   1      44.448  24.772  27.695  1.00  0.00     0.049 A 
ATOM     36  N   UNL A   1      42.374  26.836  28.426  1.00  0.00    -0.248 NA
ATOM     37  C   UNL A   1      40.752  25.160  28.275  1.00  0.00     0.031 C 
ATOM     38  C   UNL A   1      45.492  23.800  27.370  1.00  0.00     0.029 A 
ATOM     39  N   UNL A   1      45.136  25.918  27.998  1.00  0.00    -0.354 N 
ATOM     40  C   UNL A   1      41.135  27.363  28.763  1.00  0.00     0.074 A 
ATOM     41  C   UNL A   1      40.167  26.294  28.634  1.00  0.00     0.031 C 
ATOM     42  C   UNL A   1      46.690  24.394  27.484  1.00  0.00     0.029 A 
ATOM     43  C   UNL A   1      46.494  25.797  27.841  1.00  0.00     0.049 A 
ATOM     44  H   UNL A   1      44.700  26.748  28.299  1.00  0.00     0.167 HD
ATOM     45  C   UNL A   1      40.831  28.627  29.139  1.00  0.00     0.031 A 
ATOM     46  C   UNL A   1      47.465  26.724  27.934  1.00  0.00     0.031 A 
ATOM     47  C   UNL A   1      41.795  29.687  29.258  1.00  0.00     0.049 A 
ATOM     48  C   UNL A   1      47.094  28.140  28.270  1.00  0.00     0.074 A 
ATOM     49  C   UNL A   1      41.587  31.011  29.602  1.00  0.00     0.029 A 
ATOM     50  N   UNL A   1      43.156  29.537  29.040  1.00  0.00    -0.354 N 
ATOM     51  N   UNL A   1      45.912  28.643  28.535  1.00  0.00    -0.248 NA
ATOM     52  C   UNL A   1      48.190  29.117  28.311  1.00  0.00     0.031 C 
ATOM     53  C   UNL A   1      42.820  31.672  29.556  1.00  0.00     0.029 A 
ATOM     54  C   UNL A   1      43.800  30.748  29.226  1.00  0.00     0.049 A 
ATOM     55  H   UNL A   1      43.598  28.694  28.790  1.00  0.00     0.167 HD
ATOM     56  C   UNL A   1      46.122  29.993  28.782  1.00  0.00     0.074 A 
ATOM     57  C   UNL A   1      47.547  30.225  28.655  1.00  0.00     0.031 C 
ATOM     58  C   UNL A   1      45.217  30.955  29.085  1.00  0.00     0.031 A 
BRANCH  45  59
ATOM     59  C   UNL A   1      39.384  28.934  29.391  1.00  0.00    -0.014 A 
ATOM     60  C   UNL A   1      38.814  28.774  30.664  1.00  0.00     0.009 A 
ATOM     61  C   UNL A   1      38.579  29.389  28.336  1.00  0.00     0.009 A 
ATOM     62  C   UNL A   1      37.457  29.033  30.865  1.00  0.00     0.001 A 
ATOM     63  C   UNL A   1      37.228  29.668  28.546  1.00  0.00     0.001 A 
ATOM     64  C   UNL A   1      36.665  29.481  29.808  1.00  0.00     0.000 A 
ENDBRANCH  45  59
BRANCH  46  65
ATOM     65  C   UNL A   1      48.872  26.347  27.650  1.00  0.00    -0.014 A 
ATOM     66  C   UNL A   1      49.727  25.934  28.681  1.00  0.00     0.009 A 
ATOM     67  C   UNL A   1      49.362  26.389  26.335  1.00  0.00     0.009 A 
ATOM     68  C   UNL A   1      51.049  25.583  28.402  1.00  0.00     0.001 A 
ATOM     69  C   UNL A   1      50.677  26.014  26.056  1.00  0.00     0.001 A 
ATOM     70  C   UNL A   1      51.521  25.618  27.090  1.00  0.00     0.000 A 
ENDBRANCH  46  65
BRANCH  58  71
ATOM     71  C   UNL A   1      45.749  32.339  29.316  1.00  0.00    -0.014 A 
ATOM     72  C   UNL A   1      46.168  32.748  30.591  1.00  0.00     0.009 A 
ATOM     73  C   UNL A   1      45.864  33.230  28.238  1.00  0.00     0.009 A 
ATOM     74  C   UNL A   1      46.669  34.036  30.787  1.00  0.00     0.001 A 
ATOM     75  C   UNL A   1      46.385  34.509  28.433  1.00  0.00     0.001 A 
ATOM     76  C   UNL A   1      46.780  34.913  29.707  1.00  0.00     0.000 A 
ENDBRANCH  58  71
ENDBRANCH  32  33
ENDBRANCH  25  27
ENDBRANCH  24  25
ENDBRANCH  23  24
ENDBRANCH   1  23
TORSDOF 13
ENDMDL
