MODEL 1
REMARK VINA RESULT:     -11.4      0.000      0.000
REMARK SMILES Cc1ccc(C(=O)OCCOC(=O)c2ccc(-c3c4nc(c(-c5ccccc5)c5ccc([nH]5)c(-c5ccccc5)c5nc(c(-c6ccccc6)c6ccc3[nH]6)C=C5)C=C4)cc2)c(Oc2cccc(F)c2C(N)=O)c1
REMARK SMILES IDX 9 1 8 2 6 3 7 4 5 5 1 6 2 7 3 8 74 9 4 10 62 11 63 12 64 13
REMARK SMILES IDX 65 14 70 15 66 16 68 17 67 18 69 19 71 20 72 21 73 22 10 25
REMARK SMILES IDX 11 26 12 27 13 28 14 29 15 30 61 31 16 32 60 33 17 34 18 35
REMARK SMILES IDX 19 36 54 37 20 38 59 39 53 40 55 41 21 42 58 43 52 44 51 45
REMARK SMILES IDX 22 47 44 48 29 49 43 50 30 51 33 52 42 53 56 54 31 55 32 56
REMARK SMILES IDX 41 58 57 59 34 60 23 61 24 62 28 63 25 64 27 65 26 66 45 67
REMARK SMILES IDX 46 68 50 69 47 70 49 71 48 72 35 73 36 74 40 75 37 76 39 77
REMARK SMILES IDX 38 78
REMARK H PARENT 72 23 72 24 55 46 33 57
REMARK Flexibility Score: inf
ROOT
ATOM      1  C   UNL A   1      36.619  23.385  25.011  1.00  0.00     0.275 C 
ENDROOT
BRANCH   1   2
ATOM      2  O   UNL A   1      35.579  24.353  24.766  1.00  0.00    -0.458 OA
BRANCH   2   3
ATOM      3  C   UNL A   1      34.563  23.808  24.037  1.00  0.00     0.342 C 
ATOM      4  O   UNL A   1      34.608  23.686  22.820  1.00  0.00    -0.246 OA
BRANCH   3   5
ATOM      5  C   UNL A   1      33.324  23.501  24.798  1.00  0.00     0.102 A 
ATOM      6  C   UNL A   1      29.720  22.983  27.125  1.00  0.00     0.044 C 
ATOM      7  C   UNL A   1      30.971  23.154  26.313  1.00  0.00    -0.047 A 
ATOM      8  C   UNL A   1      31.453  22.127  25.484  1.00  0.00     0.004 A 
ATOM      9  C   UNL A   1      31.651  24.372  26.349  1.00  0.00     0.051 A 
ATOM     10  C   UNL A   1      32.638  22.287  24.744  1.00  0.00     0.020 A 
ATOM     11  C   UNL A   1      32.821  24.532  25.607  1.00  0.00     0.142 A 
BRANCH  11  12
ATOM     12  O   UNL A   1      33.464  25.740  25.577  1.00  0.00    -0.455 OA
BRANCH  12  13
ATOM     13  C   UNL A   1      32.862  26.850  25.054  1.00  0.00     0.143 A 
ATOM     14  C   UNL A   1      32.901  26.836  23.651  1.00  0.00     0.048 A 
ATOM     15  C   UNL A   1      32.278  27.933  25.722  1.00  0.00     0.117 A 
ATOM     16  C   UNL A   1      32.278  27.830  22.907  1.00  0.00     0.007 A 
ATOM     17  C   UNL A   1      31.625  28.908  24.965  1.00  0.00     0.139 A 
ATOM     18  C   UNL A   1      31.610  28.853  23.570  1.00  0.00     0.040 A 
ATOM     19  F   UNL A   1      31.023  29.950  25.555  1.00  0.00    -0.206 F 
BRANCH  15  20
ATOM     20  C   UNL A   1      32.326  28.154  27.181  1.00  0.00     0.255 C 
ATOM     21  N   UNL A   1      33.438  28.782  27.672  1.00  0.00    -0.365 N 
ATOM     22  O   UNL A   1      31.408  27.819  27.916  1.00  0.00    -0.269 OA
ATOM     23  H   UNL A   1      34.166  29.043  27.062  1.00  0.00     0.159 HD
ATOM     24  H   UNL A   1      33.511  28.972  28.635  1.00  0.00     0.159 HD
ENDBRANCH  15  20
ENDBRANCH  12  13
ENDBRANCH  11  12
ENDBRANCH   3   5
ENDBRANCH   2   3
ENDBRANCH   1   2
BRANCH   1  25
ATOM     25  C   UNL A   1      37.604  23.731  26.133  1.00  0.00     0.275 C 
BRANCH  25  26
ATOM     26  O   UNL A   1      38.881  23.048  26.236  1.00  0.00    -0.458 OA
BRANCH  26  27
ATOM     27  C   UNL A   1      40.035  23.498  26.772  1.00  0.00     0.338 C 
ATOM     28  O   UNL A   1      41.055  22.814  26.792  1.00  0.00    -0.246 OA
BRANCH  27  29
ATOM     29  C   UNL A   1      40.041  24.853  27.336  1.00  0.00     0.060 A 
ATOM     30  C   UNL A   1      40.396  25.925  26.497  1.00  0.00     0.016 A 
ATOM     31  C   UNL A   1      39.600  25.064  28.639  1.00  0.00     0.016 A 
ATOM     32  C   UNL A   1      40.233  27.229  26.933  1.00  0.00     0.010 A 
ATOM     33  C   UNL A   1      39.311  26.345  29.029  1.00  0.00     0.010 A 
ATOM     34  C   UNL A   1      39.689  27.415  28.200  1.00  0.00    -0.014 A 
BRANCH  34  35
ATOM     35  C   UNL A   1      39.874  28.648  28.937  1.00  0.00     0.031 A 
ATOM     36  C   UNL A   1      38.855  29.703  28.920  1.00  0.00     0.074 A 
ATOM     37  C   UNL A   1      40.973  28.530  29.717  1.00  0.00     0.049 A 
ATOM     38  N   UNL A   1      39.080  30.932  29.225  1.00  0.00    -0.248 NA
ATOM     39  C   UNL A   1      37.473  29.491  28.484  1.00  0.00     0.031 C 
ATOM     40  C   UNL A   1      41.435  29.229  30.896  1.00  0.00     0.029 A 
ATOM     41  N   UNL A   1      42.040  27.671  29.416  1.00  0.00    -0.354 N 
ATOM     42  C   UNL A   1      37.845  31.502  29.464  1.00  0.00     0.074 A 
ATOM     43  C   UNL A   1      36.898  30.660  28.787  1.00  0.00     0.031 C 
ATOM     44  C   UNL A   1      42.764  29.009  31.026  1.00  0.00     0.029 A 
ATOM     45  C   UNL A   1      43.212  28.270  29.843  1.00  0.00     0.049 A 
ATOM     46  H   UNL A   1      41.967  26.792  28.977  1.00  0.00     0.167 HD
ATOM     47  C   UNL A   1      37.748  32.446  30.443  1.00  0.00     0.031 A 
ATOM     48  C   UNL A   1      44.033  28.756  28.862  1.00  0.00     0.031 A 
ATOM     49  C   UNL A   1      39.078  32.718  30.985  1.00  0.00     0.049 A 
ATOM     50  C   UNL A   1      43.997  30.266  28.891  1.00  0.00     0.074 A 
ATOM     51  C   UNL A   1      39.725  32.226  32.107  1.00  0.00     0.029 A 
ATOM     52  N   UNL A   1      40.064  33.210  30.139  1.00  0.00    -0.354 N 
ATOM     53  N   UNL A   1      42.932  30.978  29.157  1.00  0.00    -0.248 NA
ATOM     54  C   UNL A   1      45.204  31.070  28.752  1.00  0.00     0.031 C 
ATOM     55  C   UNL A   1      41.124  32.326  31.872  1.00  0.00     0.029 A 
ATOM     56  C   UNL A   1      41.317  32.862  30.609  1.00  0.00     0.049 A 
ATOM     57  H   UNL A   1      39.896  33.732  29.321  1.00  0.00     0.167 HD
ATOM     58  C   UNL A   1      43.317  32.276  29.370  1.00  0.00     0.074 A 
ATOM     59  C   UNL A   1      44.736  32.293  29.050  1.00  0.00     0.031 C 
ATOM     60  C   UNL A   1      42.503  33.252  29.867  1.00  0.00     0.031 A 
BRANCH  47  61
ATOM     61  C   UNL A   1      36.471  32.823  31.162  1.00  0.00    -0.014 A 
ATOM     62  C   UNL A   1      35.599  33.746  30.550  1.00  0.00     0.009 A 
ATOM     63  C   UNL A   1      36.081  32.363  32.431  1.00  0.00     0.009 A 
ATOM     64  C   UNL A   1      34.449  34.233  31.185  1.00  0.00     0.001 A 
ATOM     65  C   UNL A   1      34.935  32.856  33.080  1.00  0.00     0.001 A 
ATOM     66  C   UNL A   1      34.122  33.796  32.460  1.00  0.00     0.000 A 
ENDBRANCH  47  61
BRANCH  48  67
ATOM     67  C   UNL A   1      44.099  27.905  27.617  1.00  0.00    -0.014 A 
ATOM     68  C   UNL A   1      44.355  26.518  27.759  1.00  0.00     0.009 A 
ATOM     69  C   UNL A   1      43.680  28.353  26.357  1.00  0.00     0.009 A 
ATOM     70  C   UNL A   1      44.102  25.608  26.723  1.00  0.00     0.001 A 
ATOM     71  C   UNL A   1      43.455  27.440  25.306  1.00  0.00     0.001 A 
ATOM     72  C   UNL A   1      43.640  26.070  25.497  1.00  0.00     0.000 A 
ENDBRANCH  48  67
BRANCH  60  73
ATOM     73  C   UNL A   1      42.794  34.723  29.772  1.00  0.00    -0.014 A 
ATOM     74  C   UNL A   1      43.516  35.424  30.744  1.00  0.00     0.009 A 
ATOM     75  C   UNL A   1      42.505  35.405  28.569  1.00  0.00     0.009 A 
ATOM     76  C   UNL A   1      43.880  36.757  30.548  1.00  0.00     0.001 A 
ATOM     77  C   UNL A   1      42.927  36.712  28.342  1.00  0.00     0.001 A 
ATOM     78  C   UNL A   1      43.600  37.395  29.343  1.00  0.00     0.000 A 
ENDBRANCH  60  73
ENDBRANCH  34  35
ENDBRANCH  27  29
ENDBRANCH  26  27
ENDBRANCH  25  26
ENDBRANCH   1  25
TORSDOF 14
ENDMDL
MODEL 2
REMARK VINA RESULT:     -11.3      3.003      7.995
REMARK SMILES Cc1ccc(C(=O)OCCOC(=O)c2ccc(-c3c4nc(c(-c5ccccc5)c5ccc([nH]5)c(-c5ccccc5)c5nc(c(-c6ccccc6)c6ccc3[nH]6)C=C5)C=C4)cc2)c(Oc2cccc(F)c2C(N)=O)c1
REMARK SMILES IDX 9 1 8 2 6 3 7 4 5 5 1 6 2 7 3 8 74 9 4 10 62 11 63 12 64 13
REMARK SMILES IDX 65 14 70 15 66 16 68 17 67 18 69 19 71 20 72 21 73 22 10 25
REMARK SMILES IDX 11 26 12 27 13 28 14 29 15 30 61 31 16 32 60 33 17 34 18 35
REMARK SMILES IDX 19 36 54 37 20 38 59 39 53 40 55 41 21 42 58 43 52 44 51 45
REMARK SMILES IDX 22 47 44 48 29 49 43 50 30 51 33 52 42 53 56 54 31 55 32 56
REMARK SMILES IDX 41 58 57 59 34 60 23 61 24 62 28 63 25 64 27 65 26 66 45 67
REMARK SMILES IDX 46 68 50 69 47 70 49 71 48 72 35 73 36 74 40 75 37 76 39 77
REMARK SMILES IDX 38 78
REMARK H PARENT 72 23 72 24 55 46 33 57
REMARK Flexibility Score: inf
ROOT
ATOM      1  C   UNL A   1      32.890  29.313  25.919  1.00  0.00     0.275 C 
ENDROOT
BRANCH   1   2
ATOM      2  O   UNL A   1      31.548  28.966  26.317  1.00  0.00    -0.458 OA
BRANCH   2   3
ATOM      3  C   UNL A   1      31.296  27.644  26.094  1.00  0.00     0.342 C 
ATOM      4  O   UNL A   1      31.005  26.861  26.990  1.00  0.00    -0.246 OA
BRANCH   3   5
ATOM      5  C   UNL A   1      31.539  27.171  24.706  1.00  0.00     0.102 A 
ATOM      6  C   UNL A   1      32.522  25.562  20.818  1.00  0.00     0.044 C 
ATOM      7  C   UNL A   1      32.173  26.126  22.165  1.00  0.00    -0.047 A 
ATOM      8  C   UNL A   1      31.079  26.991  22.336  1.00  0.00     0.004 A 
ATOM      9  C   UNL A   1      32.924  25.754  23.281  1.00  0.00     0.051 A 
ATOM     10  C   UNL A   1      30.773  27.533  23.597  1.00  0.00     0.020 A 
ATOM     11  C   UNL A   1      32.613  26.284  24.532  1.00  0.00     0.142 A 
BRANCH  11  12
ATOM     12  O   UNL A   1      33.295  25.879  25.647  1.00  0.00    -0.455 OA
BRANCH  12  13
ATOM     13  C   UNL A   1      33.767  24.601  25.764  1.00  0.00     0.143 A 
ATOM     14  C   UNL A   1      35.107  24.517  25.355  1.00  0.00     0.048 A 
ATOM     15  C   UNL A   1      33.096  23.449  26.189  1.00  0.00     0.117 A 
ATOM     16  C   UNL A   1      35.815  23.327  25.462  1.00  0.00     0.007 A 
ATOM     17  C   UNL A   1      33.827  22.267  26.326  1.00  0.00     0.139 A 
ATOM     18  C   UNL A   1      35.178  22.205  25.980  1.00  0.00     0.040 A 
ATOM     19  F   UNL A   1      33.242  21.142  26.759  1.00  0.00    -0.206 F 
BRANCH  15  20
ATOM     20  C   UNL A   1      31.651  23.368  26.476  1.00  0.00     0.255 C 
ATOM     21  N   UNL A   1      30.818  23.201  25.403  1.00  0.00    -0.365 N 
ATOM     22  O   UNL A   1      31.215  23.420  27.617  1.00  0.00    -0.269 OA
ATOM     23  H   UNL A   1      31.191  23.161  24.493  1.00  0.00     0.159 HD
ATOM     24  H   UNL A   1      29.847  23.120  25.542  1.00  0.00     0.159 HD
ENDBRANCH  15  20
ENDBRANCH  12  13
ENDBRANCH  11  12
ENDBRANCH   3   5
ENDBRANCH   2   3
ENDBRANCH   1   2
BRANCH   1  25
ATOM     25  C   UNL A   1      33.919  29.407  27.051  1.00  0.00     0.275 C 
BRANCH  25  26
ATOM     26  O   UNL A   1      34.082  30.638  27.803  1.00  0.00    -0.458 OA
BRANCH  26  27
ATOM     27  C   UNL A   1      35.217  31.324  28.058  1.00  0.00     0.338 C 
ATOM     28  O   UNL A   1      35.244  32.551  28.087  1.00  0.00    -0.246 OA
BRANCH  27  29
ATOM     29  C   UNL A   1      36.437  30.550  28.311  1.00  0.00     0.060 A 
ATOM     30  C   UNL A   1      36.537  29.833  29.518  1.00  0.00     0.016 A 
ATOM     31  C   UNL A   1      37.414  30.453  27.325  1.00  0.00     0.016 A 
ATOM     32  C   UNL A   1      37.581  28.945  29.712  1.00  0.00     0.010 A 
ATOM     33  C   UNL A   1      38.374  29.483  27.452  1.00  0.00     0.010 A 
ATOM     34  C   UNL A   1      38.486  28.785  28.667  1.00  0.00    -0.014 A 
BRANCH  34  35
ATOM     35  C   UNL A   1      39.819  28.263  28.883  1.00  0.00     0.031 A 
ATOM     36  C   UNL A   1      40.152  26.871  28.556  1.00  0.00     0.074 A 
ATOM     37  C   UNL A   1      40.640  29.284  29.218  1.00  0.00     0.049 A 
ATOM     38  N   UNL A   1      41.160  26.237  29.038  1.00  0.00    -0.248 NA
ATOM     39  C   UNL A   1      39.329  26.021  27.694  1.00  0.00     0.031 C 
ATOM     40  C   UNL A   1      42.076  29.458  29.187  1.00  0.00     0.029 A 
ATOM     41  N   UNL A   1      40.189  30.462  29.832  1.00  0.00    -0.354 N 
ATOM     42  C   UNL A   1      41.351  25.139  28.221  1.00  0.00     0.074 A 
ATOM     43  C   UNL A   1      40.091  24.929  27.563  1.00  0.00     0.031 C 
ATOM     44  C   UNL A   1      42.397  30.483  30.008  1.00  0.00     0.029 A 
ATOM     45  C   UNL A   1      41.175  30.903  30.698  1.00  0.00     0.049 A 
ATOM     46  H   UNL A   1      39.321  30.899  29.675  1.00  0.00     0.167 HD
ATOM     47  C   UNL A   1      42.628  24.725  27.983  1.00  0.00     0.031 A 
ATOM     48  C   UNL A   1      40.919  30.749  32.033  1.00  0.00     0.031 A 
ATOM     49  C   UNL A   1      43.553  25.536  28.773  1.00  0.00     0.049 A 
ATOM     50  C   UNL A   1      41.810  29.661  32.585  1.00  0.00     0.074 A 
ATOM     51  C   UNL A   1      44.301  26.654  28.440  1.00  0.00     0.029 A 
ATOM     52  N   UNL A   1      43.447  25.524  30.159  1.00  0.00    -0.354 N 
ATOM     53  N   UNL A   1      42.148  28.578  31.934  1.00  0.00    -0.248 NA
ATOM     54  C   UNL A   1      42.488  29.795  33.867  1.00  0.00     0.031 C 
ATOM     55  C   UNL A   1      44.546  27.377  29.640  1.00  0.00     0.029 A 
ATOM     56  C   UNL A   1      43.937  26.704  30.687  1.00  0.00     0.049 A 
ATOM     57  H   UNL A   1      43.077  24.782  30.689  1.00  0.00     0.167 HD
ATOM     58  C   UNL A   1      43.168  27.963  32.611  1.00  0.00     0.074 A 
ATOM     59  C   UNL A   1      43.305  28.730  33.840  1.00  0.00     0.031 C 
ATOM     60  C   UNL A   1      43.904  26.923  32.122  1.00  0.00     0.031 A 
BRANCH  47  61
ATOM     61  C   UNL A   1      43.064  23.896  26.795  1.00  0.00    -0.014 A 
ATOM     62  C   UNL A   1      42.899  22.497  26.851  1.00  0.00     0.009 A 
ATOM     63  C   UNL A   1      43.672  24.393  25.630  1.00  0.00     0.009 A 
ATOM     64  C   UNL A   1      43.369  21.641  25.845  1.00  0.00     0.001 A 
ATOM     65  C   UNL A   1      44.157  23.541  24.622  1.00  0.00     0.001 A 
ATOM     66  C   UNL A   1      44.011  22.163  24.734  1.00  0.00     0.000 A 
ENDBRANCH  47  61
BRANCH  48  67
ATOM     67  C   UNL A   1      39.483  30.992  32.431  1.00  0.00    -0.014 A 
ATOM     68  C   UNL A   1      38.838  32.163  31.959  1.00  0.00     0.009 A 
ATOM     69  C   UNL A   1      38.675  30.014  33.029  1.00  0.00     0.009 A 
ATOM     70  C   UNL A   1      37.444  32.304  31.987  1.00  0.00     0.001 A 
ATOM     71  C   UNL A   1      37.276  30.171  33.084  1.00  0.00     0.001 A 
ATOM     72  C   UNL A   1      36.660  31.300  32.540  1.00  0.00     0.000 A 
ENDBRANCH  48  67
BRANCH  60  73
ATOM     73  C   UNL A   1      44.764  26.025  32.967  1.00  0.00    -0.014 A 
ATOM     74  C   UNL A   1      44.244  25.003  33.769  1.00  0.00     0.009 A 
ATOM     75  C   UNL A   1      46.167  26.071  32.810  1.00  0.00     0.009 A 
ATOM     76  C   UNL A   1      45.088  24.107  34.428  1.00  0.00     0.001 A 
ATOM     77  C   UNL A   1      47.007  25.136  33.410  1.00  0.00     0.001 A 
ATOM     78  C   UNL A   1      46.465  24.164  34.237  1.00  0.00     0.000 A 
ENDBRANCH  60  73
ENDBRANCH  34  35
ENDBRANCH  27  29
ENDBRANCH  26  27
ENDBRANCH  25  26
ENDBRANCH   1  25
TORSDOF 14
ENDMDL
MODEL 3
REMARK VINA RESULT:     -11.3      3.103      7.804
REMARK SMILES Cc1ccc(C(=O)OCCOC(=O)c2ccc(-c3c4nc(c(-c5ccccc5)c5ccc([nH]5)c(-c5ccccc5)c5nc(c(-c6ccccc6)c6ccc3[nH]6)C=C5)C=C4)cc2)c(Oc2cccc(F)c2C(N)=O)c1
REMARK SMILES IDX 9 1 8 2 6 3 7 4 5 5 1 6 2 7 3 8 74 9 4 10 62 11 63 12 64 13
REMARK SMILES IDX 65 14 70 15 66 16 68 17 67 18 69 19 71 20 72 21 73 22 10 25
REMARK SMILES IDX 11 26 12 27 13 28 14 29 15 30 61 31 16 32 60 33 17 34 18 35
REMARK SMILES IDX 19 36 54 37 20 38 59 39 53 40 55 41 21 42 58 43 52 44 51 45
REMARK SMILES IDX 22 47 44 48 29 49 43 50 30 51 33 52 42 53 56 54 31 55 32 56
REMARK SMILES IDX 41 58 57 59 34 60 23 61 24 62 28 63 25 64 27 65 26 66 45 67
REMARK SMILES IDX 46 68 50 69 47 70 49 71 48 72 35 73 36 74 40 75 37 76 39 77
REMARK SMILES IDX 38 78
REMARK H PARENT 72 23 72 24 55 46 33 57
REMARK Flexibility Score: inf
ROOT
ATOM      1  C   UNL A   1      33.428  29.507  25.878  1.00  0.00     0.275 C 
ENDROOT
BRANCH   1   2
ATOM      2  O   UNL A   1      33.862  28.189  26.272  1.00  0.00    -0.458 OA
BRANCH   2   3
ATOM      3  C   UNL A   1      32.843  27.288  26.176  1.00  0.00     0.342 C 
ATOM      4  O   UNL A   1      31.869  27.303  26.918  1.00  0.00    -0.246 OA
BRANCH   3   5
ATOM      5  C   UNL A   1      33.054  26.185  25.202  1.00  0.00     0.102 A 
ATOM      6  C   UNL A   1      33.484  23.201  22.106  1.00  0.00     0.044 C 
ATOM      7  C   UNL A   1      33.340  24.232  23.188  1.00  0.00    -0.047 A 
ATOM      8  C   UNL A   1      33.959  24.073  24.439  1.00  0.00     0.004 A 
ATOM      9  C   UNL A   1      32.609  25.394  22.936  1.00  0.00     0.051 A 
ATOM     10  C   UNL A   1      33.801  25.033  25.455  1.00  0.00     0.020 A 
ATOM     11  C   UNL A   1      32.461  26.349  23.940  1.00  0.00     0.142 A 
BRANCH  11  12
ATOM     12  O   UNL A   1      31.806  27.525  23.690  1.00  0.00    -0.455 OA
BRANCH  12  13
ATOM     13  C   UNL A   1      30.446  27.562  23.553  1.00  0.00     0.143 A 
ATOM     14  C   UNL A   1      29.840  26.481  24.212  1.00  0.00     0.048 A 
ATOM     15  C   UNL A   1      29.656  28.481  22.854  1.00  0.00     0.117 A 
ATOM     16  C   UNL A   1      28.457  26.362  24.270  1.00  0.00     0.007 A 
ATOM     17  C   UNL A   1      28.267  28.372  22.948  1.00  0.00     0.139 A 
ATOM     18  C   UNL A   1      27.669  27.331  23.661  1.00  0.00     0.040 A 
ATOM     19  F   UNL A   1      27.463  29.243  22.324  1.00  0.00    -0.206 F 
BRANCH  15  20
ATOM     20  C   UNL A   1      30.174  29.553  21.981  1.00  0.00     0.255 C 
ATOM     21  N   UNL A   1      31.533  29.717  21.948  1.00  0.00    -0.365 N 
ATOM     22  O   UNL A   1      29.433  30.247  21.300  1.00  0.00    -0.269 OA
ATOM     23  H   UNL A   1      32.111  29.147  22.505  1.00  0.00     0.159 HD
ATOM     24  H   UNL A   1      31.931  30.404  21.367  1.00  0.00     0.159 HD
ENDBRANCH  15  20
ENDBRANCH  12  13
ENDBRANCH  11  12
ENDBRANCH   3   5
ENDBRANCH   2   3
ENDBRANCH   1   2
BRANCH   1  25
ATOM     25  C   UNL A   1      33.175  30.495  27.022  1.00  0.00     0.275 C 
BRANCH  25  26
ATOM     26  O   UNL A   1      34.171  30.702  28.057  1.00  0.00    -0.458 OA
BRANCH  26  27
ATOM     27  C   UNL A   1      35.353  31.349  27.971  1.00  0.00     0.338 C 
ATOM     28  O   UNL A   1      35.423  32.543  27.691  1.00  0.00    -0.246 OA
BRANCH  27  29
ATOM     29  C   UNL A   1      36.572  30.576  28.231  1.00  0.00     0.060 A 
ATOM     30  C   UNL A   1      36.715  29.951  29.483  1.00  0.00     0.016 A 
ATOM     31  C   UNL A   1      37.504  30.388  27.214  1.00  0.00     0.016 A 
ATOM     32  C   UNL A   1      37.755  29.064  29.700  1.00  0.00     0.010 A 
ATOM     33  C   UNL A   1      38.455  29.415  27.374  1.00  0.00     0.010 A 
ATOM     34  C   UNL A   1      38.611  28.810  28.633  1.00  0.00    -0.014 A 
BRANCH  34  35
ATOM     35  C   UNL A   1      39.945  28.283  28.832  1.00  0.00     0.031 A 
ATOM     36  C   UNL A   1      40.258  26.879  28.543  1.00  0.00     0.074 A 
ATOM     37  C   UNL A   1      40.783  29.308  29.112  1.00  0.00     0.049 A 
ATOM     38  N   UNL A   1      41.274  26.252  29.019  1.00  0.00    -0.248 NA
ATOM     39  C   UNL A   1      39.406  26.008  27.731  1.00  0.00     0.031 C 
ATOM     40  C   UNL A   1      42.218  29.468  29.038  1.00  0.00     0.029 A 
ATOM     41  N   UNL A   1      40.357  30.509  29.698  1.00  0.00    -0.354 N 
ATOM     42  C   UNL A   1      41.434  25.127  28.234  1.00  0.00     0.074 A 
ATOM     43  C   UNL A   1      40.156  24.906  27.616  1.00  0.00     0.031 C 
ATOM     44  C   UNL A   1      42.569  30.517  29.816  1.00  0.00     0.029 A 
ATOM     45  C   UNL A   1      41.369  30.970  30.523  1.00  0.00     0.049 A 
ATOM     46  H   UNL A   1      39.489  30.948  29.548  1.00  0.00     0.167 HD
ATOM     47  C   UNL A   1      42.702  24.693  27.977  1.00  0.00     0.031 A 
ATOM     48  C   UNL A   1      41.146  30.862  31.869  1.00  0.00     0.031 A 
ATOM     49  C   UNL A   1      43.653  25.522  28.716  1.00  0.00     0.049 A 
ATOM     50  C   UNL A   1      42.042  29.785  32.433  1.00  0.00     0.074 A 
ATOM     51  C   UNL A   1      44.401  26.621  28.327  1.00  0.00     0.029 A 
ATOM     52  N   UNL A   1      43.584  25.556  30.103  1.00  0.00    -0.354 N 
ATOM     53  N   UNL A   1      42.355  28.678  31.809  1.00  0.00    -0.248 NA
ATOM     54  C   UNL A   1      42.755  29.955  33.692  1.00  0.00     0.031 C 
ATOM     55  C   UNL A   1      44.683  27.381  29.495  1.00  0.00     0.029 A 
ATOM     56  C   UNL A   1      44.096  26.749  30.579  1.00  0.00     0.049 A 
ATOM     57  H   UNL A   1      43.222  24.835  30.667  1.00  0.00     0.167 HD
ATOM     58  C   UNL A   1      43.388  28.077  32.480  1.00  0.00     0.074 A 
ATOM     59  C   UNL A   1      43.562  28.882  33.679  1.00  0.00     0.031 C 
ATOM     60  C   UNL A   1      44.103  27.015  32.007  1.00  0.00     0.031 A 
BRANCH  47  61
ATOM     61  C   UNL A   1      43.100  23.822  26.806  1.00  0.00    -0.014 A 
ATOM     62  C   UNL A   1      43.122  22.424  26.982  1.00  0.00     0.009 A 
ATOM     63  C   UNL A   1      43.502  24.285  25.542  1.00  0.00     0.009 A 
ATOM     64  C   UNL A   1      43.578  21.545  25.990  1.00  0.00     0.001 A 
ATOM     65  C   UNL A   1      43.972  23.412  24.545  1.00  0.00     0.001 A 
ATOM     66  C   UNL A   1      44.017  22.042  24.772  1.00  0.00     0.000 A 
ENDBRANCH  47  61
BRANCH  48  67
ATOM     67  C   UNL A   1      39.723  31.130  32.296  1.00  0.00    -0.014 A 
ATOM     68  C   UNL A   1      39.027  30.118  33.005  1.00  0.00     0.009 A 
ATOM     69  C   UNL A   1      39.134  32.401  32.254  1.00  0.00     0.009 A 
ATOM     70  C   UNL A   1      37.856  30.389  33.725  1.00  0.00     0.001 A 
ATOM     71  C   UNL A   1      37.940  32.665  32.954  1.00  0.00     0.001 A 
ATOM     72  C   UNL A   1      37.317  31.669  33.709  1.00  0.00     0.000 A 
ENDBRANCH  48  67
BRANCH  60  73
ATOM     73  C   UNL A   1      44.977  26.138  32.859  1.00  0.00    -0.014 A 
ATOM     74  C   UNL A   1      44.472  25.133  33.691  1.00  0.00     0.009 A 
ATOM     75  C   UNL A   1      46.377  26.182  32.679  1.00  0.00     0.009 A 
ATOM     76  C   UNL A   1      45.327  24.254  34.358  1.00  0.00     0.001 A 
ATOM     77  C   UNL A   1      47.228  25.263  33.287  1.00  0.00     0.001 A 
ATOM     78  C   UNL A   1      46.701  24.309  34.144  1.00  0.00     0.000 A 
ENDBRANCH  60  73
ENDBRANCH  34  35
ENDBRANCH  27  29
ENDBRANCH  26  27
ENDBRANCH  25  26
ENDBRANCH   1  25
TORSDOF 14
ENDMDL
