MODEL 1
REMARK VINA RESULT:     -12.2      0.000      0.000
REMARK SMILES Cc1cccc(S(=O)(=O)Nc2cc(C(=O)OCCOC(=O)c3ccc(-c4c5nc(c(-c6ccccc6)c6ccc([nH]6)c(-c6ccccc6)c6nc(c(-c7ccccc7)c7ccc4[nH]7)C=C6)C=C5)cc3)ccc2N2CCC[C@H](C[NH+]3CCCC3)C2)c1
REMARK SMILES IDX 17 1 16 2 14 3 15 4 13 5 11 6 12 7 72 8 71 9 70 10 10 11
REMARK SMILES IDX 7 13 8 14 9 15 6 16 1 17 2 18 3 19 85 20 4 21 5 22 73 23
REMARK SMILES IDX 74 24 84 25 75 26 77 27 76 28 78 29 79 30 80 31 83 32 81 34
REMARK SMILES IDX 82 35 18 36 19 37 20 38 21 39 22 40 23 41 69 42 24 43 68 44
REMARK SMILES IDX 25 45 26 46 27 47 62 48 28 49 67 50 61 51 63 52 29 53 66 54
REMARK SMILES IDX 60 55 59 56 30 58 52 59 37 60 51 61 38 62 41 63 50 64 64 65
REMARK SMILES IDX 39 66 40 67 49 69 65 70 42 71 31 72 32 73 36 74 33 75 35 76
REMARK SMILES IDX 34 77 53 78 54 79 58 80 55 81 57 82 56 83 43 84 44 85 48 86
REMARK SMILES IDX 45 87 47 88 46 89
REMARK H PARENT 10 12 79 33 63 57 41 68
REMARK Flexibility Score: inf
ROOT
ATOM      1  C   UNL A   1      31.886  30.217  25.652  1.00  0.00     0.275 C 
ENDROOT
BRANCH   1   2
ATOM      2  O   UNL A   1      32.265  29.009  24.976  1.00  0.00    -0.458 OA
BRANCH   2   3
ATOM      3  C   UNL A   1      31.190  28.383  24.465  1.00  0.00     0.338 C 
ATOM      4  O   UNL A   1      30.406  28.858  23.657  1.00  0.00    -0.246 OA
BRANCH   3   5
ATOM      5  C   UNL A   1      30.926  27.029  24.948  1.00  0.00     0.062 A 
ATOM      6  C   UNL A   1      31.517  24.789  24.200  1.00  0.00     0.073 A 
ATOM      7  C   UNL A   1      31.037  26.071  23.942  1.00  0.00     0.044 A 
ATOM      8  C   UNL A   1      31.697  24.384  25.557  1.00  0.00     0.061 A 
ATOM      9  C   UNL A   1      31.461  25.368  26.563  1.00  0.00     0.029 A 
ATOM     10  C   UNL A   1      31.102  26.686  26.274  1.00  0.00     0.018 A 
BRANCH   6  11
ATOM     11  N   UNL A   1      32.066  24.044  23.094  1.00  0.00    -0.277 N 
ATOM     12  H   UNL A   1      31.505  23.330  22.717  1.00  0.00     0.180 HD
BRANCH  11  13
ATOM     13  S   UNL A   1      33.577  24.282  22.389  1.00  0.00     0.261 S 
ATOM     14  O   UNL A   1      33.725  25.683  22.056  1.00  0.00    -0.201 OA
ATOM     15  O   UNL A   1      33.625  23.270  21.351  1.00  0.00    -0.201 OA
BRANCH  13  16
ATOM     16  C   UNL A   1      34.907  23.866  23.517  1.00  0.00     0.088 A 
ATOM     17  C   UNL A   1      37.325  21.074  24.486  1.00  0.00     0.044 C 
ATOM     18  C   UNL A   1      36.575  22.373  24.471  1.00  0.00    -0.050 A 
ATOM     19  C   UNL A   1      36.718  23.219  25.570  1.00  0.00     0.003 A 
ATOM     20  C   UNL A   1      35.703  22.728  23.417  1.00  0.00     0.025 A 
ATOM     21  C   UNL A   1      35.975  24.388  25.643  1.00  0.00     0.002 A 
ATOM     22  C   UNL A   1      35.062  24.704  24.633  1.00  0.00     0.022 A 
ENDBRANCH  13  16
ENDBRANCH  11  13
ENDBRANCH   6  11
BRANCH   8  23
ATOM     23  N   UNL A   1      32.098  23.121  26.022  1.00  0.00    -0.369 N 
ATOM     24  C   UNL A   1      32.889  23.130  27.270  1.00  0.00     0.116 C 
ATOM     25  C   UNL A   1      31.401  21.869  25.727  1.00  0.00     0.126 C 
ATOM     26  C   UNL A   1      33.882  21.974  27.272  1.00  0.00     0.022 C 
ATOM     27  C   UNL A   1      32.345  20.642  25.765  1.00  0.00     0.064 C 
ATOM     28  C   UNL A   1      33.148  20.655  27.074  1.00  0.00     0.013 C 
BRANCH  27  29
ATOM     29  C   UNL A   1      33.190  20.584  24.464  1.00  0.00     0.267 C 
BRANCH  29  30
ATOM     30  N   UNL A   1      33.459  19.293  23.818  1.00  0.00    -0.335 N 
ATOM     31  C   UNL A   1      32.310  18.406  23.659  1.00  0.00     0.262 C 
ATOM     32  C   UNL A   1      34.560  18.503  24.364  1.00  0.00     0.262 C 
ATOM     33  H   UNL A   1      33.741  19.643  22.903  1.00  0.00     0.348 HD
ATOM     34  C   UNL A   1      32.453  17.371  24.756  1.00  0.00     0.067 C 
ATOM     35  C   UNL A   1      33.956  17.213  24.911  1.00  0.00     0.067 C 
ENDBRANCH  29  30
ENDBRANCH  27  29
ENDBRANCH   8  23
ENDBRANCH   3   5
ENDBRANCH   2   3
ENDBRANCH   1   2
BRANCH   1  36
ATOM     36  C   UNL A   1      32.611  30.388  26.981  1.00  0.00     0.275 C 
BRANCH  36  37
ATOM     37  O   UNL A   1      34.063  30.272  27.001  1.00  0.00    -0.458 OA
BRANCH  37  38
ATOM     38  C   UNL A   1      34.994  30.963  27.702  1.00  0.00     0.338 C 
ATOM     39  O   UNL A   1      34.831  32.151  27.965  1.00  0.00    -0.246 OA
BRANCH  38  40
ATOM     40  C   UNL A   1      36.240  30.295  28.135  1.00  0.00     0.060 A 
ATOM     41  C   UNL A   1      36.285  29.613  29.374  1.00  0.00     0.016 A 
ATOM     42  C   UNL A   1      37.362  30.320  27.328  1.00  0.00     0.016 A 
ATOM     43  C   UNL A   1      37.419  28.885  29.763  1.00  0.00     0.010 A 
ATOM     44  C   UNL A   1      38.432  29.518  27.658  1.00  0.00     0.010 A 
ATOM     45  C   UNL A   1      38.502  28.835  28.896  1.00  0.00    -0.014 A 
BRANCH  45  46
ATOM     46  C   UNL A   1      39.845  28.314  29.192  1.00  0.00     0.031 A 
ATOM     47  C   UNL A   1      40.356  26.967  28.842  1.00  0.00     0.074 A 
ATOM     48  C   UNL A   1      40.689  29.312  29.553  1.00  0.00     0.049 A 
ATOM     49  N   UNL A   1      41.604  26.783  28.584  1.00  0.00    -0.248 NA
ATOM     50  C   UNL A   1      39.580  25.732  28.672  1.00  0.00     0.031 C 
ATOM     51  C   UNL A   1      42.140  29.404  29.565  1.00  0.00     0.029 A 
ATOM     52  N   UNL A   1      40.288  30.478  30.219  1.00  0.00    -0.354 N 
ATOM     53  C   UNL A   1      41.796  25.495  28.152  1.00  0.00     0.074 A 
ATOM     54  C   UNL A   1      40.493  24.889  28.142  1.00  0.00     0.031 C 
ATOM     55  C   UNL A   1      42.497  30.311  30.496  1.00  0.00     0.029 A 
ATOM     56  C   UNL A   1      41.274  30.701  31.187  1.00  0.00     0.049 A 
ATOM     57  H   UNL A   1      39.487  31.022  30.044  1.00  0.00     0.167 HD
ATOM     58  C   UNL A   1      43.075  25.115  27.902  1.00  0.00     0.031 A 
ATOM     59  C   UNL A   1      40.953  30.379  32.477  1.00  0.00     0.031 A 
ATOM     60  C   UNL A   1      43.943  25.829  28.825  1.00  0.00     0.049 A 
ATOM     61  C   UNL A   1      41.793  29.219  32.972  1.00  0.00     0.074 A 
ATOM     62  C   UNL A   1      44.777  26.927  28.756  1.00  0.00     0.029 A 
ATOM     63  N   UNL A   1      43.711  25.581  30.170  1.00  0.00    -0.354 N 
ATOM     64  N   UNL A   1      42.303  28.291  32.204  1.00  0.00    -0.248 NA
ATOM     65  C   UNL A   1      42.202  29.077  34.364  1.00  0.00     0.031 C 
ATOM     66  C   UNL A   1      44.910  27.431  30.089  1.00  0.00     0.029 A 
ATOM     67  C   UNL A   1      44.188  26.611  30.945  1.00  0.00     0.049 A 
ATOM     68  H   UNL A   1      43.265  24.778  30.521  1.00  0.00     0.167 HD
ATOM     69  C   UNL A   1      43.173  27.525  32.933  1.00  0.00     0.074 A 
ATOM     70  C   UNL A   1      43.043  28.031  34.288  1.00  0.00     0.031 C 
ATOM     71  C   UNL A   1      43.967  26.560  32.382  1.00  0.00     0.031 A 
BRANCH  58  72
ATOM     72  C   UNL A   1      43.579  24.184  26.842  1.00  0.00    -0.014 A 
ATOM     73  C   UNL A   1      44.840  23.575  27.032  1.00  0.00     0.009 A 
ATOM     74  C   UNL A   1      42.990  24.018  25.581  1.00  0.00     0.009 A 
ATOM     75  C   UNL A   1      45.497  22.876  26.012  1.00  0.00     0.001 A 
ATOM     76  C   UNL A   1      43.639  23.303  24.557  1.00  0.00     0.001 A 
ATOM     77  C   UNL A   1      44.897  22.745  24.769  1.00  0.00     0.000 A 
ENDBRANCH  58  72
BRANCH  59  78
ATOM     78  C   UNL A   1      39.507  30.659  32.799  1.00  0.00    -0.014 A 
ATOM     79  C   UNL A   1      38.989  31.924  32.415  1.00  0.00     0.009 A 
ATOM     80  C   UNL A   1      38.583  29.650  33.104  1.00  0.00     0.009 A 
ATOM     81  C   UNL A   1      37.619  32.127  32.207  1.00  0.00     0.001 A 
ATOM     82  C   UNL A   1      37.201  29.873  32.936  1.00  0.00     0.001 A 
ATOM     83  C   UNL A   1      36.726  31.094  32.450  1.00  0.00     0.000 A 
ENDBRANCH  59  78
BRANCH  71  84
ATOM     84  C   UNL A   1      44.628  25.442  33.155  1.00  0.00    -0.014 A 
ATOM     85  C   UNL A   1      43.975  24.256  33.509  1.00  0.00     0.009 A 
ATOM     86  C   UNL A   1      46.024  25.487  33.377  1.00  0.00     0.009 A 
ATOM     87  C   UNL A   1      44.667  23.192  34.102  1.00  0.00     0.001 A 
ATOM     88  C   UNL A   1      46.728  24.404  33.906  1.00  0.00     0.001 A 
ATOM     89  C   UNL A   1      46.043  23.260  34.286  1.00  0.00     0.000 A 
ENDBRANCH  71  84
ENDBRANCH  45  46
ENDBRANCH  38  40
ENDBRANCH  37  38
ENDBRANCH  36  37
ENDBRANCH   1  36
TORSDOF 17
ENDMDL
MODEL 2
REMARK VINA RESULT:     -12.0      1.714      2.926
REMARK SMILES Cc1cccc(S(=O)(=O)Nc2cc(C(=O)OCCOC(=O)c3ccc(-c4c5nc(c(-c6ccccc6)c6ccc([nH]6)c(-c6ccccc6)c6nc(c(-c7ccccc7)c7ccc4[nH]7)C=C6)C=C5)cc3)ccc2N2CCC[C@H](C[NH+]3CCCC3)C2)c1
REMARK SMILES IDX 17 1 16 2 14 3 15 4 13 5 11 6 12 7 72 8 71 9 70 10 10 11
REMARK SMILES IDX 7 13 8 14 9 15 6 16 1 17 2 18 3 19 85 20 4 21 5 22 73 23
REMARK SMILES IDX 74 24 84 25 75 26 77 27 76 28 78 29 79 30 80 31 83 32 81 34
REMARK SMILES IDX 82 35 18 36 19 37 20 38 21 39 22 40 23 41 69 42 24 43 68 44
REMARK SMILES IDX 25 45 26 46 27 47 62 48 28 49 67 50 61 51 63 52 29 53 66 54
REMARK SMILES IDX 60 55 59 56 30 58 52 59 37 60 51 61 38 62 41 63 50 64 64 65
REMARK SMILES IDX 39 66 40 67 49 69 65 70 42 71 31 72 32 73 36 74 33 75 35 76
REMARK SMILES IDX 34 77 53 78 54 79 58 80 55 81 57 82 56 83 43 84 44 85 48 86
REMARK SMILES IDX 45 87 47 88 46 89
REMARK H PARENT 10 12 79 33 63 57 41 68
REMARK Flexibility Score: inf
ROOT
ATOM      1  C   UNL A   1      32.333  30.090  25.408  1.00  0.00     0.275 C 
ENDROOT
BRANCH   1   2
ATOM      2  O   UNL A   1      31.037  29.579  25.064  1.00  0.00    -0.458 OA
BRANCH   2   3
ATOM      3  C   UNL A   1      31.135  28.561  24.191  1.00  0.00     0.338 C 
ATOM      4  O   UNL A   1      31.410  28.663  23.004  1.00  0.00    -0.246 OA
BRANCH   3   5
ATOM      5  C   UNL A   1      30.856  27.222  24.707  1.00  0.00     0.062 A 
ATOM      6  C   UNL A   1      31.373  24.956  23.983  1.00  0.00     0.073 A 
ATOM      7  C   UNL A   1      30.913  26.244  23.715  1.00  0.00     0.044 A 
ATOM      8  C   UNL A   1      31.587  24.571  25.340  1.00  0.00     0.061 A 
ATOM      9  C   UNL A   1      31.404  25.578  26.335  1.00  0.00     0.029 A 
ATOM     10  C   UNL A   1      31.065  26.898  26.033  1.00  0.00     0.018 A 
BRANCH   6  11
ATOM     11  N   UNL A   1      31.870  24.180  22.874  1.00  0.00    -0.277 N 
ATOM     12  H   UNL A   1      31.267  23.498  22.502  1.00  0.00     0.180 HD
BRANCH  11  13
ATOM     13  S   UNL A   1      33.387  24.329  22.158  1.00  0.00     0.261 S 
ATOM     14  O   UNL A   1      33.556  25.690  21.694  1.00  0.00    -0.201 OA
ATOM     15  O   UNL A   1      33.425  23.224  21.219  1.00  0.00    -0.201 OA
BRANCH  13  16
ATOM     16  C   UNL A   1      34.707  24.004  23.326  1.00  0.00     0.088 A 
ATOM     17  C   UNL A   1      37.211  21.343  24.438  1.00  0.00     0.044 C 
ATOM     18  C   UNL A   1      36.410  22.609  24.365  1.00  0.00    -0.050 A 
ATOM     19  C   UNL A   1      36.495  23.495  25.437  1.00  0.00     0.003 A 
ATOM     20  C   UNL A   1      35.549  22.895  23.281  1.00  0.00     0.025 A 
ATOM     21  C   UNL A   1      35.705  24.635  25.457  1.00  0.00     0.002 A 
ATOM     22  C   UNL A   1      34.804  24.882  24.417  1.00  0.00     0.022 A 
ENDBRANCH  13  16
ENDBRANCH  11  13
ENDBRANCH   6  11
BRANCH   8  23
ATOM     23  N   UNL A   1      31.973  23.308  25.816  1.00  0.00    -0.369 N 
ATOM     24  C   UNL A   1      32.750  23.318  27.073  1.00  0.00     0.116 C 
ATOM     25  C   UNL A   1      31.271  22.059  25.519  1.00  0.00     0.126 C 
ATOM     26  C   UNL A   1      33.735  22.155  27.092  1.00  0.00     0.022 C 
ATOM     27  C   UNL A   1      32.207  20.826  25.574  1.00  0.00     0.064 C 
ATOM     28  C   UNL A   1      32.995  20.840  26.892  1.00  0.00     0.013 C 
BRANCH  27  29
ATOM     29  C   UNL A   1      33.066  20.756  24.283  1.00  0.00     0.267 C 
BRANCH  29  30
ATOM     30  N   UNL A   1      33.475  19.454  23.741  1.00  0.00    -0.335 N 
ATOM     31  C   UNL A   1      32.392  18.557  23.347  1.00  0.00     0.262 C 
ATOM     32  C   UNL A   1      34.428  18.682  24.535  1.00  0.00     0.262 C 
ATOM     33  H   UNL A   1      33.954  19.788  22.904  1.00  0.00     0.348 HD
ATOM     34  C   UNL A   1      32.288  17.545  24.470  1.00  0.00     0.067 C 
ATOM     35  C   UNL A   1      33.718  17.400  24.961  1.00  0.00     0.067 C 
ENDBRANCH  29  30
ENDBRANCH  27  29
ENDBRANCH   8  23
ENDBRANCH   3   5
ENDBRANCH   2   3
ENDBRANCH   1   2
BRANCH   1  36
ATOM     36  C   UNL A   1      32.390  30.609  26.839  1.00  0.00     0.275 C 
BRANCH  36  37
ATOM     37  O   UNL A   1      32.174  32.031  27.072  1.00  0.00    -0.458 OA
BRANCH  37  38
ATOM     38  C   UNL A   1      32.933  32.943  27.727  1.00  0.00     0.338 C 
ATOM     39  O   UNL A   1      32.515  34.080  27.932  1.00  0.00    -0.246 OA
BRANCH  38  40
ATOM     40  C   UNL A   1      34.293  32.584  28.181  1.00  0.00     0.060 A 
ATOM     41  C   UNL A   1      35.394  33.402  27.834  1.00  0.00     0.016 A 
ATOM     42  C   UNL A   1      34.495  31.459  28.958  1.00  0.00     0.016 A 
ATOM     43  C   UNL A   1      36.679  33.143  28.336  1.00  0.00     0.010 A 
ATOM     44  C   UNL A   1      35.730  31.268  29.537  1.00  0.00     0.010 A 
ATOM     45  C   UNL A   1      36.848  32.067  29.197  1.00  0.00    -0.014 A 
BRANCH  45  46
ATOM     46  C   UNL A   1      38.124  31.503  29.662  1.00  0.00     0.031 A 
ATOM     47  C   UNL A   1      38.733  30.230  29.208  1.00  0.00     0.074 A 
ATOM     48  C   UNL A   1      38.853  32.428  30.334  1.00  0.00     0.049 A 
ATOM     49  N   UNL A   1      40.013  30.088  29.172  1.00  0.00    -0.248 NA
ATOM     50  C   UNL A   1      38.043  29.039  28.696  1.00  0.00     0.031 C 
ATOM     51  C   UNL A   1      40.270  32.515  30.643  1.00  0.00     0.029 A 
ATOM     52  N   UNL A   1      38.295  33.471  31.087  1.00  0.00    -0.354 N 
ATOM     53  C   UNL A   1      40.323  28.888  28.586  1.00  0.00     0.074 A 
ATOM     54  C   UNL A   1      39.065  28.292  28.227  1.00  0.00     0.031 C 
ATOM     55  C   UNL A   1      40.414  33.259  31.757  1.00  0.00     0.029 A 
ATOM     56  C   UNL A   1      39.069  33.534  32.251  1.00  0.00     0.049 A 
ATOM     57  H   UNL A   1      37.527  34.037  30.848  1.00  0.00     0.167 HD
ATOM     58  C   UNL A   1      41.637  28.552  28.533  1.00  0.00     0.031 A 
ATOM     59  C   UNL A   1      38.517  33.006  33.386  1.00  0.00     0.031 A 
ATOM     60  C   UNL A   1      42.290  29.106  29.709  1.00  0.00     0.049 A 
ATOM     61  C   UNL A   1      39.280  31.781  33.844  1.00  0.00     0.074 A 
ATOM     62  C   UNL A   1      43.087  30.200  29.979  1.00  0.00     0.029 A 
ATOM     63  N   UNL A   1      41.811  28.643  30.925  1.00  0.00    -0.354 N 
ATOM     64  N   UNL A   1      39.957  30.989  33.052  1.00  0.00    -0.248 NA
ATOM     65  C   UNL A   1      39.418  31.414  35.248  1.00  0.00     0.031 C 
ATOM     66  C   UNL A   1      42.946  30.480  31.375  1.00  0.00     0.029 A 
ATOM     67  C   UNL A   1      42.099  29.533  31.932  1.00  0.00     0.049 A 
ATOM     68  H   UNL A   1      41.331  27.794  31.051  1.00  0.00     0.167 HD
ATOM     69  C   UNL A   1      40.693  30.114  33.804  1.00  0.00     0.074 A 
ATOM     70  C   UNL A   1      40.290  30.394  35.171  1.00  0.00     0.031 C 
ATOM     71  C   UNL A   1      41.607  29.250  33.272  1.00  0.00     0.031 A 
BRANCH  58  72
ATOM     72  C   UNL A   1      42.364  27.804  27.456  1.00  0.00    -0.014 A 
ATOM     73  C   UNL A   1      42.143  28.184  26.113  1.00  0.00     0.009 A 
ATOM     74  C   UNL A   1      43.098  26.627  27.660  1.00  0.00     0.009 A 
ATOM     75  C   UNL A   1      42.590  27.414  25.033  1.00  0.00     0.001 A 
ATOM     76  C   UNL A   1      43.562  25.857  26.577  1.00  0.00     0.001 A 
ATOM     77  C   UNL A   1      43.297  26.244  25.265  1.00  0.00     0.000 A 
ENDBRANCH  58  72
BRANCH  59  78
ATOM     78  C   UNL A   1      37.027  33.233  33.460  1.00  0.00    -0.014 A 
ATOM     79  C   UNL A   1      36.580  34.573  33.598  1.00  0.00     0.009 A 
ATOM     80  C   UNL A   1      36.088  32.280  33.043  1.00  0.00     0.009 A 
ATOM     81  C   UNL A   1      35.296  34.966  33.201  1.00  0.00     0.001 A 
ATOM     82  C   UNL A   1      34.782  32.673  32.686  1.00  0.00     0.001 A 
ATOM     83  C   UNL A   1      34.402  34.016  32.726  1.00  0.00     0.000 A 
ENDBRANCH  59  78
BRANCH  71  84
ATOM     84  C   UNL A   1      42.141  28.021  33.971  1.00  0.00    -0.014 A 
ATOM     85  C   UNL A   1      41.327  27.088  34.624  1.00  0.00     0.009 A 
ATOM     86  C   UNL A   1      43.502  27.671  33.810  1.00  0.00     0.009 A 
ATOM     87  C   UNL A   1      41.851  25.895  35.135  1.00  0.00     0.001 A 
ATOM     88  C   UNL A   1      44.015  26.453  34.259  1.00  0.00     0.001 A 
ATOM     89  C   UNL A   1      43.189  25.571  34.940  1.00  0.00     0.000 A 
ENDBRANCH  71  84
ENDBRANCH  45  46
ENDBRANCH  38  40
ENDBRANCH  37  38
ENDBRANCH  36  37
ENDBRANCH   1  36
TORSDOF 17
ENDMDL
MODEL 3
REMARK VINA RESULT:     -12.0      2.292      4.488
REMARK SMILES Cc1cccc(S(=O)(=O)Nc2cc(C(=O)OCCOC(=O)c3ccc(-c4c5nc(c(-c6ccccc6)c6ccc([nH]6)c(-c6ccccc6)c6nc(c(-c7ccccc7)c7ccc4[nH]7)C=C6)C=C5)cc3)ccc2N2CCC[C@H](C[NH+]3CCCC3)C2)c1
REMARK SMILES IDX 17 1 16 2 14 3 15 4 13 5 11 6 12 7 72 8 71 9 70 10 10 11
REMARK SMILES IDX 7 13 8 14 9 15 6 16 1 17 2 18 3 19 85 20 4 21 5 22 73 23
REMARK SMILES IDX 74 24 84 25 75 26 77 27 76 28 78 29 79 30 80 31 83 32 81 34
REMARK SMILES IDX 82 35 18 36 19 37 20 38 21 39 22 40 23 41 69 42 24 43 68 44
REMARK SMILES IDX 25 45 26 46 27 47 62 48 28 49 67 50 61 51 63 52 29 53 66 54
REMARK SMILES IDX 60 55 59 56 30 58 52 59 37 60 51 61 38 62 41 63 50 64 64 65
REMARK SMILES IDX 39 66 40 67 49 69 65 70 42 71 31 72 32 73 36 74 33 75 35 76
REMARK SMILES IDX 34 77 53 78 54 79 58 80 55 81 57 82 56 83 43 84 44 85 48 86
REMARK SMILES IDX 45 87 47 88 46 89
REMARK H PARENT 10 12 79 33 63 57 41 68
REMARK Flexibility Score: inf
ROOT
ATOM      1  C   UNL A   1      31.329  32.166  26.550  1.00  0.00     0.275 C 
ENDROOT
BRANCH   1   2
ATOM      2  O   UNL A   1      32.188  31.071  26.903  1.00  0.00    -0.458 OA
BRANCH   2   3
ATOM      3  C   UNL A   1      31.991  30.020  26.088  1.00  0.00     0.338 C 
ATOM      4  O   UNL A   1      31.411  30.051  25.012  1.00  0.00    -0.246 OA
BRANCH   3   5
ATOM      5  C   UNL A   1      32.488  28.726  26.551  1.00  0.00     0.062 A 
ATOM      6  C   UNL A   1      32.005  26.402  26.008  1.00  0.00     0.073 A 
ATOM      7  C   UNL A   1      31.581  27.692  26.324  1.00  0.00     0.044 A 
ATOM      8  C   UNL A   1      33.391  26.086  26.131  1.00  0.00     0.061 A 
ATOM      9  C   UNL A   1      34.271  27.154  26.478  1.00  0.00     0.029 A 
ATOM     10  C   UNL A   1      33.840  28.469  26.666  1.00  0.00     0.018 A 
BRANCH   6  11
ATOM     11  N   UNL A   1      31.076  25.544  25.316  1.00  0.00    -0.277 N 
ATOM     12  H   UNL A   1      30.601  24.874  25.858  1.00  0.00     0.180 HD
BRANCH  11  13
ATOM     13  S   UNL A   1      30.730  25.578  23.669  1.00  0.00     0.261 S 
ATOM     14  O   UNL A   1      30.096  24.331  23.296  1.00  0.00    -0.201 OA
ATOM     15  O   UNL A   1      31.992  25.968  23.069  1.00  0.00    -0.201 OA
BRANCH  13  16
ATOM     16  C   UNL A   1      29.585  26.895  23.259  1.00  0.00     0.088 A 
ATOM     17  C   UNL A   1      29.392  30.463  21.912  1.00  0.00     0.044 C 
ATOM     18  C   UNL A   1      29.013  29.132  22.491  1.00  0.00    -0.050 A 
ATOM     19  C   UNL A   1      27.726  28.991  23.007  1.00  0.00     0.003 A 
ATOM     20  C   UNL A   1      29.927  28.058  22.573  1.00  0.00     0.025 A 
ATOM     21  C   UNL A   1      27.359  27.809  23.635  1.00  0.00     0.002 A 
ATOM     22  C   UNL A   1      28.285  26.772  23.776  1.00  0.00     0.022 A 
ENDBRANCH  13  16
ENDBRANCH  11  13
ENDBRANCH   6  11
BRANCH   8  23
ATOM     23  N   UNL A   1      34.000  24.836  25.933  1.00  0.00    -0.369 N 
ATOM     24  C   UNL A   1      33.272  23.682  26.500  1.00  0.00     0.116 C 
ATOM     25  C   UNL A   1      34.917  24.525  24.835  1.00  0.00     0.126 C 
ATOM     26  C   UNL A   1      34.256  22.604  26.939  1.00  0.00     0.022 C 
ATOM     27  C   UNL A   1      35.913  23.396  25.198  1.00  0.00     0.064 C 
ATOM     28  C   UNL A   1      35.142  22.198  25.770  1.00  0.00     0.013 C 
BRANCH  27  29
ATOM     29  C   UNL A   1      37.043  23.957  26.103  1.00  0.00     0.267 C 
BRANCH  29  30
ATOM     30  N   UNL A   1      38.449  23.774  25.723  1.00  0.00    -0.335 N 
ATOM     31  C   UNL A   1      38.943  22.399  25.744  1.00  0.00     0.262 C 
ATOM     32  C   UNL A   1      39.429  24.611  26.410  1.00  0.00     0.262 C 
ATOM     33  H   UNL A   1      38.382  24.090  24.756  1.00  0.00     0.348 HD
ATOM     34  C   UNL A   1      39.748  22.287  27.024  1.00  0.00     0.067 C 
ATOM     35  C   UNL A   1      40.338  23.675  27.203  1.00  0.00     0.067 C 
ENDBRANCH  29  30
ENDBRANCH  27  29
ENDBRANCH   8  23
ENDBRANCH   3   5
ENDBRANCH   2   3
ENDBRANCH   1   2
BRANCH   1  36
ATOM     36  C   UNL A   1      31.915  33.514  26.950  1.00  0.00     0.275 C 
BRANCH  36  37
ATOM     37  O   UNL A   1      32.748  33.583  28.144  1.00  0.00    -0.458 OA
BRANCH  37  38
ATOM     38  C   UNL A   1      33.965  34.146  28.339  1.00  0.00     0.338 C 
ATOM     39  O   UNL A   1      34.135  35.351  28.176  1.00  0.00    -0.246 OA
BRANCH  38  40
ATOM     40  C   UNL A   1      35.116  33.302  28.725  1.00  0.00     0.060 A 
ATOM     41  C   UNL A   1      34.922  31.936  29.032  1.00  0.00     0.016 A 
ATOM     42  C   UNL A   1      36.389  33.840  28.772  1.00  0.00     0.016 A 
ATOM     43  C   UNL A   1      36.007  31.089  29.301  1.00  0.00     0.010 A 
ATOM     44  C   UNL A   1      37.460  32.988  28.927  1.00  0.00     0.010 A 
ATOM     45  C   UNL A   1      37.289  31.620  29.246  1.00  0.00    -0.014 A 
BRANCH  45  46
ATOM     46  C   UNL A   1      38.532  30.971  29.691  1.00  0.00     0.031 A 
ATOM     47  C   UNL A   1      39.022  29.638  29.264  1.00  0.00     0.074 A 
ATOM     48  C   UNL A   1      39.355  31.857  30.305  1.00  0.00     0.049 A 
ATOM     49  N   UNL A   1      40.285  29.393  29.193  1.00  0.00    -0.248 NA
ATOM     50  C   UNL A   1      38.222  28.490  28.819  1.00  0.00     0.031 C 
ATOM     51  C   UNL A   1      40.784  31.840  30.566  1.00  0.00     0.029 A 
ATOM     52  N   UNL A   1      38.908  32.966  31.036  1.00  0.00    -0.354 N 
ATOM     53  C   UNL A   1      40.479  28.153  28.642  1.00  0.00     0.074 A 
ATOM     54  C   UNL A   1      39.166  27.648  28.344  1.00  0.00     0.031 C 
ATOM     55  C   UNL A   1      41.025  32.607  31.647  1.00  0.00     0.029 A 
ATOM     56  C   UNL A   1      39.724  33.006  32.172  1.00  0.00     0.049 A 
ATOM     57  H   UNL A   1      38.179  33.584  30.801  1.00  0.00     0.167 HD
ATOM     58  C   UNL A   1      41.759  27.710  28.559  1.00  0.00     0.031 A 
ATOM     59  C   UNL A   1      39.171  32.564  33.343  1.00  0.00     0.031 A 
ATOM     60  C   UNL A   1      42.494  28.250  29.693  1.00  0.00     0.049 A 
ATOM     61  C   UNL A   1      39.850  31.297  33.821  1.00  0.00     0.074 A 
ATOM     62  C   UNL A   1      43.385  29.284  29.897  1.00  0.00     0.029 A 
ATOM     63  N   UNL A   1      42.023  27.869  30.940  1.00  0.00    -0.354 N 
ATOM     64  N   UNL A   1      40.435  30.427  33.037  1.00  0.00    -0.248 NA
ATOM     65  C   UNL A   1      40.007  30.968  35.232  1.00  0.00     0.031 C 
ATOM     66  C   UNL A   1      43.315  29.622  31.286  1.00  0.00     0.029 A 
ATOM     67  C   UNL A   1      42.414  28.766  31.904  1.00  0.00     0.049 A 
ATOM     68  H   UNL A   1      41.481  27.065  31.112  1.00  0.00     0.167 HD
ATOM     69  C   UNL A   1      41.125  29.522  33.797  1.00  0.00     0.074 A 
ATOM     70  C   UNL A   1      40.792  29.879  35.165  1.00  0.00     0.031 C 
ATOM     71  C   UNL A   1      41.949  28.569  33.268  1.00  0.00     0.031 A 
BRANCH  58  72
ATOM     72  C   UNL A   1      42.387  26.870  27.488  1.00  0.00    -0.014 A 
ATOM     73  C   UNL A   1      43.519  26.094  27.825  1.00  0.00     0.009 A 
ATOM     74  C   UNL A   1      42.062  26.942  26.127  1.00  0.00     0.009 A 
ATOM     75  C   UNL A   1      44.308  25.459  26.859  1.00  0.00     0.001 A 
ATOM     76  C   UNL A   1      42.843  26.292  25.152  1.00  0.00     0.001 A 
ATOM     77  C   UNL A   1      43.972  25.564  25.517  1.00  0.00     0.000 A 
ENDBRANCH  58  72
BRANCH  59  78
ATOM     78  C   UNL A   1      37.708  32.912  33.456  1.00  0.00    -0.014 A 
ATOM     79  C   UNL A   1      37.366  34.289  33.463  1.00  0.00     0.009 A 
ATOM     80  C   UNL A   1      36.682  31.995  33.189  1.00  0.00     0.009 A 
ATOM     81  C   UNL A   1      36.095  34.735  33.081  1.00  0.00     0.001 A 
ATOM     82  C   UNL A   1      35.392  32.447  32.847  1.00  0.00     0.001 A 
ATOM     83  C   UNL A   1      35.112  33.812  32.754  1.00  0.00     0.000 A 
ENDBRANCH  59  78
BRANCH  71  84
ATOM     84  C   UNL A   1      42.407  27.326  33.994  1.00  0.00    -0.014 A 
ATOM     85  C   UNL A   1      43.752  26.994  34.187  1.00  0.00     0.009 A 
ATOM     86  C   UNL A   1      41.456  26.542  34.688  1.00  0.00     0.009 A 
ATOM     87  C   UNL A   1      44.129  25.907  34.985  1.00  0.00     0.001 A 
ATOM     88  C   UNL A   1      41.829  25.499  35.538  1.00  0.00     0.001 A 
ATOM     89  C   UNL A   1      43.169  25.170  35.672  1.00  0.00     0.000 A 
ENDBRANCH  71  84
ENDBRANCH  45  46
ENDBRANCH  38  40
ENDBRANCH  37  38
ENDBRANCH  36  37
ENDBRANCH   1  36
TORSDOF 17
ENDMDL
