MODEL 1
REMARK VINA RESULT:     -13.3      0.000      0.000
REMARK SMILES CC1(C)[C@H](O)CC[C@@]2(C)[C@@H]1CC[C@@]1(C)Oc3oc(C(=O)OCCOC(=O)c4ccc(-c5c6nc(c(-c7ccccc7)c7ccc([nH]7)c(-c7ccccc7)c7nc(c(-c8ccccc8)c8ccc5[nH]8)C=C7)C=C6)cc4)cc(=O)c3C[C@@H]21
REMARK SMILES IDX 23 1 22 2 21 3 19 4 20 5 18 6 1 7 2 8 4 9 10 10 3 11 6 12
REMARK SMILES IDX 8 13 11 14 7 15 80 16 9 17 12 18 13 19 79 20 15 21 14 22
REMARK SMILES IDX 78 23 16 24 76 25 17 26 75 27 77 28 5 29 24 31 25 32 26 33
REMARK SMILES IDX 27 34 28 35 74 36 29 37 73 38 30 39 31 40 32 41 67 42 33 43
REMARK SMILES IDX 72 44 66 45 68 46 34 47 71 48 65 49 64 50 35 52 57 53 42 54
REMARK SMILES IDX 56 55 43 56 46 57 55 58 69 59 44 60 45 61 54 63 70 64 47 65
REMARK SMILES IDX 36 66 37 67 41 68 38 69 40 70 39 71 58 72 59 73 63 74 60 75
REMARK SMILES IDX 62 76 61 77 48 78 49 79 53 80 50 81 52 82 51 83
REMARK H PARENT 5 30 68 51 46 62
REMARK Flexibility Score: inf
ROOT
ATOM      1  C   UNL A   1      43.780  21.708  25.335  1.00  0.00     0.275 C 
ENDROOT
BRANCH   1   2
ATOM      2  C   UNL A   1      42.846  20.664  25.955  1.00  0.00     0.275 C 
BRANCH   2   3
ATOM      3  O   UNL A   1      41.605  21.242  26.407  1.00  0.00    -0.456 OA
BRANCH   3   4
ATOM      4  C   UNL A   1      40.489  20.552  26.067  1.00  0.00     0.374 C 
ATOM      5  O   UNL A   1      40.432  19.374  25.751  1.00  0.00    -0.242 OA
BRANCH   4   6
ATOM      6  C   UNL A   1      39.294  21.419  26.106  1.00  0.00     0.219 A 
ATOM      7  C   UNL A   1      31.497  25.936  22.395  1.00  0.00     0.014 C 
ATOM      8  C   UNL A   1      32.454  25.965  23.614  1.00  0.00    -0.006 C 
ATOM      9  C   UNL A   1      31.671  26.545  24.826  1.00  0.00     0.120 C 
ATOM     10  C   UNL A   1      32.911  24.475  23.964  1.00  0.00     0.004 C 
ATOM     11  C   UNL A   1      33.653  26.884  23.241  1.00  0.00     0.014 C 
ATOM     12  C   UNL A   1      32.507  26.633  26.102  1.00  0.00     0.033 C 
ATOM     13  C   UNL A   1      33.415  24.280  25.453  1.00  0.00    -0.022 C 
ATOM     14  C   UNL A   1      33.743  23.844  22.811  1.00  0.00     0.009 C 
ATOM     15  C   UNL A   1      33.682  25.661  26.126  1.00  0.00     0.010 C 
ATOM     16  C   UNL A   1      34.659  23.320  25.596  1.00  0.00     0.044 C 
ATOM     17  C   UNL A   1      32.264  23.642  26.308  1.00  0.00     0.012 C 
ATOM     18  C   UNL A   1      34.838  22.829  23.128  1.00  0.00     0.049 C 
ATOM     19  C   UNL A   1      34.772  22.205  24.521  1.00  0.00     0.113 C 
ATOM     20  C   UNL A   1      36.001  24.080  25.661  1.00  0.00     0.055 C 
ATOM     21  O   UNL A   1      35.948  21.369  24.709  1.00  0.00    -0.458 OA
ATOM     22  C   UNL A   1      33.612  21.194  24.558  1.00  0.00     0.057 C 
ATOM     23  C   UNL A   1      37.140  23.135  25.771  1.00  0.00     0.081 A 
ATOM     24  C   UNL A   1      37.072  21.871  25.332  1.00  0.00     0.292 A 
ATOM     25  C   UNL A   1      38.369  23.603  26.451  1.00  0.00     0.192 A 
ATOM     26  O   UNL A   1      38.138  20.991  25.479  1.00  0.00    -0.418 OA
ATOM     27  C   UNL A   1      39.470  22.647  26.597  1.00  0.00     0.107 A 
ATOM     28  O   UNL A   1      38.491  24.749  26.867  1.00  0.00    -0.289 OA
BRANCH   9  29
ATOM     29  O   UNL A   1      31.100  27.823  24.548  1.00  0.00    -0.393 OA
ATOM     30  H   UNL A   1      30.314  27.953  25.101  1.00  0.00     0.210 HD
ENDBRANCH   9  29
ENDBRANCH   4   6
ENDBRANCH   3   4
ENDBRANCH   2   3
ENDBRANCH   1   2
BRANCH   1  31
ATOM     31  O   UNL A   1      43.081  22.928  25.032  1.00  0.00    -0.458 OA
BRANCH  31  32
ATOM     32  C   UNL A   1      43.801  24.058  25.209  1.00  0.00     0.338 C 
ATOM     33  O   UNL A   1      44.823  24.390  24.628  1.00  0.00    -0.246 OA
BRANCH  32  34
ATOM     34  C   UNL A   1      43.120  24.921  26.178  1.00  0.00     0.060 A 
ATOM     35  C   UNL A   1      43.464  26.272  26.222  1.00  0.00     0.016 A 
ATOM     36  C   UNL A   1      42.234  24.382  27.110  1.00  0.00     0.016 A 
ATOM     37  C   UNL A   1      42.962  27.090  27.223  1.00  0.00     0.010 A 
ATOM     38  C   UNL A   1      41.705  25.210  28.103  1.00  0.00     0.010 A 
ATOM     39  C   UNL A   1      42.087  26.560  28.175  1.00  0.00    -0.014 A 
BRANCH  39  40
ATOM     40  C   UNL A   1      41.628  27.426  29.278  1.00  0.00     0.031 A 
ATOM     41  C   UNL A   1      42.396  27.454  30.564  1.00  0.00     0.074 A 
ATOM     42  C   UNL A   1      40.568  28.231  29.092  1.00  0.00     0.049 A 
ATOM     43  N   UNL A   1      42.137  28.116  31.661  1.00  0.00    -0.248 NA
ATOM     44  C   UNL A   1      43.622  26.639  30.625  1.00  0.00     0.031 C 
ATOM     45  C   UNL A   1      39.804  28.346  27.849  1.00  0.00     0.029 A 
ATOM     46  N   UNL A   1      39.964  29.119  29.942  1.00  0.00    -0.354 N 
ATOM     47  C   UNL A   1      43.156  27.790  32.545  1.00  0.00     0.074 A 
ATOM     48  C   UNL A   1      44.031  26.858  31.867  1.00  0.00     0.031 C 
ATOM     49  C   UNL A   1      38.840  29.265  28.013  1.00  0.00     0.029 A 
ATOM     50  C   UNL A   1      38.891  29.768  29.383  1.00  0.00     0.049 A 
ATOM     51  H   UNL A   1      40.268  29.276  30.866  1.00  0.00     0.167 HD
ATOM     52  C   UNL A   1      43.342  28.235  33.808  1.00  0.00     0.031 A 
ATOM     53  C   UNL A   1      38.034  30.654  29.922  1.00  0.00     0.031 A 
ATOM     54  C   UNL A   1      42.470  29.164  34.471  1.00  0.00     0.049 A 
ATOM     55  C   UNL A   1      38.206  31.060  31.356  1.00  0.00     0.074 A 
ATOM     56  C   UNL A   1      42.568  29.666  35.756  1.00  0.00     0.029 A 
ATOM     57  N   UNL A   1      41.345  29.735  33.897  1.00  0.00    -0.354 N 
ATOM     58  N   UNL A   1      39.148  30.710  32.199  1.00  0.00    -0.248 NA
ATOM     59  C   UNL A   1      37.200  31.970  31.918  1.00  0.00     0.031 C 
ATOM     60  C   UNL A   1      41.477  30.512  35.975  1.00  0.00     0.029 A 
ATOM     61  C   UNL A   1      40.727  30.570  34.810  1.00  0.00     0.049 A 
ATOM     62  H   UNL A   1      41.033  29.570  32.978  1.00  0.00     0.167 HD
ATOM     63  C   UNL A   1      38.856  31.366  33.386  1.00  0.00     0.074 A 
ATOM     64  C   UNL A   1      37.654  32.139  33.154  1.00  0.00     0.031 C 
ATOM     65  C   UNL A   1      39.529  31.329  34.560  1.00  0.00     0.031 A 
BRANCH  52  66
ATOM     66  C   UNL A   1      44.520  27.706  34.569  1.00  0.00    -0.014 A 
ATOM     67  C   UNL A   1      45.745  28.389  34.571  1.00  0.00     0.009 A 
ATOM     68  C   UNL A   1      44.379  26.551  35.355  1.00  0.00     0.009 A 
ATOM     69  C   UNL A   1      46.812  27.917  35.339  1.00  0.00     0.001 A 
ATOM     70  C   UNL A   1      45.441  26.094  36.136  1.00  0.00     0.001 A 
ATOM     71  C   UNL A   1      46.657  26.776  36.126  1.00  0.00     0.000 A 
ENDBRANCH  52  66
BRANCH  53  72
ATOM     72  C   UNL A   1      36.932  31.195  29.087  1.00  0.00    -0.014 A 
ATOM     73  C   UNL A   1      35.851  30.380  28.725  1.00  0.00     0.009 A 
ATOM     74  C   UNL A   1      36.926  32.546  28.707  1.00  0.00     0.009 A 
ATOM     75  C   UNL A   1      34.780  30.910  28.001  1.00  0.00     0.001 A 
ATOM     76  C   UNL A   1      35.847  33.077  27.999  1.00  0.00     0.001 A 
ATOM     77  C   UNL A   1      34.776  32.259  27.646  1.00  0.00     0.000 A 
ENDBRANCH  53  72
BRANCH  65  78
ATOM     78  C   UNL A   1      39.002  32.155  35.695  1.00  0.00    -0.014 A 
ATOM     79  C   UNL A   1      38.153  31.590  36.657  1.00  0.00     0.009 A 
ATOM     80  C   UNL A   1      39.465  33.468  35.872  1.00  0.00     0.009 A 
ATOM     81  C   UNL A   1      37.774  32.330  37.779  1.00  0.00     0.001 A 
ATOM     82  C   UNL A   1      39.100  34.196  37.003  1.00  0.00     0.001 A 
ATOM     83  C   UNL A   1      38.256  33.627  37.956  1.00  0.00     0.000 A 
ENDBRANCH  65  78
ENDBRANCH  39  40
ENDBRANCH  32  34
ENDBRANCH  31  32
ENDBRANCH   1  31
TORSDOF 12
ENDMDL
MODEL 2
REMARK VINA RESULT:     -13.3      0.384      5.775
REMARK SMILES CC1(C)[C@H](O)CC[C@@]2(C)[C@@H]1CC[C@@]1(C)Oc3oc(C(=O)OCCOC(=O)c4ccc(-c5c6nc(c(-c7ccccc7)c7ccc([nH]7)c(-c7ccccc7)c7nc(c(-c8ccccc8)c8ccc5[nH]8)C=C7)C=C6)cc4)cc(=O)c3C[C@@H]21
REMARK SMILES IDX 23 1 22 2 21 3 19 4 20 5 18 6 1 7 2 8 4 9 10 10 3 11 6 12
REMARK SMILES IDX 8 13 11 14 7 15 80 16 9 17 12 18 13 19 79 20 15 21 14 22
REMARK SMILES IDX 78 23 16 24 76 25 17 26 75 27 77 28 5 29 24 31 25 32 26 33
REMARK SMILES IDX 27 34 28 35 74 36 29 37 73 38 30 39 31 40 32 41 67 42 33 43
REMARK SMILES IDX 72 44 66 45 68 46 34 47 71 48 65 49 64 50 35 52 57 53 42 54
REMARK SMILES IDX 56 55 43 56 46 57 55 58 69 59 44 60 45 61 54 63 70 64 47 65
REMARK SMILES IDX 36 66 37 67 41 68 38 69 40 70 39 71 58 72 59 73 63 74 60 75
REMARK SMILES IDX 62 76 61 77 48 78 49 79 53 80 50 81 52 82 51 83
REMARK H PARENT 5 30 68 51 46 62
REMARK Flexibility Score: inf
ROOT
ATOM      1  C   UNL A   1      44.170  22.090  25.197  1.00  0.00     0.275 C 
ENDROOT
BRANCH   1   2
ATOM      2  C   UNL A   1      43.146  21.094  25.750  1.00  0.00     0.275 C 
BRANCH   2   3
ATOM      3  O   UNL A   1      41.791  21.470  25.429  1.00  0.00    -0.456 OA
BRANCH   3   4
ATOM      4  C   UNL A   1      40.833  20.871  26.179  1.00  0.00     0.374 C 
ATOM      5  O   UNL A   1      40.932  19.807  26.770  1.00  0.00    -0.242 OA
BRANCH   4   6
ATOM      6  C   UNL A   1      39.592  21.672  26.196  1.00  0.00     0.219 A 
ATOM      7  C   UNL A   1      31.586  25.692  22.358  1.00  0.00     0.014 C 
ATOM      8  C   UNL A   1      32.532  25.793  23.583  1.00  0.00    -0.006 C 
ATOM      9  C   UNL A   1      31.709  26.349  24.780  1.00  0.00     0.120 C 
ATOM     10  C   UNL A   1      33.067  24.337  23.961  1.00  0.00     0.004 C 
ATOM     11  C   UNL A   1      33.681  26.770  23.201  1.00  0.00     0.014 C 
ATOM     12  C   UNL A   1      32.530  26.505  26.059  1.00  0.00     0.033 C 
ATOM     13  C   UNL A   1      33.569  24.195  25.457  1.00  0.00    -0.022 C 
ATOM     14  C   UNL A   1      33.941  23.733  22.825  1.00  0.00     0.009 C 
ATOM     15  C   UNL A   1      33.756  25.599  26.107  1.00  0.00     0.010 C 
ATOM     16  C   UNL A   1      34.864  23.307  25.623  1.00  0.00     0.044 C 
ATOM     17  C   UNL A   1      32.450  23.509  26.315  1.00  0.00     0.012 C 
ATOM     18  C   UNL A   1      35.087  22.785  23.166  1.00  0.00     0.049 C 
ATOM     19  C   UNL A   1      35.045  22.182  24.569  1.00  0.00     0.113 C 
ATOM     20  C   UNL A   1      36.161  24.141  25.684  1.00  0.00     0.055 C 
ATOM     21  O   UNL A   1      36.263  21.415  24.778  1.00  0.00    -0.458 OA
ATOM     22  C   UNL A   1      33.942  21.109  24.616  1.00  0.00     0.057 C 
ATOM     23  C   UNL A   1      37.350  23.261  25.817  1.00  0.00     0.081 A 
ATOM     24  C   UNL A   1      37.354  21.988  25.400  1.00  0.00     0.292 A 
ATOM     25  C   UNL A   1      38.546  23.807  26.497  1.00  0.00     0.192 A 
ATOM     26  O   UNL A   1      38.466  21.171  25.568  1.00  0.00    -0.418 OA
ATOM     27  C   UNL A   1      39.697  22.916  26.666  1.00  0.00     0.107 A 
ATOM     28  O   UNL A   1      38.602  24.965  26.895  1.00  0.00    -0.289 OA
BRANCH   9  29
ATOM     29  O   UNL A   1      31.071  27.590  24.476  1.00  0.00    -0.393 OA
ATOM     30  H   UNL A   1      30.185  27.603  24.871  1.00  0.00     0.210 HD
ENDBRANCH   9  29
ENDBRANCH   4   6
ENDBRANCH   3   4
ENDBRANCH   2   3
ENDBRANCH   1   2
BRANCH   1  31
ATOM     31  O   UNL A   1      43.551  23.337  24.836  1.00  0.00    -0.458 OA
BRANCH  31  32
ATOM     32  C   UNL A   1      44.275  24.440  25.132  1.00  0.00     0.338 C 
ATOM     33  O   UNL A   1      45.321  24.806  24.619  1.00  0.00    -0.246 OA
BRANCH  32  34
ATOM     34  C   UNL A   1      43.565  25.228  26.144  1.00  0.00     0.060 A 
ATOM     35  C   UNL A   1      43.913  26.569  26.306  1.00  0.00     0.016 A 
ATOM     36  C   UNL A   1      42.649  24.623  27.002  1.00  0.00     0.016 A 
ATOM     37  C   UNL A   1      43.382  27.309  27.351  1.00  0.00     0.010 A 
ATOM     38  C   UNL A   1      42.090  25.373  28.039  1.00  0.00     0.010 A 
ATOM     39  C   UNL A   1      42.475  26.711  28.231  1.00  0.00    -0.014 A 
BRANCH  39  40
ATOM     40  C   UNL A   1      41.983  27.491  29.383  1.00  0.00     0.031 A 
ATOM     41  C   UNL A   1      40.717  28.281  29.255  1.00  0.00     0.074 A 
ATOM     42  C   UNL A   1      42.639  27.427  30.554  1.00  0.00     0.049 A 
ATOM     43  N   UNL A   1      40.141  29.056  30.135  1.00  0.00    -0.248 NA
ATOM     44  C   UNL A   1      39.997  28.180  27.974  1.00  0.00     0.031 C 
ATOM     45  C   UNL A   1      43.832  26.618  30.810  1.00  0.00     0.029 A 
ATOM     46  N   UNL A   1      42.383  28.038  31.753  1.00  0.00    -0.354 N 
ATOM     47  C   UNL A   1      39.001  29.546  29.513  1.00  0.00     0.074 A 
ATOM     48  C   UNL A   1      38.971  28.995  28.176  1.00  0.00     0.031 C 
ATOM     49  C   UNL A   1      44.196  26.771  32.093  1.00  0.00     0.029 A 
ATOM     50  C   UNL A   1      43.291  27.722  32.733  1.00  0.00     0.049 A 
ATOM     51  H   UNL A   1      41.623  28.646  31.899  1.00  0.00     0.167 HD
ATOM     52  C   UNL A   1      38.063  30.378  30.020  1.00  0.00     0.031 A 
ATOM     53  C   UNL A   1      43.393  28.165  33.999  1.00  0.00     0.031 A 
ATOM     54  C   UNL A   1      38.099  30.915  31.352  1.00  0.00     0.049 A 
ATOM     55  C   UNL A   1      42.393  29.162  34.509  1.00  0.00     0.074 A 
ATOM     56  C   UNL A   1      37.201  31.777  31.955  1.00  0.00     0.029 A 
ATOM     57  N   UNL A   1      39.083  30.636  32.288  1.00  0.00    -0.354 N 
ATOM     58  N   UNL A   1      41.343  29.654  33.897  1.00  0.00    -0.248 NA
ATOM     59  C   UNL A   1      42.593  29.672  35.872  1.00  0.00     0.031 C 
ATOM     60  C   UNL A   1      37.662  32.052  33.245  1.00  0.00     0.029 A 
ATOM     61  C   UNL A   1      38.824  31.326  33.458  1.00  0.00     0.049 A 
ATOM     62  H   UNL A   1      39.850  30.037  32.141  1.00  0.00     0.167 HD
ATOM     63  C   UNL A   1      40.749  30.521  34.803  1.00  0.00     0.074 A 
ATOM     64  C   UNL A   1      41.552  30.483  36.008  1.00  0.00     0.031 C 
ATOM     65  C   UNL A   1      39.637  31.277  34.646  1.00  0.00     0.031 A 
BRANCH  52  66
ATOM     66  C   UNL A   1      36.929  30.780  29.128  1.00  0.00    -0.014 A 
ATOM     67  C   UNL A   1      35.933  29.861  28.764  1.00  0.00     0.009 A 
ATOM     68  C   UNL A   1      36.814  32.115  28.707  1.00  0.00     0.009 A 
ATOM     69  C   UNL A   1      34.848  30.270  27.986  1.00  0.00     0.001 A 
ATOM     70  C   UNL A   1      35.719  32.524  27.945  1.00  0.00     0.001 A 
ATOM     71  C   UNL A   1      34.738  31.601  27.584  1.00  0.00     0.000 A 
ENDBRANCH  52  66
BRANCH  53  72
ATOM     72  C   UNL A   1      44.500  27.668  34.854  1.00  0.00    -0.014 A 
ATOM     73  C   UNL A   1      45.739  28.323  34.862  1.00  0.00     0.009 A 
ATOM     74  C   UNL A   1      44.299  26.577  35.714  1.00  0.00     0.009 A 
ATOM     75  C   UNL A   1      46.756  27.896  35.720  1.00  0.00     0.001 A 
ATOM     76  C   UNL A   1      45.310  26.165  36.583  1.00  0.00     0.001 A 
ATOM     77  C   UNL A   1      46.538  26.824  36.585  1.00  0.00     0.000 A 
ENDBRANCH  53  72
BRANCH  65  78
ATOM     78  C   UNL A   1      39.198  32.124  35.802  1.00  0.00    -0.014 A 
ATOM     79  C   UNL A   1      39.636  33.450  35.926  1.00  0.00     0.009 A 
ATOM     80  C   UNL A   1      38.236  31.630  36.698  1.00  0.00     0.009 A 
ATOM     81  C   UNL A   1      39.119  34.268  36.931  1.00  0.00     0.001 A 
ATOM     82  C   UNL A   1      37.708  32.457  37.689  1.00  0.00     0.001 A 
ATOM     83  C   UNL A   1      38.149  33.776  37.804  1.00  0.00     0.000 A 
ENDBRANCH  65  78
ENDBRANCH  39  40
ENDBRANCH  32  34
ENDBRANCH  31  32
ENDBRANCH   1  31
TORSDOF 12
ENDMDL
MODEL 3
REMARK VINA RESULT:     -13.2      3.329      8.985
REMARK SMILES CC1(C)[C@H](O)CC[C@@]2(C)[C@@H]1CC[C@@]1(C)Oc3oc(C(=O)OCCOC(=O)c4ccc(-c5c6nc(c(-c7ccccc7)c7ccc([nH]7)c(-c7ccccc7)c7nc(c(-c8ccccc8)c8ccc5[nH]8)C=C7)C=C6)cc4)cc(=O)c3C[C@@H]21
REMARK SMILES IDX 23 1 22 2 21 3 19 4 20 5 18 6 1 7 2 8 4 9 10 10 3 11 6 12
REMARK SMILES IDX 8 13 11 14 7 15 80 16 9 17 12 18 13 19 79 20 15 21 14 22
REMARK SMILES IDX 78 23 16 24 76 25 17 26 75 27 77 28 5 29 24 31 25 32 26 33
REMARK SMILES IDX 27 34 28 35 74 36 29 37 73 38 30 39 31 40 32 41 67 42 33 43
REMARK SMILES IDX 72 44 66 45 68 46 34 47 71 48 65 49 64 50 35 52 57 53 42 54
REMARK SMILES IDX 56 55 43 56 46 57 55 58 69 59 44 60 45 61 54 63 70 64 47 65
REMARK SMILES IDX 36 66 37 67 41 68 38 69 40 70 39 71 58 72 59 73 63 74 60 75
REMARK SMILES IDX 62 76 61 77 48 78 49 79 53 80 50 81 52 82 51 83
REMARK H PARENT 5 30 68 51 46 62
REMARK Flexibility Score: inf
ROOT
ATOM      1  C   UNL A   1      32.916  36.077  29.836  1.00  0.00     0.275 C 
ENDROOT
BRANCH   1   2
ATOM      2  C   UNL A   1      33.239  35.194  28.627  1.00  0.00     0.275 C 
BRANCH   2   3
ATOM      3  O   UNL A   1      33.288  33.794  28.971  1.00  0.00    -0.456 OA
BRANCH   3   4
ATOM      4  C   UNL A   1      34.523  33.236  28.942  1.00  0.00     0.374 C 
ATOM      5  O   UNL A   1      35.537  33.688  29.451  1.00  0.00    -0.242 OA
BRANCH   4   6
ATOM      6  C   UNL A   1      34.518  31.970  28.181  1.00  0.00     0.219 A 
ATOM      7  C   UNL A   1      30.916  23.394  25.273  1.00  0.00     0.014 C 
ATOM      8  C   UNL A   1      32.236  24.208  25.318  1.00  0.00    -0.006 C 
ATOM      9  C   UNL A   1      33.128  23.742  24.132  1.00  0.00     0.120 C 
ATOM     10  C   UNL A   1      31.907  25.760  25.134  1.00  0.00     0.004 C 
ATOM     11  C   UNL A   1      32.923  23.901  26.679  1.00  0.00     0.014 C 
ATOM     12  C   UNL A   1      34.471  24.467  24.063  1.00  0.00     0.033 C 
ATOM     13  C   UNL A   1      33.127  26.628  24.616  1.00  0.00    -0.022 C 
ATOM     14  C   UNL A   1      31.052  26.309  26.311  1.00  0.00     0.009 C 
ATOM     15  C   UNL A   1      34.460  25.831  24.747  1.00  0.00     0.010 C 
ATOM     16  C   UNL A   1      33.240  28.052  25.289  1.00  0.00     0.044 C 
ATOM     17  C   UNL A   1      32.966  26.878  23.076  1.00  0.00     0.012 C 
ATOM     18  C   UNL A   1      31.206  27.763  26.752  1.00  0.00     0.049 C 
ATOM     19  C   UNL A   1      31.898  28.683  25.748  1.00  0.00     0.113 C 
ATOM     20  C   UNL A   1      34.231  28.082  26.471  1.00  0.00     0.055 C 
ATOM     21  O   UNL A   1      32.082  29.987  26.369  1.00  0.00    -0.458 OA
ATOM     22  C   UNL A   1      30.926  28.978  24.592  1.00  0.00     0.057 C 
ATOM     23  C   UNL A   1      34.284  29.434  27.083  1.00  0.00     0.081 A 
ATOM     24  C   UNL A   1      33.268  30.302  26.998  1.00  0.00     0.292 A 
ATOM     25  C   UNL A   1      35.538  29.844  27.753  1.00  0.00     0.192 A 
ATOM     26  O   UNL A   1      33.354  31.577  27.546  1.00  0.00    -0.418 OA
ATOM     27  C   UNL A   1      35.598  31.198  28.312  1.00  0.00     0.107 A 
ATOM     28  O   UNL A   1      36.499  29.091  27.866  1.00  0.00    -0.289 OA
BRANCH   9  29
ATOM     29  O   UNL A   1      33.354  22.333  24.138  1.00  0.00    -0.393 OA
ATOM     30  H   UNL A   1      32.802  21.919  24.820  1.00  0.00     0.210 HD
ENDBRANCH   9  29
ENDBRANCH   4   6
ENDBRANCH   3   4
ENDBRANCH   2   3
ENDBRANCH   1   2
BRANCH   1  31
ATOM     31  O   UNL A   1      32.441  35.297  30.948  1.00  0.00    -0.458 OA
BRANCH  31  32
ATOM     32  C   UNL A   1      32.765  35.785  32.166  1.00  0.00     0.338 C 
ATOM     33  O   UNL A   1      32.168  36.633  32.813  1.00  0.00    -0.246 OA
BRANCH  32  34
ATOM     34  C   UNL A   1      33.936  35.069  32.679  1.00  0.00     0.060 A 
ATOM     35  C   UNL A   1      35.191  35.662  32.541  1.00  0.00     0.016 A 
ATOM     36  C   UNL A   1      33.813  33.777  33.187  1.00  0.00     0.016 A 
ATOM     37  C   UNL A   1      36.339  34.957  32.868  1.00  0.00     0.010 A 
ATOM     38  C   UNL A   1      34.966  33.074  33.544  1.00  0.00     0.010 A 
ATOM     39  C   UNL A   1      36.233  33.654  33.362  1.00  0.00    -0.014 A 
BRANCH  39  40
ATOM     40  C   UNL A   1      37.468  32.891  33.627  1.00  0.00     0.031 A 
ATOM     41  C   UNL A   1      38.205  33.104  34.914  1.00  0.00     0.074 A 
ATOM     42  C   UNL A   1      37.879  31.966  32.743  1.00  0.00     0.049 A 
ATOM     43  N   UNL A   1      39.324  32.561  35.318  1.00  0.00    -0.248 NA
ATOM     44  C   UNL A   1      37.603  34.040  35.879  1.00  0.00     0.031 C 
ATOM     45  C   UNL A   1      37.186  31.620  31.501  1.00  0.00     0.029 A 
ATOM     46  N   UNL A   1      38.968  31.135  32.764  1.00  0.00    -0.354 N 
ATOM     47  C   UNL A   1      39.567  33.098  36.575  1.00  0.00     0.074 A 
ATOM     48  C   UNL A   1      38.491  34.020  36.864  1.00  0.00     0.031 C 
ATOM     49  C   UNL A   1      37.860  30.635  30.886  1.00  0.00     0.029 A 
ATOM     50  C   UNL A   1      39.052  30.317  31.666  1.00  0.00     0.049 A 
ATOM     51  H   UNL A   1      39.628  31.127  33.495  1.00  0.00     0.167 HD
ATOM     52  C   UNL A   1      40.597  32.836  37.411  1.00  0.00     0.031 A 
ATOM     53  C   UNL A   1      39.996  29.423  31.318  1.00  0.00     0.031 A 
ATOM     54  C   UNL A   1      41.659  31.914  37.116  1.00  0.00     0.049 A 
ATOM     55  C   UNL A   1      41.179  29.220  32.219  1.00  0.00     0.074 A 
ATOM     56  C   UNL A   1      42.754  31.590  37.896  1.00  0.00     0.029 A 
ATOM     57  N   UNL A   1      41.751  31.165  35.954  1.00  0.00    -0.354 N 
ATOM     58  N   UNL A   1      41.423  29.767  33.386  1.00  0.00    -0.248 NA
ATOM     59  C   UNL A   1      42.218  28.290  31.757  1.00  0.00     0.031 C 
ATOM     60  C   UNL A   1      43.534  30.672  37.186  1.00  0.00     0.029 A 
ATOM     61  C   UNL A   1      42.899  30.393  35.986  1.00  0.00     0.049 A 
ATOM     62  H   UNL A   1      41.099  31.180  35.218  1.00  0.00     0.167 HD
ATOM     63  C   UNL A   1      42.636  29.239  33.804  1.00  0.00     0.074 A 
ATOM     64  C   UNL A   1      43.075  28.325  32.770  1.00  0.00     0.031 C 
ATOM     65  C   UNL A   1      43.319  29.491  34.946  1.00  0.00     0.031 A 
BRANCH  52  66
ATOM     66  C   UNL A   1      40.643  33.573  38.715  1.00  0.00    -0.014 A 
ATOM     67  C   UNL A   1      40.039  33.045  39.866  1.00  0.00     0.009 A 
ATOM     68  C   UNL A   1      41.365  34.773  38.811  1.00  0.00     0.009 A 
ATOM     69  C   UNL A   1      40.149  33.712  41.088  1.00  0.00     0.001 A 
ATOM     70  C   UNL A   1      41.489  35.427  40.037  1.00  0.00     0.001 A 
ATOM     71  C   UNL A   1      40.879  34.898  41.174  1.00  0.00     0.000 A 
ENDBRANCH  52  66
BRANCH  53  72
ATOM     72  C   UNL A   1      39.849  28.673  30.046  1.00  0.00    -0.014 A 
ATOM     73  C   UNL A   1      40.279  29.236  28.837  1.00  0.00     0.009 A 
ATOM     74  C   UNL A   1      39.341  27.364  30.047  1.00  0.00     0.009 A 
ATOM     75  C   UNL A   1      40.206  28.501  27.651  1.00  0.00     0.001 A 
ATOM     76  C   UNL A   1      39.287  26.625  28.864  1.00  0.00     0.001 A 
ATOM     77  C   UNL A   1      39.718  27.194  27.667  1.00  0.00     0.000 A 
ENDBRANCH  53  72
BRANCH  65  78
ATOM     78  C   UNL A   1      44.613  28.765  35.161  1.00  0.00    -0.014 A 
ATOM     79  C   UNL A   1      45.832  29.350  34.788  1.00  0.00     0.009 A 
ATOM     80  C   UNL A   1      44.619  27.549  35.861  1.00  0.00     0.009 A 
ATOM     81  C   UNL A   1      47.037  28.724  35.112  1.00  0.00     0.001 A 
ATOM     82  C   UNL A   1      45.825  26.937  36.199  1.00  0.00     0.001 A 
ATOM     83  C   UNL A   1      47.033  27.525  35.826  1.00  0.00     0.000 A 
ENDBRANCH  65  78
ENDBRANCH  39  40
ENDBRANCH  32  34
ENDBRANCH  31  32
ENDBRANCH   1  31
TORSDOF 12
ENDMDL
