MODEL 1
REMARK VINA RESULT:     -11.2      0.000      0.000
REMARK SMILES CCCCCCNC(=O)Oc1cccc(-c2ccc([C@@H](C)C(=O)OCCOC(=O)c3ccc(-c4c5nc(c(-c6ccccc6)c6ccc([nH]6)c(-c6ccccc6)c6nc(c(-c7ccccc7)c7ccc4[nH]7)C=C6)C=C5)cc3)cc2C(F)(F)F)c1
REMARK SMILES IDX 20 1 21 2 19 3 16 4 17 5 79 6 18 7 78 8 15 9 11 10 12 11
REMARK SMILES IDX 84 12 13 13 14 14 10 15 8 16 7 17 9 19 6 20 5 21 4 22 3 23
REMARK SMILES IDX 2 24 1 25 80 26 81 27 82 28 83 29 22 30 23 31 24 32 25 33
REMARK SMILES IDX 26 34 27 35 28 36 29 37 30 38 31 39 77 40 32 41 76 42 33 43
REMARK SMILES IDX 34 44 35 45 70 46 36 47 75 48 69 49 71 50 37 51 74 52 68 53
REMARK SMILES IDX 67 54 38 56 60 57 45 58 59 59 46 60 49 61 58 62 72 63 47 64
REMARK SMILES IDX 48 65 57 67 73 68 50 69 39 70 40 71 44 72 41 73 43 74 42 75
REMARK SMILES IDX 61 76 62 77 66 78 63 79 65 80 64 81 51 82 52 83 56 84 53 85
REMARK SMILES IDX 55 86 54 87
REMARK H PARENT 7 18 71 55 49 66
REMARK Flexibility Score: inf
ROOT
ATOM      1  C   UNL A   1      34.090  34.590  28.710  1.00  0.00     0.126 C 
ATOM      2  C   UNL A   1      34.511  35.546  27.595  1.00  0.00     0.025 C 
ENDROOT
BRANCH   1   3
ATOM      3  C   UNL A   1      33.678  33.225  28.179  1.00  0.00    -0.033 A 
ATOM      4  C   UNL A   1      33.008  30.657  27.126  1.00  0.00    -0.006 A 
ATOM      5  C   UNL A   1      32.106  31.740  27.080  1.00  0.00     0.009 A 
ATOM      6  C   UNL A   1      34.265  30.867  27.730  1.00  0.00     0.064 A 
ATOM      7  C   UNL A   1      32.435  33.001  27.586  1.00  0.00     0.005 A 
ATOM      8  C   UNL A   1      34.572  32.145  28.253  1.00  0.00     0.018 A 
BRANCH   4   9
ATOM      9  C   UNL A   1      32.616  29.394  26.472  1.00  0.00    -0.014 A 
ATOM     10  C   UNL A   1      32.480  27.924  24.551  1.00  0.00     0.133 A 
ATOM     11  C   UNL A   1      31.713  27.007  25.268  1.00  0.00     0.047 A 
ATOM     12  C   UNL A   1      32.944  29.104  25.138  1.00  0.00     0.056 A 
ATOM     13  C   UNL A   1      31.411  27.267  26.599  1.00  0.00     0.004 A 
ATOM     14  C   UNL A   1      31.850  28.452  27.190  1.00  0.00     0.009 A 
BRANCH  10  15
ATOM     15  O   UNL A   1      32.610  27.672  23.173  1.00  0.00    -0.410 OA
BRANCH  15  16
ATOM     16  C   UNL A   1      31.601  27.015  22.487  1.00  0.00     0.412 C 
ATOM     17  N   UNL A   1      30.610  27.862  22.065  1.00  0.00    -0.321 N 
ATOM     18  H   UNL A   1      29.858  27.453  21.582  1.00  0.00     0.167 HD
ATOM     19  O   UNL A   1      31.542  25.812  22.268  1.00  0.00    -0.224 OA
BRANCH  17  20
ATOM     20  C   UNL A   1      30.557  29.298  22.257  1.00  0.00     0.119 C 
BRANCH  20  21
ATOM     21  C   UNL A   1      29.599  29.695  23.382  1.00  0.00     0.021 C 
BRANCH  21  22
ATOM     22  C   UNL A   1      28.197  30.108  22.922  1.00  0.00     0.002 C 
BRANCH  22  23
ATOM     23  C   UNL A   1      27.806  31.562  23.211  1.00  0.00    -0.000 C 
BRANCH  23  24
ATOM     24  C   UNL A   1      28.284  32.589  22.183  1.00  0.00    -0.003 C 
ATOM     25  C   UNL A   1      28.157  32.105  20.746  1.00  0.00     0.004 C 
ENDBRANCH  23  24
ENDBRANCH  22  23
ENDBRANCH  21  22
ENDBRANCH  20  21
ENDBRANCH  17  20
ENDBRANCH  15  16
ENDBRANCH  10  15
ENDBRANCH   4   9
BRANCH   6  26
ATOM     26  C   UNL A   1      35.318  29.788  27.869  1.00  0.00     0.417 C 
ATOM     27  F   UNL A   1      34.860  28.562  27.469  1.00  0.00    -0.166 F 
ATOM     28  F   UNL A   1      36.415  30.027  27.095  1.00  0.00    -0.166 F 
ATOM     29  F   UNL A   1      35.780  29.586  29.132  1.00  0.00    -0.166 F 
ENDBRANCH   6  26
ENDBRANCH   1   3
BRANCH   1  30
ATOM     30  C   UNL A   1      33.102  35.277  29.645  1.00  0.00     0.313 C 
ATOM     31  O   UNL A   1      32.402  36.213  29.273  1.00  0.00    -0.252 OA
BRANCH  30  32
ATOM     32  O   UNL A   1      33.050  34.729  30.886  1.00  0.00    -0.462 OA
BRANCH  32  33
ATOM     33  C   UNL A   1      33.628  35.497  31.960  1.00  0.00     0.274 C 
BRANCH  33  34
ATOM     34  C   UNL A   1      34.428  34.609  32.918  1.00  0.00     0.275 C 
BRANCH  34  35
ATOM     35  O   UNL A   1      35.496  33.926  32.234  1.00  0.00    -0.458 OA
BRANCH  35  36
ATOM     36  C   UNL A   1      36.131  32.986  32.970  1.00  0.00     0.338 C 
ATOM     37  O   UNL A   1      35.909  32.675  34.127  1.00  0.00    -0.246 OA
BRANCH  36  38
ATOM     38  C   UNL A   1      37.085  32.249  32.130  1.00  0.00     0.060 A 
ATOM     39  C   UNL A   1      38.089  31.526  32.776  1.00  0.00     0.016 A 
ATOM     40  C   UNL A   1      37.074  32.358  30.739  1.00  0.00     0.016 A 
ATOM     41  C   UNL A   1      39.111  30.937  32.044  1.00  0.00     0.010 A 
ATOM     42  C   UNL A   1      38.095  31.752  29.999  1.00  0.00     0.010 A 
ATOM     43  C   UNL A   1      39.134  31.060  30.649  1.00  0.00    -0.014 A 
BRANCH  43  44
ATOM     44  C   UNL A   1      40.290  30.516  29.898  1.00  0.00     0.031 A 
ATOM     45  C   UNL A   1      41.530  31.348  29.727  1.00  0.00     0.074 A 
ATOM     46  C   UNL A   1      40.248  29.260  29.418  1.00  0.00     0.049 A 
ATOM     47  N   UNL A   1      42.640  31.054  29.097  1.00  0.00    -0.248 NA
ATOM     48  C   UNL A   1      41.521  32.685  30.340  1.00  0.00     0.031 C 
ATOM     49  C   UNL A   1      39.117  28.340  29.552  1.00  0.00     0.029 A 
ATOM     50  N   UNL A   1      41.187  28.538  28.726  1.00  0.00    -0.354 N 
ATOM     51  C   UNL A   1      43.449  32.178  29.215  1.00  0.00     0.074 A 
ATOM     52  C   UNL A   1      42.700  33.163  29.965  1.00  0.00     0.031 C 
ATOM     53  C   UNL A   1      39.434  27.172  28.968  1.00  0.00     0.029 A 
ATOM     54  C   UNL A   1      40.770  27.275  28.388  1.00  0.00     0.049 A 
ATOM     55  H   UNL A   1      42.076  28.892  28.493  1.00  0.00     0.167 HD
ATOM     56  C   UNL A   1      44.702  32.370  28.742  1.00  0.00     0.031 A 
ATOM     57  C   UNL A   1      41.386  26.314  27.675  1.00  0.00     0.031 A 
ATOM     58  C   UNL A   1      45.459  31.384  28.016  1.00  0.00     0.049 A 
ATOM     59  C   UNL A   1      42.767  26.566  27.137  1.00  0.00     0.074 A 
ATOM     60  C   UNL A   1      46.752  31.477  27.531  1.00  0.00     0.029 A 
ATOM     61  N   UNL A   1      44.990  30.127  27.673  1.00  0.00    -0.354 N 
ATOM     62  N   UNL A   1      43.527  27.624  27.277  1.00  0.00    -0.248 NA
ATOM     63  C   UNL A   1      43.375  25.488  26.344  1.00  0.00     0.031 C 
ATOM     64  C   UNL A   1      47.049  30.289  26.852  1.00  0.00     0.029 A 
ATOM     65  C   UNL A   1      45.958  29.443  26.957  1.00  0.00     0.049 A 
ATOM     66  H   UNL A   1      44.101  29.772  27.904  1.00  0.00     0.167 HD
ATOM     67  C   UNL A   1      44.708  27.334  26.606  1.00  0.00     0.074 A 
ATOM     68  C   UNL A   1      44.571  25.992  26.077  1.00  0.00     0.031 C 
ATOM     69  C   UNL A   1      45.805  28.111  26.437  1.00  0.00     0.031 A 
BRANCH  56  70
ATOM     70  C   UNL A   1      45.328  33.718  28.962  1.00  0.00    -0.014 A 
ATOM     71  C   UNL A   1      46.120  33.982  30.089  1.00  0.00     0.009 A 
ATOM     72  C   UNL A   1      45.158  34.722  27.997  1.00  0.00     0.009 A 
ATOM     73  C   UNL A   1      46.709  35.238  30.257  1.00  0.00     0.001 A 
ATOM     74  C   UNL A   1      45.766  35.969  28.156  1.00  0.00     0.001 A 
ATOM     75  C   UNL A   1      46.536  36.227  29.289  1.00  0.00     0.000 A 
ENDBRANCH  56  70
BRANCH  57  76
ATOM     76  C   UNL A   1      40.690  25.031  27.394  1.00  0.00    -0.014 A 
ATOM     77  C   UNL A   1      41.141  23.829  27.959  1.00  0.00     0.009 A 
ATOM     78  C   UNL A   1      39.580  25.004  26.536  1.00  0.00     0.009 A 
ATOM     79  C   UNL A   1      40.510  22.622  27.648  1.00  0.00     0.001 A 
ATOM     80  C   UNL A   1      38.934  23.801  26.249  1.00  0.00     0.001 A 
ATOM     81  C   UNL A   1      39.406  22.610  26.797  1.00  0.00     0.000 A 
ENDBRANCH  57  76
BRANCH  69  82
ATOM     82  C   UNL A   1      46.948  27.518  25.665  1.00  0.00    -0.014 A 
ATOM     83  C   UNL A   1      47.920  26.729  26.301  1.00  0.00     0.009 A 
ATOM     84  C   UNL A   1      47.038  27.726  24.281  1.00  0.00     0.009 A 
ATOM     85  C   UNL A   1      48.978  26.187  25.568  1.00  0.00     0.001 A 
ATOM     86  C   UNL A   1      48.083  27.164  23.547  1.00  0.00     0.001 A 
ATOM     87  C   UNL A   1      49.057  26.402  24.193  1.00  0.00     0.000 A 
ENDBRANCH  69  82
ENDBRANCH  43  44
ENDBRANCH  36  38
ENDBRANCH  35  36
ENDBRANCH  34  35
ENDBRANCH  33  34
ENDBRANCH  32  33
ENDBRANCH  30  32
ENDBRANCH   1  30
TORSDOF 21
ENDMDL
MODEL 2
REMARK VINA RESULT:     -11.1      1.250      2.664
REMARK SMILES CCCCCCNC(=O)Oc1cccc(-c2ccc([C@@H](C)C(=O)OCCOC(=O)c3ccc(-c4c5nc(c(-c6ccccc6)c6ccc([nH]6)c(-c6ccccc6)c6nc(c(-c7ccccc7)c7ccc4[nH]7)C=C6)C=C5)cc3)cc2C(F)(F)F)c1
REMARK SMILES IDX 20 1 21 2 19 3 16 4 17 5 79 6 18 7 78 8 15 9 11 10 12 11
REMARK SMILES IDX 84 12 13 13 14 14 10 15 8 16 7 17 9 19 6 20 5 21 4 22 3 23
REMARK SMILES IDX 2 24 1 25 80 26 81 27 82 28 83 29 22 30 23 31 24 32 25 33
REMARK SMILES IDX 26 34 27 35 28 36 29 37 30 38 31 39 77 40 32 41 76 42 33 43
REMARK SMILES IDX 34 44 35 45 70 46 36 47 75 48 69 49 71 50 37 51 74 52 68 53
REMARK SMILES IDX 67 54 38 56 60 57 45 58 59 59 46 60 49 61 58 62 72 63 47 64
REMARK SMILES IDX 48 65 57 67 73 68 50 69 39 70 40 71 44 72 41 73 43 74 42 75
REMARK SMILES IDX 61 76 62 77 66 78 63 79 65 80 64 81 51 82 52 83 56 84 53 85
REMARK SMILES IDX 55 86 54 87
REMARK H PARENT 7 18 71 55 49 66
REMARK Flexibility Score: inf
ROOT
ATOM      1  C   UNL A   1      34.075  34.821  28.909  1.00  0.00     0.126 C 
ATOM      2  C   UNL A   1      34.565  35.810  27.854  1.00  0.00     0.025 C 
ENDROOT
BRANCH   1   3
ATOM      3  C   UNL A   1      33.643  33.493  28.304  1.00  0.00    -0.033 A 
ATOM      4  C   UNL A   1      32.934  31.000  27.104  1.00  0.00    -0.006 A 
ATOM      5  C   UNL A   1      32.019  32.069  27.201  1.00  0.00     0.009 A 
ATOM      6  C   UNL A   1      34.226  31.185  27.638  1.00  0.00     0.064 A 
ATOM      7  C   UNL A   1      32.367  33.293  27.778  1.00  0.00     0.005 A 
ATOM      8  C   UNL A   1      34.553  32.425  28.235  1.00  0.00     0.018 A 
BRANCH   4   9
ATOM      9  C   UNL A   1      32.514  29.784  26.382  1.00  0.00    -0.014 A 
ATOM     10  C   UNL A   1      32.145  28.511  24.355  1.00  0.00     0.133 A 
ATOM     11  C   UNL A   1      31.565  27.469  25.078  1.00  0.00     0.047 A 
ATOM     12  C   UNL A   1      32.630  29.657  24.989  1.00  0.00     0.056 A 
ATOM     13  C   UNL A   1      31.476  27.568  26.461  1.00  0.00     0.004 A 
ATOM     14  C   UNL A   1      31.937  28.717  27.103  1.00  0.00     0.009 A 
BRANCH  10  15
ATOM     15  O   UNL A   1      32.057  28.411  22.954  1.00  0.00    -0.410 OA
BRANCH  15  16
ATOM     16  C   UNL A   1      31.042  27.670  22.371  1.00  0.00     0.412 C 
ATOM     17  N   UNL A   1      31.508  26.570  21.701  1.00  0.00    -0.321 N 
ATOM     18  H   UNL A   1      30.834  26.009  21.253  1.00  0.00     0.167 HD
ATOM     19  O   UNL A   1      29.847  27.933  22.404  1.00  0.00    -0.224 OA
BRANCH  17  20
ATOM     20  C   UNL A   1      32.889  26.146  21.583  1.00  0.00     0.119 C 
BRANCH  20  21
ATOM     21  C   UNL A   1      33.182  24.895  22.413  1.00  0.00     0.021 C 
BRANCH  21  22
ATOM     22  C   UNL A   1      33.973  25.145  23.702  1.00  0.00     0.002 C 
BRANCH  22  23
ATOM     23  C   UNL A   1      34.369  23.891  24.490  1.00  0.00    -0.000 C 
BRANCH  23  24
ATOM     24  C   UNL A   1      35.857  23.538  24.461  1.00  0.00    -0.003 C 
ATOM     25  C   UNL A   1      36.311  22.954  23.132  1.00  0.00     0.004 C 
ENDBRANCH  23  24
ENDBRANCH  22  23
ENDBRANCH  21  22
ENDBRANCH  20  21
ENDBRANCH  17  20
ENDBRANCH  15  16
ENDBRANCH  10  15
ENDBRANCH   4   9
BRANCH   6  26
ATOM     26  C   UNL A   1      35.299  30.116  27.624  1.00  0.00     0.417 C 
ATOM     27  F   UNL A   1      36.555  30.644  27.502  1.00  0.00    -0.166 F 
ATOM     28  F   UNL A   1      35.328  29.391  28.778  1.00  0.00    -0.166 F 
ATOM     29  F   UNL A   1      35.206  29.214  26.610  1.00  0.00    -0.166 F 
ENDBRANCH   6  26
ENDBRANCH   1   3
BRANCH   1  30
ATOM     30  C   UNL A   1      33.072  35.497  29.836  1.00  0.00     0.313 C 
ATOM     31  O   UNL A   1      32.372  36.432  29.461  1.00  0.00    -0.252 OA
BRANCH  30  32
ATOM     32  O   UNL A   1      33.007  34.940  31.073  1.00  0.00    -0.462 OA
BRANCH  32  33
ATOM     33  C   UNL A   1      33.644  35.664  32.145  1.00  0.00     0.274 C 
BRANCH  33  34
ATOM     34  C   UNL A   1      34.452  34.730  33.050  1.00  0.00     0.275 C 
BRANCH  34  35
ATOM     35  O   UNL A   1      35.323  33.878  32.283  1.00  0.00    -0.458 OA
BRANCH  35  36
ATOM     36  C   UNL A   1      36.037  32.992  33.014  1.00  0.00     0.338 C 
ATOM     37  O   UNL A   1      35.883  32.703  34.188  1.00  0.00    -0.246 OA
BRANCH  36  38
ATOM     38  C   UNL A   1      36.989  32.278  32.151  1.00  0.00     0.060 A 
ATOM     39  C   UNL A   1      37.949  31.478  32.773  1.00  0.00     0.016 A 
ATOM     40  C   UNL A   1      37.021  32.480  30.771  1.00  0.00     0.016 A 
ATOM     41  C   UNL A   1      38.971  30.902  32.029  1.00  0.00     0.010 A 
ATOM     42  C   UNL A   1      38.042  31.889  30.019  1.00  0.00     0.010 A 
ATOM     43  C   UNL A   1      39.037  31.118  30.647  1.00  0.00    -0.014 A 
BRANCH  43  44
ATOM     44  C   UNL A   1      40.195  30.584  29.891  1.00  0.00     0.031 A 
ATOM     45  C   UNL A   1      41.432  31.422  29.726  1.00  0.00     0.074 A 
ATOM     46  C   UNL A   1      40.157  29.331  29.402  1.00  0.00     0.049 A 
ATOM     47  N   UNL A   1      42.542  31.137  29.093  1.00  0.00    -0.248 NA
ATOM     48  C   UNL A   1      41.417  32.754  30.349  1.00  0.00     0.031 C 
ATOM     49  C   UNL A   1      39.030  28.406  29.530  1.00  0.00     0.029 A 
ATOM     50  N   UNL A   1      41.099  28.618  28.704  1.00  0.00    -0.354 N 
ATOM     51  C   UNL A   1      43.347  32.263  29.219  1.00  0.00     0.074 A 
ATOM     52  C   UNL A   1      42.595  33.239  29.976  1.00  0.00     0.031 C 
ATOM     53  C   UNL A   1      39.351  27.243  28.936  1.00  0.00     0.029 A 
ATOM     54  C   UNL A   1      40.686  27.356  28.357  1.00  0.00     0.049 A 
ATOM     55  H   UNL A   1      41.986  28.977  28.473  1.00  0.00     0.167 HD
ATOM     56  C   UNL A   1      44.599  32.464  28.746  1.00  0.00     0.031 A 
ATOM     57  C   UNL A   1      41.306  26.402  27.636  1.00  0.00     0.031 A 
ATOM     58  C   UNL A   1      45.359  31.486  28.012  1.00  0.00     0.049 A 
ATOM     59  C   UNL A   1      42.685  26.664  27.100  1.00  0.00     0.074 A 
ATOM     60  C   UNL A   1      46.652  31.587  27.527  1.00  0.00     0.029 A 
ATOM     61  N   UNL A   1      44.895  30.229  27.661  1.00  0.00    -0.354 N 
ATOM     62  N   UNL A   1      43.442  27.724  27.247  1.00  0.00    -0.248 NA
ATOM     63  C   UNL A   1      43.297  25.595  26.298  1.00  0.00     0.031 C 
ATOM     64  C   UNL A   1      46.953  30.406  26.839  1.00  0.00     0.029 A 
ATOM     65  C   UNL A   1      45.865  29.554  26.939  1.00  0.00     0.049 A 
ATOM     66  H   UNL A   1      44.008  29.870  27.890  1.00  0.00     0.167 HD
ATOM     67  C   UNL A   1      44.623  27.444  26.572  1.00  0.00     0.074 A 
ATOM     68  C   UNL A   1      44.491  26.105  26.034  1.00  0.00     0.031 C 
ATOM     69  C   UNL A   1      45.717  28.225  26.408  1.00  0.00     0.031 A 
BRANCH  56  70
ATOM     70  C   UNL A   1      45.219  33.812  28.976  1.00  0.00    -0.014 A 
ATOM     71  C   UNL A   1      45.021  34.871  28.077  1.00  0.00     0.009 A 
ATOM     72  C   UNL A   1      45.974  34.035  30.137  1.00  0.00     0.009 A 
ATOM     73  C   UNL A   1      45.591  36.123  28.327  1.00  0.00     0.001 A 
ATOM     74  C   UNL A   1      46.523  35.293  30.396  1.00  0.00     0.001 A 
ATOM     75  C   UNL A   1      46.336  36.333  29.488  1.00  0.00     0.000 A 
ENDBRANCH  56  70
BRANCH  57  76
ATOM     76  C   UNL A   1      40.614  25.119  27.347  1.00  0.00    -0.014 A 
ATOM     77  C   UNL A   1      39.496  25.080  26.501  1.00  0.00     0.009 A 
ATOM     78  C   UNL A   1      41.061  23.928  27.940  1.00  0.00     0.009 A 
ATOM     79  C   UNL A   1      38.823  23.876  26.278  1.00  0.00     0.001 A 
ATOM     80  C   UNL A   1      40.404  22.722  27.692  1.00  0.00     0.001 A 
ATOM     81  C   UNL A   1      39.279  22.699  26.869  1.00  0.00     0.000 A 
ENDBRANCH  57  76
BRANCH  69  82
ATOM     82  C   UNL A   1      46.862  27.643  25.632  1.00  0.00    -0.014 A 
ATOM     83  C   UNL A   1      47.851  26.875  26.266  1.00  0.00     0.009 A 
ATOM     84  C   UNL A   1      46.935  27.840  24.245  1.00  0.00     0.009 A 
ATOM     85  C   UNL A   1      48.911  26.343  25.529  1.00  0.00     0.001 A 
ATOM     86  C   UNL A   1      47.982  27.286  23.507  1.00  0.00     0.001 A 
ATOM     87  C   UNL A   1      48.973  26.545  24.151  1.00  0.00     0.000 A 
ENDBRANCH  69  82
ENDBRANCH  43  44
ENDBRANCH  36  38
ENDBRANCH  35  36
ENDBRANCH  34  35
ENDBRANCH  33  34
ENDBRANCH  32  33
ENDBRANCH  30  32
ENDBRANCH   1  30
TORSDOF 21
ENDMDL
MODEL 3
REMARK VINA RESULT:     -10.8      4.690      7.227
REMARK SMILES CCCCCCNC(=O)Oc1cccc(-c2ccc([C@@H](C)C(=O)OCCOC(=O)c3ccc(-c4c5nc(c(-c6ccccc6)c6ccc([nH]6)c(-c6ccccc6)c6nc(c(-c7ccccc7)c7ccc4[nH]7)C=C6)C=C5)cc3)cc2C(F)(F)F)c1
REMARK SMILES IDX 20 1 21 2 19 3 16 4 17 5 79 6 18 7 78 8 15 9 11 10 12 11
REMARK SMILES IDX 84 12 13 13 14 14 10 15 8 16 7 17 9 19 6 20 5 21 4 22 3 23
REMARK SMILES IDX 2 24 1 25 80 26 81 27 82 28 83 29 22 30 23 31 24 32 25 33
REMARK SMILES IDX 26 34 27 35 28 36 29 37 30 38 31 39 77 40 32 41 76 42 33 43
REMARK SMILES IDX 34 44 35 45 70 46 36 47 75 48 69 49 71 50 37 51 74 52 68 53
REMARK SMILES IDX 67 54 38 56 60 57 45 58 59 59 46 60 49 61 58 62 72 63 47 64
REMARK SMILES IDX 48 65 57 67 73 68 50 69 39 70 40 71 44 72 41 73 43 74 42 75
REMARK SMILES IDX 61 76 62 77 66 78 63 79 65 80 64 81 51 82 52 83 56 84 53 85
REMARK SMILES IDX 55 86 54 87
REMARK H PARENT 7 18 71 55 49 66
REMARK Flexibility Score: inf
ROOT
ATOM      1  C   UNL A   1      35.203  32.736  28.768  1.00  0.00     0.126 C 
ATOM      2  C   UNL A   1      36.708  32.956  28.916  1.00  0.00     0.025 C 
ENDROOT
BRANCH   1   3
ATOM      3  C   UNL A   1      34.875  31.503  27.937  1.00  0.00    -0.033 A 
ATOM      4  C   UNL A   1      34.162  29.175  26.445  1.00  0.00    -0.006 A 
ATOM      5  C   UNL A   1      35.469  29.375  26.936  1.00  0.00     0.009 A 
ATOM      6  C   UNL A   1      33.201  30.176  26.695  1.00  0.00     0.064 A 
ATOM      7  C   UNL A   1      35.818  30.509  27.675  1.00  0.00     0.005 A 
ATOM      8  C   UNL A   1      33.579  31.325  27.429  1.00  0.00     0.018 A 
BRANCH   4   9
ATOM      9  C   UNL A   1      33.858  27.900  25.769  1.00  0.00    -0.014 A 
ATOM     10  C   UNL A   1      33.371  25.527  25.781  1.00  0.00     0.133 A 
ATOM     11  C   UNL A   1      33.413  25.480  24.388  1.00  0.00     0.047 A 
ATOM     12  C   UNL A   1      33.577  26.721  26.476  1.00  0.00     0.056 A 
ATOM     13  C   UNL A   1      33.656  26.647  23.675  1.00  0.00     0.004 A 
ATOM     14  C   UNL A   1      33.885  27.841  24.360  1.00  0.00     0.009 A 
BRANCH  10  15
ATOM     15  O   UNL A   1      33.279  24.285  26.435  1.00  0.00    -0.410 OA
BRANCH  15  16
ATOM     16  C   UNL A   1      32.045  23.681  26.613  1.00  0.00     0.412 C 
ATOM     17  N   UNL A   1      31.951  22.472  25.975  1.00  0.00    -0.321 N 
ATOM     18  H   UNL A   1      31.093  21.998  26.053  1.00  0.00     0.167 HD
ATOM     19  O   UNL A   1      31.102  24.139  27.244  1.00  0.00    -0.224 OA
BRANCH  17  20
ATOM     20  C   UNL A   1      32.986  21.818  25.198  1.00  0.00     0.119 C 
BRANCH  20  21
ATOM     21  C   UNL A   1      32.411  21.015  24.031  1.00  0.00     0.021 C 
BRANCH  21  22
ATOM     22  C   UNL A   1      32.651  19.503  24.106  1.00  0.00     0.002 C 
BRANCH  22  23
ATOM     23  C   UNL A   1      34.028  19.077  24.629  1.00  0.00    -0.000 C 
BRANCH  23  24
ATOM     24  C   UNL A   1      34.431  17.633  24.321  1.00  0.00    -0.003 C 
ATOM     25  C   UNL A   1      33.698  17.046  23.125  1.00  0.00     0.004 C 
ENDBRANCH  23  24
ENDBRANCH  22  23
ENDBRANCH  21  22
ENDBRANCH  20  21
ENDBRANCH  17  20
ENDBRANCH  15  16
ENDBRANCH  10  15
ENDBRANCH   4   9
BRANCH   6  26
ATOM     26  C   UNL A   1      31.769  30.103  26.207  1.00  0.00     0.417 C 
ATOM     27  F   UNL A   1      31.087  29.053  26.759  1.00  0.00    -0.166 F 
ATOM     28  F   UNL A   1      31.047  31.210  26.540  1.00  0.00    -0.166 F 
ATOM     29  F   UNL A   1      31.621  29.940  24.865  1.00  0.00    -0.166 F 
ENDBRANCH   6  26
ENDBRANCH   1   3
BRANCH   1  30
ATOM     30  C   UNL A   1      34.522  34.032  28.349  1.00  0.00     0.313 C 
ATOM     31  O   UNL A   1      34.778  34.583  27.282  1.00  0.00    -0.252 OA
BRANCH  30  32
ATOM     32  O   UNL A   1      33.596  34.477  29.236  1.00  0.00    -0.462 OA
BRANCH  32  33
ATOM     33  C   UNL A   1      32.921  35.708  28.909  1.00  0.00     0.274 C 
BRANCH  33  34
ATOM     34  C   UNL A   1      32.538  36.490  30.169  1.00  0.00     0.275 C 
BRANCH  34  35
ATOM     35  O   UNL A   1      33.502  36.299  31.221  1.00  0.00    -0.458 OA
BRANCH  35  36
ATOM     36  C   UNL A   1      33.126  35.426  32.183  1.00  0.00     0.338 C 
ATOM     37  O   UNL A   1      31.992  35.149  32.532  1.00  0.00    -0.246 OA
BRANCH  36  38
ATOM     38  C   UNL A   1      34.302  34.711  32.700  1.00  0.00     0.060 A 
ATOM     39  C   UNL A   1      35.556  35.276  32.465  1.00  0.00     0.016 A 
ATOM     40  C   UNL A   1      34.191  33.454  33.296  1.00  0.00     0.016 A 
ATOM     41  C   UNL A   1      36.712  34.577  32.789  1.00  0.00     0.010 A 
ATOM     42  C   UNL A   1      35.355  32.756  33.637  1.00  0.00     0.010 A 
ATOM     43  C   UNL A   1      36.622  33.303  33.361  1.00  0.00    -0.014 A 
BRANCH  43  44
ATOM     44  C   UNL A   1      37.866  32.532  33.599  1.00  0.00     0.031 A 
ATOM     45  C   UNL A   1      38.668  32.770  34.847  1.00  0.00     0.074 A 
ATOM     46  C   UNL A   1      38.244  31.582  32.723  1.00  0.00     0.049 A 
ATOM     47  N   UNL A   1      39.785  32.204  35.229  1.00  0.00    -0.248 NA
ATOM     48  C   UNL A   1      38.150  33.777  35.785  1.00  0.00     0.031 C 
ATOM     49  C   UNL A   1      37.530  31.231  31.494  1.00  0.00     0.029 A 
ATOM     50  N   UNL A   1      39.322  30.734  32.739  1.00  0.00    -0.354 N 
ATOM     51  C   UNL A   1      40.117  32.805  36.438  1.00  0.00     0.074 A 
ATOM     52  C   UNL A   1      39.091  33.786  36.720  1.00  0.00     0.031 C 
ATOM     53  C   UNL A   1      38.187  30.232  30.879  1.00  0.00     0.029 A 
ATOM     54  C   UNL A   1      39.382  29.902  31.649  1.00  0.00     0.049 A 
ATOM     55  H   UNL A   1      39.989  30.723  33.463  1.00  0.00     0.167 HD
ATOM     56  C   UNL A   1      41.180  32.560  37.240  1.00  0.00     0.031 A 
ATOM     57  C   UNL A   1      40.307  28.989  31.298  1.00  0.00     0.031 A 
ATOM     58  C   UNL A   1      42.188  31.569  36.974  1.00  0.00     0.049 A 
ATOM     59  C   UNL A   1      41.492  28.759  32.194  1.00  0.00     0.074 A 
ATOM     60  C   UNL A   1      43.281  31.224  37.750  1.00  0.00     0.029 A 
ATOM     61  N   UNL A   1      42.226  30.765  35.847  1.00  0.00    -0.354 N 
ATOM     62  N   UNL A   1      41.779  29.317  33.345  1.00  0.00    -0.248 NA
ATOM     63  C   UNL A   1      42.479  27.768  31.743  1.00  0.00     0.031 C 
ATOM     64  C   UNL A   1      44.008  30.241  37.068  1.00  0.00     0.029 A 
ATOM     65  C   UNL A   1      43.340  29.943  35.892  1.00  0.00     0.049 A 
ATOM     66  H   UNL A   1      41.560  30.777  35.122  1.00  0.00     0.167 HD
ATOM     67  C   UNL A   1      42.969  28.736  33.762  1.00  0.00     0.074 A 
ATOM     68  C   UNL A   1      43.338  27.765  32.752  1.00  0.00     0.031 C 
ATOM     69  C   UNL A   1      43.694  28.986  34.879  1.00  0.00     0.031 A 
BRANCH  56  70
ATOM     70  C   UNL A   1      41.329  33.407  38.471  1.00  0.00    -0.014 A 
ATOM     71  C   UNL A   1      40.672  33.084  39.667  1.00  0.00     0.009 A 
ATOM     72  C   UNL A   1      42.183  34.521  38.442  1.00  0.00     0.009 A 
ATOM     73  C   UNL A   1      40.847  33.876  40.804  1.00  0.00     0.001 A 
ATOM     74  C   UNL A   1      42.375  35.298  39.586  1.00  0.00     0.001 A 
ATOM     75  C   UNL A   1      41.702  34.978  40.764  1.00  0.00     0.000 A 
ENDBRANCH  56  70
BRANCH  57  76
ATOM     76  C   UNL A   1      40.172  28.244  30.020  1.00  0.00    -0.014 A 
ATOM     77  C   UNL A   1      40.748  28.733  28.838  1.00  0.00     0.009 A 
ATOM     78  C   UNL A   1      39.441  27.046  29.975  1.00  0.00     0.009 A 
ATOM     79  C   UNL A   1      40.570  28.051  27.632  1.00  0.00     0.001 A 
ATOM     80  C   UNL A   1      39.289  26.352  28.774  1.00  0.00     0.001 A 
ATOM     81  C   UNL A   1      39.846  26.861  27.602  1.00  0.00     0.000 A 
ENDBRANCH  57  76
BRANCH  69  82
ATOM     82  C   UNL A   1      44.948  28.183  35.072  1.00  0.00    -0.014 A 
ATOM     83  C   UNL A   1      44.919  26.942  35.728  1.00  0.00     0.009 A 
ATOM     84  C   UNL A   1      46.167  28.660  34.567  1.00  0.00     0.009 A 
ATOM     85  C   UNL A   1      46.095  26.210  35.902  1.00  0.00     0.001 A 
ATOM     86  C   UNL A   1      47.336  27.915  34.720  1.00  0.00     0.001 A 
ATOM     87  C   UNL A   1      47.301  26.694  35.395  1.00  0.00     0.000 A 
ENDBRANCH  69  82
ENDBRANCH  43  44
ENDBRANCH  36  38
ENDBRANCH  35  36
ENDBRANCH  34  35
ENDBRANCH  33  34
ENDBRANCH  32  33
ENDBRANCH  30  32
ENDBRANCH   1  30
TORSDOF 21
ENDMDL
