MODEL 1
REMARK VINA RESULT:      -9.1      0.000      0.000
REMARK SMILES C/C(=N/OCc1ccccc1Nc1c(Cl)cccc1Cl)C(=O)OCCOC(=O)c1ccc(-c2c3nc(c(-c4ccccc4)c4ccc([nH]4)c(-c4ccccc4)c4nc(c(-c5ccccc5)c5ccc2[nH]5)C=C4)C=C3)cc1
REMARK SMILES IDX 23 1 21 2 22 3 2 4 1 5 3 6 4 7 5 8 6 9 7 10 11 11 8 12 10 13
REMARK SMILES IDX 9 14 12 15 13 17 14 18 19 19 15 20 16 21 18 22 20 23 17 24
REMARK SMILES IDX 24 25 25 26 26 27 27 28 28 29 29 30 30 31 76 32 31 33 75 34
REMARK SMILES IDX 32 35 33 36 34 37 69 38 35 39 74 40 68 41 70 42 36 43 73 44
REMARK SMILES IDX 67 45 66 46 37 48 59 49 44 50 58 51 45 52 48 53 57 54 71 55
REMARK SMILES IDX 46 56 47 57 56 59 72 60 49 61 38 62 39 63 43 64 40 65 42 66
REMARK SMILES IDX 41 67 60 68 61 69 65 70 62 71 64 72 63 73 50 74 51 75 55 76
REMARK SMILES IDX 52 77 54 78 53 79
REMARK H PARENT 12 16 70 47 48 58
REMARK Flexibility Score: inf
ROOT
ATOM      1  O   UNL A   1      32.477  34.199  28.293  1.00  0.00    -0.458 OA
ENDROOT
BRANCH   1   2
ATOM      2  C   UNL A   1      33.561  34.834  28.775  1.00  0.00     0.355 C 
ATOM      3  O   UNL A   1      34.493  35.290  28.134  1.00  0.00    -0.245 OA
BRANCH   2   4
ATOM      4  C   UNL A   1      33.474  35.035  30.286  1.00  0.00     0.161 C 
ATOM      5  C   UNL A   1      33.002  36.378  30.772  1.00  0.00     0.079 C 
ATOM      6  N   UNL A   1      33.795  34.152  31.182  1.00  0.00    -0.084 NA
BRANCH   6   7
ATOM      7  O   UNL A   1      34.366  33.009  30.611  1.00  0.00    -0.390 OA
BRANCH   7   8
ATOM      8  C   UNL A   1      35.514  32.652  31.388  1.00  0.00     0.302 C 
BRANCH   8   9
ATOM      9  C   UNL A   1      36.795  33.283  30.868  1.00  0.00     0.016 A 
ATOM     10  C   UNL A   1      36.990  33.424  29.478  1.00  0.00     0.009 A 
ATOM     11  C   UNL A   1      37.806  33.710  31.758  1.00  0.00     0.045 A 
ATOM     12  C   UNL A   1      38.135  34.027  28.968  1.00  0.00     0.001 A 
ATOM     13  C   UNL A   1      38.957  34.305  31.216  1.00  0.00     0.026 A 
ATOM     14  C   UNL A   1      39.120  34.470  29.839  1.00  0.00     0.002 A 
BRANCH  11  15
ATOM     15  N   UNL A   1      37.627  33.575  33.152  1.00  0.00    -0.353 N 
ATOM     16  H   UNL A   1      36.846  34.057  33.508  1.00  0.00     0.167 HD
BRANCH  15  17
ATOM     17  C   UNL A   1      38.371  32.868  34.125  1.00  0.00     0.076 A 
ATOM     18  C   UNL A   1      39.262  33.593  34.948  1.00  0.00     0.066 A 
ATOM     19  C   UNL A   1      38.239  31.489  34.375  1.00  0.00     0.066 A 
ATOM     20  Cl  UNL A   1      39.530  35.286  34.679  1.00  0.00    -0.082 Cl
ATOM     21  C   UNL A   1      39.956  32.985  35.996  1.00  0.00     0.023 A 
ATOM     22  C   UNL A   1      38.932  30.881  35.433  1.00  0.00     0.023 A 
ATOM     23  Cl  UNL A   1      37.326  30.438  33.345  1.00  0.00    -0.082 Cl
ATOM     24  C   UNL A   1      39.778  31.629  36.249  1.00  0.00     0.003 A 
ENDBRANCH  15  17
ENDBRANCH  11  15
ENDBRANCH   8   9
ENDBRANCH   7   8
ENDBRANCH   6   7
ENDBRANCH   2   4
ENDBRANCH   1   2
BRANCH   1  25
ATOM     25  C   UNL A   1      32.669  33.278  27.204  1.00  0.00     0.275 C 
BRANCH  25  26
ATOM     26  C   UNL A   1      32.933  31.872  27.747  1.00  0.00     0.275 C 
BRANCH  26  27
ATOM     27  O   UNL A   1      34.241  31.419  27.345  1.00  0.00    -0.458 OA
BRANCH  27  28
ATOM     28  C   UNL A   1      34.519  30.145  27.699  1.00  0.00     0.338 C 
ATOM     29  O   UNL A   1      33.875  29.142  27.447  1.00  0.00    -0.246 OA
BRANCH  28  30
ATOM     30  C   UNL A   1      35.845  30.073  28.320  1.00  0.00     0.060 A 
ATOM     31  C   UNL A   1      36.935  30.375  27.508  1.00  0.00     0.016 A 
ATOM     32  C   UNL A   1      36.032  29.528  29.586  1.00  0.00     0.016 A 
ATOM     33  C   UNL A   1      38.217  30.012  27.896  1.00  0.00     0.010 A 
ATOM     34  C   UNL A   1      37.334  29.238  30.012  1.00  0.00     0.010 A 
ATOM     35  C   UNL A   1      38.431  29.423  29.147  1.00  0.00    -0.014 A 
BRANCH  35  36
ATOM     36  C   UNL A   1      39.786  28.915  29.489  1.00  0.00     0.031 A 
ATOM     37  C   UNL A   1      40.666  29.694  30.433  1.00  0.00     0.074 A 
ATOM     38  C   UNL A   1      40.206  27.724  29.016  1.00  0.00     0.049 A 
ATOM     39  N   UNL A   1      41.903  29.462  30.793  1.00  0.00    -0.248 NA
ATOM     40  C   UNL A   1      40.080  30.898  31.044  1.00  0.00     0.031 C 
ATOM     41  C   UNL A   1      39.433  26.835  28.147  1.00  0.00     0.029 A 
ATOM     42  N   UNL A   1      41.381  27.047  29.223  1.00  0.00    -0.354 N 
ATOM     43  C   UNL A   1      42.258  30.514  31.629  1.00  0.00     0.074 A 
ATOM     44  C   UNL A   1      41.112  31.393  31.712  1.00  0.00     0.031 C 
ATOM     45  C   UNL A   1      40.137  25.713  27.929  1.00  0.00     0.029 A 
ATOM     46  C   UNL A   1      41.435  25.833  28.583  1.00  0.00     0.049 A 
ATOM     47  H   UNL A   1      42.115  27.397  29.778  1.00  0.00     0.167 HD
ATOM     48  C   UNL A   1      43.431  30.731  32.272  1.00  0.00     0.031 A 
ATOM     49  C   UNL A   1      42.427  24.928  28.507  1.00  0.00     0.031 A 
ATOM     50  C   UNL A   1      44.559  29.839  32.224  1.00  0.00     0.049 A 
ATOM     51  C   UNL A   1      43.727  25.204  29.207  1.00  0.00     0.074 A 
ATOM     52  C   UNL A   1      45.791  29.970  32.841  1.00  0.00     0.029 A 
ATOM     53  N   UNL A   1      44.585  28.640  31.531  1.00  0.00    -0.354 N 
ATOM     54  N   UNL A   1      44.064  26.229  29.951  1.00  0.00    -0.248 NA
ATOM     55  C   UNL A   1      44.786  24.197  29.050  1.00  0.00     0.031 C 
ATOM     56  C   UNL A   1      46.577  28.866  32.490  1.00  0.00     0.029 A 
ATOM     57  C   UNL A   1      45.814  28.023  31.698  1.00  0.00     0.049 A 
ATOM     58  H   UNL A   1      43.838  28.278  31.000  1.00  0.00     0.167 HD
ATOM     59  C   UNL A   1      45.367  25.982  30.365  1.00  0.00     0.074 A 
ATOM     60  C   UNL A   1      45.747  24.699  29.810  1.00  0.00     0.031 C 
ATOM     61  C   UNL A   1      46.177  26.750  31.134  1.00  0.00     0.031 A 
BRANCH  48  62
ATOM     62  C   UNL A   1      43.565  32.011  33.051  1.00  0.00    -0.014 A 
ATOM     63  C   UNL A   1      43.989  33.203  32.443  1.00  0.00     0.009 A 
ATOM     64  C   UNL A   1      43.245  32.023  34.419  1.00  0.00     0.009 A 
ATOM     65  C   UNL A   1      44.125  34.372  33.198  1.00  0.00     0.001 A 
ATOM     66  C   UNL A   1      43.354  33.199  35.163  1.00  0.00     0.001 A 
ATOM     67  C   UNL A   1      43.804  34.369  34.554  1.00  0.00     0.000 A 
ENDBRANCH  48  62
BRANCH  49  68
ATOM     68  C   UNL A   1      42.242  23.685  27.713  1.00  0.00    -0.014 A 
ATOM     69  C   UNL A   1      42.579  23.648  26.352  1.00  0.00     0.009 A 
ATOM     70  C   UNL A   1      41.716  22.530  28.314  1.00  0.00     0.009 A 
ATOM     71  C   UNL A   1      42.370  22.487  25.604  1.00  0.00     0.001 A 
ATOM     72  C   UNL A   1      41.539  21.362  27.572  1.00  0.00     0.001 A 
ATOM     73  C   UNL A   1      41.856  21.344  26.215  1.00  0.00     0.000 A 
ENDBRANCH  49  68
BRANCH  61  74
ATOM     74  C   UNL A   1      47.540  26.198  31.444  1.00  0.00    -0.014 A 
ATOM     75  C   UNL A   1      47.792  25.506  32.639  1.00  0.00     0.009 A 
ATOM     76  C   UNL A   1      48.584  26.370  30.523  1.00  0.00     0.009 A 
ATOM     77  C   UNL A   1      49.075  25.036  32.924  1.00  0.00     0.001 A 
ATOM     78  C   UNL A   1      49.859  25.874  30.799  1.00  0.00     0.001 A 
ATOM     79  C   UNL A   1      50.107  25.219  32.003  1.00  0.00     0.000 A 
ENDBRANCH  61  74
ENDBRANCH  35  36
ENDBRANCH  28  30
ENDBRANCH  27  28
ENDBRANCH  26  27
ENDBRANCH  25  26
ENDBRANCH   1  25
TORSDOF 16
ENDMDL
MODEL 2
REMARK VINA RESULT:      -8.8      3.947      9.143
REMARK SMILES C/C(=N/OCc1ccccc1Nc1c(Cl)cccc1Cl)C(=O)OCCOC(=O)c1ccc(-c2c3nc(c(-c4ccccc4)c4ccc([nH]4)c(-c4ccccc4)c4nc(c(-c5ccccc5)c5ccc2[nH]5)C=C4)C=C3)cc1
REMARK SMILES IDX 23 1 21 2 22 3 2 4 1 5 3 6 4 7 5 8 6 9 7 10 11 11 8 12 10 13
REMARK SMILES IDX 9 14 12 15 13 17 14 18 19 19 15 20 16 21 18 22 20 23 17 24
REMARK SMILES IDX 24 25 25 26 26 27 27 28 28 29 29 30 30 31 76 32 31 33 75 34
REMARK SMILES IDX 32 35 33 36 34 37 69 38 35 39 74 40 68 41 70 42 36 43 73 44
REMARK SMILES IDX 67 45 66 46 37 48 59 49 44 50 58 51 45 52 48 53 57 54 71 55
REMARK SMILES IDX 46 56 47 57 56 59 72 60 49 61 38 62 39 63 43 64 40 65 42 66
REMARK SMILES IDX 41 67 60 68 61 69 65 70 62 71 64 72 63 73 50 74 51 75 55 76
REMARK SMILES IDX 52 77 54 78 53 79
REMARK H PARENT 12 16 70 47 48 58
REMARK Flexibility Score: inf
ROOT
ATOM      1  O   UNL A   1      32.443  30.644  26.270  1.00  0.00    -0.458 OA
ENDROOT
BRANCH   1   2
ATOM      2  C   UNL A   1      32.484  29.508  26.988  1.00  0.00     0.355 C 
ATOM      3  O   UNL A   1      31.552  28.960  27.554  1.00  0.00    -0.245 OA
BRANCH   2   4
ATOM      4  C   UNL A   1      33.868  28.865  26.953  1.00  0.00     0.161 C 
ATOM      5  C   UNL A   1      34.917  29.450  27.858  1.00  0.00     0.079 C 
ATOM      6  N   UNL A   1      34.217  27.872  26.193  1.00  0.00    -0.084 NA
BRANCH   6   7
ATOM      7  O   UNL A   1      33.207  27.521  25.290  1.00  0.00    -0.390 OA
BRANCH   7   8
ATOM      8  C   UNL A   1      33.732  27.652  23.965  1.00  0.00     0.302 C 
BRANCH   8   9
ATOM      9  C   UNL A   1      33.485  26.420  23.110  1.00  0.00     0.016 A 
ATOM     10  C   UNL A   1      32.946  26.566  21.814  1.00  0.00     0.009 A 
ATOM     11  C   UNL A   1      33.766  25.127  23.603  1.00  0.00     0.045 A 
ATOM     12  C   UNL A   1      32.738  25.464  20.992  1.00  0.00     0.001 A 
ATOM     13  C   UNL A   1      33.535  24.030  22.757  1.00  0.00     0.026 A 
ATOM     14  C   UNL A   1      33.035  24.193  21.463  1.00  0.00     0.002 A 
BRANCH  11  15
ATOM     15  N   UNL A   1      34.304  24.963  24.898  1.00  0.00    -0.353 N 
ATOM     16  H   UNL A   1      34.818  25.737  25.224  1.00  0.00     0.167 HD
BRANCH  15  17
ATOM     17  C   UNL A   1      34.233  23.885  25.811  1.00  0.00     0.076 A 
ATOM     18  C   UNL A   1      33.050  23.719  26.566  1.00  0.00     0.066 A 
ATOM     19  C   UNL A   1      35.245  22.920  25.978  1.00  0.00     0.066 A 
ATOM     20  Cl  UNL A   1      31.771  24.887  26.466  1.00  0.00    -0.082 Cl
ATOM     21  C   UNL A   1      32.864  22.623  27.411  1.00  0.00     0.023 A 
ATOM     22  C   UNL A   1      35.054  21.817  26.823  1.00  0.00     0.023 A 
ATOM     23  Cl  UNL A   1      36.813  23.081  25.261  1.00  0.00    -0.082 Cl
ATOM     24  C   UNL A   1      33.862  21.662  27.528  1.00  0.00     0.003 A 
ENDBRANCH  15  17
ENDBRANCH  11  15
ENDBRANCH   8   9
ENDBRANCH   7   8
ENDBRANCH   6   7
ENDBRANCH   2   4
ENDBRANCH   1   2
BRANCH   1  25
ATOM     25  C   UNL A   1      31.349  31.550  26.508  1.00  0.00     0.275 C 
BRANCH  25  26
ATOM     26  C   UNL A   1      31.886  32.922  26.922  1.00  0.00     0.275 C 
BRANCH  26  27
ATOM     27  O   UNL A   1      33.027  32.771  27.788  1.00  0.00    -0.458 OA
BRANCH  27  28
ATOM     28  C   UNL A   1      33.392  33.904  28.427  1.00  0.00     0.338 C 
ATOM     29  O   UNL A   1      32.779  34.955  28.494  1.00  0.00    -0.246 OA
BRANCH  28  30
ATOM     30  C   UNL A   1      34.606  33.670  29.214  1.00  0.00     0.060 A 
ATOM     31  C   UNL A   1      35.794  34.182  28.701  1.00  0.00     0.016 A 
ATOM     32  C   UNL A   1      34.618  32.802  30.301  1.00  0.00     0.016 A 
ATOM     33  C   UNL A   1      37.015  33.731  29.182  1.00  0.00     0.010 A 
ATOM     34  C   UNL A   1      35.850  32.411  30.842  1.00  0.00     0.010 A 
ATOM     35  C   UNL A   1      37.059  32.825  30.248  1.00  0.00    -0.014 A 
BRANCH  35  36
ATOM     36  C   UNL A   1      38.366  32.247  30.658  1.00  0.00     0.031 A 
ATOM     37  C   UNL A   1      38.867  30.983  30.007  1.00  0.00     0.074 A 
ATOM     38  C   UNL A   1      39.139  32.884  31.559  1.00  0.00     0.049 A 
ATOM     39  N   UNL A   1      39.937  30.281  30.278  1.00  0.00    -0.248 NA
ATOM     40  C   UNL A   1      38.050  30.433  28.912  1.00  0.00     0.031 C 
ATOM     41  C   UNL A   1      38.809  34.148  32.220  1.00  0.00     0.029 A 
ATOM     42  N   UNL A   1      40.379  32.565  32.054  1.00  0.00    -0.354 N 
ATOM     43  C   UNL A   1      39.896  29.182  29.426  1.00  0.00     0.074 A 
ATOM     44  C   UNL A   1      38.688  29.305  28.638  1.00  0.00     0.031 C 
ATOM     45  C   UNL A   1      39.836  34.517  33.002  1.00  0.00     0.029 A 
ATOM     46  C   UNL A   1      40.864  33.484  32.952  1.00  0.00     0.049 A 
ATOM     47  H   UNL A   1      40.872  31.755  31.791  1.00  0.00     0.167 HD
ATOM     48  C   UNL A   1      40.783  28.165  29.307  1.00  0.00     0.031 A 
ATOM     49  C   UNL A   1      41.999  33.484  33.675  1.00  0.00     0.031 A 
ATOM     50  C   UNL A   1      42.004  28.061  30.060  1.00  0.00     0.049 A 
ATOM     51  C   UNL A   1      42.952  32.331  33.545  1.00  0.00     0.074 A 
ATOM     52  C   UNL A   1      42.968  27.069  30.011  1.00  0.00     0.029 A 
ATOM     53  N   UNL A   1      42.438  28.994  30.988  1.00  0.00    -0.354 N 
ATOM     54  N   UNL A   1      42.873  31.276  32.772  1.00  0.00    -0.248 NA
ATOM     55  C   UNL A   1      44.151  32.371  34.394  1.00  0.00     0.031 C 
ATOM     56  C   UNL A   1      43.968  27.384  30.939  1.00  0.00     0.029 A 
ATOM     57  C   UNL A   1      43.652  28.598  31.525  1.00  0.00     0.049 A 
ATOM     58  H   UNL A   1      41.955  29.819  31.228  1.00  0.00     0.167 HD
ATOM     59  C   UNL A   1      44.019  30.534  33.029  1.00  0.00     0.074 A 
ATOM     60  C   UNL A   1      44.787  31.274  34.009  1.00  0.00     0.031 C 
ATOM     61  C   UNL A   1      44.400  29.344  32.503  1.00  0.00     0.031 A 
BRANCH  48  62
ATOM     62  C   UNL A   1      40.436  27.056  28.351  1.00  0.00    -0.014 A 
ATOM     63  C   UNL A   1      39.611  25.985  28.732  1.00  0.00     0.009 A 
ATOM     64  C   UNL A   1      40.936  27.094  27.039  1.00  0.00     0.009 A 
ATOM     65  C   UNL A   1      39.325  24.958  27.827  1.00  0.00     0.001 A 
ATOM     66  C   UNL A   1      40.624  26.082  26.131  1.00  0.00     0.001 A 
ATOM     67  C   UNL A   1      39.828  25.010  26.529  1.00  0.00     0.000 A 
ENDBRANCH  48  62
BRANCH  49  68
ATOM     68  C   UNL A   1      42.283  34.602  34.613  1.00  0.00    -0.014 A 
ATOM     69  C   UNL A   1      41.857  34.544  35.948  1.00  0.00     0.009 A 
ATOM     70  C   UNL A   1      42.976  35.741  34.171  1.00  0.00     0.009 A 
ATOM     71  C   UNL A   1      42.097  35.612  36.814  1.00  0.00     0.001 A 
ATOM     72  C   UNL A   1      43.243  36.793  35.047  1.00  0.00     0.001 A 
ATOM     73  C   UNL A   1      42.795  36.733  36.365  1.00  0.00     0.000 A 
ENDBRANCH  49  68
BRANCH  61  74
ATOM     74  C   UNL A   1      45.723  28.795  32.955  1.00  0.00    -0.014 A 
ATOM     75  C   UNL A   1      45.817  27.935  34.061  1.00  0.00     0.009 A 
ATOM     76  C   UNL A   1      46.892  29.141  32.261  1.00  0.00     0.009 A 
ATOM     77  C   UNL A   1      47.061  27.468  34.488  1.00  0.00     0.001 A 
ATOM     78  C   UNL A   1      48.131  28.649  32.672  1.00  0.00     0.001 A 
ATOM     79  C   UNL A   1      48.217  27.825  33.792  1.00  0.00     0.000 A 
ENDBRANCH  61  74
ENDBRANCH  35  36
ENDBRANCH  28  30
ENDBRANCH  27  28
ENDBRANCH  26  27
ENDBRANCH  25  26
ENDBRANCH   1  25
TORSDOF 16
ENDMDL
MODEL 3
REMARK VINA RESULT:      -8.8      4.523      9.904
REMARK SMILES C/C(=N/OCc1ccccc1Nc1c(Cl)cccc1Cl)C(=O)OCCOC(=O)c1ccc(-c2c3nc(c(-c4ccccc4)c4ccc([nH]4)c(-c4ccccc4)c4nc(c(-c5ccccc5)c5ccc2[nH]5)C=C4)C=C3)cc1
REMARK SMILES IDX 23 1 21 2 22 3 2 4 1 5 3 6 4 7 5 8 6 9 7 10 11 11 8 12 10 13
REMARK SMILES IDX 9 14 12 15 13 17 14 18 19 19 15 20 16 21 18 22 20 23 17 24
REMARK SMILES IDX 24 25 25 26 26 27 27 28 28 29 29 30 30 31 76 32 31 33 75 34
REMARK SMILES IDX 32 35 33 36 34 37 69 38 35 39 74 40 68 41 70 42 36 43 73 44
REMARK SMILES IDX 67 45 66 46 37 48 59 49 44 50 58 51 45 52 48 53 57 54 71 55
REMARK SMILES IDX 46 56 47 57 56 59 72 60 49 61 38 62 39 63 43 64 40 65 42 66
REMARK SMILES IDX 41 67 60 68 61 69 65 70 62 71 64 72 63 73 50 74 51 75 55 76
REMARK SMILES IDX 52 77 54 78 53 79
REMARK H PARENT 12 16 70 47 48 58
REMARK Flexibility Score: inf
ROOT
ATOM      1  O   UNL A   1      37.402  21.107  25.477  1.00  0.00    -0.458 OA
ENDROOT
BRANCH   1   2
ATOM      2  C   UNL A   1      37.192  22.222  24.754  1.00  0.00     0.355 C 
ATOM      3  O   UNL A   1      37.009  22.295  23.549  1.00  0.00    -0.245 OA
BRANCH   2   4
ATOM      4  C   UNL A   1      37.099  23.463  25.639  1.00  0.00     0.161 C 
ATOM      5  C   UNL A   1      38.394  24.091  26.074  1.00  0.00     0.079 C 
ATOM      6  N   UNL A   1      35.998  24.003  26.062  1.00  0.00    -0.084 NA
BRANCH   6   7
ATOM      7  O   UNL A   1      34.874  23.241  25.723  1.00  0.00    -0.390 OA
BRANCH   7   8
ATOM      8  C   UNL A   1      34.054  23.116  26.890  1.00  0.00     0.302 C 
BRANCH   8   9
ATOM      9  C   UNL A   1      32.626  23.581  26.658  1.00  0.00     0.016 A 
ATOM     10  C   UNL A   1      31.551  22.767  27.073  1.00  0.00     0.009 A 
ATOM     11  C   UNL A   1      32.358  24.807  26.010  1.00  0.00     0.045 A 
ATOM     12  C   UNL A   1      30.231  23.176  26.907  1.00  0.00     0.001 A 
ATOM     13  C   UNL A   1      31.017  25.190  25.844  1.00  0.00     0.026 A 
ATOM     14  C   UNL A   1      29.964  24.391  26.293  1.00  0.00     0.002 A 
BRANCH  11  15
ATOM     15  N   UNL A   1      33.423  25.632  25.587  1.00  0.00    -0.353 N 
ATOM     16  H   UNL A   1      34.271  25.474  26.060  1.00  0.00     0.167 HD
BRANCH  15  17
ATOM     17  C   UNL A   1      33.485  26.646  24.602  1.00  0.00     0.076 A 
ATOM     18  C   UNL A   1      33.663  27.983  25.022  1.00  0.00     0.066 A 
ATOM     19  C   UNL A   1      33.443  26.406  23.215  1.00  0.00     0.066 A 
ATOM     20  Cl  UNL A   1      33.674  28.380  26.711  1.00  0.00    -0.082 Cl
ATOM     21  C   UNL A   1      33.835  29.025  24.109  1.00  0.00     0.023 A 
ATOM     22  C   UNL A   1      33.622  27.454  22.299  1.00  0.00     0.023 A 
ATOM     23  Cl  UNL A   1      33.056  24.856  22.548  1.00  0.00    -0.082 Cl
ATOM     24  C   UNL A   1      33.830  28.757  22.744  1.00  0.00     0.003 A 
ENDBRANCH  15  17
ENDBRANCH  11  15
ENDBRANCH   8   9
ENDBRANCH   7   8
ENDBRANCH   6   7
ENDBRANCH   2   4
ENDBRANCH   1   2
BRANCH   1  25
ATOM     25  C   UNL A   1      37.812  19.919  24.774  1.00  0.00     0.275 C 
BRANCH  25  26
ATOM     26  C   UNL A   1      39.008  19.279  25.482  1.00  0.00     0.275 C 
BRANCH  26  27
ATOM     27  O   UNL A   1      39.848  20.296  26.062  1.00  0.00    -0.458 OA
BRANCH  27  28
ATOM     28  C   UNL A   1      41.137  19.925  26.224  1.00  0.00     0.338 C 
ATOM     29  O   UNL A   1      41.642  18.847  25.964  1.00  0.00    -0.246 OA
BRANCH  28  30
ATOM     30  C   UNL A   1      41.947  21.079  26.621  1.00  0.00     0.060 A 
ATOM     31  C   UNL A   1      42.094  21.302  27.988  1.00  0.00     0.016 A 
ATOM     32  C   UNL A   1      42.371  22.030  25.699  1.00  0.00     0.016 A 
ATOM     33  C   UNL A   1      42.543  22.530  28.452  1.00  0.00     0.010 A 
ATOM     34  C   UNL A   1      42.902  23.238  26.167  1.00  0.00     0.010 A 
ATOM     35  C   UNL A   1      42.937  23.521  27.546  1.00  0.00    -0.014 A 
BRANCH  35  36
ATOM     36  C   UNL A   1      43.281  24.876  28.055  1.00  0.00     0.031 A 
ATOM     37  C   UNL A   1      42.186  25.866  28.358  1.00  0.00     0.074 A 
ATOM     38  C   UNL A   1      44.563  25.199  28.315  1.00  0.00     0.049 A 
ATOM     39  N   UNL A   1      42.282  27.117  28.732  1.00  0.00    -0.248 NA
ATOM     40  C   UNL A   1      40.801  25.389  28.212  1.00  0.00     0.031 C 
ATOM     41  C   UNL A   1      45.716  24.316  28.131  1.00  0.00     0.029 A 
ATOM     42  N   UNL A   1      45.107  26.355  28.815  1.00  0.00    -0.354 N 
ATOM     43  C   UNL A   1      40.977  27.589  28.815  1.00  0.00     0.074 A 
ATOM     44  C   UNL A   1      40.108  26.495  28.440  1.00  0.00     0.031 C 
ATOM     45  C   UNL A   1      46.824  24.947  28.551  1.00  0.00     0.029 A 
ATOM     46  C   UNL A   1      46.471  26.299  28.966  1.00  0.00     0.049 A 
ATOM     47  H   UNL A   1      44.571  27.148  29.044  1.00  0.00     0.167 HD
ATOM     48  C   UNL A   1      40.539  28.821  29.173  1.00  0.00     0.031 A 
ATOM     49  C   UNL A   1      47.345  27.239  29.369  1.00  0.00     0.031 A 
ATOM     50  C   UNL A   1      41.399  29.898  29.585  1.00  0.00     0.049 A 
ATOM     51  C   UNL A   1      46.838  28.605  29.734  1.00  0.00     0.074 A 
ATOM     52  C   UNL A   1      41.051  31.183  29.967  1.00  0.00     0.029 A 
ATOM     53  N   UNL A   1      42.778  29.811  29.686  1.00  0.00    -0.354 N 
ATOM     54  N   UNL A   1      45.605  29.050  29.759  1.00  0.00    -0.248 NA
ATOM     55  C   UNL A   1      47.847  29.599  30.125  1.00  0.00     0.031 C 
ATOM     56  C   UNL A   1      42.226  31.884  30.263  1.00  0.00     0.029 A 
ATOM     57  C   UNL A   1      43.299  31.020  30.116  1.00  0.00     0.049 A 
ATOM     58  H   UNL A   1      43.309  29.007  29.483  1.00  0.00     0.167 HD
ATOM     59  C   UNL A   1      45.689  30.370  30.182  1.00  0.00     0.074 A 
ATOM     60  C   UNL A   1      47.090  30.643  30.428  1.00  0.00     0.031 C 
ATOM     61  C   UNL A   1      44.695  31.276  30.350  1.00  0.00     0.031 A 
BRANCH  48  62
ATOM     62  C   UNL A   1      39.060  29.078  29.091  1.00  0.00    -0.014 A 
ATOM     63  C   UNL A   1      38.442  29.453  27.887  1.00  0.00     0.009 A 
ATOM     64  C   UNL A   1      38.268  28.927  30.241  1.00  0.00     0.009 A 
ATOM     65  C   UNL A   1      37.068  29.707  27.848  1.00  0.00     0.001 A 
ATOM     66  C   UNL A   1      36.892  29.153  30.191  1.00  0.00     0.001 A 
ATOM     67  C   UNL A   1      36.295  29.553  28.997  1.00  0.00     0.000 A 
ENDBRANCH  48  62
BRANCH  49  68
ATOM     68  C   UNL A   1      48.798  26.931  29.420  1.00  0.00    -0.014 A 
ATOM     69  C   UNL A   1      49.367  26.341  30.558  1.00  0.00     0.009 A 
ATOM     70  C   UNL A   1      49.628  27.238  28.328  1.00  0.00     0.009 A 
ATOM     71  C   UNL A   1      50.739  26.086  30.612  1.00  0.00     0.001 A 
ATOM     72  C   UNL A   1      50.993  26.952  28.372  1.00  0.00     0.001 A 
ATOM     73  C   UNL A   1      51.549  26.386  29.518  1.00  0.00     0.000 A 
ENDBRANCH  49  68
BRANCH  61  74
ATOM     74  C   UNL A   1      45.094  32.633  30.856  1.00  0.00    -0.014 A 
ATOM     75  C   UNL A   1      45.159  32.909  32.232  1.00  0.00     0.009 A 
ATOM     76  C   UNL A   1      45.414  33.649  29.943  1.00  0.00     0.009 A 
ATOM     77  C   UNL A   1      45.494  34.188  32.679  1.00  0.00     0.001 A 
ATOM     78  C   UNL A   1      45.776  34.919  30.394  1.00  0.00     0.001 A 
ATOM     79  C   UNL A   1      45.804  35.191  31.760  1.00  0.00     0.000 A 
ENDBRANCH  61  74
ENDBRANCH  35  36
ENDBRANCH  28  30
ENDBRANCH  27  28
ENDBRANCH  26  27
ENDBRANCH  25  26
ENDBRANCH   1  25
TORSDOF 16
ENDMDL
