MODEL 1
REMARK VINA RESULT:     -10.3      0.000      0.000
REMARK SMILES CCc1cc(C(=O)N2CCO[C@@H](CC(=O)OCCOC(=O)c3ccc(-c4c5nc(c(-c6ccccc6)c6ccc([nH]6)c(-c6ccccc6)c6nc(c(-c7ccccc7)c7ccc4[nH]7)C=C6)C=C5)cc3)C2)sc1C
REMARK SMILES IDX 17 1 16 2 14 3 15 4 13 5 12 6 8 7 9 8 70 9 10 10 11 11 6 12
REMARK SMILES IDX 7 13 5 14 3 15 4 16 72 17 71 18 73 19 2 20 1 21 18 22 19 23
REMARK SMILES IDX 20 24 21 25 22 26 23 27 69 28 24 29 68 30 25 31 26 32 27 33
REMARK SMILES IDX 62 34 28 35 67 36 61 37 63 38 29 39 66 40 60 41 59 42 30 44
REMARK SMILES IDX 52 45 37 46 51 47 38 48 41 49 50 50 64 51 39 52 40 53 49 55
REMARK SMILES IDX 65 56 42 57 31 58 32 59 36 60 33 61 35 62 34 63 53 64 54 65
REMARK SMILES IDX 58 66 55 67 57 68 56 69 43 70 44 71 48 72 45 73 47 74 46 75
REMARK H PARENT 63 43 41 54
REMARK Flexibility Score: inf
ROOT
ATOM      1  C   UNL A   1      43.881  21.299  25.394  1.00  0.00     0.274 C 
ENDROOT
BRANCH   1   2
ATOM      2  O   UNL A   1      42.474  20.987  25.437  1.00  0.00    -0.462 OA
BRANCH   2   3
ATOM      3  C   UNL A   1      41.843  21.084  26.632  1.00  0.00     0.308 C 
ATOM      4  O   UNL A   1      42.397  21.312  27.700  1.00  0.00    -0.252 OA
BRANCH   3   5
ATOM      5  C   UNL A   1      40.361  20.816  26.510  1.00  0.00     0.156 C 
BRANCH   5   6
ATOM      6  C   UNL A   1      39.561  22.011  25.998  1.00  0.00     0.148 C 
ATOM      7  N   UNL A   1      37.396  22.876  25.263  1.00  0.00    -0.333 N 
ATOM      8  C   UNL A   1      37.526  24.021  26.163  1.00  0.00     0.148 C 
ATOM      9  C   UNL A   1      38.080  21.675  25.731  1.00  0.00     0.152 C 
ATOM     10  C   UNL A   1      38.998  24.267  26.515  1.00  0.00     0.182 C 
ATOM     11  O   UNL A   1      39.637  23.066  26.991  1.00  0.00    -0.374 OA
BRANCH   7  12
ATOM     12  C   UNL A   1      36.597  22.790  24.125  1.00  0.00     0.264 C 
ATOM     13  O   UNL A   1      37.028  23.219  23.051  1.00  0.00    -0.268 OA
BRANCH  12  14
ATOM     14  C   UNL A   1      35.237  22.279  24.267  1.00  0.00     0.093 A 
ATOM     15  C   UNL A   1      32.910  21.931  24.050  1.00  0.00    -0.034 A 
ATOM     16  C   UNL A   1      34.036  22.792  23.813  1.00  0.00     0.029 A 
ATOM     17  C   UNL A   1      33.319  20.750  24.649  1.00  0.00     0.005 A 
ATOM     18  S   UNL A   1      35.000  20.735  24.965  1.00  0.00    -0.135 S 
ATOM     19  C   UNL A   1      32.517  19.539  24.993  1.00  0.00     0.056 C 
BRANCH  15  20
ATOM     20  C   UNL A   1      31.502  22.297  23.662  1.00  0.00     0.033 C 
ATOM     21  C   UNL A   1      31.316  23.772  23.344  1.00  0.00     0.009 C 
ENDBRANCH  15  20
ENDBRANCH  12  14
ENDBRANCH   7  12
ENDBRANCH   5   6
ENDBRANCH   3   5
ENDBRANCH   2   3
ENDBRANCH   1   2
BRANCH   1  22
ATOM     22  C   UNL A   1      44.199  22.323  24.301  1.00  0.00     0.275 C 
BRANCH  22  23
ATOM     23  O   UNL A   1      43.595  23.598  24.592  1.00  0.00    -0.458 OA
BRANCH  23  24
ATOM     24  C   UNL A   1      44.440  24.547  25.054  1.00  0.00     0.338 C 
ATOM     25  O   UNL A   1      45.544  24.830  24.624  1.00  0.00    -0.246 OA
BRANCH  24  26
ATOM     26  C   UNL A   1      43.773  25.321  26.111  1.00  0.00     0.060 A 
ATOM     27  C   UNL A   1      44.168  26.648  26.308  1.00  0.00     0.016 A 
ATOM     28  C   UNL A   1      42.814  24.733  26.937  1.00  0.00     0.016 A 
ATOM     29  C   UNL A   1      43.606  27.394  27.340  1.00  0.00     0.010 A 
ATOM     30  C   UNL A   1      42.251  25.485  27.972  1.00  0.00     0.010 A 
ATOM     31  C   UNL A   1      42.650  26.815  28.185  1.00  0.00    -0.014 A 
BRANCH  31  32
ATOM     32  C   UNL A   1      42.093  27.596  29.315  1.00  0.00     0.031 A 
ATOM     33  C   UNL A   1      42.759  27.549  30.660  1.00  0.00     0.074 A 
ATOM     34  C   UNL A   1      40.994  28.349  29.131  1.00  0.00     0.049 A 
ATOM     35  N   UNL A   1      42.397  28.118  31.781  1.00  0.00    -0.248 NA
ATOM     36  C   UNL A   1      43.994  26.755  30.757  1.00  0.00     0.031 C 
ATOM     37  C   UNL A   1      40.277  28.503  27.865  1.00  0.00     0.029 A 
ATOM     38  N   UNL A   1      40.288  29.124  30.015  1.00  0.00    -0.354 N 
ATOM     39  C   UNL A   1      43.348  27.742  32.720  1.00  0.00     0.074 A 
ATOM     40  C   UNL A   1      44.293  26.878  32.042  1.00  0.00     0.031 C 
ATOM     41  C   UNL A   1      39.231  29.325  28.055  1.00  0.00     0.029 A 
ATOM     42  C   UNL A   1      39.183  29.720  29.460  1.00  0.00     0.049 A 
ATOM     43  H   UNL A   1      40.549  29.243  30.957  1.00  0.00     0.167 HD
ATOM     44  C   UNL A   1      43.426  28.083  34.028  1.00  0.00     0.031 A 
ATOM     45  C   UNL A   1      38.226  30.480  30.025  1.00  0.00     0.031 A 
ATOM     46  C   UNL A   1      42.484  28.936  34.704  1.00  0.00     0.049 A 
ATOM     47  C   UNL A   1      38.303  30.795  31.493  1.00  0.00     0.074 A 
ATOM     48  C   UNL A   1      42.493  29.355  36.024  1.00  0.00     0.029 A 
ATOM     49  N   UNL A   1      41.361  29.494  34.114  1.00  0.00    -0.354 N 
ATOM     50  N   UNL A   1      39.220  30.449  32.365  1.00  0.00    -0.248 NA
ATOM     51  C   UNL A   1      37.214  31.607  32.053  1.00  0.00     0.031 C 
ATOM     52  C   UNL A   1      41.348  30.129  36.244  1.00  0.00     0.029 A 
ATOM     53  C   UNL A   1      40.655  30.232  35.049  1.00  0.00     0.049 A 
ATOM     54  H   UNL A   1      41.104  29.382  33.171  1.00  0.00     0.167 HD
ATOM     55  C   UNL A   1      38.829  31.018  33.569  1.00  0.00     0.074 A 
ATOM     56  C   UNL A   1      37.603  31.745  33.314  1.00  0.00     0.031 C 
ATOM     57  C   UNL A   1      39.434  30.946  34.780  1.00  0.00     0.031 A 
BRANCH  44  58
ATOM     58  C   UNL A   1      44.557  27.501  34.827  1.00  0.00    -0.014 A 
ATOM     59  C   UNL A   1      45.779  28.178  34.961  1.00  0.00     0.009 A 
ATOM     60  C   UNL A   1      44.383  26.273  35.485  1.00  0.00     0.009 A 
ATOM     61  C   UNL A   1      46.816  27.621  35.715  1.00  0.00     0.001 A 
ATOM     62  C   UNL A   1      45.411  25.731  36.257  1.00  0.00     0.001 A 
ATOM     63  C   UNL A   1      46.629  26.402  36.366  1.00  0.00     0.000 A 
ENDBRANCH  44  58
BRANCH  45  64
ATOM     64  C   UNL A   1      37.093  30.977  29.203  1.00  0.00    -0.014 A 
ATOM     65  C   UNL A   1      36.050  30.119  28.828  1.00  0.00     0.009 A 
ATOM     66  C   UNL A   1      37.057  32.316  28.783  1.00  0.00     0.009 A 
ATOM     67  C   UNL A   1      35.002  30.587  28.031  1.00  0.00     0.001 A 
ATOM     68  C   UNL A   1      35.995  32.788  28.008  1.00  0.00     0.001 A 
ATOM     69  C   UNL A   1      34.974  31.921  27.625  1.00  0.00     0.000 A 
ENDBRANCH  45  64
BRANCH  57  70
ATOM     70  C   UNL A   1      38.792  31.697  35.912  1.00  0.00    -0.014 A 
ATOM     71  C   UNL A   1      37.973  31.044  36.845  1.00  0.00     0.009 A 
ATOM     72  C   UNL A   1      39.043  33.069  36.066  1.00  0.00     0.009 A 
ATOM     73  C   UNL A   1      37.391  31.760  37.894  1.00  0.00     0.001 A 
ATOM     74  C   UNL A   1      38.481  33.776  37.130  1.00  0.00     0.001 A 
ATOM     75  C   UNL A   1      37.648  33.123  38.037  1.00  0.00     0.000 A 
ENDBRANCH  57  70
ENDBRANCH  31  32
ENDBRANCH  24  26
ENDBRANCH  23  24
ENDBRANCH  22  23
ENDBRANCH   1  22
TORSDOF 15
ENDMDL
MODEL 2
REMARK VINA RESULT:     -10.2      4.002      8.789
REMARK SMILES CCc1cc(C(=O)N2CCO[C@@H](CC(=O)OCCOC(=O)c3ccc(-c4c5nc(c(-c6ccccc6)c6ccc([nH]6)c(-c6ccccc6)c6nc(c(-c7ccccc7)c7ccc4[nH]7)C=C6)C=C5)cc3)C2)sc1C
REMARK SMILES IDX 17 1 16 2 14 3 15 4 13 5 12 6 8 7 9 8 70 9 10 10 11 11 6 12
REMARK SMILES IDX 7 13 5 14 3 15 4 16 72 17 71 18 73 19 2 20 1 21 18 22 19 23
REMARK SMILES IDX 20 24 21 25 22 26 23 27 69 28 24 29 68 30 25 31 26 32 27 33
REMARK SMILES IDX 62 34 28 35 67 36 61 37 63 38 29 39 66 40 60 41 59 42 30 44
REMARK SMILES IDX 52 45 37 46 51 47 38 48 41 49 50 50 64 51 39 52 40 53 49 55
REMARK SMILES IDX 65 56 42 57 31 58 32 59 36 60 33 61 35 62 34 63 53 64 54 65
REMARK SMILES IDX 58 66 55 67 57 68 56 69 43 70 44 71 48 72 45 73 47 74 46 75
REMARK H PARENT 63 43 41 54
REMARK Flexibility Score: inf
ROOT
ATOM      1  C   UNL A   1      32.606  31.011  26.967  1.00  0.00     0.274 C 
ENDROOT
BRANCH   1   2
ATOM      2  O   UNL A   1      31.714  29.915  26.679  1.00  0.00    -0.462 OA
BRANCH   2   3
ATOM      3  C   UNL A   1      32.040  28.693  27.164  1.00  0.00     0.308 C 
ATOM      4  O   UNL A   1      31.390  28.073  27.996  1.00  0.00    -0.252 OA
BRANCH   3   5
ATOM      5  C   UNL A   1      33.349  28.193  26.598  1.00  0.00     0.156 C 
BRANCH   5   6
ATOM      6  C   UNL A   1      33.233  27.629  25.185  1.00  0.00     0.148 C 
ATOM      7  N   UNL A   1      31.918  26.319  23.594  1.00  0.00    -0.333 N 
ATOM      8  C   UNL A   1      32.038  27.378  22.592  1.00  0.00     0.148 C 
ATOM      9  C   UNL A   1      31.950  26.800  24.971  1.00  0.00     0.152 C 
ATOM     10  C   UNL A   1      33.253  28.268  22.890  1.00  0.00     0.182 C 
ATOM     11  O   UNL A   1      33.241  28.740  24.252  1.00  0.00    -0.374 OA
BRANCH   7  12
ATOM     12  C   UNL A   1      31.645  24.972  23.361  1.00  0.00     0.264 C 
ATOM     13  O   UNL A   1      30.485  24.623  23.129  1.00  0.00    -0.268 OA
BRANCH  12  14
ATOM     14  C   UNL A   1      32.734  24.010  23.496  1.00  0.00     0.093 A 
ATOM     15  C   UNL A   1      34.866  23.005  23.658  1.00  0.00    -0.034 A 
ATOM     16  C   UNL A   1      34.095  24.166  23.310  1.00  0.00     0.029 A 
ATOM     17  C   UNL A   1      34.042  22.004  24.150  1.00  0.00     0.005 A 
ATOM     18  S   UNL A   1      32.392  22.453  24.119  1.00  0.00    -0.135 S 
ATOM     19  C   UNL A   1      34.409  20.671  24.713  1.00  0.00     0.056 C 
BRANCH  15  20
ATOM     20  C   UNL A   1      36.363  22.941  23.513  1.00  0.00     0.033 C 
ATOM     21  C   UNL A   1      37.119  23.261  24.793  1.00  0.00     0.009 C 
ENDBRANCH  15  20
ENDBRANCH  12  14
ENDBRANCH   7  12
ENDBRANCH   5   6
ENDBRANCH   3   5
ENDBRANCH   2   3
ENDBRANCH   1   2
BRANCH   1  22
ATOM     22  C   UNL A   1      31.839  32.289  27.311  1.00  0.00     0.275 C 
BRANCH  22  23
ATOM     23  O   UNL A   1      32.663  33.456  27.129  1.00  0.00    -0.458 OA
BRANCH  23  24
ATOM     24  C   UNL A   1      33.091  34.046  28.267  1.00  0.00     0.338 C 
ATOM     25  O   UNL A   1      32.493  34.856  28.953  1.00  0.00    -0.246 OA
BRANCH  24  26
ATOM     26  C   UNL A   1      34.380  33.461  28.666  1.00  0.00     0.060 A 
ATOM     27  C   UNL A   1      34.430  32.712  29.845  1.00  0.00     0.016 A 
ATOM     28  C   UNL A   1      35.537  33.696  27.921  1.00  0.00     0.016 A 
ATOM     29  C   UNL A   1      35.644  32.195  30.290  1.00  0.00     0.010 A 
ATOM     30  C   UNL A   1      36.755  33.176  28.370  1.00  0.00     0.010 A 
ATOM     31  C   UNL A   1      36.817  32.432  29.560  1.00  0.00    -0.014 A 
BRANCH  31  32
ATOM     32  C   UNL A   1      38.115  31.925  30.064  1.00  0.00     0.031 A 
ATOM     33  C   UNL A   1      38.672  30.635  29.535  1.00  0.00     0.074 A 
ATOM     34  C   UNL A   1      38.794  32.624  30.991  1.00  0.00     0.049 A 
ATOM     35  N   UNL A   1      39.762  30.001  29.885  1.00  0.00    -0.248 NA
ATOM     36  C   UNL A   1      37.900  29.967  28.475  1.00  0.00     0.031 C 
ATOM     37  C   UNL A   1      38.373  33.906  31.557  1.00  0.00     0.029 A 
ATOM     38  N   UNL A   1      39.981  32.350  31.620  1.00  0.00    -0.354 N 
ATOM     39  C   UNL A   1      39.802  28.856  29.100  1.00  0.00     0.074 A 
ATOM     40  C   UNL A   1      38.615  28.871  28.270  1.00  0.00     0.031 C 
ATOM     41  C   UNL A   1      39.292  34.308  32.452  1.00  0.00     0.029 A 
ATOM     42  C   UNL A   1      40.339  33.295  32.549  1.00  0.00     0.049 A 
ATOM     43  H   UNL A   1      40.524  31.553  31.424  1.00  0.00     0.167 HD
ATOM     44  C   UNL A   1      40.740  27.880  29.075  1.00  0.00     0.031 A 
ATOM     45  C   UNL A   1      41.382  33.329  33.400  1.00  0.00     0.031 A 
ATOM     46  C   UNL A   1      41.917  27.861  29.904  1.00  0.00     0.049 A 
ATOM     47  C   UNL A   1      42.378  32.204  33.394  1.00  0.00     0.074 A 
ATOM     48  C   UNL A   1      42.936  26.924  29.933  1.00  0.00     0.029 A 
ATOM     49  N   UNL A   1      42.228  28.821  30.854  1.00  0.00    -0.354 N 
ATOM     50  N   UNL A   1      42.414  31.136  32.632  1.00  0.00    -0.248 NA
ATOM     51  C   UNL A   1      43.478  32.289  34.364  1.00  0.00     0.031 C 
ATOM     52  C   UNL A   1      43.840  27.292  30.936  1.00  0.00     0.029 A 
ATOM     53  C   UNL A   1      43.409  28.485  31.494  1.00  0.00     0.049 A 
ATOM     54  H   UNL A   1      41.689  29.622  31.045  1.00  0.00     0.167 HD
ATOM     55  C   UNL A   1      43.549  30.436  33.017  1.00  0.00     0.074 A 
ATOM     56  C   UNL A   1      44.183  31.205  34.067  1.00  0.00     0.031 C 
ATOM     57  C   UNL A   1      44.024  29.259  32.541  1.00  0.00     0.031 A 
BRANCH  44  58
ATOM     58  C   UNL A   1      40.513  26.728  28.139  1.00  0.00    -0.014 A 
ATOM     59  C   UNL A   1      41.070  26.713  26.851  1.00  0.00     0.009 A 
ATOM     60  C   UNL A   1      39.758  25.624  28.566  1.00  0.00     0.009 A 
ATOM     61  C   UNL A   1      40.852  25.627  25.999  1.00  0.00     0.001 A 
ATOM     62  C   UNL A   1      39.562  24.530  27.723  1.00  0.00     0.001 A 
ATOM     63  C   UNL A   1      40.103  24.535  26.437  1.00  0.00     0.000 A 
ENDBRANCH  44  58
BRANCH  45  64
ATOM     64  C   UNL A   1      41.526  34.462  34.351  1.00  0.00    -0.014 A 
ATOM     65  C   UNL A   1      40.950  34.401  35.628  1.00  0.00     0.009 A 
ATOM     66  C   UNL A   1      42.235  35.614  33.978  1.00  0.00     0.009 A 
ATOM     67  C   UNL A   1      41.066  35.481  36.506  1.00  0.00     0.001 A 
ATOM     68  C   UNL A   1      42.370  36.682  34.867  1.00  0.00     0.001 A 
ATOM     69  C   UNL A   1      41.778  36.618  36.127  1.00  0.00     0.000 A 
ENDBRANCH  45  64
BRANCH  57  70
ATOM     70  C   UNL A   1      45.308  28.749  33.133  1.00  0.00    -0.014 A 
ATOM     71  C   UNL A   1      46.552  29.116  32.598  1.00  0.00     0.009 A 
ATOM     72  C   UNL A   1      45.269  27.918  34.264  1.00  0.00     0.009 A 
ATOM     73  C   UNL A   1      47.732  28.635  33.167  1.00  0.00     0.001 A 
ATOM     74  C   UNL A   1      46.452  27.461  34.846  1.00  0.00     0.001 A 
ATOM     75  C   UNL A   1      47.682  27.812  34.291  1.00  0.00     0.000 A 
ENDBRANCH  57  70
ENDBRANCH  31  32
ENDBRANCH  24  26
ENDBRANCH  23  24
ENDBRANCH  22  23
ENDBRANCH   1  22
TORSDOF 15
ENDMDL
MODEL 3
REMARK VINA RESULT:     -10.1      3.988      8.001
REMARK SMILES CCc1cc(C(=O)N2CCO[C@@H](CC(=O)OCCOC(=O)c3ccc(-c4c5nc(c(-c6ccccc6)c6ccc([nH]6)c(-c6ccccc6)c6nc(c(-c7ccccc7)c7ccc4[nH]7)C=C6)C=C5)cc3)C2)sc1C
REMARK SMILES IDX 17 1 16 2 14 3 15 4 13 5 12 6 8 7 9 8 70 9 10 10 11 11 6 12
REMARK SMILES IDX 7 13 5 14 3 15 4 16 72 17 71 18 73 19 2 20 1 21 18 22 19 23
REMARK SMILES IDX 20 24 21 25 22 26 23 27 69 28 24 29 68 30 25 31 26 32 27 33
REMARK SMILES IDX 62 34 28 35 67 36 61 37 63 38 29 39 66 40 60 41 59 42 30 44
REMARK SMILES IDX 52 45 37 46 51 47 38 48 41 49 50 50 64 51 39 52 40 53 49 55
REMARK SMILES IDX 65 56 42 57 31 58 32 59 36 60 33 61 35 62 34 63 53 64 54 65
REMARK SMILES IDX 58 66 55 67 57 68 56 69 43 70 44 71 48 72 45 73 47 74 46 75
REMARK H PARENT 63 43 41 54
REMARK Flexibility Score: inf
ROOT
ATOM      1  C   UNL A   1      37.667  20.749  24.966  1.00  0.00     0.274 C 
ENDROOT
BRANCH   1   2
ATOM      2  O   UNL A   1      37.923  21.842  25.871  1.00  0.00    -0.462 OA
BRANCH   2   3
ATOM      3  C   UNL A   1      37.278  23.011  25.645  1.00  0.00     0.308 C 
ATOM      4  O   UNL A   1      37.546  24.075  26.189  1.00  0.00    -0.252 OA
BRANCH   3   5
ATOM      5  C   UNL A   1      36.131  22.844  24.676  1.00  0.00     0.156 C 
BRANCH   5   6
ATOM      6  C   UNL A   1      34.764  23.145  25.283  1.00  0.00     0.148 C 
ATOM      7  N   UNL A   1      32.337  23.156  24.987  1.00  0.00    -0.333 N 
ATOM      8  C   UNL A   1      32.159  22.452  26.256  1.00  0.00     0.148 C 
ATOM      9  C   UNL A   1      33.598  22.857  24.316  1.00  0.00     0.152 C 
ATOM     10  C   UNL A   1      33.382  22.651  27.160  1.00  0.00     0.182 C 
ATOM     11  O   UNL A   1      34.607  22.328  26.472  1.00  0.00    -0.374 OA
BRANCH   7  12
ATOM     12  C   UNL A   1      31.394  23.938  24.322  1.00  0.00     0.264 C 
ATOM     13  O   UNL A   1      30.770  23.456  23.374  1.00  0.00    -0.268 OA
BRANCH  12  14
ATOM     14  C   UNL A   1      31.250  25.336  24.717  1.00  0.00     0.093 A 
ATOM     15  C   UNL A   1      31.390  27.394  25.870  1.00  0.00    -0.034 A 
ATOM     16  C   UNL A   1      31.570  25.969  25.904  1.00  0.00     0.029 A 
ATOM     17  C   UNL A   1      30.971  27.801  24.613  1.00  0.00     0.005 A 
ATOM     18  S   UNL A   1      30.747  26.480  23.548  1.00  0.00    -0.135 S 
ATOM     19  C   UNL A   1      30.746  29.183  24.094  1.00  0.00     0.056 C 
BRANCH  15  20
ATOM     20  C   UNL A   1      31.654  28.282  27.056  1.00  0.00     0.033 C 
ATOM     21  C   UNL A   1      33.131  28.491  27.350  1.00  0.00     0.009 C 
ENDBRANCH  15  20
ENDBRANCH  12  14
ENDBRANCH   7  12
ENDBRANCH   5   6
ENDBRANCH   3   5
ENDBRANCH   2   3
ENDBRANCH   1   2
BRANCH   1  22
ATOM     22  C   UNL A   1      38.818  19.739  24.959  1.00  0.00     0.275 C 
BRANCH  22  23
ATOM     23  O   UNL A   1      39.530  19.755  26.210  1.00  0.00    -0.458 OA
BRANCH  23  24
ATOM     24  C   UNL A   1      40.879  19.759  26.108  1.00  0.00     0.338 C 
ATOM     25  O   UNL A   1      41.586  18.913  25.591  1.00  0.00    -0.246 OA
BRANCH  24  26
ATOM     26  C   UNL A   1      41.402  21.038  26.610  1.00  0.00     0.060 A 
ATOM     27  C   UNL A   1      41.355  21.279  27.986  1.00  0.00     0.016 A 
ATOM     28  C   UNL A   1      41.879  22.013  25.731  1.00  0.00     0.016 A 
ATOM     29  C   UNL A   1      41.782  22.503  28.493  1.00  0.00     0.010 A 
ATOM     30  C   UNL A   1      42.308  23.241  26.243  1.00  0.00     0.010 A 
ATOM     31  C   UNL A   1      42.252  23.496  27.624  1.00  0.00    -0.014 A 
BRANCH  31  32
ATOM     32  C   UNL A   1      42.657  24.817  28.161  1.00  0.00     0.031 A 
ATOM     33  C   UNL A   1      41.626  25.888  28.374  1.00  0.00     0.074 A 
ATOM     34  C   UNL A   1      43.946  25.052  28.463  1.00  0.00     0.049 A 
ATOM     35  N   UNL A   1      41.787  27.119  28.785  1.00  0.00    -0.248 NA
ATOM     36  C   UNL A   1      40.229  25.526  28.083  1.00  0.00     0.031 C 
ATOM     37  C   UNL A   1      45.035  24.082  28.332  1.00  0.00     0.029 A 
ATOM     38  N   UNL A   1      44.558  26.184  28.938  1.00  0.00    -0.354 N 
ATOM     39  C   UNL A   1      40.519  27.685  28.790  1.00  0.00     0.074 A 
ATOM     40  C   UNL A   1      39.600  26.668  28.321  1.00  0.00     0.031 C 
ATOM     41  C   UNL A   1      46.182  24.662  28.720  1.00  0.00     0.029 A 
ATOM     42  C   UNL A   1      45.916  26.051  29.086  1.00  0.00     0.049 A 
ATOM     43  H   UNL A   1      44.070  27.011  29.154  1.00  0.00     0.167 HD
ATOM     44  C   UNL A   1      40.153  28.938  29.150  1.00  0.00     0.031 A 
ATOM     45  C   UNL A   1      46.845  26.953  29.453  1.00  0.00     0.031 A 
ATOM     46  C   UNL A   1      41.066  29.951  29.611  1.00  0.00     0.049 A 
ATOM     47  C   UNL A   1      46.420  28.355  29.791  1.00  0.00     0.074 A 
ATOM     48  C   UNL A   1      40.784  31.244  30.019  1.00  0.00     0.029 A 
ATOM     49  N   UNL A   1      42.437  29.787  29.717  1.00  0.00    -0.354 N 
ATOM     50  N   UNL A   1      45.214  28.871  29.811  1.00  0.00    -0.248 NA
ATOM     51  C   UNL A   1      47.485  29.298  30.159  1.00  0.00     0.031 C 
ATOM     52  C   UNL A   1      41.993  31.878  30.327  1.00  0.00     0.029 A 
ATOM     53  C   UNL A   1      43.020  30.963  30.159  1.00  0.00     0.049 A 
ATOM     54  H   UNL A   1      42.925  28.958  29.509  1.00  0.00     0.167 HD
ATOM     55  C   UNL A   1      45.374  30.190  30.212  1.00  0.00     0.074 A 
ATOM     56  C   UNL A   1      46.790  30.392  30.442  1.00  0.00     0.031 C 
ATOM     57  C   UNL A   1      44.431  31.149  30.378  1.00  0.00     0.031 A 
BRANCH  44  58
ATOM     58  C   UNL A   1      38.699  29.295  29.028  1.00  0.00    -0.014 A 
ATOM     59  C   UNL A   1      38.159  29.749  27.815  1.00  0.00     0.009 A 
ATOM     60  C   UNL A   1      37.851  29.140  30.136  1.00  0.00     0.009 A 
ATOM     61  C   UNL A   1      36.802  30.069  27.723  1.00  0.00     0.001 A 
ATOM     62  C   UNL A   1      36.491  29.437  30.034  1.00  0.00     0.001 A 
ATOM     63  C   UNL A   1      35.969  29.908  28.830  1.00  0.00     0.000 A 
ENDBRANCH  44  58
BRANCH  45  64
ATOM     64  C   UNL A   1      48.278  26.566  29.497  1.00  0.00    -0.014 A 
ATOM     65  C   UNL A   1      49.125  26.833  28.412  1.00  0.00     0.009 A 
ATOM     66  C   UNL A   1      48.803  25.918  30.626  1.00  0.00     0.009 A 
ATOM     67  C   UNL A   1      50.466  26.441  28.449  1.00  0.00     0.001 A 
ATOM     68  C   UNL A   1      50.149  25.549  30.670  1.00  0.00     0.001 A 
ATOM     69  C   UNL A   1      50.976  25.803  29.578  1.00  0.00     0.000 A 
ENDBRANCH  45  64
BRANCH  57  70
ATOM     70  C   UNL A   1      44.898  32.494  30.857  1.00  0.00    -0.014 A 
ATOM     71  C   UNL A   1      45.261  33.503  29.952  1.00  0.00     0.009 A 
ATOM     72  C   UNL A   1      44.941  32.765  32.234  1.00  0.00     0.009 A 
ATOM     73  C   UNL A   1      45.686  34.748  30.418  1.00  0.00     0.001 A 
ATOM     74  C   UNL A   1      45.342  34.019  32.696  1.00  0.00     0.001 A 
ATOM     75  C   UNL A   1      45.723  35.006  31.788  1.00  0.00     0.000 A 
ENDBRANCH  57  70
ENDBRANCH  31  32
ENDBRANCH  24  26
ENDBRANCH  23  24
ENDBRANCH  22  23
ENDBRANCH   1  22
TORSDOF 15
ENDMDL
