MODEL 1
REMARK VINA RESULT:     -10.8      0.000      0.000
REMARK SMILES Cc1nc(CC(=O)N2[C@@H](C(=O)OCCOC(=O)c3ccc(-c4c5nc(c(-c6ccccc6)c6ccc([nH]6)c(-c6ccccc6)c6nc(c(-c7ccccc7)c7ccc4[nH]7)C=C6)C=C5)cc3)C[C@@H]3CCCC[C@H]32)cs1
REMARK SMILES IDX 13 1 12 2 10 3 11 4 9 5 8 6 72 7 66 8 67 9 71 10 68 11 70 12
REMARK SMILES IDX 69 13 6 14 7 15 5 16 4 17 1 18 2 19 3 20 74 21 73 22 14 23
REMARK SMILES IDX 15 24 16 25 17 26 18 27 19 28 65 29 20 30 64 31 21 32 22 33
REMARK SMILES IDX 23 34 58 35 24 36 63 37 57 38 59 39 25 40 62 41 56 42 55 43
REMARK SMILES IDX 26 45 48 46 33 47 47 48 34 49 37 50 46 51 60 52 35 53 36 54
REMARK SMILES IDX 45 56 61 57 38 58 27 59 28 60 32 61 29 62 31 63 30 64 49 65
REMARK SMILES IDX 50 66 54 67 51 68 53 69 52 70 39 71 40 72 44 73 41 74 43 75
REMARK SMILES IDX 42 76
REMARK H PARENT 59 44 37 55
REMARK Flexibility Score: inf
ROOT
ATOM      1  C   UNL A   1      38.151  21.045  25.387  1.00  0.00     0.274 C 
ENDROOT
BRANCH   1   2
ATOM      2  O   UNL A   1      36.888  20.884  24.710  1.00  0.00    -0.461 OA
BRANCH   2   3
ATOM      3  C   UNL A   1      36.308  22.034  24.269  1.00  0.00     0.329 C 
ATOM      4  O   UNL A   1      36.567  22.572  23.197  1.00  0.00    -0.250 OA
BRANCH   3   5
ATOM      5  C   UNL A   1      35.173  22.520  25.178  1.00  0.00     0.195 C 
ATOM      6  N   UNL A   1      33.841  22.535  24.554  1.00  0.00    -0.325 N 
ATOM      7  C   UNL A   1      33.143  23.730  25.017  1.00  0.00     0.089 C 
ATOM      8  C   UNL A   1      35.402  23.971  25.652  1.00  0.00     0.043 C 
ATOM      9  C   UNL A   1      34.268  24.753  25.015  1.00  0.00     0.014 C 
ATOM     10  C   UNL A   1      31.941  24.289  24.283  1.00  0.00     0.025 C 
ATOM     11  C   UNL A   1      33.874  26.050  25.700  1.00  0.00     0.006 C 
ATOM     12  C   UNL A   1      31.513  25.641  24.876  1.00  0.00     0.002 C 
ATOM     13  C   UNL A   1      32.661  26.645  24.985  1.00  0.00     0.000 C 
BRANCH   6  14
ATOM     14  C   UNL A   1      33.238  21.306  24.338  1.00  0.00     0.229 C 
ATOM     15  O   UNL A   1      32.600  21.065  23.312  1.00  0.00    -0.274 OA
BRANCH  14  16
ATOM     16  C   UNL A   1      33.207  20.360  25.521  1.00  0.00     0.157 C 
BRANCH  16  17
ATOM     17  C   UNL A   1      33.407  18.941  25.138  1.00  0.00     0.061 A 
ATOM     18  C   UNL A   1      32.214  15.580  25.857  1.00  0.00     0.079 C 
ATOM     19  C   UNL A   1      32.873  16.799  25.319  1.00  0.00     0.090 A 
ATOM     20  N   UNL A   1      32.473  18.020  25.588  1.00  0.00    -0.246 NA
ATOM     21  S   UNL A   1      34.296  16.686  24.367  1.00  0.00    -0.127 S 
ATOM     22  C   UNL A   1      34.442  18.396  24.401  1.00  0.00     0.091 A 
ENDBRANCH  16  17
ENDBRANCH  14  16
ENDBRANCH   6  14
ENDBRANCH   3   5
ENDBRANCH   2   3
ENDBRANCH   1   2
BRANCH   1  23
ATOM     23  C   UNL A   1      39.015  19.784  25.322  1.00  0.00     0.275 C 
BRANCH  23  24
ATOM     24  O   UNL A   1      39.899  19.702  26.456  1.00  0.00    -0.458 OA
BRANCH  24  25
ATOM     25  C   UNL A   1      41.219  19.713  26.172  1.00  0.00     0.338 C 
ATOM     26  O   UNL A   1      41.855  18.872  25.559  1.00  0.00    -0.246 OA
BRANCH  25  27
ATOM     27  C   UNL A   1      41.833  20.966  26.638  1.00  0.00     0.060 A 
ATOM     28  C   UNL A   1      41.912  21.195  28.010  1.00  0.00     0.016 A 
ATOM     29  C   UNL A   1      42.147  21.985  25.741  1.00  0.00     0.016 A 
ATOM     30  C   UNL A   1      42.194  22.459  28.498  1.00  0.00     0.010 A 
ATOM     31  C   UNL A   1      42.529  23.239  26.235  1.00  0.00     0.010 A 
ATOM     32  C   UNL A   1      42.518  23.496  27.618  1.00  0.00    -0.014 A 
BRANCH  32  33
ATOM     33  C   UNL A   1      42.798  24.839  28.178  1.00  0.00     0.031 A 
ATOM     34  C   UNL A   1      44.209  25.259  28.474  1.00  0.00     0.074 A 
ATOM     35  C   UNL A   1      41.786  25.714  28.338  1.00  0.00     0.049 A 
ATOM     36  N   UNL A   1      44.642  26.373  29.007  1.00  0.00    -0.248 NA
ATOM     37  C   UNL A   1      45.275  24.304  28.128  1.00  0.00     0.031 C 
ATOM     38  C   UNL A   1      40.379  25.450  28.022  1.00  0.00     0.029 A 
ATOM     39  N   UNL A   1      41.791  27.014  28.773  1.00  0.00    -0.354 N 
ATOM     40  C   UNL A   1      46.020  26.235  29.102  1.00  0.00     0.074 A 
ATOM     41  C   UNL A   1      46.354  24.930  28.572  1.00  0.00     0.031 C 
ATOM     42  C   UNL A   1      39.667  26.569  28.225  1.00  0.00     0.029 A 
ATOM     43  C   UNL A   1      40.550  27.601  28.753  1.00  0.00     0.049 A 
ATOM     44  H   UNL A   1      42.604  27.482  29.070  1.00  0.00     0.167 HD
ATOM     45  C   UNL A   1      46.925  27.115  29.592  1.00  0.00     0.031 A 
ATOM     46  C   UNL A   1      40.157  28.828  29.141  1.00  0.00     0.031 A 
ATOM     47  C   UNL A   1      46.596  28.423  30.094  1.00  0.00     0.049 A 
ATOM     48  C   UNL A   1      41.173  29.773  29.708  1.00  0.00     0.074 A 
ATOM     49  C   UNL A   1      47.439  29.381  30.629  1.00  0.00     0.029 A 
ATOM     50  N   UNL A   1      45.318  28.960  30.108  1.00  0.00    -0.354 N 
ATOM     51  N   UNL A   1      42.464  29.604  29.852  1.00  0.00    -0.248 NA
ATOM     52  C   UNL A   1      40.675  31.073  30.179  1.00  0.00     0.031 C 
ATOM     53  C   UNL A   1      46.664  30.490  30.994  1.00  0.00     0.029 A 
ATOM     54  C   UNL A   1      45.347  30.233  30.650  1.00  0.00     0.049 A 
ATOM     55  H   UNL A   1      44.510  28.503  29.779  1.00  0.00     0.167 HD
ATOM     56  C   UNL A   1      42.936  30.773  30.429  1.00  0.00     0.074 A 
ATOM     57  C   UNL A   1      41.795  31.654  30.587  1.00  0.00     0.031 C 
ATOM     58  C   UNL A   1      44.199  31.087  30.804  1.00  0.00     0.031 A 
BRANCH  45  59
ATOM     59  C   UNL A   1      48.355  26.661  29.655  1.00  0.00    -0.014 A 
ATOM     60  C   UNL A   1      48.859  25.979  30.772  1.00  0.00     0.009 A 
ATOM     61  C   UNL A   1      49.207  26.916  28.569  1.00  0.00     0.009 A 
ATOM     62  C   UNL A   1      50.200  25.590  30.814  1.00  0.00     0.001 A 
ATOM     63  C   UNL A   1      50.541  26.508  28.605  1.00  0.00     0.001 A 
ATOM     64  C   UNL A   1      51.039  25.853  29.731  1.00  0.00     0.000 A 
ENDBRANCH  45  59
BRANCH  46  65
ATOM     65  C   UNL A   1      38.726  29.207  29.038  1.00  0.00    -0.014 A 
ATOM     66  C   UNL A   1      37.846  28.970  30.104  1.00  0.00     0.009 A 
ATOM     67  C   UNL A   1      38.241  29.840  27.882  1.00  0.00     0.009 A 
ATOM     68  C   UNL A   1      36.505  29.353  30.009  1.00  0.00     0.001 A 
ATOM     69  C   UNL A   1      36.909  30.244  27.801  1.00  0.00     0.001 A 
ATOM     70  C   UNL A   1      36.040  29.995  28.862  1.00  0.00     0.000 A 
ENDBRANCH  46  65
BRANCH  58  71
ATOM     71  C   UNL A   1      44.407  32.444  31.405  1.00  0.00    -0.014 A 
ATOM     72  C   UNL A   1      44.684  33.557  30.595  1.00  0.00     0.009 A 
ATOM     73  C   UNL A   1      44.299  32.616  32.794  1.00  0.00     0.009 A 
ATOM     74  C   UNL A   1      44.879  34.814  31.170  1.00  0.00     0.001 A 
ATOM     75  C   UNL A   1      44.476  33.878  33.363  1.00  0.00     0.001 A 
ATOM     76  C   UNL A   1      44.772  34.973  32.553  1.00  0.00     0.000 A 
ENDBRANCH  58  71
ENDBRANCH  32  33
ENDBRANCH  25  27
ENDBRANCH  24  25
ENDBRANCH  23  24
ENDBRANCH   1  23
TORSDOF 14
ENDMDL
MODEL 2
REMARK VINA RESULT:     -10.7      4.889      9.428
REMARK SMILES Cc1nc(CC(=O)N2[C@@H](C(=O)OCCOC(=O)c3ccc(-c4c5nc(c(-c6ccccc6)c6ccc([nH]6)c(-c6ccccc6)c6nc(c(-c7ccccc7)c7ccc4[nH]7)C=C6)C=C5)cc3)C[C@@H]3CCCC[C@H]32)cs1
REMARK SMILES IDX 13 1 12 2 10 3 11 4 9 5 8 6 72 7 66 8 67 9 71 10 68 11 70 12
REMARK SMILES IDX 69 13 6 14 7 15 5 16 4 17 1 18 2 19 3 20 74 21 73 22 14 23
REMARK SMILES IDX 15 24 16 25 17 26 18 27 19 28 65 29 20 30 64 31 21 32 22 33
REMARK SMILES IDX 23 34 58 35 24 36 63 37 57 38 59 39 25 40 62 41 56 42 55 43
REMARK SMILES IDX 26 45 48 46 33 47 47 48 34 49 37 50 46 51 60 52 35 53 36 54
REMARK SMILES IDX 45 56 61 57 38 58 27 59 28 60 32 61 29 62 31 63 30 64 49 65
REMARK SMILES IDX 50 66 54 67 51 68 53 69 52 70 39 71 40 72 44 73 41 74 43 75
REMARK SMILES IDX 42 76
REMARK H PARENT 59 44 37 55
REMARK Flexibility Score: inf
ROOT
ATOM      1  C   UNL A   1      31.371  31.494  26.532  1.00  0.00     0.274 C 
ENDROOT
BRANCH   1   2
ATOM      2  O   UNL A   1      31.855  30.591  25.517  1.00  0.00    -0.461 OA
BRANCH   2   3
ATOM      3  C   UNL A   1      31.946  29.284  25.890  1.00  0.00     0.329 C 
ATOM      4  O   UNL A   1      31.552  28.844  26.965  1.00  0.00    -0.250 OA
BRANCH   3   5
ATOM      5  C   UNL A   1      32.452  28.373  24.765  1.00  0.00     0.195 C 
ATOM      6  N   UNL A   1      31.510  27.323  24.347  1.00  0.00    -0.325 N 
ATOM      7  C   UNL A   1      32.280  26.113  24.078  1.00  0.00     0.089 C 
ATOM      8  C   UNL A   1      33.731  27.614  25.176  1.00  0.00     0.043 C 
ATOM      9  C   UNL A   1      33.307  26.157  25.199  1.00  0.00     0.014 C 
ATOM     10  C   UNL A   1      31.630  24.744  24.033  1.00  0.00     0.025 C 
ATOM     11  C   UNL A   1      34.411  25.130  25.015  1.00  0.00     0.006 C 
ATOM     12  C   UNL A   1      32.687  23.636  23.911  1.00  0.00     0.002 C 
ATOM     13  C   UNL A   1      33.791  23.733  24.965  1.00  0.00     0.000 C 
BRANCH   6  14
ATOM     14  C   UNL A   1      30.404  27.729  23.617  1.00  0.00     0.229 C 
ATOM     15  O   UNL A   1      29.311  27.171  23.726  1.00  0.00    -0.274 OA
BRANCH  14  16
ATOM     16  C   UNL A   1      30.663  28.737  22.516  1.00  0.00     0.157 C 
BRANCH  16  17
ATOM     17  C   UNL A   1      29.683  29.851  22.503  1.00  0.00     0.061 A 
ATOM     18  C   UNL A   1      27.983  32.148  20.252  1.00  0.00     0.079 C 
ATOM     19  C   UNL A   1      28.472  31.343  21.401  1.00  0.00     0.090 A 
ATOM     20  N   UNL A   1      29.186  30.249  21.271  1.00  0.00    -0.246 NA
ATOM     21  S   UNL A   1      28.213  31.862  23.016  1.00  0.00    -0.127 S 
ATOM     22  C   UNL A   1      29.212  30.583  23.576  1.00  0.00     0.091 A 
ENDBRANCH  16  17
ENDBRANCH  14  16
ENDBRANCH   6  14
ENDBRANCH   3   5
ENDBRANCH   2   3
ENDBRANCH   1   2
BRANCH   1  23
ATOM     23  C   UNL A   1      32.506  32.229  27.249  1.00  0.00     0.275 C 
BRANCH  23  24
ATOM     24  O   UNL A   1      32.200  33.628  27.404  1.00  0.00    -0.458 OA
BRANCH  24  25
ATOM     25  C   UNL A   1      32.949  34.295  28.308  1.00  0.00     0.338 C 
ATOM     26  O   UNL A   1      32.664  35.325  28.896  1.00  0.00    -0.246 OA
BRANCH  25  27
ATOM     27  C   UNL A   1      34.189  33.556  28.590  1.00  0.00     0.060 A 
ATOM     28  C   UNL A   1      34.177  32.605  29.608  1.00  0.00     0.016 A 
ATOM     29  C   UNL A   1      35.395  33.931  27.999  1.00  0.00     0.016 A 
ATOM     30  C   UNL A   1      35.362  32.103  30.118  1.00  0.00     0.010 A 
ATOM     31  C   UNL A   1      36.588  33.349  28.447  1.00  0.00     0.010 A 
ATOM     32  C   UNL A   1      36.583  32.459  29.537  1.00  0.00    -0.014 A 
BRANCH  32  33
ATOM     33  C   UNL A   1      37.831  31.913  30.121  1.00  0.00     0.031 A 
ATOM     34  C   UNL A   1      38.475  30.692  29.530  1.00  0.00     0.074 A 
ATOM     35  C   UNL A   1      38.433  32.571  31.131  1.00  0.00     0.049 A 
ATOM     36  N   UNL A   1      39.539  30.046  29.933  1.00  0.00    -0.248 NA
ATOM     37  C   UNL A   1      37.841  30.119  28.332  1.00  0.00     0.031 C 
ATOM     38  C   UNL A   1      37.943  33.808  31.747  1.00  0.00     0.029 A 
ATOM     39  N   UNL A   1      39.604  32.311  31.793  1.00  0.00    -0.354 N 
ATOM     40  C   UNL A   1      39.676  28.968  29.069  1.00  0.00     0.074 A 
ATOM     41  C   UNL A   1      38.588  29.045  28.118  1.00  0.00     0.031 C 
ATOM     42  C   UNL A   1      38.834  34.226  32.660  1.00  0.00     0.029 A 
ATOM     43  C   UNL A   1      39.914  33.251  32.746  1.00  0.00     0.049 A 
ATOM     44  H   UNL A   1      40.169  31.528  31.604  1.00  0.00     0.167 HD
ATOM     45  C   UNL A   1      40.622  27.999  29.071  1.00  0.00     0.031 A 
ATOM     46  C   UNL A   1      40.942  33.311  33.612  1.00  0.00     0.031 A 
ATOM     47  C   UNL A   1      41.719  27.938  29.999  1.00  0.00     0.049 A 
ATOM     48  C   UNL A   1      41.959  32.211  33.614  1.00  0.00     0.074 A 
ATOM     49  C   UNL A   1      42.719  26.986  30.094  1.00  0.00     0.029 A 
ATOM     50  N   UNL A   1      41.967  28.880  30.985  1.00  0.00    -0.354 N 
ATOM     51  N   UNL A   1      42.038  31.162  32.832  1.00  0.00    -0.248 NA
ATOM     52  C   UNL A   1      43.019  32.294  34.628  1.00  0.00     0.031 C 
ATOM     53  C   UNL A   1      43.557  27.338  31.160  1.00  0.00     0.029 A 
ATOM     54  C   UNL A   1      43.099  28.528  31.700  1.00  0.00     0.049 A 
ATOM     55  H   UNL A   1      41.419  29.681  31.151  1.00  0.00     0.167 HD
ATOM     56  C   UNL A   1      43.156  30.460  33.257  1.00  0.00     0.074 A 
ATOM     57  C   UNL A   1      43.737  31.214  34.350  1.00  0.00     0.031 C 
ATOM     58  C   UNL A   1      43.653  29.289  32.788  1.00  0.00     0.031 A 
BRANCH  45  59
ATOM     59  C   UNL A   1      40.471  26.896  28.063  1.00  0.00    -0.014 A 
ATOM     60  C   UNL A   1      39.726  25.741  28.346  1.00  0.00     0.009 A 
ATOM     61  C   UNL A   1      41.082  27.023  26.806  1.00  0.00     0.009 A 
ATOM     62  C   UNL A   1      39.624  24.720  27.398  1.00  0.00     0.001 A 
ATOM     63  C   UNL A   1      40.961  26.010  25.854  1.00  0.00     0.001 A 
ATOM     64  C   UNL A   1      40.240  24.855  26.154  1.00  0.00     0.000 A 
ENDBRANCH  45  59
BRANCH  46  65
ATOM     65  C   UNL A   1      41.027  34.440  34.571  1.00  0.00    -0.014 A 
ATOM     66  C   UNL A   1      41.756  35.595  34.253  1.00  0.00     0.009 A 
ATOM     67  C   UNL A   1      40.349  34.379  35.800  1.00  0.00     0.009 A 
ATOM     68  C   UNL A   1      41.809  36.664  35.152  1.00  0.00     0.001 A 
ATOM     69  C   UNL A   1      40.384  35.458  36.683  1.00  0.00     0.001 A 
ATOM     70  C   UNL A   1      41.119  36.597  36.361  1.00  0.00     0.000 A 
ENDBRANCH  46  65
BRANCH  58  71
ATOM     71  C   UNL A   1      44.892  28.769  33.453  1.00  0.00    -0.014 A 
ATOM     72  C   UNL A   1      44.810  27.886  34.541  1.00  0.00     0.009 A 
ATOM     73  C   UNL A   1      46.154  29.145  32.968  1.00  0.00     0.009 A 
ATOM     74  C   UNL A   1      45.973  27.413  35.151  1.00  0.00     0.001 A 
ATOM     75  C   UNL A   1      47.314  28.655  33.569  1.00  0.00     0.001 A 
ATOM     76  C   UNL A   1      47.223  27.796  34.662  1.00  0.00     0.000 A 
ENDBRANCH  58  71
ENDBRANCH  32  33
ENDBRANCH  25  27
ENDBRANCH  24  25
ENDBRANCH  23  24
ENDBRANCH   1  23
TORSDOF 14
ENDMDL
MODEL 3
REMARK VINA RESULT:     -10.7      4.955      9.674
REMARK SMILES Cc1nc(CC(=O)N2[C@@H](C(=O)OCCOC(=O)c3ccc(-c4c5nc(c(-c6ccccc6)c6ccc([nH]6)c(-c6ccccc6)c6nc(c(-c7ccccc7)c7ccc4[nH]7)C=C6)C=C5)cc3)C[C@@H]3CCCC[C@H]32)cs1
REMARK SMILES IDX 13 1 12 2 10 3 11 4 9 5 8 6 72 7 66 8 67 9 71 10 68 11 70 12
REMARK SMILES IDX 69 13 6 14 7 15 5 16 4 17 1 18 2 19 3 20 74 21 73 22 14 23
REMARK SMILES IDX 15 24 16 25 17 26 18 27 19 28 65 29 20 30 64 31 21 32 22 33
REMARK SMILES IDX 23 34 58 35 24 36 63 37 57 38 59 39 25 40 62 41 56 42 55 43
REMARK SMILES IDX 26 45 48 46 33 47 47 48 34 49 37 50 46 51 60 52 35 53 36 54
REMARK SMILES IDX 45 56 61 57 38 58 27 59 28 60 32 61 29 62 31 63 30 64 49 65
REMARK SMILES IDX 50 66 54 67 51 68 53 69 52 70 39 71 40 72 44 73 41 74 43 75
REMARK SMILES IDX 42 76
REMARK H PARENT 59 44 37 55
REMARK Flexibility Score: inf
ROOT
ATOM      1  C   UNL A   1      31.337  31.689  26.656  1.00  0.00     0.274 C 
ENDROOT
BRANCH   1   2
ATOM      2  O   UNL A   1      31.735  30.770  25.618  1.00  0.00    -0.461 OA
BRANCH   2   3
ATOM      3  C   UNL A   1      32.016  29.504  26.032  1.00  0.00     0.329 C 
ATOM      4  O   UNL A   1      31.527  28.979  27.028  1.00  0.00    -0.250 OA
BRANCH   3   5
ATOM      5  C   UNL A   1      32.892  28.729  25.041  1.00  0.00     0.195 C 
ATOM      6  N   UNL A   1      32.154  27.902  24.075  1.00  0.00    -0.325 N 
ATOM      7  C   UNL A   1      32.894  26.658  23.893  1.00  0.00     0.089 C 
ATOM      8  C   UNL A   1      33.836  27.744  25.763  1.00  0.00     0.043 C 
ATOM      9  C   UNL A   1      33.358  26.375  25.313  1.00  0.00     0.014 C 
ATOM     10  C   UNL A   1      32.245  25.418  23.310  1.00  0.00     0.025 C 
ATOM     11  C   UNL A   1      34.376  25.250  25.377  1.00  0.00     0.006 C 
ATOM     12  C   UNL A   1      33.190  24.210  23.395  1.00  0.00     0.002 C 
ATOM     13  C   UNL A   1      33.755  23.979  24.797  1.00  0.00     0.000 C 
BRANCH   6  14
ATOM     14  C   UNL A   1      31.479  28.571  23.066  1.00  0.00     0.229 C 
ATOM     15  O   UNL A   1      32.051  29.360  22.312  1.00  0.00    -0.274 OA
BRANCH  14  16
ATOM     16  C   UNL A   1      29.968  28.458  23.084  1.00  0.00     0.157 C 
BRANCH  16  17
ATOM     17  C   UNL A   1      29.285  29.746  22.808  1.00  0.00     0.061 A 
ATOM     18  C   UNL A   1      27.937  31.752  20.089  1.00  0.00     0.079 C 
ATOM     19  C   UNL A   1      28.347  31.169  21.393  1.00  0.00     0.090 A 
ATOM     20  N   UNL A   1      28.761  29.931  21.537  1.00  0.00    -0.246 NA
ATOM     21  S   UNL A   1      28.400  32.131  22.813  1.00  0.00    -0.127 S 
ATOM     22  C   UNL A   1      29.124  30.824  23.658  1.00  0.00     0.091 A 
ENDBRANCH  16  17
ENDBRANCH  14  16
ENDBRANCH   6  14
ENDBRANCH   3   5
ENDBRANCH   2   3
ENDBRANCH   1   2
BRANCH   1  23
ATOM     23  C   UNL A   1      32.529  32.424  27.274  1.00  0.00     0.275 C 
BRANCH  23  24
ATOM     24  O   UNL A   1      32.206  33.802  27.542  1.00  0.00    -0.458 OA
BRANCH  24  25
ATOM     25  C   UNL A   1      32.976  34.416  28.466  1.00  0.00     0.338 C 
ATOM     26  O   UNL A   1      32.716  35.424  29.101  1.00  0.00    -0.246 OA
BRANCH  25  27
ATOM     27  C   UNL A   1      34.205  33.643  28.703  1.00  0.00     0.060 A 
ATOM     28  C   UNL A   1      34.192  32.663  29.693  1.00  0.00     0.016 A 
ATOM     29  C   UNL A   1      35.407  34.008  28.098  1.00  0.00     0.016 A 
ATOM     30  C   UNL A   1      35.375  32.122  30.165  1.00  0.00     0.010 A 
ATOM     31  C   UNL A   1      36.595  33.388  28.507  1.00  0.00     0.010 A 
ATOM     32  C   UNL A   1      36.592  32.468  29.571  1.00  0.00    -0.014 A 
BRANCH  32  33
ATOM     33  C   UNL A   1      37.838  31.880  30.115  1.00  0.00     0.031 A 
ATOM     34  C   UNL A   1      38.493  32.475  31.328  1.00  0.00     0.074 A 
ATOM     35  C   UNL A   1      38.332  30.751  29.568  1.00  0.00     0.049 A 
ATOM     36  N   UNL A   1      39.607  32.126  31.917  1.00  0.00    -0.248 NA
ATOM     37  C   UNL A   1      37.809  33.614  31.962  1.00  0.00     0.031 C 
ATOM     38  C   UNL A   1      37.748  30.036  28.429  1.00  0.00     0.029 A 
ATOM     39  N   UNL A   1      39.416  29.990  29.918  1.00  0.00    -0.354 N 
ATOM     40  C   UNL A   1      39.782  33.025  32.960  1.00  0.00     0.074 A 
ATOM     41  C   UNL A   1      38.659  33.939  32.925  1.00  0.00     0.031 C 
ATOM     42  C   UNL A   1      38.451  28.915  28.209  1.00  0.00     0.029 A 
ATOM     43  C   UNL A   1      39.573  28.870  29.138  1.00  0.00     0.049 A 
ATOM     44  H   UNL A   1      40.024  30.222  30.657  1.00  0.00     0.167 HD
ATOM     45  C   UNL A   1      40.790  33.088  33.862  1.00  0.00     0.031 A 
ATOM     46  C   UNL A   1      40.528  27.923  29.151  1.00  0.00     0.031 A 
ATOM     47  C   UNL A   1      41.891  32.164  33.913  1.00  0.00     0.049 A 
ATOM     48  C   UNL A   1      41.649  28.031  30.140  1.00  0.00     0.074 A 
ATOM     49  C   UNL A   1      42.971  32.155  34.778  1.00  0.00     0.029 A 
ATOM     50  N   UNL A   1      42.043  31.075  33.070  1.00  0.00    -0.354 N 
ATOM     51  N   UNL A   1      41.834  28.927  31.079  1.00  0.00    -0.248 NA
ATOM     52  C   UNL A   1      42.699  27.007  30.061  1.00  0.00     0.031 C 
ATOM     53  C   UNL A   1      43.794  31.073  34.438  1.00  0.00     0.029 A 
ATOM     54  C   UNL A   1      43.203  30.390  33.387  1.00  0.00     0.049 A 
ATOM     55  H   UNL A   1      41.416  30.825  32.353  1.00  0.00     0.167 HD
ATOM     56  C   UNL A   1      43.021  28.576  31.704  1.00  0.00     0.074 A 
ATOM     57  C   UNL A   1      43.500  27.372  31.054  1.00  0.00     0.031 C 
ATOM     58  C   UNL A   1      43.663  29.200  32.722  1.00  0.00     0.031 A 
BRANCH  45  59
ATOM     59  C   UNL A   1      40.767  34.233  34.834  1.00  0.00    -0.014 A 
ATOM     60  C   UNL A   1      40.158  34.115  36.092  1.00  0.00     0.009 A 
ATOM     61  C   UNL A   1      41.372  35.449  34.480  1.00  0.00     0.009 A 
ATOM     62  C   UNL A   1      40.129  35.205  36.965  1.00  0.00     0.001 A 
ATOM     63  C   UNL A   1      41.359  36.530  35.363  1.00  0.00     0.001 A 
ATOM     64  C   UNL A   1      40.730  36.410  36.601  1.00  0.00     0.000 A 
ENDBRANCH  45  59
BRANCH  46  65
ATOM     65  C   UNL A   1      40.476  26.816  28.165  1.00  0.00    -0.014 A 
ATOM     66  C   UNL A   1      39.813  25.618  28.469  1.00  0.00     0.009 A 
ATOM     67  C   UNL A   1      41.064  26.967  26.898  1.00  0.00     0.009 A 
ATOM     68  C   UNL A   1      39.747  24.590  27.524  1.00  0.00     0.001 A 
ATOM     69  C   UNL A   1      40.974  25.948  25.949  1.00  0.00     0.001 A 
ATOM     70  C   UNL A   1      40.320  24.759  26.265  1.00  0.00     0.000 A 
ENDBRANCH  46  65
BRANCH  58  71
ATOM     71  C   UNL A   1      44.941  28.578  33.196  1.00  0.00    -0.014 A 
ATOM     72  C   UNL A   1      46.176  28.962  32.650  1.00  0.00     0.009 A 
ATOM     73  C   UNL A   1      44.912  27.615  34.216  1.00  0.00     0.009 A 
ATOM     74  C   UNL A   1      47.358  28.371  33.100  1.00  0.00     0.001 A 
ATOM     75  C   UNL A   1      46.097  27.040  34.676  1.00  0.00     0.001 A 
ATOM     76  C   UNL A   1      47.317  27.413  34.114  1.00  0.00     0.000 A 
ENDBRANCH  58  71
ENDBRANCH  32  33
ENDBRANCH  25  27
ENDBRANCH  24  25
ENDBRANCH  23  24
ENDBRANCH   1  23
TORSDOF 14
ENDMDL
