MODEL 1
REMARK VINA RESULT:     -12.8      0.000      0.000
REMARK SMILES Cc1ccc(-c2[nH]c3ccccc3c2[C@@H]2c3ccccc3C(=O)N2[C@H](C)C(=O)OCCOC(=O)c2ccc(-c3c4nc(c(-c5ccccc5)c5ccc([nH]5)c(-c5ccccc5)c5nc(c(-c6ccccc6)c6ccc3[nH]6)C=C5)C=C4)cc2)cc1
REMARK SMILES IDX 30 1 29 2 27 3 28 4 25 5 26 6 24 7 15 8 16 9 17 10 21 11
REMARK SMILES IDX 22 12 18 13 20 14 23 15 19 16 14 17 6 18 7 19 8 20 13 22
REMARK SMILES IDX 9 23 12 24 10 25 11 26 5 27 1 28 2 29 3 30 84 31 4 32 83 33
REMARK SMILES IDX 31 34 32 35 33 36 34 37 35 38 36 39 82 40 37 41 81 42 38 43
REMARK SMILES IDX 39 44 40 45 75 46 41 47 80 48 74 49 76 50 42 51 79 52 73 53
REMARK SMILES IDX 72 54 43 56 65 57 50 58 64 59 51 60 54 61 63 62 77 63 52 64
REMARK SMILES IDX 53 65 62 67 78 68 55 69 44 70 45 71 49 72 46 73 48 74 47 75
REMARK SMILES IDX 66 76 67 77 71 78 68 79 70 80 69 81 56 82 57 83 61 84 58 85
REMARK SMILES IDX 60 86 59 87
REMARK H PARENT 7 21 76 55 54 66
REMARK Flexibility Score: inf
ROOT
ATOM      1  C   UNL A   1      39.609  21.816  26.125  1.00  0.00     0.274 C 
ENDROOT
BRANCH   1   2
ATOM      2  O   UNL A   1      38.194  21.762  26.189  1.00  0.00    -0.461 OA
BRANCH   2   3
ATOM      3  C   UNL A   1      37.481  21.389  25.093  1.00  0.00     0.328 C 
ATOM      4  O   UNL A   1      37.466  20.252  24.639  1.00  0.00    -0.250 OA
BRANCH   3   5
ATOM      5  C   UNL A   1      36.574  22.570  24.646  1.00  0.00     0.193 C 
ATOM      6  C   UNL A   1      36.360  22.550  23.096  1.00  0.00     0.044 C 
BRANCH   5   7
ATOM      7  N   UNL A   1      35.311  22.973  25.257  1.00  0.00    -0.314 N 
ATOM      8  C   UNL A   1      34.074  22.215  25.525  1.00  0.00     0.151 C 
ATOM      9  C   UNL A   1      33.138  23.350  25.921  1.00  0.00    -0.008 A 
ATOM     10  C   UNL A   1      32.053  23.445  26.774  1.00  0.00     0.007 A 
ATOM     11  C   UNL A   1      33.781  24.567  25.703  1.00  0.00     0.045 A 
ATOM     12  C   UNL A   1      35.186  24.283  25.645  1.00  0.00     0.255 C 
ATOM     13  C   UNL A   1      31.594  24.731  27.177  1.00  0.00     0.000 A 
ATOM     14  C   UNL A   1      33.307  25.844  25.934  1.00  0.00     0.014 A 
ATOM     15  O   UNL A   1      36.047  25.103  25.929  1.00  0.00    -0.269 OA
ATOM     16  C   UNL A   1      32.169  25.922  26.696  1.00  0.00     0.001 A 
BRANCH   8  17
ATOM     17  C   UNL A   1      33.653  21.434  24.295  1.00  0.00     0.013 A 
ATOM     18  C   UNL A   1      32.739  21.871  23.325  1.00  0.00     0.052 A 
ATOM     19  N   UNL A   1      32.165  20.746  22.771  1.00  0.00    -0.354 N 
ATOM     20  C   UNL A   1      32.702  19.606  23.307  1.00  0.00     0.046 A 
ATOM     21  H   UNL A   1      31.462  20.760  22.083  1.00  0.00     0.167 HD
ATOM     22  C   UNL A   1      33.789  20.006  24.080  1.00  0.00     0.006 A 
ATOM     23  C   UNL A   1      32.278  18.273  23.206  1.00  0.00     0.027 A 
ATOM     24  C   UNL A   1      34.587  18.993  24.650  1.00  0.00     0.011 A 
ATOM     25  C   UNL A   1      33.013  17.308  23.899  1.00  0.00     0.002 A 
ATOM     26  C   UNL A   1      34.174  17.657  24.581  1.00  0.00     0.001 A 
BRANCH  18  27
ATOM     27  C   UNL A   1      32.274  23.209  22.958  1.00  0.00    -0.002 A 
ATOM     28  C   UNL A   1      31.061  27.203  21.846  1.00  0.00     0.044 C 
ATOM     29  C   UNL A   1      31.442  25.794  22.193  1.00  0.00    -0.051 A 
ATOM     30  C   UNL A   1      32.696  25.311  21.816  1.00  0.00     0.004 A 
ATOM     31  C   UNL A   1      30.594  24.967  22.939  1.00  0.00     0.004 A 
ATOM     32  C   UNL A   1      33.095  24.025  22.176  1.00  0.00     0.010 A 
ATOM     33  C   UNL A   1      31.010  23.687  23.326  1.00  0.00     0.010 A 
ENDBRANCH  18  27
ENDBRANCH   8  17
ENDBRANCH   5   7
ENDBRANCH   3   5
ENDBRANCH   2   3
ENDBRANCH   1   2
BRANCH   1  34
ATOM     34  C   UNL A   1      40.098  23.063  26.895  1.00  0.00     0.275 C 
BRANCH  34  35
ATOM     35  O   UNL A   1      39.766  24.417  26.412  1.00  0.00    -0.458 OA
BRANCH  35  36
ATOM     36  C   UNL A   1      40.465  25.571  26.238  1.00  0.00     0.338 C 
ATOM     37  O   UNL A   1      41.144  25.772  25.239  1.00  0.00    -0.246 OA
BRANCH  36  38
ATOM     38  C   UNL A   1      40.277  26.647  27.219  1.00  0.00     0.060 A 
ATOM     39  C   UNL A   1      40.733  27.953  26.963  1.00  0.00     0.016 A 
ATOM     40  C   UNL A   1      39.534  26.379  28.349  1.00  0.00     0.016 A 
ATOM     41  C   UNL A   1      40.275  29.015  27.744  1.00  0.00     0.010 A 
ATOM     42  C   UNL A   1      38.936  27.428  29.000  1.00  0.00     0.010 A 
ATOM     43  C   UNL A   1      39.317  28.750  28.719  1.00  0.00    -0.014 A 
BRANCH  43  44
ATOM     44  C   UNL A   1      38.958  29.670  29.786  1.00  0.00     0.031 A 
ATOM     45  C   UNL A   1      38.184  30.912  29.625  1.00  0.00     0.074 A 
ATOM     46  C   UNL A   1      39.290  29.134  30.983  1.00  0.00     0.049 A 
ATOM     47  N   UNL A   1      38.025  31.751  30.588  1.00  0.00    -0.248 NA
ATOM     48  C   UNL A   1      37.520  31.353  28.402  1.00  0.00     0.031 C 
ATOM     49  C   UNL A   1      38.932  29.491  32.340  1.00  0.00     0.029 A 
ATOM     50  N   UNL A   1      40.264  28.137  31.146  1.00  0.00    -0.354 N 
ATOM     51  C   UNL A   1      37.065  32.670  30.223  1.00  0.00     0.074 A 
ATOM     52  C   UNL A   1      36.813  32.411  28.828  1.00  0.00     0.031 C 
ATOM     53  C   UNL A   1      39.882  28.995  33.162  1.00  0.00     0.029 A 
ATOM     54  C   UNL A   1      40.942  28.440  32.319  1.00  0.00     0.049 A 
ATOM     55  H   UNL A   1      40.433  27.373  30.548  1.00  0.00     0.167 HD
ATOM     56  C   UNL A   1      36.536  33.456  31.203  1.00  0.00     0.031 A 
ATOM     57  C   UNL A   1      42.210  28.935  32.192  1.00  0.00     0.031 A 
ATOM     58  C   UNL A   1      37.309  33.308  32.430  1.00  0.00     0.049 A 
ATOM     59  C   UNL A   1      42.276  30.351  32.705  1.00  0.00     0.074 A 
ATOM     60  C   UNL A   1      37.141  32.515  33.551  1.00  0.00     0.029 A 
ATOM     61  N   UNL A   1      38.630  33.734  32.428  1.00  0.00    -0.354 N 
ATOM     62  N   UNL A   1      41.290  31.205  32.641  1.00  0.00    -0.248 NA
ATOM     63  C   UNL A   1      43.448  30.885  33.388  1.00  0.00     0.031 C 
ATOM     64  C   UNL A   1      38.422  32.357  34.151  1.00  0.00     0.029 A 
ATOM     65  C   UNL A   1      39.342  33.085  33.416  1.00  0.00     0.049 A 
ATOM     66  H   UNL A   1      39.005  34.402  31.809  1.00  0.00     0.167 HD
ATOM     67  C   UNL A   1      41.629  32.328  33.344  1.00  0.00     0.074 A 
ATOM     68  C   UNL A   1      43.002  32.097  33.760  1.00  0.00     0.031 C 
ATOM     69  C   UNL A   1      40.761  33.354  33.577  1.00  0.00     0.031 A 
BRANCH  56  70
ATOM     70  C   UNL A   1      35.211  34.175  31.161  1.00  0.00    -0.014 A 
ATOM     71  C   UNL A   1      34.519  34.245  29.931  1.00  0.00     0.009 A 
ATOM     72  C   UNL A   1      34.621  34.854  32.234  1.00  0.00     0.009 A 
ATOM     73  C   UNL A   1      33.349  34.996  29.763  1.00  0.00     0.001 A 
ATOM     74  C   UNL A   1      33.454  35.623  32.067  1.00  0.00     0.001 A 
ATOM     75  C   UNL A   1      32.822  35.700  30.833  1.00  0.00     0.000 A 
ENDBRANCH  56  70
BRANCH  57  76
ATOM     76  C   UNL A   1      43.007  28.404  31.025  1.00  0.00    -0.014 A 
ATOM     77  C   UNL A   1      43.220  27.006  30.918  1.00  0.00     0.009 A 
ATOM     78  C   UNL A   1      43.361  29.191  29.920  1.00  0.00     0.009 A 
ATOM     79  C   UNL A   1      43.671  26.414  29.730  1.00  0.00     0.001 A 
ATOM     80  C   UNL A   1      43.843  28.597  28.737  1.00  0.00     0.001 A 
ATOM     81  C   UNL A   1      43.975  27.211  28.635  1.00  0.00     0.000 A 
ENDBRANCH  57  76
BRANCH  69  82
ATOM     82  C   UNL A   1      41.162  34.724  34.051  1.00  0.00    -0.014 A 
ATOM     83  C   UNL A   1      40.679  35.303  35.231  1.00  0.00     0.009 A 
ATOM     84  C   UNL A   1      42.209  35.401  33.387  1.00  0.00     0.009 A 
ATOM     85  C   UNL A   1      41.179  36.524  35.694  1.00  0.00     0.001 A 
ATOM     86  C   UNL A   1      42.751  36.587  33.878  1.00  0.00     0.001 A 
ATOM     87  C   UNL A   1      42.222  37.158  35.027  1.00  0.00     0.000 A 
ENDBRANCH  69  82
ENDBRANCH  43  44
ENDBRANCH  36  38
ENDBRANCH  35  36
ENDBRANCH  34  35
ENDBRANCH   1  34
TORSDOF 14
ENDMDL
MODEL 2
REMARK VINA RESULT:     -12.6      2.212      2.761
REMARK SMILES Cc1ccc(-c2[nH]c3ccccc3c2[C@@H]2c3ccccc3C(=O)N2[C@H](C)C(=O)OCCOC(=O)c2ccc(-c3c4nc(c(-c5ccccc5)c5ccc([nH]5)c(-c5ccccc5)c5nc(c(-c6ccccc6)c6ccc3[nH]6)C=C5)C=C4)cc2)cc1
REMARK SMILES IDX 30 1 29 2 27 3 28 4 25 5 26 6 24 7 15 8 16 9 17 10 21 11
REMARK SMILES IDX 22 12 18 13 20 14 23 15 19 16 14 17 6 18 7 19 8 20 13 22
REMARK SMILES IDX 9 23 12 24 10 25 11 26 5 27 1 28 2 29 3 30 84 31 4 32 83 33
REMARK SMILES IDX 31 34 32 35 33 36 34 37 35 38 36 39 82 40 37 41 81 42 38 43
REMARK SMILES IDX 39 44 40 45 75 46 41 47 80 48 74 49 76 50 42 51 79 52 73 53
REMARK SMILES IDX 72 54 43 56 65 57 50 58 64 59 51 60 54 61 63 62 77 63 52 64
REMARK SMILES IDX 53 65 62 67 78 68 55 69 44 70 45 71 49 72 46 73 48 74 47 75
REMARK SMILES IDX 66 76 67 77 71 78 68 79 70 80 69 81 56 82 57 83 61 84 58 85
REMARK SMILES IDX 60 86 59 87
REMARK H PARENT 7 21 76 55 54 66
REMARK Flexibility Score: inf
ROOT
ATOM      1  C   UNL A   1      38.822  22.382  26.027  1.00  0.00     0.274 C 
ENDROOT
BRANCH   1   2
ATOM      2  O   UNL A   1      38.567  21.132  25.411  1.00  0.00    -0.461 OA
BRANCH   2   3
ATOM      3  C   UNL A   1      37.311  20.830  24.985  1.00  0.00     0.328 C 
ATOM      4  O   UNL A   1      36.840  19.700  24.987  1.00  0.00    -0.250 OA
BRANCH   3   5
ATOM      5  C   UNL A   1      36.542  22.147  24.685  1.00  0.00     0.193 C 
ATOM      6  C   UNL A   1      36.442  22.392  23.143  1.00  0.00     0.044 C 
BRANCH   5   7
ATOM      7  N   UNL A   1      35.276  22.566  25.278  1.00  0.00    -0.314 N 
ATOM      8  C   UNL A   1      34.013  21.834  25.494  1.00  0.00     0.151 C 
ATOM      9  C   UNL A   1      33.097  22.982  25.902  1.00  0.00    -0.008 A 
ATOM     10  C   UNL A   1      31.996  23.081  26.733  1.00  0.00     0.007 A 
ATOM     11  C   UNL A   1      33.777  24.186  25.735  1.00  0.00     0.045 A 
ATOM     12  C   UNL A   1      35.176  23.867  25.702  1.00  0.00     0.255 C 
ATOM     13  C   UNL A   1      31.561  24.366  27.163  1.00  0.00     0.000 A 
ATOM     14  C   UNL A   1      33.331  25.468  25.993  1.00  0.00     0.014 A 
ATOM     15  O   UNL A   1      36.050  24.655  26.030  1.00  0.00    -0.269 OA
ATOM     16  C   UNL A   1      32.178  25.555  26.731  1.00  0.00     0.001 A 
BRANCH   8  17
ATOM     17  C   UNL A   1      33.601  21.100  24.233  1.00  0.00     0.013 A 
ATOM     18  C   UNL A   1      32.751  21.604  23.237  1.00  0.00     0.052 A 
ATOM     19  N   UNL A   1      32.142  20.522  22.637  1.00  0.00    -0.354 N 
ATOM     20  C   UNL A   1      32.596  19.345  23.169  1.00  0.00     0.046 A 
ATOM     21  H   UNL A   1      31.469  20.587  21.922  1.00  0.00     0.167 HD
ATOM     22  C   UNL A   1      33.671  19.671  23.993  1.00  0.00     0.006 A 
ATOM     23  C   UNL A   1      32.108  18.039  23.023  1.00  0.00     0.027 A 
ATOM     24  C   UNL A   1      34.391  18.607  24.572  1.00  0.00     0.011 A 
ATOM     25  C   UNL A   1      32.763  17.023  23.723  1.00  0.00     0.002 A 
ATOM     26  C   UNL A   1      33.911  17.296  24.457  1.00  0.00     0.001 A 
BRANCH  18  27
ATOM     27  C   UNL A   1      32.372  22.972  22.881  1.00  0.00    -0.002 A 
ATOM     28  C   UNL A   1      31.092  26.969  21.859  1.00  0.00     0.044 C 
ATOM     29  C   UNL A   1      31.576  25.605  22.253  1.00  0.00    -0.051 A 
ATOM     30  C   UNL A   1      30.734  24.764  22.983  1.00  0.00     0.004 A 
ATOM     31  C   UNL A   1      32.831  25.128  21.856  1.00  0.00     0.004 A 
ATOM     32  C   UNL A   1      31.140  23.471  23.311  1.00  0.00     0.010 A 
ATOM     33  C   UNL A   1      33.223  23.819  22.159  1.00  0.00     0.010 A 
ENDBRANCH  18  27
ENDBRANCH   8  17
ENDBRANCH   5   7
ENDBRANCH   3   5
ENDBRANCH   2   3
ENDBRANCH   1   2
BRANCH   1  34
ATOM     34  C   UNL A   1      39.952  22.210  27.066  1.00  0.00     0.275 C 
BRANCH  34  35
ATOM     35  O   UNL A   1      40.666  23.388  27.595  1.00  0.00    -0.458 OA
BRANCH  35  36
ATOM     36  C   UNL A   1      41.181  24.522  27.049  1.00  0.00     0.338 C 
ATOM     37  O   UNL A   1      41.876  24.497  26.041  1.00  0.00    -0.246 OA
BRANCH  36  38
ATOM     38  C   UNL A   1      40.769  25.812  27.618  1.00  0.00     0.060 A 
ATOM     39  C   UNL A   1      39.913  25.874  28.732  1.00  0.00     0.016 A 
ATOM     40  C   UNL A   1      41.339  26.961  27.113  1.00  0.00     0.016 A 
ATOM     41  C   UNL A   1      39.788  27.067  29.447  1.00  0.00     0.010 A 
ATOM     42  C   UNL A   1      41.370  28.077  27.909  1.00  0.00     0.010 A 
ATOM     43  C   UNL A   1      40.581  28.147  29.068  1.00  0.00    -0.014 A 
BRANCH  43  44
ATOM     44  C   UNL A   1      40.367  29.515  29.512  1.00  0.00     0.031 A 
ATOM     45  C   UNL A   1      39.241  30.379  29.119  1.00  0.00     0.074 A 
ATOM     46  C   UNL A   1      41.260  29.828  30.479  1.00  0.00     0.049 A 
ATOM     47  N   UNL A   1      39.189  31.625  29.436  1.00  0.00    -0.248 NA
ATOM     48  C   UNL A   1      38.077  29.964  28.342  1.00  0.00     0.031 C 
ATOM     49  C   UNL A   1      41.326  30.925  31.422  1.00  0.00     0.029 A 
ATOM     50  N   UNL A   1      42.485  29.166  30.651  1.00  0.00    -0.354 N 
ATOM     51  C   UNL A   1      37.927  32.103  29.156  1.00  0.00     0.074 A 
ATOM     52  C   UNL A   1      37.281  31.042  28.427  1.00  0.00     0.031 C 
ATOM     53  C   UNL A   1      42.613  31.060  31.808  1.00  0.00     0.029 A 
ATOM     54  C   UNL A   1      43.411  30.139  30.997  1.00  0.00     0.049 A 
ATOM     55  H   UNL A   1      42.655  28.201  30.547  1.00  0.00     0.167 HD
ATOM     56  C   UNL A   1      37.572  33.306  29.690  1.00  0.00     0.031 A 
ATOM     57  C   UNL A   1      44.324  30.494  30.043  1.00  0.00     0.031 A 
ATOM     58  C   UNL A   1      38.743  33.958  30.265  1.00  0.00     0.049 A 
ATOM     59  C   UNL A   1      44.127  31.932  29.633  1.00  0.00     0.074 A 
ATOM     60  C   UNL A   1      39.250  34.006  31.551  1.00  0.00     0.029 A 
ATOM     61  N   UNL A   1      39.770  34.335  29.411  1.00  0.00    -0.354 N 
ATOM     62  N   UNL A   1      42.971  32.540  29.613  1.00  0.00    -0.248 NA
ATOM     63  C   UNL A   1      45.237  32.806  29.277  1.00  0.00     0.031 C 
ATOM     64  C   UNL A   1      40.641  34.284  31.447  1.00  0.00     0.029 A 
ATOM     65  C   UNL A   1      40.956  34.443  30.107  1.00  0.00     0.049 A 
ATOM     66  H   UNL A   1      39.666  34.501  28.445  1.00  0.00     0.167 HD
ATOM     67  C   UNL A   1      43.174  33.869  29.361  1.00  0.00     0.074 A 
ATOM     68  C   UNL A   1      44.602  33.980  29.119  1.00  0.00     0.031 C 
ATOM     69  C   UNL A   1      42.176  34.798  29.403  1.00  0.00     0.031 A 
BRANCH  56  70
ATOM     70  C   UNL A   1      36.170  33.810  29.918  1.00  0.00    -0.014 A 
ATOM     71  C   UNL A   1      35.399  34.192  28.797  1.00  0.00     0.009 A 
ATOM     72  C   UNL A   1      35.570  34.007  31.167  1.00  0.00     0.009 A 
ATOM     73  C   UNL A   1      34.138  34.789  28.914  1.00  0.00     0.001 A 
ATOM     74  C   UNL A   1      34.310  34.621  31.291  1.00  0.00     0.001 A 
ATOM     75  C   UNL A   1      33.597  35.018  30.168  1.00  0.00     0.000 A 
ENDBRANCH  56  70
BRANCH  57  76
ATOM     76  C   UNL A   1      44.766  29.387  29.116  1.00  0.00    -0.014 A 
ATOM     77  C   UNL A   1      45.041  28.107  29.657  1.00  0.00     0.009 A 
ATOM     78  C   UNL A   1      44.707  29.492  27.719  1.00  0.00     0.009 A 
ATOM     79  C   UNL A   1      45.153  26.968  28.847  1.00  0.00     0.001 A 
ATOM     80  C   UNL A   1      44.850  28.351  26.904  1.00  0.00     0.001 A 
ATOM     81  C   UNL A   1      45.049  27.090  27.469  1.00  0.00     0.000 A 
ENDBRANCH  57  76
BRANCH  69  82
ATOM     82  C   UNL A   1      42.273  36.185  28.829  1.00  0.00    -0.014 A 
ATOM     83  C   UNL A   1      42.930  37.240  29.474  1.00  0.00     0.009 A 
ATOM     84  C   UNL A   1      41.847  36.411  27.502  1.00  0.00     0.009 A 
ATOM     85  C   UNL A   1      43.104  38.476  28.844  1.00  0.00     0.001 A 
ATOM     86  C   UNL A   1      42.071  37.621  26.850  1.00  0.00     0.001 A 
ATOM     87  C   UNL A   1      42.687  38.662  27.529  1.00  0.00     0.000 A 
ENDBRANCH  69  82
ENDBRANCH  43  44
ENDBRANCH  36  38
ENDBRANCH  35  36
ENDBRANCH  34  35
ENDBRANCH   1  34
TORSDOF 14
ENDMDL
MODEL 3
REMARK VINA RESULT:     -12.5      3.022      5.210
REMARK SMILES Cc1ccc(-c2[nH]c3ccccc3c2[C@@H]2c3ccccc3C(=O)N2[C@H](C)C(=O)OCCOC(=O)c2ccc(-c3c4nc(c(-c5ccccc5)c5ccc([nH]5)c(-c5ccccc5)c5nc(c(-c6ccccc6)c6ccc3[nH]6)C=C5)C=C4)cc2)cc1
REMARK SMILES IDX 30 1 29 2 27 3 28 4 25 5 26 6 24 7 15 8 16 9 17 10 21 11
REMARK SMILES IDX 22 12 18 13 20 14 23 15 19 16 14 17 6 18 7 19 8 20 13 22
REMARK SMILES IDX 9 23 12 24 10 25 11 26 5 27 1 28 2 29 3 30 84 31 4 32 83 33
REMARK SMILES IDX 31 34 32 35 33 36 34 37 35 38 36 39 82 40 37 41 81 42 38 43
REMARK SMILES IDX 39 44 40 45 75 46 41 47 80 48 74 49 76 50 42 51 79 52 73 53
REMARK SMILES IDX 72 54 43 56 65 57 50 58 64 59 51 60 54 61 63 62 77 63 52 64
REMARK SMILES IDX 53 65 62 67 78 68 55 69 44 70 45 71 49 72 46 73 48 74 47 75
REMARK SMILES IDX 66 76 67 77 71 78 68 79 70 80 69 81 56 82 57 83 61 84 58 85
REMARK SMILES IDX 60 86 59 87
REMARK H PARENT 7 21 76 55 54 66
REMARK Flexibility Score: inf
ROOT
ATOM      1  C   UNL A   1      39.454  21.123  26.120  1.00  0.00     0.274 C 
ENDROOT
BRANCH   1   2
ATOM      2  O   UNL A   1      38.051  20.933  26.090  1.00  0.00    -0.461 OA
BRANCH   2   3
ATOM      3  C   UNL A   1      37.399  20.888  24.897  1.00  0.00     0.328 C 
ATOM      4  O   UNL A   1      37.296  19.880  24.209  1.00  0.00    -0.250 OA
BRANCH   3   5
ATOM      5  C   UNL A   1      36.673  22.242  24.657  1.00  0.00     0.193 C 
ATOM      6  C   UNL A   1      36.566  22.552  23.128  1.00  0.00     0.044 C 
BRANCH   5   7
ATOM      7  N   UNL A   1      35.429  22.681  25.282  1.00  0.00    -0.314 N 
ATOM      8  C   UNL A   1      34.168  21.964  25.547  1.00  0.00     0.151 C 
ATOM      9  C   UNL A   1      33.275  23.126  25.965  1.00  0.00    -0.008 A 
ATOM     10  C   UNL A   1      32.200  23.247  26.826  1.00  0.00     0.007 A 
ATOM     11  C   UNL A   1      33.960  24.322  25.759  1.00  0.00     0.045 A 
ATOM     12  C   UNL A   1      35.354  23.990  25.689  1.00  0.00     0.255 C 
ATOM     13  C   UNL A   1      31.789  24.543  27.250  1.00  0.00     0.000 A 
ATOM     14  C   UNL A   1      33.532  25.611  26.010  1.00  0.00     0.014 A 
ATOM     15  O   UNL A   1      36.244  24.774  25.978  1.00  0.00    -0.269 OA
ATOM     16  C   UNL A   1      32.403  25.719  26.781  1.00  0.00     0.001 A 
BRANCH   8  17
ATOM     17  C   UNL A   1      33.712  21.215  24.310  1.00  0.00     0.013 A 
ATOM     18  C   UNL A   1      32.813  21.700  23.348  1.00  0.00     0.052 A 
ATOM     19  N   UNL A   1      32.193  20.606  22.784  1.00  0.00    -0.354 N 
ATOM     20  C   UNL A   1      32.685  19.438  23.303  1.00  0.00     0.046 A 
ATOM     21  H   UNL A   1      31.489  20.656  22.098  1.00  0.00     0.167 HD
ATOM     22  C   UNL A   1      33.790  19.785  24.078  1.00  0.00     0.006 A 
ATOM     23  C   UNL A   1      32.208  18.125  23.188  1.00  0.00     0.027 A 
ATOM     24  C   UNL A   1      34.548  18.734  24.633  1.00  0.00     0.011 A 
ATOM     25  C   UNL A   1      32.906  17.123  23.867  1.00  0.00     0.002 A 
ATOM     26  C   UNL A   1      34.081  17.417  24.549  1.00  0.00     0.001 A 
BRANCH  18  27
ATOM     27  C   UNL A   1      32.401  23.060  22.999  1.00  0.00    -0.002 A 
ATOM     28  C   UNL A   1      31.025  27.029  21.994  1.00  0.00     0.044 C 
ATOM     29  C   UNL A   1      31.541  25.676  22.382  1.00  0.00    -0.051 A 
ATOM     30  C   UNL A   1      30.715  24.806  23.098  1.00  0.00     0.004 A 
ATOM     31  C   UNL A   1      32.812  25.236  21.995  1.00  0.00     0.004 A 
ATOM     32  C   UNL A   1      31.152  23.522  23.420  1.00  0.00     0.010 A 
ATOM     33  C   UNL A   1      33.236  23.935  22.292  1.00  0.00     0.010 A 
ENDBRANCH  18  27
ENDBRANCH   8  17
ENDBRANCH   5   7
ENDBRANCH   3   5
ENDBRANCH   2   3
ENDBRANCH   1   2
BRANCH   1  34
ATOM     34  C   UNL A   1      40.148  19.742  26.123  1.00  0.00     0.275 C 
BRANCH  34  35
ATOM     35  O   UNL A   1      41.605  19.638  25.911  1.00  0.00    -0.458 OA
BRANCH  35  36
ATOM     36  C   UNL A   1      42.639  20.522  25.909  1.00  0.00     0.338 C 
ATOM     37  O   UNL A   1      43.657  20.325  25.258  1.00  0.00    -0.246 OA
BRANCH  36  38
ATOM     38  C   UNL A   1      42.454  21.803  26.603  1.00  0.00     0.060 A 
ATOM     39  C   UNL A   1      42.354  21.862  28.004  1.00  0.00     0.016 A 
ATOM     40  C   UNL A   1      42.505  22.962  25.859  1.00  0.00     0.016 A 
ATOM     41  C   UNL A   1      42.499  23.086  28.661  1.00  0.00     0.010 A 
ATOM     42  C   UNL A   1      42.833  24.132  26.496  1.00  0.00     0.010 A 
ATOM     43  C   UNL A   1      42.812  24.208  27.898  1.00  0.00    -0.014 A 
BRANCH  43  44
ATOM     44  C   UNL A   1      42.712  25.577  28.378  1.00  0.00     0.031 A 
ATOM     45  C   UNL A   1      41.504  26.418  28.329  1.00  0.00     0.074 A 
ATOM     46  C   UNL A   1      43.844  25.915  29.037  1.00  0.00     0.049 A 
ATOM     47  N   UNL A   1      41.525  27.666  28.640  1.00  0.00    -0.248 NA
ATOM     48  C   UNL A   1      40.171  25.976  27.931  1.00  0.00     0.031 C 
ATOM     49  C   UNL A   1      44.164  27.023  29.912  1.00  0.00     0.029 A 
ATOM     50  N   UNL A   1      45.078  25.275  28.845  1.00  0.00    -0.354 N 
ATOM     51  C   UNL A   1      40.227  28.120  28.741  1.00  0.00     0.074 A 
ATOM     52  C   UNL A   1      39.415  27.041  28.240  1.00  0.00     0.031 C 
ATOM     53  C   UNL A   1      45.505  27.184  29.902  1.00  0.00     0.029 A 
ATOM     54  C   UNL A   1      46.046  26.268  28.897  1.00  0.00     0.049 A 
ATOM     55  H   UNL A   1      45.228  24.313  28.701  1.00  0.00     0.167 HD
ATOM     56  C   UNL A   1      40.022  29.324  29.349  1.00  0.00     0.031 A 
ATOM     57  C   UNL A   1      46.631  26.626  27.715  1.00  0.00     0.031 A 
ATOM     58  C   UNL A   1      41.298  30.001  29.550  1.00  0.00     0.049 A 
ATOM     59  C   UNL A   1      46.295  28.056  27.373  1.00  0.00     0.074 A 
ATOM     60  C   UNL A   1      42.160  30.071  30.630  1.00  0.00     0.029 A 
ATOM     61  N   UNL A   1      42.021  30.385  28.429  1.00  0.00    -0.354 N 
ATOM     62  N   UNL A   1      45.173  28.645  27.690  1.00  0.00    -0.248 NA
ATOM     63  C   UNL A   1      47.235  28.944  26.701  1.00  0.00     0.031 C 
ATOM     64  C   UNL A   1      43.453  30.371  30.119  1.00  0.00     0.029 A 
ATOM     65  C   UNL A   1      43.356  30.521  28.745  1.00  0.00     0.049 A 
ATOM     66  H   UNL A   1      41.634  30.539  27.536  1.00  0.00     0.167 HD
ATOM     67  C   UNL A   1      45.267  29.974  27.382  1.00  0.00     0.074 A 
ATOM     68  C   UNL A   1      46.559  30.106  26.730  1.00  0.00     0.031 C 
ATOM     69  C   UNL A   1      44.309  30.887  27.711  1.00  0.00     0.031 A 
BRANCH  56  70
ATOM     70  C   UNL A   1      38.740  29.807  29.976  1.00  0.00    -0.014 A 
ATOM     71  C   UNL A   1      38.557  29.625  31.365  1.00  0.00     0.009 A 
ATOM     72  C   UNL A   1      37.659  30.368  29.286  1.00  0.00     0.009 A 
ATOM     73  C   UNL A   1      37.352  29.924  32.015  1.00  0.00     0.001 A 
ATOM     74  C   UNL A   1      36.442  30.656  29.931  1.00  0.00     0.001 A 
ATOM     75  C   UNL A   1      36.285  30.428  31.292  1.00  0.00     0.000 A 
ENDBRANCH  56  70
BRANCH  57  76
ATOM     76  C   UNL A   1      46.802  25.517  26.705  1.00  0.00    -0.014 A 
ATOM     77  C   UNL A   1      46.480  24.189  27.082  1.00  0.00     0.009 A 
ATOM     78  C   UNL A   1      47.049  25.753  25.345  1.00  0.00     0.009 A 
ATOM     79  C   UNL A   1      46.316  23.169  26.136  1.00  0.00     0.001 A 
ATOM     80  C   UNL A   1      46.914  24.719  24.398  1.00  0.00     0.001 A 
ATOM     81  C   UNL A   1      46.525  23.437  24.790  1.00  0.00     0.000 A 
ENDBRANCH  57  76
BRANCH  69  82
ATOM     82  C   UNL A   1      44.207  32.270  27.126  1.00  0.00    -0.014 A 
ATOM     83  C   UNL A   1      44.134  32.521  25.751  1.00  0.00     0.009 A 
ATOM     84  C   UNL A   1      43.990  33.366  27.990  1.00  0.00     0.009 A 
ATOM     85  C   UNL A   1      43.911  33.812  25.262  1.00  0.00     0.001 A 
ATOM     86  C   UNL A   1      43.708  34.642  27.508  1.00  0.00     0.001 A 
ATOM     87  C   UNL A   1      43.685  34.868  26.139  1.00  0.00     0.000 A 
ENDBRANCH  69  82
ENDBRANCH  43  44
ENDBRANCH  36  38
ENDBRANCH  35  36
ENDBRANCH  34  35
ENDBRANCH   1  34
TORSDOF 14
ENDMDL
