MODEL 1
REMARK VINA RESULT:      -9.4      0.000      0.000
REMARK SMILES CC[NH2+]C[C@@H](C)C(=O)N1CCO[C@@H](CC(=O)OCCOC(=O)c2ccc(-c3c4nc(c(-c5ccccc5)c5ccc([nH]5)c(-c5ccccc5)c5nc(c(-c6ccccc6)c6ccc3[nH]6)C=C5)C=C4)cc2)C1
REMARK SMILES IDX 15 1 16 2 14 3 13 4 9 5 10 6 71 7 11 8 12 9 7 10 8 11 5 12
REMARK SMILES IDX 6 13 4 14 3 15 2 18 1 19 17 20 18 21 19 22 20 23 21 24 22 25
REMARK SMILES IDX 23 26 24 27 70 28 25 29 69 30 26 31 27 32 28 33 63 34 29 35
REMARK SMILES IDX 68 36 62 37 64 38 30 39 67 40 61 41 60 42 31 44 53 45 38 46
REMARK SMILES IDX 52 47 39 48 42 49 51 50 65 51 40 52 41 53 50 55 66 56 43 57
REMARK SMILES IDX 32 58 33 59 37 60 34 61 36 62 35 63 54 64 55 65 59 66 56 67
REMARK SMILES IDX 58 68 57 69 44 70 45 71 49 72 46 73 48 74 47 75
REMARK H PARENT 3 16 3 17 64 43 42 54
REMARK Flexibility Score: inf
ROOT
ATOM      1  C   UNL A   1      37.873  22.614  25.632  1.00  0.00     0.308 C 
ATOM      2  O   UNL A   1      38.544  23.518  26.112  1.00  0.00    -0.252 OA
ENDROOT
BRANCH   1   3
ATOM      3  C   UNL A   1      36.811  22.845  24.588  1.00  0.00     0.156 C 
BRANCH   3   4
ATOM      4  C   UNL A   1      35.402  22.452  25.020  1.00  0.00     0.148 C 
ATOM      5  N   UNL A   1      33.852  20.611  25.573  1.00  0.00    -0.337 N 
ATOM      6  C   UNL A   1      33.686  21.176  26.907  1.00  0.00     0.148 C 
ATOM      7  C   UNL A   1      35.164  20.922  24.994  1.00  0.00     0.152 C 
ATOM      8  C   UNL A   1      33.913  22.684  26.873  1.00  0.00     0.182 C 
ATOM      9  O   UNL A   1      35.226  22.974  26.365  1.00  0.00    -0.374 OA
BRANCH   5  10
ATOM     10  C   UNL A   1      33.005  19.767  24.885  1.00  0.00     0.231 C 
ATOM     11  O   UNL A   1      31.781  19.847  25.048  1.00  0.00    -0.274 OA
BRANCH  10  12
ATOM     12  C   UNL A   1      33.551  18.574  24.082  1.00  0.00     0.130 C 
ATOM     13  C   UNL A   1      32.584  18.253  22.941  1.00  0.00     0.024 C 
BRANCH  12  14
ATOM     14  C   UNL A   1      33.982  17.336  24.876  1.00  0.00     0.273 C 
BRANCH  14  15
ATOM     15  N   UNL A   1      33.182  17.009  26.064  1.00  0.00    -0.346 N 
ATOM     16  H   UNL A   1      33.815  16.695  26.799  1.00  0.00     0.346 HD
ATOM     17  H   UNL A   1      32.673  17.855  26.319  1.00  0.00     0.346 HD
BRANCH  15  18
ATOM     18  C   UNL A   1      32.186  15.968  25.841  1.00  0.00     0.257 C 
ATOM     19  C   UNL A   1      32.899  14.684  25.445  1.00  0.00     0.071 C 
ENDBRANCH  15  18
ENDBRANCH  14  15
ENDBRANCH  12  14
ENDBRANCH  10  12
ENDBRANCH   5  10
ENDBRANCH   3   4
ENDBRANCH   1   3
BRANCH   1  20
ATOM     20  O   UNL A   1      37.941  21.313  26.005  1.00  0.00    -0.462 OA
BRANCH  20  21
ATOM     21  C   UNL A   1      38.756  20.441  25.199  1.00  0.00     0.274 C 
BRANCH  21  22
ATOM     22  C   UNL A   1      39.630  19.527  26.061  1.00  0.00     0.275 C 
BRANCH  22  23
ATOM     23  O   UNL A   1      40.888  19.249  25.417  1.00  0.00    -0.458 OA
BRANCH  23  24
ATOM     24  C   UNL A   1      41.982  19.390  26.200  1.00  0.00     0.338 C 
ATOM     25  O   UNL A   1      42.784  18.527  26.514  1.00  0.00    -0.246 OA
BRANCH  24  26
ATOM     26  C   UNL A   1      42.167  20.810  26.535  1.00  0.00     0.060 A 
ATOM     27  C   UNL A   1      42.248  21.731  25.486  1.00  0.00     0.016 A 
ATOM     28  C   UNL A   1      42.320  21.223  27.860  1.00  0.00     0.016 A 
ATOM     29  C   UNL A   1      42.485  23.076  25.760  1.00  0.00     0.010 A 
ATOM     30  C   UNL A   1      42.559  22.573  28.131  1.00  0.00     0.010 A 
ATOM     31  C   UNL A   1      42.653  23.505  27.083  1.00  0.00    -0.014 A 
BRANCH  31  32
ATOM     32  C   UNL A   1      42.965  24.925  27.364  1.00  0.00     0.031 A 
ATOM     33  C   UNL A   1      44.341  25.459  27.093  1.00  0.00     0.074 A 
ATOM     34  C   UNL A   1      42.011  25.737  27.855  1.00  0.00     0.049 A 
ATOM     35  N   UNL A   1      44.821  26.657  27.313  1.00  0.00    -0.248 NA
ATOM     36  C   UNL A   1      45.305  24.520  26.498  1.00  0.00     0.031 C 
ATOM     37  C   UNL A   1      40.629  25.345  28.133  1.00  0.00     0.029 A 
ATOM     38  N   UNL A   1      42.065  27.059  28.212  1.00  0.00    -0.354 N 
ATOM     39  C   UNL A   1      46.145  26.614  26.897  1.00  0.00     0.074 A 
ATOM     40  C   UNL A   1      46.399  25.266  26.431  1.00  0.00     0.031 C 
ATOM     41  C   UNL A   1      39.966  26.405  28.623  1.00  0.00     0.029 A 
ATOM     42  C   UNL A   1      40.884  27.536  28.725  1.00  0.00     0.049 A 
ATOM     43  H   UNL A   1      42.872  27.614  28.110  1.00  0.00     0.167 HD
ATOM     44  C   UNL A   1      47.066  27.607  26.900  1.00  0.00     0.031 A 
ATOM     45  C   UNL A   1      40.582  28.742  29.241  1.00  0.00     0.031 A 
ATOM     46  C   UNL A   1      46.818  28.944  27.372  1.00  0.00     0.049 A 
ATOM     47  C   UNL A   1      41.637  29.812  29.286  1.00  0.00     0.074 A 
ATOM     48  C   UNL A   1      47.683  30.024  27.399  1.00  0.00     0.029 A 
ATOM     49  N   UNL A   1      45.617  29.381  27.908  1.00  0.00    -0.354 N 
ATOM     50  N   UNL A   1      42.879  29.765  28.869  1.00  0.00    -0.248 NA
ATOM     51  C   UNL A   1      41.244  31.103  29.870  1.00  0.00     0.031 C 
ATOM     52  C   UNL A   1      47.020  31.102  27.995  1.00  0.00     0.029 A 
ATOM     53  C   UNL A   1      45.725  30.707  28.293  1.00  0.00     0.049 A 
ATOM     54  H   UNL A   1      44.806  28.829  28.001  1.00  0.00     0.167 HD
ATOM     55  C   UNL A   1      43.411  31.022  29.125  1.00  0.00     0.074 A 
ATOM     56  C   UNL A   1      42.353  31.814  29.717  1.00  0.00     0.031 C 
ATOM     57  C   UNL A   1      44.666  31.478  28.890  1.00  0.00     0.031 A 
BRANCH  44  58
ATOM     58  C   UNL A   1      48.444  27.266  26.408  1.00  0.00    -0.014 A 
ATOM     59  C   UNL A   1      48.802  27.442  25.063  1.00  0.00     0.009 A 
ATOM     60  C   UNL A   1      49.401  26.777  27.309  1.00  0.00     0.009 A 
ATOM     61  C   UNL A   1      50.083  27.101  24.623  1.00  0.00     0.001 A 
ATOM     62  C   UNL A   1      50.689  26.461  26.872  1.00  0.00     0.001 A 
ATOM     63  C   UNL A   1      51.026  26.613  25.529  1.00  0.00     0.000 A 
ENDBRANCH  44  58
BRANCH  45  64
ATOM     64  C   UNL A   1      39.223  28.991  29.785  1.00  0.00    -0.014 A 
ATOM     65  C   UNL A   1      38.195  29.464  28.957  1.00  0.00     0.009 A 
ATOM     66  C   UNL A   1      38.948  28.747  31.140  1.00  0.00     0.009 A 
ATOM     67  C   UNL A   1      36.922  29.706  29.480  1.00  0.00     0.001 A 
ATOM     68  C   UNL A   1      37.668  28.965  31.653  1.00  0.00     0.001 A 
ATOM     69  C   UNL A   1      36.658  29.451  30.825  1.00  0.00     0.000 A 
ENDBRANCH  45  64
BRANCH  57  70
ATOM     70  C   UNL A   1      44.953  32.906  29.255  1.00  0.00    -0.014 A 
ATOM     71  C   UNL A   1      45.470  33.245  30.515  1.00  0.00     0.009 A 
ATOM     72  C   UNL A   1      44.734  33.924  28.313  1.00  0.00     0.009 A 
ATOM     73  C   UNL A   1      45.732  34.578  30.835  1.00  0.00     0.001 A 
ATOM     74  C   UNL A   1      45.021  35.253  28.628  1.00  0.00     0.001 A 
ATOM     75  C   UNL A   1      45.512  35.580  29.890  1.00  0.00     0.000 A 
ENDBRANCH  57  70
ENDBRANCH  31  32
ENDBRANCH  24  26
ENDBRANCH  23  24
ENDBRANCH  22  23
ENDBRANCH  21  22
ENDBRANCH  20  21
ENDBRANCH   1  20
TORSDOF 17
ENDMDL
MODEL 2
REMARK VINA RESULT:      -9.3      6.378     10.222
REMARK SMILES CC[NH2+]C[C@@H](C)C(=O)N1CCO[C@@H](CC(=O)OCCOC(=O)c2ccc(-c3c4nc(c(-c5ccccc5)c5ccc([nH]5)c(-c5ccccc5)c5nc(c(-c6ccccc6)c6ccc3[nH]6)C=C5)C=C4)cc2)C1
REMARK SMILES IDX 15 1 16 2 14 3 13 4 9 5 10 6 71 7 11 8 12 9 7 10 8 11 5 12
REMARK SMILES IDX 6 13 4 14 3 15 2 18 1 19 17 20 18 21 19 22 20 23 21 24 22 25
REMARK SMILES IDX 23 26 24 27 70 28 25 29 69 30 26 31 27 32 28 33 63 34 29 35
REMARK SMILES IDX 68 36 62 37 64 38 30 39 67 40 61 41 60 42 31 44 53 45 38 46
REMARK SMILES IDX 52 47 39 48 42 49 51 50 65 51 40 52 41 53 50 55 66 56 43 57
REMARK SMILES IDX 32 58 33 59 37 60 34 61 36 62 35 63 54 64 55 65 59 66 56 67
REMARK SMILES IDX 58 68 57 69 44 70 45 71 49 72 46 73 48 74 47 75
REMARK H PARENT 3 16 3 17 64 43 42 54
REMARK Flexibility Score: inf
ROOT
ATOM      1  C   UNL A   1      33.447  30.017  26.872  1.00  0.00     0.308 C 
ATOM      2  O   UNL A   1      34.235  30.422  27.718  1.00  0.00    -0.252 OA
ENDROOT
BRANCH   1   3
ATOM      3  C   UNL A   1      33.345  28.568  26.473  1.00  0.00     0.156 C 
BRANCH   3   4
ATOM      4  C   UNL A   1      31.975  28.150  25.951  1.00  0.00     0.148 C 
ATOM      5  N   UNL A   1      30.595  27.621  23.973  1.00  0.00    -0.337 N 
ATOM      6  C   UNL A   1      30.366  26.286  24.512  1.00  0.00     0.148 C 
ATOM      7  C   UNL A   1      31.878  28.187  24.405  1.00  0.00     0.152 C 
ATOM      8  C   UNL A   1      30.455  26.310  26.034  1.00  0.00     0.182 C 
ATOM      9  O   UNL A   1      31.740  26.804  26.446  1.00  0.00    -0.374 OA
BRANCH   5  10
ATOM     10  C   UNL A   1      29.835  28.321  23.058  1.00  0.00     0.231 C 
ATOM     11  O   UNL A   1      30.106  28.263  21.852  1.00  0.00    -0.274 OA
BRANCH  10  12
ATOM     12  C   UNL A   1      28.788  29.352  23.515  1.00  0.00     0.130 C 
ATOM     13  C   UNL A   1      27.418  28.952  22.966  1.00  0.00     0.024 C 
BRANCH  12  14
ATOM     14  C   UNL A   1      29.122  30.831  23.294  1.00  0.00     0.273 C 
BRANCH  14  15
ATOM     15  N   UNL A   1      29.530  31.213  21.935  1.00  0.00    -0.346 N 
ATOM     16  H   UNL A   1      29.903  32.162  21.968  1.00  0.00     0.346 HD
ATOM     17  H   UNL A   1      30.224  30.530  21.633  1.00  0.00     0.346 HD
BRANCH  15  18
ATOM     18  C   UNL A   1      28.450  31.178  20.958  1.00  0.00     0.257 C 
ATOM     19  C   UNL A   1      27.903  32.587  20.781  1.00  0.00     0.071 C 
ENDBRANCH  15  18
ENDBRANCH  14  15
ENDBRANCH  12  14
ENDBRANCH  10  12
ENDBRANCH   5  10
ENDBRANCH   3   4
ENDBRANCH   1   3
BRANCH   1  20
ATOM     20  O   UNL A   1      32.617  30.803  26.144  1.00  0.00    -0.462 OA
BRANCH  20  21
ATOM     21  C   UNL A   1      31.710  31.651  26.874  1.00  0.00     0.274 C 
BRANCH  21  22
ATOM     22  C   UNL A   1      32.176  33.109  26.874  1.00  0.00     0.275 C 
BRANCH  22  23
ATOM     23  O   UNL A   1      32.170  33.658  28.205  1.00  0.00    -0.458 OA
BRANCH  23  24
ATOM     24  C   UNL A   1      33.139  34.567  28.460  1.00  0.00     0.338 C 
ATOM     25  O   UNL A   1      33.057  35.780  28.381  1.00  0.00    -0.246 OA
BRANCH  24  26
ATOM     26  C   UNL A   1      34.326  33.883  28.997  1.00  0.00     0.060 A 
ATOM     27  C   UNL A   1      34.133  32.881  29.954  1.00  0.00     0.016 A 
ATOM     28  C   UNL A   1      35.612  34.261  28.610  1.00  0.00     0.016 A 
ATOM     29  C   UNL A   1      35.233  32.253  30.532  1.00  0.00     0.010 A 
ATOM     30  C   UNL A   1      36.715  33.629  29.193  1.00  0.00     0.010 A 
ATOM     31  C   UNL A   1      36.532  32.629  30.164  1.00  0.00    -0.014 A 
BRANCH  31  32
ATOM     32  C   UNL A   1      37.697  32.000  30.826  1.00  0.00     0.031 A 
ATOM     33  C   UNL A   1      38.473  30.928  30.119  1.00  0.00     0.074 A 
ATOM     34  C   UNL A   1      38.064  32.396  32.059  1.00  0.00     0.049 A 
ATOM     35  N   UNL A   1      39.493  30.227  30.546  1.00  0.00    -0.248 NA
ATOM     36  C   UNL A   1      38.043  30.599  28.751  1.00  0.00     0.031 C 
ATOM     37  C   UNL A   1      37.408  33.447  32.838  1.00  0.00     0.029 A 
ATOM     38  N   UNL A   1      39.074  31.954  32.872  1.00  0.00    -0.354 N 
ATOM     39  C   UNL A   1      39.819  29.365  29.507  1.00  0.00     0.074 A 
ATOM     40  C   UNL A   1      38.876  29.617  28.437  1.00  0.00     0.031 C 
ATOM     41  C   UNL A   1      38.033  33.566  34.021  1.00  0.00     0.029 A 
ATOM     42  C   UNL A   1      39.106  32.577  34.095  1.00  0.00     0.049 A 
ATOM     43  H   UNL A   1      39.717  31.257  32.605  1.00  0.00     0.167 HD
ATOM     44  C   UNL A   1      40.815  28.449  29.448  1.00  0.00     0.031 A 
ATOM     45  C   UNL A   1      39.894  32.361  35.164  1.00  0.00     0.031 A 
ATOM     46  C   UNL A   1      41.747  28.192  30.514  1.00  0.00     0.049 A 
ATOM     47  C   UNL A   1      40.957  31.299  35.095  1.00  0.00     0.074 A 
ATOM     48  C   UNL A   1      42.801  27.296  30.542  1.00  0.00     0.029 A 
ATOM     49  N   UNL A   1      41.730  28.826  31.747  1.00  0.00    -0.354 N 
ATOM     50  N   UNL A   1      41.269  30.507  34.099  1.00  0.00    -0.248 NA
ATOM     51  C   UNL A   1      41.778  31.107  36.300  1.00  0.00     0.031 C 
ATOM     52  C   UNL A   1      43.394  27.354  31.808  1.00  0.00     0.029 A 
ATOM     53  C   UNL A   1      42.738  28.323  32.552  1.00  0.00     0.049 A 
ATOM     54  H   UNL A   1      41.094  29.530  32.011  1.00  0.00     0.167 HD
ATOM     55  C   UNL A   1      42.331  29.734  34.549  1.00  0.00     0.074 A 
ATOM     56  C   UNL A   1      42.621  30.165  35.901  1.00  0.00     0.031 C 
ATOM     57  C   UNL A   1      43.007  28.755  33.899  1.00  0.00     0.031 A 
BRANCH  44  58
ATOM     58  C   UNL A   1      40.921  27.631  28.193  1.00  0.00    -0.014 A 
ATOM     59  C   UNL A   1      40.242  26.410  28.058  1.00  0.00     0.009 A 
ATOM     60  C   UNL A   1      41.698  28.099  27.123  1.00  0.00     0.009 A 
ATOM     61  C   UNL A   1      40.370  25.657  26.889  1.00  0.00     0.001 A 
ATOM     62  C   UNL A   1      41.804  27.356  25.946  1.00  0.00     0.001 A 
ATOM     63  C   UNL A   1      41.148  26.132  25.834  1.00  0.00     0.000 A 
ENDBRANCH  44  58
BRANCH  45  64
ATOM     64  C   UNL A   1      39.687  33.150  36.404  1.00  0.00    -0.014 A 
ATOM     65  C   UNL A   1      38.840  32.680  37.419  1.00  0.00     0.009 A 
ATOM     66  C   UNL A   1      40.345  34.377  36.581  1.00  0.00     0.009 A 
ATOM     67  C   UNL A   1      38.642  33.435  38.578  1.00  0.00     0.001 A 
ATOM     68  C   UNL A   1      40.166  35.115  37.752  1.00  0.00     0.001 A 
ATOM     69  C   UNL A   1      39.309  34.647  38.746  1.00  0.00     0.000 A 
ENDBRANCH  45  64
BRANCH  57  70
ATOM     70  C   UNL A   1      44.138  28.099  34.638  1.00  0.00    -0.014 A 
ATOM     71  C   UNL A   1      45.437  28.630  34.597  1.00  0.00     0.009 A 
ATOM     72  C   UNL A   1      43.894  26.954  35.411  1.00  0.00     0.009 A 
ATOM     73  C   UNL A   1      46.476  28.006  35.292  1.00  0.00     0.001 A 
ATOM     74  C   UNL A   1      44.929  26.348  36.125  1.00  0.00     0.001 A 
ATOM     75  C   UNL A   1      46.220  26.870  36.058  1.00  0.00     0.000 A 
ENDBRANCH  57  70
ENDBRANCH  31  32
ENDBRANCH  24  26
ENDBRANCH  23  24
ENDBRANCH  22  23
ENDBRANCH  21  22
ENDBRANCH  20  21
ENDBRANCH   1  20
TORSDOF 17
ENDMDL
MODEL 3
REMARK VINA RESULT:      -9.3      3.442      8.024
REMARK SMILES CC[NH2+]C[C@@H](C)C(=O)N1CCO[C@@H](CC(=O)OCCOC(=O)c2ccc(-c3c4nc(c(-c5ccccc5)c5ccc([nH]5)c(-c5ccccc5)c5nc(c(-c6ccccc6)c6ccc3[nH]6)C=C5)C=C4)cc2)C1
REMARK SMILES IDX 15 1 16 2 14 3 13 4 9 5 10 6 71 7 11 8 12 9 7 10 8 11 5 12
REMARK SMILES IDX 6 13 4 14 3 15 2 18 1 19 17 20 18 21 19 22 20 23 21 24 22 25
REMARK SMILES IDX 23 26 24 27 70 28 25 29 69 30 26 31 27 32 28 33 63 34 29 35
REMARK SMILES IDX 68 36 62 37 64 38 30 39 67 40 61 41 60 42 31 44 53 45 38 46
REMARK SMILES IDX 52 47 39 48 42 49 51 50 65 51 40 52 41 53 50 55 66 56 43 57
REMARK SMILES IDX 32 58 33 59 37 60 34 61 36 62 35 63 54 64 55 65 59 66 56 67
REMARK SMILES IDX 58 68 57 69 44 70 45 71 49 72 46 73 48 74 47 75
REMARK H PARENT 3 16 3 17 64 43 42 54
REMARK Flexibility Score: inf
ROOT
ATOM      1  C   UNL A   1      31.311  28.805  23.811  1.00  0.00     0.308 C 
ATOM      2  O   UNL A   1      31.028  29.240  22.702  1.00  0.00    -0.252 OA
ENDROOT
BRANCH   1   3
ATOM      3  C   UNL A   1      30.543  27.692  24.475  1.00  0.00     0.156 C 
BRANCH   3   4
ATOM      4  C   UNL A   1      31.261  26.346  24.484  1.00  0.00     0.148 C 
ATOM      5  N   UNL A   1      31.447  24.114  25.524  1.00  0.00    -0.337 N 
ATOM      6  C   UNL A   1      31.145  23.507  24.233  1.00  0.00     0.148 C 
ATOM      7  C   UNL A   1      30.843  25.444  25.672  1.00  0.00     0.152 C 
ATOM      8  C   UNL A   1      31.592  24.428  23.101  1.00  0.00     0.182 C 
ATOM      9  O   UNL A   1      30.945  25.705  23.219  1.00  0.00    -0.374 OA
BRANCH   5  10
ATOM     10  C   UNL A   1      32.100  23.557  26.604  1.00  0.00     0.231 C 
ATOM     11  O   UNL A   1      31.475  23.293  27.639  1.00  0.00    -0.274 OA
BRANCH  10  12
ATOM     12  C   UNL A   1      33.635  23.457  26.641  1.00  0.00     0.130 C 
ATOM     13  C   UNL A   1      34.229  24.518  25.714  1.00  0.00     0.024 C 
BRANCH  12  14
ATOM     14  C   UNL A   1      34.249  22.067  26.443  1.00  0.00     0.273 C 
BRANCH  14  15
ATOM     15  N   UNL A   1      33.396  20.920  26.783  1.00  0.00    -0.346 N 
ATOM     16  H   UNL A   1      33.831  20.415  27.555  1.00  0.00     0.346 HD
ATOM     17  H   UNL A   1      32.480  21.296  27.027  1.00  0.00     0.346 HD
BRANCH  15  18
ATOM     18  C   UNL A   1      33.189  19.987  25.682  1.00  0.00     0.257 C 
ATOM     19  C   UNL A   1      33.403  20.725  24.368  1.00  0.00     0.071 C 
ENDBRANCH  15  18
ENDBRANCH  14  15
ENDBRANCH  12  14
ENDBRANCH  10  12
ENDBRANCH   5  10
ENDBRANCH   3   4
ENDBRANCH   1   3
BRANCH   1  20
ATOM     20  O   UNL A   1      32.292  29.292  24.609  1.00  0.00    -0.462 OA
BRANCH  20  21
ATOM     21  C   UNL A   1      31.884  29.932  25.833  1.00  0.00     0.274 C 
BRANCH  21  22
ATOM     22  C   UNL A   1      32.621  29.358  27.045  1.00  0.00     0.275 C 
BRANCH  22  23
ATOM     23  O   UNL A   1      34.041  29.583  26.947  1.00  0.00    -0.458 OA
BRANCH  23  24
ATOM     24  C   UNL A   1      34.540  30.510  27.796  1.00  0.00     0.338 C 
ATOM     25  O   UNL A   1      33.955  31.462  28.281  1.00  0.00    -0.246 OA
BRANCH  24  26
ATOM     26  C   UNL A   1      35.908  30.133  28.184  1.00  0.00     0.060 A 
ATOM     27  C   UNL A   1      36.909  30.185  27.209  1.00  0.00     0.016 A 
ATOM     28  C   UNL A   1      36.192  29.678  29.473  1.00  0.00     0.016 A 
ATOM     29  C   UNL A   1      38.204  29.778  27.520  1.00  0.00     0.010 A 
ATOM     30  C   UNL A   1      37.492  29.268  29.782  1.00  0.00     0.010 A 
ATOM     31  C   UNL A   1      38.503  29.306  28.805  1.00  0.00    -0.014 A 
BRANCH  31  32
ATOM     32  C   UNL A   1      39.866  28.818  29.113  1.00  0.00     0.031 A 
ATOM     33  C   UNL A   1      40.841  29.711  29.822  1.00  0.00     0.074 A 
ATOM     34  C   UNL A   1      40.227  27.570  28.762  1.00  0.00     0.049 A 
ATOM     35  N   UNL A   1      42.091  29.484  30.141  1.00  0.00    -0.248 NA
ATOM     36  C   UNL A   1      40.345  31.036  30.225  1.00  0.00     0.031 C 
ATOM     37  C   UNL A   1      39.362  26.597  28.094  1.00  0.00     0.029 A 
ATOM     38  N   UNL A   1      41.420  26.912  28.914  1.00  0.00    -0.354 N 
ATOM     39  C   UNL A   1      42.535  30.641  30.768  1.00  0.00     0.074 A 
ATOM     40  C   UNL A   1      41.429  31.574  30.767  1.00  0.00     0.031 C 
ATOM     41  C   UNL A   1      40.056  25.465  27.891  1.00  0.00     0.029 A 
ATOM     42  C   UNL A   1      41.420  25.648  28.380  1.00  0.00     0.049 A 
ATOM     43  H   UNL A   1      42.201  27.308  29.364  1.00  0.00     0.167 HD
ATOM     44  C   UNL A   1      43.754  30.900  31.299  1.00  0.00     0.031 A 
ATOM     45  C   UNL A   1      42.413  24.746  28.274  1.00  0.00     0.031 A 
ATOM     46  C   UNL A   1      44.857  29.976  31.292  1.00  0.00     0.049 A 
ATOM     47  C   UNL A   1      43.774  25.078  28.821  1.00  0.00     0.074 A 
ATOM     48  C   UNL A   1      46.125  30.142  31.821  1.00  0.00     0.029 A 
ATOM     49  N   UNL A   1      44.825  28.714  30.718  1.00  0.00    -0.354 N 
ATOM     50  N   UNL A   1      44.175  26.167  29.432  1.00  0.00    -0.248 NA
ATOM     51  C   UNL A   1      44.817  24.054  28.666  1.00  0.00     0.031 C 
ATOM     52  C   UNL A   1      46.876  28.998  31.526  1.00  0.00     0.029 A 
ATOM     53  C   UNL A   1      46.059  28.101  30.857  1.00  0.00     0.049 A 
ATOM     54  H   UNL A   1      44.041  28.314  30.277  1.00  0.00     0.167 HD
ATOM     55  C   UNL A   1      45.510  25.952  29.749  1.00  0.00     0.074 A 
ATOM     56  C   UNL A   1      45.845  24.624  29.278  1.00  0.00     0.031 C 
ATOM     57  C   UNL A   1      46.380  26.782  30.374  1.00  0.00     0.031 A 
BRANCH  44  58
ATOM     58  C   UNL A   1      43.963  32.260  31.902  1.00  0.00    -0.014 A 
ATOM     59  C   UNL A   1      44.392  33.345  31.123  1.00  0.00     0.009 A 
ATOM     60  C   UNL A   1      43.711  32.460  33.268  1.00  0.00     0.009 A 
ATOM     61  C   UNL A   1      44.598  34.596  31.708  1.00  0.00     0.001 A 
ATOM     62  C   UNL A   1      43.894  33.718  33.845  1.00  0.00     0.001 A 
ATOM     63  C   UNL A   1      44.346  34.782  33.067  1.00  0.00     0.000 A 
ENDBRANCH  44  58
BRANCH  45  64
ATOM     64  C   UNL A   1      42.163  23.450  27.596  1.00  0.00    -0.014 A 
ATOM     65  C   UNL A   1      42.484  23.276  26.241  1.00  0.00     0.009 A 
ATOM     66  C   UNL A   1      41.607  22.375  28.306  1.00  0.00     0.009 A 
ATOM     67  C   UNL A   1      42.235  22.056  25.608  1.00  0.00     0.001 A 
ATOM     68  C   UNL A   1      41.383  21.149  27.677  1.00  0.00     0.001 A 
ATOM     69  C   UNL A   1      41.691  20.992  26.327  1.00  0.00     0.000 A 
ENDBRANCH  45  64
BRANCH  57  70
ATOM     70  C   UNL A   1      47.772  26.267  30.603  1.00  0.00    -0.014 A 
ATOM     71  C   UNL A   1      48.733  26.293  29.581  1.00  0.00     0.009 A 
ATOM     72  C   UNL A   1      48.135  25.779  31.868  1.00  0.00     0.009 A 
ATOM     73  C   UNL A   1      50.023  25.811  29.813  1.00  0.00     0.001 A 
ATOM     74  C   UNL A   1      49.433  25.322  32.104  1.00  0.00     0.001 A 
ATOM     75  C   UNL A   1      50.373  25.331  31.075  1.00  0.00     0.000 A 
ENDBRANCH  57  70
ENDBRANCH  31  32
ENDBRANCH  24  26
ENDBRANCH  23  24
ENDBRANCH  22  23
ENDBRANCH  21  22
ENDBRANCH  20  21
ENDBRANCH   1  20
TORSDOF 17
ENDMDL
