MODEL 1
REMARK VINA RESULT:      -9.1      0.000      0.000
REMARK SMILES CC[N@H+](CC(C)(C)C(=O)OCCOC(=O)c1ccc(-c2c3nc(c(-c4ccccc4)c4ccc([nH]4)c(-c4ccccc4)c4nc(c(-c5ccccc5)c5ccc2[nH]5)C=C4)C=C3)cc1)[C@H]1CC[NH2+]C1
REMARK SMILES IDX 11 1 10 2 8 3 9 4 5 5 6 6 7 7 4 8 3 9 2 11 1 12 64 13 65 14
REMARK SMILES IDX 68 15 66 16 67 17 12 20 13 21 14 22 15 23 16 24 17 25 63 26
REMARK SMILES IDX 18 27 62 28 19 29 20 30 21 31 56 32 22 33 61 34 55 35 57 36
REMARK SMILES IDX 23 37 60 38 54 39 53 40 24 42 46 43 31 44 45 45 32 46 35 47
REMARK SMILES IDX 44 48 58 49 33 50 34 51 43 53 59 54 36 55 25 56 26 57 30 58
REMARK SMILES IDX 27 59 29 60 28 61 47 62 48 63 52 64 49 65 51 66 50 67 37 68
REMARK SMILES IDX 38 69 42 70 39 71 41 72 40 73
REMARK H PARENT 3 10 67 18 67 19 57 41 35 52
REMARK Flexibility Score: inf
ROOT
ATOM      1  C   UNL A   1      38.959  21.431  26.000  1.00  0.00     0.274 C 
ENDROOT
BRANCH   1   2
ATOM      2  O   UNL A   1      37.626  21.599  25.471  1.00  0.00    -0.461 OA
BRANCH   2   3
ATOM      3  C   UNL A   1      37.108  22.858  25.576  1.00  0.00     0.317 C 
ATOM      4  O   UNL A   1      37.694  23.751  26.169  1.00  0.00    -0.251 OA
BRANCH   3   5
ATOM      5  C   UNL A   1      35.706  22.986  24.939  1.00  0.00     0.111 C 
ATOM      6  C   UNL A   1      35.846  22.872  23.419  1.00  0.00     0.029 C 
ATOM      7  C   UNL A   1      35.142  24.397  25.272  1.00  0.00     0.029 C 
BRANCH   5   8
ATOM      8  C   UNL A   1      34.648  21.966  25.504  1.00  0.00     0.280 C 
BRANCH   8   9
ATOM      9  N   UNL A   1      33.481  21.422  24.759  1.00  0.00    -0.327 N 
ATOM     10  H   UNL A   1      33.600  21.771  23.808  1.00  0.00     0.348 HD
BRANCH   9  11
ATOM     11  C   UNL A   1      33.468  19.949  24.669  1.00  0.00     0.259 C 
ATOM     12  C   UNL A   1      34.811  19.219  24.634  1.00  0.00     0.071 C 
ENDBRANCH   9  11
BRANCH   9  13
ATOM     13  C   UNL A   1      32.182  21.935  25.270  1.00  0.00     0.245 C 
ATOM     14  C   UNL A   1      32.094  22.626  26.635  1.00  0.00     0.132 C 
ATOM     15  C   UNL A   1      31.551  23.014  24.368  1.00  0.00     0.326 C 
ATOM     16  C   UNL A   1      30.710  23.243  26.566  1.00  0.00     0.267 C 
ATOM     17  N   UNL A   1      30.626  23.803  25.212  1.00  0.00    -0.341 N 
ATOM     18  H   UNL A   1      30.907  24.783  25.220  1.00  0.00     0.346 HD
ATOM     19  H   UNL A   1      29.672  23.757  24.854  1.00  0.00     0.346 HD
ENDBRANCH   9  13
ENDBRANCH   8   9
ENDBRANCH   5   8
ENDBRANCH   3   5
ENDBRANCH   2   3
ENDBRANCH   1   2
BRANCH   1  20
ATOM     20  C   UNL A   1      39.483  20.016  25.746  1.00  0.00     0.275 C 
BRANCH  20  21
ATOM     21  O   UNL A   1      40.602  19.736  26.608  1.00  0.00    -0.458 OA
BRANCH  21  22
ATOM     22  C   UNL A   1      41.830  19.926  26.082  1.00  0.00     0.338 C 
ATOM     23  O   UNL A   1      42.469  19.141  25.386  1.00  0.00    -0.246 OA
BRANCH  22  24
ATOM     24  C   UNL A   1      42.322  21.275  26.419  1.00  0.00     0.060 A 
ATOM     25  C   UNL A   1      42.429  21.635  27.757  1.00  0.00     0.016 A 
ATOM     26  C   UNL A   1      42.550  22.232  25.432  1.00  0.00     0.016 A 
ATOM     27  C   UNL A   1      42.684  22.956  28.115  1.00  0.00     0.010 A 
ATOM     28  C   UNL A   1      42.876  23.551  25.797  1.00  0.00     0.010 A 
ATOM     29  C   UNL A   1      42.905  23.940  27.148  1.00  0.00    -0.014 A 
BRANCH  29  30
ATOM     30  C   UNL A   1      43.030  25.369  27.564  1.00  0.00     0.031 A 
ATOM     31  C   UNL A   1      44.390  26.024  27.578  1.00  0.00     0.074 A 
ATOM     32  C   UNL A   1      41.952  26.143  27.815  1.00  0.00     0.049 A 
ATOM     33  N   UNL A   1      44.747  27.191  28.053  1.00  0.00    -0.248 NA
ATOM     34  C   UNL A   1      45.490  25.267  26.958  1.00  0.00     0.031 C 
ATOM     35  C   UNL A   1      40.554  25.729  27.692  1.00  0.00     0.029 A 
ATOM     36  N   UNL A   1      41.872  27.463  28.199  1.00  0.00    -0.354 N 
ATOM     37  C   UNL A   1      46.118  27.281  27.845  1.00  0.00     0.074 A 
ATOM     38  C   UNL A   1      46.527  26.059  27.186  1.00  0.00     0.031 C 
ATOM     39  C   UNL A   1      39.760  26.782  27.943  1.00  0.00     0.029 A 
ATOM     40  C   UNL A   1      40.584  27.919  28.349  1.00  0.00     0.049 A 
ATOM     41  H   UNL A   1      42.663  28.027  28.352  1.00  0.00     0.167 HD
ATOM     42  C   UNL A   1      46.967  28.281  28.185  1.00  0.00     0.031 A 
ATOM     43  C   UNL A   1      40.111  29.095  28.808  1.00  0.00     0.031 A 
ATOM     44  C   UNL A   1      46.571  29.515  28.808  1.00  0.00     0.049 A 
ATOM     45  C   UNL A   1      41.075  30.144  29.296  1.00  0.00     0.074 A 
ATOM     46  C   UNL A   1      47.372  30.555  29.250  1.00  0.00     0.029 A 
ATOM     47  N   UNL A   1      45.261  29.887  29.058  1.00  0.00    -0.354 N 
ATOM     48  N   UNL A   1      42.384  30.159  29.238  1.00  0.00    -0.248 NA
ATOM     49  C   UNL A   1      40.491  31.328  29.949  1.00  0.00     0.031 C 
ATOM     50  C   UNL A   1      46.547  31.539  29.805  1.00  0.00     0.029 A 
ATOM     51  C   UNL A   1      45.232  31.132  29.663  1.00  0.00     0.049 A 
ATOM     52  H   UNL A   1      44.469  29.345  28.840  1.00  0.00     0.167 HD
ATOM     53  C   UNL A   1      42.777  31.349  29.839  1.00  0.00     0.074 A 
ATOM     54  C   UNL A   1      41.570  32.045  30.232  1.00  0.00     0.031 C 
ATOM     55  C   UNL A   1      44.029  31.818  30.055  1.00  0.00     0.031 A 
BRANCH  42  56
ATOM     56  C   UNL A   1      48.431  28.040  27.962  1.00  0.00    -0.014 A 
ATOM     57  C   UNL A   1      49.075  28.432  26.780  1.00  0.00     0.009 A 
ATOM     58  C   UNL A   1      49.180  27.420  28.977  1.00  0.00     0.009 A 
ATOM     59  C   UNL A   1      50.438  28.178  26.607  1.00  0.00     0.001 A 
ATOM     60  C   UNL A   1      50.545  27.191  28.810  1.00  0.00     0.001 A 
ATOM     61  C   UNL A   1      51.172  27.562  27.622  1.00  0.00     0.000 A 
ENDBRANCH  42  56
BRANCH  43  62
ATOM     62  C   UNL A   1      38.645  29.325  28.926  1.00  0.00    -0.014 A 
ATOM     63  C   UNL A   1      37.906  29.823  27.842  1.00  0.00     0.009 A 
ATOM     64  C   UNL A   1      37.986  29.096  30.146  1.00  0.00     0.009 A 
ATOM     65  C   UNL A   1      36.544  30.105  27.984  1.00  0.00     0.001 A 
ATOM     66  C   UNL A   1      36.619  29.347  30.274  1.00  0.00     0.001 A 
ATOM     67  C   UNL A   1      35.901  29.861  29.197  1.00  0.00     0.000 A 
ENDBRANCH  43  62
BRANCH  55  68
ATOM     68  C   UNL A   1      44.164  33.154  30.728  1.00  0.00    -0.014 A 
ATOM     69  C   UNL A   1      44.141  34.345  29.987  1.00  0.00     0.009 A 
ATOM     70  C   UNL A   1      44.269  33.225  32.127  1.00  0.00     0.009 A 
ATOM     71  C   UNL A   1      44.247  35.580  30.632  1.00  0.00     0.001 A 
ATOM     72  C   UNL A   1      44.350  34.460  32.770  1.00  0.00     0.001 A 
ATOM     73  C   UNL A   1      44.346  35.637  32.022  1.00  0.00     0.000 A 
ENDBRANCH  55  68
ENDBRANCH  29  30
ENDBRANCH  22  24
ENDBRANCH  21  22
ENDBRANCH  20  21
ENDBRANCH   1  20
TORSDOF 15
ENDMDL
MODEL 2
REMARK VINA RESULT:      -9.1      2.611      6.830
REMARK SMILES CC[N@H+](CC(C)(C)C(=O)OCCOC(=O)c1ccc(-c2c3nc(c(-c4ccccc4)c4ccc([nH]4)c(-c4ccccc4)c4nc(c(-c5ccccc5)c5ccc2[nH]5)C=C4)C=C3)cc1)[C@H]1CC[NH2+]C1
REMARK SMILES IDX 11 1 10 2 8 3 9 4 5 5 6 6 7 7 4 8 3 9 2 11 1 12 64 13 65 14
REMARK SMILES IDX 68 15 66 16 67 17 12 20 13 21 14 22 15 23 16 24 17 25 63 26
REMARK SMILES IDX 18 27 62 28 19 29 20 30 21 31 56 32 22 33 61 34 55 35 57 36
REMARK SMILES IDX 23 37 60 38 54 39 53 40 24 42 46 43 31 44 45 45 32 46 35 47
REMARK SMILES IDX 44 48 58 49 33 50 34 51 43 53 59 54 36 55 25 56 26 57 30 58
REMARK SMILES IDX 27 59 29 60 28 61 47 62 48 63 52 64 49 65 51 66 50 67 37 68
REMARK SMILES IDX 38 69 42 70 39 71 41 72 40 73
REMARK H PARENT 3 10 67 18 67 19 57 41 35 52
REMARK Flexibility Score: inf
ROOT
ATOM      1  C   UNL A   1      34.514  21.433  25.299  1.00  0.00     0.274 C 
ENDROOT
BRANCH   1   2
ATOM      2  O   UNL A   1      34.342  22.572  24.427  1.00  0.00    -0.461 OA
BRANCH   2   3
ATOM      3  C   UNL A   1      33.929  23.721  25.039  1.00  0.00     0.317 C 
ATOM      4  O   UNL A   1      34.443  24.123  26.072  1.00  0.00    -0.251 OA
BRANCH   3   5
ATOM      5  C   UNL A   1      32.728  24.382  24.328  1.00  0.00     0.111 C 
ATOM      6  C   UNL A   1      31.438  23.905  24.999  1.00  0.00     0.029 C 
ATOM      7  C   UNL A   1      32.712  23.909  22.846  1.00  0.00     0.029 C 
BRANCH   5   8
ATOM      8  C   UNL A   1      32.804  25.954  24.266  1.00  0.00     0.280 C 
BRANCH   8   9
ATOM      9  N   UNL A   1      31.787  26.896  24.805  1.00  0.00    -0.327 N 
ATOM     10  H   UNL A   1      30.956  26.322  24.941  1.00  0.00     0.348 HD
BRANCH   9  11
ATOM     11  C   UNL A   1      32.135  27.455  26.125  1.00  0.00     0.259 C 
ATOM     12  C   UNL A   1      33.616  27.609  26.473  1.00  0.00     0.071 C 
ENDBRANCH   9  11
BRANCH   9  13
ATOM     13  C   UNL A   1      31.439  27.977  23.844  1.00  0.00     0.245 C 
ATOM     14  C   UNL A   1      30.254  27.822  22.885  1.00  0.00     0.132 C 
ATOM     15  C   UNL A   1      31.074  29.311  24.528  1.00  0.00     0.326 C 
ATOM     16  C   UNL A   1      30.099  29.243  22.375  1.00  0.00     0.267 C 
ATOM     17  N   UNL A   1      30.247  30.080  23.571  1.00  0.00    -0.341 N 
ATOM     18  H   UNL A   1      29.332  30.276  23.977  1.00  0.00     0.346 HD
ATOM     19  H   UNL A   1      30.683  30.972  23.343  1.00  0.00     0.346 HD
ENDBRANCH   9  13
ENDBRANCH   8   9
ENDBRANCH   5   8
ENDBRANCH   3   5
ENDBRANCH   2   3
ENDBRANCH   1   2
BRANCH   1  20
ATOM     20  C   UNL A   1      35.826  20.703  25.005  1.00  0.00     0.275 C 
BRANCH  20  21
ATOM     21  O   UNL A   1      36.917  21.643  24.947  1.00  0.00    -0.458 OA
BRANCH  21  22
ATOM     22  C   UNL A   1      38.095  21.230  25.459  1.00  0.00     0.338 C 
ATOM     23  O   UNL A   1      38.589  20.109  25.375  1.00  0.00    -0.246 OA
BRANCH  22  24
ATOM     24  C   UNL A   1      38.779  22.354  26.125  1.00  0.00     0.060 A 
ATOM     25  C   UNL A   1      38.232  23.627  26.024  1.00  0.00     0.016 A 
ATOM     26  C   UNL A   1      40.022  22.189  26.733  1.00  0.00     0.016 A 
ATOM     27  C   UNL A   1      38.949  24.741  26.452  1.00  0.00     0.010 A 
ATOM     28  C   UNL A   1      40.714  23.310  27.229  1.00  0.00     0.010 A 
ATOM     29  C   UNL A   1      40.202  24.609  27.055  1.00  0.00    -0.014 A 
BRANCH  29  30
ATOM     30  C   UNL A   1      41.004  25.830  27.369  1.00  0.00     0.031 A 
ATOM     31  C   UNL A   1      40.464  26.842  28.348  1.00  0.00     0.074 A 
ATOM     32  C   UNL A   1      42.258  26.008  26.900  1.00  0.00     0.049 A 
ATOM     33  N   UNL A   1      40.912  28.038  28.642  1.00  0.00    -0.248 NA
ATOM     34  C   UNL A   1      39.269  26.447  29.111  1.00  0.00     0.031 C 
ATOM     35  C   UNL A   1      43.006  25.059  26.074  1.00  0.00     0.029 A 
ATOM     36  N   UNL A   1      43.139  27.049  27.083  1.00  0.00    -0.354 N 
ATOM     37  C   UNL A   1      40.022  28.558  29.573  1.00  0.00     0.074 A 
ATOM     38  C   UNL A   1      39.018  27.544  29.810  1.00  0.00     0.031 C 
ATOM     39  C   UNL A   1      44.244  25.537  25.867  1.00  0.00     0.029 A 
ATOM     40  C   UNL A   1      44.347  26.872  26.452  1.00  0.00     0.049 A 
ATOM     41  H   UNL A   1      42.924  27.848  27.617  1.00  0.00     0.167 HD
ATOM     42  C   UNL A   1      40.027  29.776  30.167  1.00  0.00     0.031 A 
ATOM     43  C   UNL A   1      45.401  27.701  26.311  1.00  0.00     0.031 A 
ATOM     44  C   UNL A   1      41.037  30.780  29.969  1.00  0.00     0.049 A 
ATOM     45  C   UNL A   1      45.331  29.095  26.876  1.00  0.00     0.074 A 
ATOM     46  C   UNL A   1      41.085  32.068  30.477  1.00  0.00     0.029 A 
ATOM     47  N   UNL A   1      42.186  30.604  29.218  1.00  0.00    -0.354 N 
ATOM     48  N   UNL A   1      44.409  29.637  27.634  1.00  0.00    -0.248 NA
ATOM     49  C   UNL A   1      46.437  30.005  26.534  1.00  0.00     0.031 C 
ATOM     50  C   UNL A   1      42.247  32.684  29.999  1.00  0.00     0.029 A 
ATOM     51  C   UNL A   1      42.943  31.764  29.236  1.00  0.00     0.049 A 
ATOM     52  H   UNL A   1      42.429  29.777  28.742  1.00  0.00     0.167 HD
ATOM     53  C   UNL A   1      44.825  30.944  27.861  1.00  0.00     0.074 A 
ATOM     54  C   UNL A   1      46.095  31.108  27.186  1.00  0.00     0.031 C 
ATOM     55  C   UNL A   1      44.203  31.924  28.560  1.00  0.00     0.031 A 
BRANCH  42  56
ATOM     56  C   UNL A   1      38.850  30.118  31.032  1.00  0.00    -0.014 A 
ATOM     57  C   UNL A   1      37.669  30.655  30.499  1.00  0.00     0.009 A 
ATOM     58  C   UNL A   1      38.928  29.876  32.414  1.00  0.00     0.009 A 
ATOM     59  C   UNL A   1      36.600  30.971  31.341  1.00  0.00     0.001 A 
ATOM     60  C   UNL A   1      37.849  30.169  33.247  1.00  0.00     0.001 A 
ATOM     61  C   UNL A   1      36.689  30.724  32.712  1.00  0.00     0.000 A 
ENDBRANCH  42  56
BRANCH  43  62
ATOM     62  C   UNL A   1      46.590  27.283  25.520  1.00  0.00    -0.014 A 
ATOM     63  C   UNL A   1      46.774  27.738  24.205  1.00  0.00     0.009 A 
ATOM     64  C   UNL A   1      47.522  26.381  26.060  1.00  0.00     0.009 A 
ATOM     65  C   UNL A   1      47.855  27.283  23.443  1.00  0.00     0.001 A 
ATOM     66  C   UNL A   1      48.618  25.955  25.308  1.00  0.00     0.001 A 
ATOM     67  C   UNL A   1      48.778  26.397  23.997  1.00  0.00     0.000 A 
ENDBRANCH  43  62
BRANCH  55  68
ATOM     68  C   UNL A   1      44.891  33.256  28.650  1.00  0.00    -0.014 A 
ATOM     69  C   UNL A   1      45.831  33.520  29.658  1.00  0.00     0.009 A 
ATOM     70  C   UNL A   1      44.630  34.244  27.687  1.00  0.00     0.009 A 
ATOM     71  C   UNL A   1      46.477  34.757  29.715  1.00  0.00     0.001 A 
ATOM     72  C   UNL A   1      45.294  35.471  27.733  1.00  0.00     0.001 A 
ATOM     73  C   UNL A   1      46.212  35.729  28.750  1.00  0.00     0.000 A 
ENDBRANCH  55  68
ENDBRANCH  29  30
ENDBRANCH  22  24
ENDBRANCH  21  22
ENDBRANCH  20  21
ENDBRANCH   1  20
TORSDOF 15
ENDMDL
MODEL 3
REMARK VINA RESULT:      -9.1      4.748      7.983
REMARK SMILES CC[N@H+](CC(C)(C)C(=O)OCCOC(=O)c1ccc(-c2c3nc(c(-c4ccccc4)c4ccc([nH]4)c(-c4ccccc4)c4nc(c(-c5ccccc5)c5ccc2[nH]5)C=C4)C=C3)cc1)[C@H]1CC[NH2+]C1
REMARK SMILES IDX 11 1 10 2 8 3 9 4 5 5 6 6 7 7 4 8 3 9 2 11 1 12 64 13 65 14
REMARK SMILES IDX 68 15 66 16 67 17 12 20 13 21 14 22 15 23 16 24 17 25 63 26
REMARK SMILES IDX 18 27 62 28 19 29 20 30 21 31 56 32 22 33 61 34 55 35 57 36
REMARK SMILES IDX 23 37 60 38 54 39 53 40 24 42 46 43 31 44 45 45 32 46 35 47
REMARK SMILES IDX 44 48 58 49 33 50 34 51 43 53 59 54 36 55 25 56 26 57 30 58
REMARK SMILES IDX 27 59 29 60 28 61 47 62 48 63 52 64 49 65 51 66 50 67 37 68
REMARK SMILES IDX 38 69 42 70 39 71 41 72 40 73
REMARK H PARENT 3 10 67 18 67 19 57 41 35 52
REMARK Flexibility Score: inf
ROOT
ATOM      1  C   UNL A   1      31.432  27.485  26.560  1.00  0.00     0.274 C 
ENDROOT
BRANCH   1   2
ATOM      2  O   UNL A   1      32.034  26.567  25.621  1.00  0.00    -0.461 OA
BRANCH   2   3
ATOM      3  C   UNL A   1      31.234  25.537  25.213  1.00  0.00     0.317 C 
ATOM      4  O   UNL A   1      30.346  25.090  25.922  1.00  0.00    -0.251 OA
BRANCH   3   5
ATOM      5  C   UNL A   1      31.628  24.983  23.826  1.00  0.00     0.111 C 
ATOM      6  C   UNL A   1      30.676  23.840  23.466  1.00  0.00     0.029 C 
ATOM      7  C   UNL A   1      33.070  24.405  23.919  1.00  0.00     0.029 C 
BRANCH   5   8
ATOM      8  C   UNL A   1      31.685  26.072  22.690  1.00  0.00     0.280 C 
BRANCH   8   9
ATOM      9  N   UNL A   1      31.656  27.545  22.895  1.00  0.00    -0.327 N 
ATOM     10  H   UNL A   1      31.671  27.661  23.909  1.00  0.00     0.348 HD
BRANCH   9  11
ATOM     11  C   UNL A   1      32.848  28.242  22.374  1.00  0.00     0.259 C 
ATOM     12  C   UNL A   1      33.983  28.554  23.349  1.00  0.00     0.071 C 
ENDBRANCH   9  11
BRANCH   9  13
ATOM     13  C   UNL A   1      30.407  28.172  22.386  1.00  0.00     0.245 C 
ATOM     14  C   UNL A   1      29.129  28.173  23.230  1.00  0.00     0.132 C 
ATOM     15  C   UNL A   1      30.553  29.679  22.094  1.00  0.00     0.326 C 
ATOM     16  C   UNL A   1      28.275  29.172  22.472  1.00  0.00     0.267 C 
ATOM     17  N   UNL A   1      29.195  30.266  22.144  1.00  0.00    -0.341 N 
ATOM     18  H   UNL A   1      29.151  30.989  22.862  1.00  0.00     0.346 HD
ATOM     19  H   UNL A   1      28.949  30.698  21.254  1.00  0.00     0.346 HD
ENDBRANCH   9  13
ENDBRANCH   8   9
ENDBRANCH   5   8
ENDBRANCH   3   5
ENDBRANCH   2   3
ENDBRANCH   1   2
BRANCH   1  20
ATOM     20  C   UNL A   1      31.603  28.935  26.104  1.00  0.00     0.275 C 
BRANCH  20  21
ATOM     21  O   UNL A   1      31.809  29.794  27.241  1.00  0.00    -0.458 OA
BRANCH  21  22
ATOM     22  C   UNL A   1      32.479  30.943  27.015  1.00  0.00     0.338 C 
ATOM     23  O   UNL A   1      32.039  31.972  26.510  1.00  0.00    -0.246 OA
BRANCH  22  24
ATOM     24  C   UNL A   1      33.863  30.828  27.513  1.00  0.00     0.060 A 
ATOM     25  C   UNL A   1      34.437  29.567  27.615  1.00  0.00     0.016 A 
ATOM     26  C   UNL A   1      34.551  31.935  28.006  1.00  0.00     0.016 A 
ATOM     27  C   UNL A   1      35.652  29.393  28.273  1.00  0.00     0.010 A 
ATOM     28  C   UNL A   1      35.811  31.766  28.609  1.00  0.00     0.010 A 
ATOM     29  C   UNL A   1      36.359  30.483  28.788  1.00  0.00    -0.014 A 
BRANCH  29  30
ATOM     30  C   UNL A   1      37.582  30.246  29.613  1.00  0.00     0.031 A 
ATOM     31  C   UNL A   1      38.775  29.560  28.995  1.00  0.00     0.074 A 
ATOM     32  C   UNL A   1      37.710  30.732  30.866  1.00  0.00     0.049 A 
ATOM     33  N   UNL A   1      39.867  29.114  29.564  1.00  0.00    -0.248 NA
ATOM     34  C   UNL A   1      38.739  29.368  27.536  1.00  0.00     0.031 C 
ATOM     35  C   UNL A   1      36.727  31.558  31.569  1.00  0.00     0.029 A 
ATOM     36  N   UNL A   1      38.748  30.623  31.763  1.00  0.00    -0.354 N 
ATOM     37  C   UNL A   1      40.615  28.536  28.547  1.00  0.00     0.074 A 
ATOM     38  C   UNL A   1      39.864  28.702  27.322  1.00  0.00     0.031 C 
ATOM     39  C   UNL A   1      37.229  31.921  32.761  1.00  0.00     0.029 A 
ATOM     40  C   UNL A   1      38.522  31.269  32.955  1.00  0.00     0.049 A 
ATOM     41  H   UNL A   1      39.576  30.127  31.570  1.00  0.00     0.167 HD
ATOM     42  C   UNL A   1      41.813  27.907  28.624  1.00  0.00     0.031 A 
ATOM     43  C   UNL A   1      39.241  31.297  34.095  1.00  0.00     0.031 A 
ATOM     44  C   UNL A   1      42.589  27.765  29.827  1.00  0.00     0.049 A 
ATOM     45  C   UNL A   1      40.508  30.489  34.196  1.00  0.00     0.074 A 
ATOM     46  C   UNL A   1      43.781  27.084  30.010  1.00  0.00     0.029 A 
ATOM     47  N   UNL A   1      42.261  28.331  31.046  1.00  0.00    -0.354 N 
ATOM     48  N   UNL A   1      41.136  29.813  33.265  1.00  0.00    -0.248 NA
ATOM     49  C   UNL A   1      41.147  30.421  35.521  1.00  0.00     0.031 C 
ATOM     50  C   UNL A   1      44.153  27.205  31.353  1.00  0.00     0.029 A 
ATOM     51  C   UNL A   1      43.218  28.002  31.991  1.00  0.00     0.049 A 
ATOM     52  H   UNL A   1      41.465  28.885  31.216  1.00  0.00     0.167 HD
ATOM     53  C   UNL A   1      42.241  29.246  33.890  1.00  0.00     0.074 A 
ATOM     54  C   UNL A   1      42.216  29.677  35.271  1.00  0.00     0.031 C 
ATOM     55  C   UNL A   1      43.187  28.431  33.365  1.00  0.00     0.031 A 
BRANCH  42  56
ATOM     56  C   UNL A   1      42.321  27.249  27.374  1.00  0.00    -0.014 A 
ATOM     57  C   UNL A   1      43.212  27.895  26.505  1.00  0.00     0.009 A 
ATOM     58  C   UNL A   1      41.905  25.940  27.078  1.00  0.00     0.009 A 
ATOM     59  C   UNL A   1      43.651  27.251  25.346  1.00  0.00     0.001 A 
ATOM     60  C   UNL A   1      42.365  25.291  25.933  1.00  0.00     0.001 A 
ATOM     61  C   UNL A   1      43.232  25.951  25.063  1.00  0.00     0.000 A 
ENDBRANCH  42  56
BRANCH  43  62
ATOM     62  C   UNL A   1      38.742  32.041  35.284  1.00  0.00    -0.014 A 
ATOM     63  C   UNL A   1      38.938  33.426  35.399  1.00  0.00     0.009 A 
ATOM     64  C   UNL A   1      38.113  31.358  36.337  1.00  0.00     0.009 A 
ATOM     65  C   UNL A   1      38.531  34.106  36.552  1.00  0.00     0.001 A 
ATOM     66  C   UNL A   1      37.678  32.044  37.473  1.00  0.00     0.001 A 
ATOM     67  C   UNL A   1      37.897  33.415  37.584  1.00  0.00     0.000 A 
ENDBRANCH  43  62
BRANCH  55  68
ATOM     68  C   UNL A   1      44.286  27.965  34.276  1.00  0.00    -0.014 A 
ATOM     69  C   UNL A   1      45.453  28.724  34.452  1.00  0.00     0.009 A 
ATOM     70  C   UNL A   1      44.133  26.774  35.005  1.00  0.00     0.009 A 
ATOM     71  C   UNL A   1      46.456  28.287  35.320  1.00  0.00     0.001 A 
ATOM     72  C   UNL A   1      45.127  26.352  35.889  1.00  0.00     0.001 A 
ATOM     73  C   UNL A   1      46.291  27.105  36.041  1.00  0.00     0.000 A 
ENDBRANCH  55  68
ENDBRANCH  29  30
ENDBRANCH  22  24
ENDBRANCH  21  22
ENDBRANCH  20  21
ENDBRANCH   1  20
TORSDOF 15
ENDMDL
