MODEL 1
REMARK VINA RESULT:     -11.3      0.000      0.000
REMARK SMILES CC1=CC2=[NH+]C(=O)C[C@@](C)(C(=O)OCCOC(=O)c3ccc(-c4c5nc(c(-c6ccccc6)c6ccc([nH]6)c(-c6ccccc6)c6nc(c(-c7ccccc7)c7ccc4[nH]7)C=C6)C=C5)cc3)N2C=C1
REMARK SMILES IDX 15 1 14 2 13 3 11 4 12 5 9 6 1 7 2 8 3 9 69 10 4 11 68 12
REMARK SMILES IDX 5 13 67 14 6 15 7 17 8 18 10 19 16 20 17 21 18 22 19 23
REMARK SMILES IDX 20 24 66 25 21 26 65 27 22 28 23 29 24 30 59 31 25 32 64 33
REMARK SMILES IDX 58 34 60 35 26 36 63 37 57 38 56 39 27 41 49 42 34 43 48 44
REMARK SMILES IDX 35 45 38 46 47 47 61 48 36 49 37 50 46 52 62 53 39 54 28 55
REMARK SMILES IDX 29 56 33 57 30 58 32 59 31 60 50 61 51 62 55 63 52 64 54 65
REMARK SMILES IDX 53 66 40 67 41 68 45 69 42 70 44 71 43 72
REMARK H PARENT 5 16 60 40 38 51
REMARK Flexibility Score: inf
ROOT
ATOM      1  C   UNL A   1      31.444  29.265  25.588  1.00  0.00     0.275 C 
ENDROOT
BRANCH   1   2
ATOM      2  C   UNL A   1      30.768  29.597  24.240  1.00  0.00     0.274 C 
BRANCH   2   3
ATOM      3  O   UNL A   1      31.634  29.168  23.159  1.00  0.00    -0.459 OA
BRANCH   3   4
ATOM      4  C   UNL A   1      31.414  27.937  22.581  1.00  0.00     0.355 C 
ATOM      5  O   UNL A   1      30.388  27.634  21.992  1.00  0.00    -0.247 OA
BRANCH   4   6
ATOM      6  C   UNL A   1      32.706  27.068  22.712  1.00  0.00     0.216 C 
ATOM      7  C   UNL A   1      32.222  23.240  27.044  1.00  0.00     0.045 C 
ATOM      8  C   UNL A   1      32.254  24.345  26.032  1.00  0.00    -0.039 C 
ATOM      9  C   UNL A   1      31.419  24.289  24.982  1.00  0.00     0.102 C 
ATOM     10  C   UNL A   1      33.281  25.383  26.099  1.00  0.00     0.047 C 
ATOM     11  C   UNL A   1      31.937  25.002  23.789  1.00  0.00     0.282 C 
ATOM     12  C   UNL A   1      33.394  26.289  25.104  1.00  0.00     0.202 C 
ATOM     13  N   UNL A   1      31.879  24.324  22.684  1.00  0.00    -0.210 N 
ATOM     14  N   UNL A   1      32.656  26.183  23.921  1.00  0.00    -0.217 N 
ATOM     15  C   UNL A   1      32.753  24.751  21.731  1.00  0.00     0.312 C 
ATOM     16  H   UNL A   1      31.262  23.569  22.549  1.00  0.00     0.315 HD
ATOM     17  O   UNL A   1      33.460  23.989  21.083  1.00  0.00    -0.247 OA
ATOM     18  C   UNL A   1      32.719  26.206  21.431  1.00  0.00     0.193 C 
ATOM     19  C   UNL A   1      33.935  27.987  22.721  1.00  0.00     0.076 C 
ENDBRANCH   4   6
ENDBRANCH   3   4
ENDBRANCH   2   3
ENDBRANCH   1   2
BRANCH   1  20
ATOM     20  O   UNL A   1      32.686  29.994  25.661  1.00  0.00    -0.458 OA
BRANCH  20  21
ATOM     21  C   UNL A   1      32.837  30.921  26.650  1.00  0.00     0.338 C 
ATOM     22  O   UNL A   1      31.990  31.703  27.029  1.00  0.00    -0.246 OA
BRANCH  21  23
ATOM     23  C   UNL A   1      34.196  30.760  27.262  1.00  0.00     0.060 A 
ATOM     24  C   UNL A   1      34.692  29.486  27.494  1.00  0.00     0.016 A 
ATOM     25  C   UNL A   1      34.958  31.852  27.703  1.00  0.00     0.016 A 
ATOM     26  C   UNL A   1      35.854  29.309  28.242  1.00  0.00     0.010 A 
ATOM     27  C   UNL A   1      36.191  31.652  28.383  1.00  0.00     0.010 A 
ATOM     28  C   UNL A   1      36.656  30.363  28.697  1.00  0.00    -0.014 A 
BRANCH  28  29
ATOM     29  C   UNL A   1      37.905  30.064  29.500  1.00  0.00     0.031 A 
ATOM     30  C   UNL A   1      39.104  29.358  28.893  1.00  0.00     0.074 A 
ATOM     31  C   UNL A   1      38.060  30.512  30.773  1.00  0.00     0.049 A 
ATOM     32  N   UNL A   1      40.137  28.813  29.501  1.00  0.00    -0.248 NA
ATOM     33  C   UNL A   1      39.162  29.254  27.428  1.00  0.00     0.031 C 
ATOM     34  C   UNL A   1      37.095  31.315  31.528  1.00  0.00     0.029 A 
ATOM     35  N   UNL A   1      39.119  30.396  31.651  1.00  0.00    -0.354 N 
ATOM     36  C   UNL A   1      40.914  28.230  28.504  1.00  0.00     0.074 A 
ATOM     37  C   UNL A   1      40.252  28.518  27.246  1.00  0.00     0.031 C 
ATOM     38  C   UNL A   1      37.652  31.732  32.671  1.00  0.00     0.029 A 
ATOM     39  C   UNL A   1      38.925  31.050  32.846  1.00  0.00     0.049 A 
ATOM     40  H   UNL A   1      39.939  29.892  31.441  1.00  0.00     0.167 HD
ATOM     41  C   UNL A   1      42.055  27.504  28.622  1.00  0.00     0.031 A 
ATOM     42  C   UNL A   1      39.613  31.044  34.006  1.00  0.00     0.031 A 
ATOM     43  C   UNL A   1      42.764  27.269  29.858  1.00  0.00     0.049 A 
ATOM     44  C   UNL A   1      40.798  30.138  34.154  1.00  0.00     0.074 A 
ATOM     45  C   UNL A   1      43.888  26.484  30.076  1.00  0.00     0.029 A 
ATOM     46  N   UNL A   1      42.443  27.843  31.075  1.00  0.00    -0.354 N 
ATOM     47  N   UNL A   1      41.408  29.421  33.246  1.00  0.00    -0.248 NA
ATOM     48  C   UNL A   1      41.352  29.994  35.510  1.00  0.00     0.031 C 
ATOM     49  C   UNL A   1      44.218  26.550  31.435  1.00  0.00     0.029 A 
ATOM     50  C   UNL A   1      43.334  27.419  32.050  1.00  0.00     0.049 A 
ATOM     51  H   UNL A   1      41.693  28.462  31.227  1.00  0.00     0.167 HD
ATOM     52  C   UNL A   1      42.412  28.738  33.919  1.00  0.00     0.074 A 
ATOM     53  C   UNL A   1      42.356  29.154  35.304  1.00  0.00     0.031 C 
ATOM     54  C   UNL A   1      43.289  27.830  33.427  1.00  0.00     0.031 A 
BRANCH  41  55
ATOM     55  C   UNL A   1      42.578  26.817  27.387  1.00  0.00    -0.014 A 
ATOM     56  C   UNL A   1      43.568  27.385  26.574  1.00  0.00     0.009 A 
ATOM     57  C   UNL A   1      42.096  25.535  27.074  1.00  0.00     0.009 A 
ATOM     58  C   UNL A   1      44.039  26.695  25.452  1.00  0.00     0.001 A 
ATOM     59  C   UNL A   1      42.586  24.836  25.969  1.00  0.00     0.001 A 
ATOM     60  C   UNL A   1      43.550  25.421  25.153  1.00  0.00     0.000 A 
ENDBRANCH  41  55
BRANCH  42  61
ATOM     61  C   UNL A   1      39.107  31.805  35.185  1.00  0.00    -0.014 A 
ATOM     62  C   UNL A   1      39.469  33.144  35.388  1.00  0.00     0.009 A 
ATOM     63  C   UNL A   1      38.282  31.177  36.136  1.00  0.00     0.009 A 
ATOM     64  C   UNL A   1      39.024  33.833  36.520  1.00  0.00     0.001 A 
ATOM     65  C   UNL A   1      37.802  31.880  37.240  1.00  0.00     0.001 A 
ATOM     66  C   UNL A   1      38.182  33.204  37.437  1.00  0.00     0.000 A 
ENDBRANCH  42  61
BRANCH  54  67
ATOM     67  C   UNL A   1      44.289  27.254  34.387  1.00  0.00    -0.014 A 
ATOM     68  C   UNL A   1      44.035  26.052  35.069  1.00  0.00     0.009 A 
ATOM     69  C   UNL A   1      45.510  27.911  34.603  1.00  0.00     0.009 A 
ATOM     70  C   UNL A   1      44.971  25.538  35.969  1.00  0.00     0.001 A 
ATOM     71  C   UNL A   1      46.455  27.382  35.485  1.00  0.00     0.001 A 
ATOM     72  C   UNL A   1      46.181  26.201  36.172  1.00  0.00     0.000 A 
ENDBRANCH  54  67
ENDBRANCH  28  29
ENDBRANCH  21  23
ENDBRANCH  20  21
ENDBRANCH   1  20
TORSDOF 11
ENDMDL
MODEL 2
REMARK VINA RESULT:     -11.2      3.906      8.749
REMARK SMILES CC1=CC2=[NH+]C(=O)C[C@@](C)(C(=O)OCCOC(=O)c3ccc(-c4c5nc(c(-c6ccccc6)c6ccc([nH]6)c(-c6ccccc6)c6nc(c(-c7ccccc7)c7ccc4[nH]7)C=C6)C=C5)cc3)N2C=C1
REMARK SMILES IDX 15 1 14 2 13 3 11 4 12 5 9 6 1 7 2 8 3 9 69 10 4 11 68 12
REMARK SMILES IDX 5 13 67 14 6 15 7 17 8 18 10 19 16 20 17 21 18 22 19 23
REMARK SMILES IDX 20 24 66 25 21 26 65 27 22 28 23 29 24 30 59 31 25 32 64 33
REMARK SMILES IDX 58 34 60 35 26 36 63 37 57 38 56 39 27 41 49 42 34 43 48 44
REMARK SMILES IDX 35 45 38 46 47 47 61 48 36 49 37 50 46 52 62 53 39 54 28 55
REMARK SMILES IDX 29 56 33 57 30 58 32 59 31 60 50 61 51 62 55 63 52 64 54 65
REMARK SMILES IDX 53 66 40 67 41 68 45 69 42 70 44 71 43 72
REMARK H PARENT 5 16 60 40 38 51
REMARK Flexibility Score: inf
ROOT
ATOM      1  C   UNL A   1      35.577  21.246  24.609  1.00  0.00     0.275 C 
ENDROOT
BRANCH   1   2
ATOM      2  C   UNL A   1      34.644  20.078  24.996  1.00  0.00     0.274 C 
BRANCH   2   3
ATOM      3  O   UNL A   1      33.741  20.521  26.041  1.00  0.00    -0.459 OA
BRANCH   3   4
ATOM      4  C   UNL A   1      32.577  21.164  25.684  1.00  0.00     0.355 C 
ATOM      5  O   UNL A   1      31.706  20.662  24.990  1.00  0.00    -0.247 OA
BRANCH   4   6
ATOM      6  C   UNL A   1      32.520  22.557  26.390  1.00  0.00     0.216 C 
ATOM      7  C   UNL A   1      33.501  26.855  22.619  1.00  0.00     0.045 C 
ATOM      8  C   UNL A   1      33.372  25.648  23.499  1.00  0.00    -0.039 C 
ATOM      9  C   UNL A   1      32.308  24.844  23.347  1.00  0.00     0.102 C 
ATOM     10  C   UNL A   1      34.301  25.437  24.607  1.00  0.00     0.047 C 
ATOM     11  C   UNL A   1      31.943  24.122  24.590  1.00  0.00     0.282 C 
ATOM     12  C   UNL A   1      34.092  24.430  25.483  1.00  0.00     0.202 C 
ATOM     13  N   UNL A   1      30.685  24.179  24.901  1.00  0.00    -0.210 N 
ATOM     14  N   UNL A   1      32.923  23.663  25.461  1.00  0.00    -0.217 N 
ATOM     15  C   UNL A   1      30.433  23.954  26.220  1.00  0.00     0.312 C 
ATOM     16  H   UNL A   1      29.978  24.369  24.243  1.00  0.00     0.315 HD
ATOM     17  O   UNL A   1      29.682  24.656  26.886  1.00  0.00    -0.247 OA
ATOM     18  C   UNL A   1      31.038  22.722  26.791  1.00  0.00     0.193 C 
ATOM     19  C   UNL A   1      33.389  22.520  27.654  1.00  0.00     0.076 C 
ENDBRANCH   4   6
ENDBRANCH   3   4
ENDBRANCH   2   3
ENDBRANCH   1   2
BRANCH   1  20
ATOM     20  O   UNL A   1      36.473  21.492  25.712  1.00  0.00    -0.458 OA
BRANCH  20  21
ATOM     21  C   UNL A   1      37.799  21.222  25.544  1.00  0.00     0.338 C 
ATOM     22  O   UNL A   1      38.264  20.284  24.931  1.00  0.00    -0.246 OA
BRANCH  21  23
ATOM     23  C   UNL A   1      38.600  22.328  26.164  1.00  0.00     0.060 A 
ATOM     24  C   UNL A   1      38.103  23.622  26.146  1.00  0.00     0.016 A 
ATOM     25  C   UNL A   1      39.887  22.126  26.683  1.00  0.00     0.016 A 
ATOM     26  C   UNL A   1      38.911  24.691  26.528  1.00  0.00     0.010 A 
ATOM     27  C   UNL A   1      40.662  23.220  27.157  1.00  0.00     0.010 A 
ATOM     28  C   UNL A   1      40.197  24.544  27.062  1.00  0.00    -0.014 A 
BRANCH  28  29
ATOM     29  C   UNL A   1      40.994  25.772  27.453  1.00  0.00     0.031 A 
ATOM     30  C   UNL A   1      40.484  26.772  28.476  1.00  0.00     0.074 A 
ATOM     31  C   UNL A   1      42.253  25.982  26.991  1.00  0.00     0.049 A 
ATOM     32  N   UNL A   1      40.923  27.985  28.734  1.00  0.00    -0.248 NA
ATOM     33  C   UNL A   1      39.351  26.363  29.319  1.00  0.00     0.031 C 
ATOM     34  C   UNL A   1      43.002  25.100  26.092  1.00  0.00     0.029 A 
ATOM     35  N   UNL A   1      43.157  26.993  27.255  1.00  0.00    -0.354 N 
ATOM     36  C   UNL A   1      40.069  28.511  29.700  1.00  0.00     0.074 A 
ATOM     37  C   UNL A   1      39.107  27.472  30.008  1.00  0.00     0.031 C 
ATOM     38  C   UNL A   1      44.268  25.521  25.999  1.00  0.00     0.029 A 
ATOM     39  C   UNL A   1      44.376  26.822  26.640  1.00  0.00     0.049 A 
ATOM     40  H   UNL A   1      42.949  27.764  27.831  1.00  0.00     0.167 HD
ATOM     41  C   UNL A   1      40.070  29.748  30.260  1.00  0.00     0.031 A 
ATOM     42  C   UNL A   1      45.443  27.635  26.499  1.00  0.00     0.031 A 
ATOM     43  C   UNL A   1      41.062  30.769  30.017  1.00  0.00     0.049 A 
ATOM     44  C   UNL A   1      45.370  29.040  27.017  1.00  0.00     0.074 A 
ATOM     45  C   UNL A   1      41.096  32.074  30.488  1.00  0.00     0.029 A 
ATOM     46  N   UNL A   1      42.211  30.591  29.268  1.00  0.00    -0.354 N 
ATOM     47  N   UNL A   1      44.453  29.600  27.762  1.00  0.00    -0.248 NA
ATOM     48  C   UNL A   1      46.460  29.946  26.619  1.00  0.00     0.031 C 
ATOM     49  C   UNL A   1      42.244  32.697  29.986  1.00  0.00     0.029 A 
ATOM     50  C   UNL A   1      42.952  31.764  29.250  1.00  0.00     0.049 A 
ATOM     51  H   UNL A   1      42.467  29.756  28.815  1.00  0.00     0.167 HD
ATOM     52  C   UNL A   1      44.849  30.922  27.917  1.00  0.00     0.074 A 
ATOM     53  C   UNL A   1      46.109  31.072  27.222  1.00  0.00     0.031 C 
ATOM     54  C   UNL A   1      44.207  31.922  28.566  1.00  0.00     0.031 A 
BRANCH  41  55
ATOM     55  C   UNL A   1      38.901  30.120  31.135  1.00  0.00    -0.014 A 
ATOM     56  C   UNL A   1      38.934  29.985  32.530  1.00  0.00     0.009 A 
ATOM     57  C   UNL A   1      37.758  30.675  30.534  1.00  0.00     0.009 A 
ATOM     58  C   UNL A   1      37.831  30.369  33.300  1.00  0.00     0.001 A 
ATOM     59  C   UNL A   1      36.669  31.082  31.307  1.00  0.00     0.001 A 
ATOM     60  C   UNL A   1      36.703  30.919  32.689  1.00  0.00     0.000 A 
ENDBRANCH  41  55
BRANCH  42  61
ATOM     61  C   UNL A   1      46.620  27.201  25.693  1.00  0.00    -0.014 A 
ATOM     62  C   UNL A   1      47.641  26.429  26.266  1.00  0.00     0.009 A 
ATOM     63  C   UNL A   1      46.742  27.588  24.346  1.00  0.00     0.009 A 
ATOM     64  C   UNL A   1      48.759  26.064  25.511  1.00  0.00     0.001 A 
ATOM     65  C   UNL A   1      47.837  27.185  23.583  1.00  0.00     0.001 A 
ATOM     66  C   UNL A   1      48.850  26.432  24.169  1.00  0.00     0.000 A 
ENDBRANCH  42  61
BRANCH  54  67
ATOM     67  C   UNL A   1      44.879  33.265  28.589  1.00  0.00    -0.014 A 
ATOM     68  C   UNL A   1      45.798  33.602  29.596  1.00  0.00     0.009 A 
ATOM     69  C   UNL A   1      44.602  34.203  27.583  1.00  0.00     0.009 A 
ATOM     70  C   UNL A   1      46.403  34.861  29.610  1.00  0.00     0.001 A 
ATOM     71  C   UNL A   1      45.226  35.452  27.585  1.00  0.00     0.001 A 
ATOM     72  C   UNL A   1      46.119  35.782  28.602  1.00  0.00     0.000 A 
ENDBRANCH  54  67
ENDBRANCH  28  29
ENDBRANCH  21  23
ENDBRANCH  20  21
ENDBRANCH   1  20
TORSDOF 11
ENDMDL
MODEL 3
REMARK VINA RESULT:     -11.1      1.365      2.060
REMARK SMILES CC1=CC2=[NH+]C(=O)C[C@@](C)(C(=O)OCCOC(=O)c3ccc(-c4c5nc(c(-c6ccccc6)c6ccc([nH]6)c(-c6ccccc6)c6nc(c(-c7ccccc7)c7ccc4[nH]7)C=C6)C=C5)cc3)N2C=C1
REMARK SMILES IDX 15 1 14 2 13 3 11 4 12 5 9 6 1 7 2 8 3 9 69 10 4 11 68 12
REMARK SMILES IDX 5 13 67 14 6 15 7 17 8 18 10 19 16 20 17 21 18 22 19 23
REMARK SMILES IDX 20 24 66 25 21 26 65 27 22 28 23 29 24 30 59 31 25 32 64 33
REMARK SMILES IDX 58 34 60 35 26 36 63 37 57 38 56 39 27 41 49 42 34 43 48 44
REMARK SMILES IDX 35 45 38 46 47 47 61 48 36 49 37 50 46 52 62 53 39 54 28 55
REMARK SMILES IDX 29 56 33 57 30 58 32 59 31 60 50 61 51 62 55 63 52 64 54 65
REMARK SMILES IDX 53 66 40 67 41 68 45 69 42 70 44 71 43 72
REMARK H PARENT 5 16 60 40 38 51
REMARK Flexibility Score: inf
ROOT
ATOM      1  C   UNL A   1      31.431  29.773  25.087  1.00  0.00     0.275 C 
ENDROOT
BRANCH   1   2
ATOM      2  C   UNL A   1      32.273  28.817  24.214  1.00  0.00     0.274 C 
BRANCH   2   3
ATOM      3  O   UNL A   1      31.904  27.448  24.521  1.00  0.00    -0.459 OA
BRANCH   3   4
ATOM      4  C   UNL A   1      31.454  26.638  23.502  1.00  0.00     0.355 C 
ATOM      5  O   UNL A   1      31.226  27.031  22.367  1.00  0.00    -0.247 OA
BRANCH   4   6
ATOM      6  C   UNL A   1      31.395  25.160  24.006  1.00  0.00     0.216 C 
ATOM      7  C   UNL A   1      36.698  22.821  24.255  1.00  0.00     0.045 C 
ATOM      8  C   UNL A   1      35.385  23.512  24.040  1.00  0.00    -0.039 C 
ATOM      9  C   UNL A   1      35.077  24.574  24.801  1.00  0.00     0.102 C 
ATOM     10  C   UNL A   1      34.391  22.947  23.129  1.00  0.00     0.047 C 
ATOM     11  C   UNL A   1      33.616  24.763  24.971  1.00  0.00     0.282 C 
ATOM     12  C   UNL A   1      33.157  23.492  23.051  1.00  0.00     0.202 C 
ATOM     13  N   UNL A   1      33.231  24.946  26.196  1.00  0.00    -0.210 N 
ATOM     14  N   UNL A   1      32.737  24.496  23.928  1.00  0.00    -0.217 N 
ATOM     15  C   UNL A   1      31.921  24.644  26.412  1.00  0.00     0.312 C 
ATOM     16  H   UNL A   1      33.832  25.271  26.904  1.00  0.00     0.315 HD
ATOM     17  O   UNL A   1      31.538  23.976  27.365  1.00  0.00    -0.247 OA
ATOM     18  C   UNL A   1      30.952  25.277  25.480  1.00  0.00     0.193 C 
ATOM     19  C   UNL A   1      30.327  24.397  23.211  1.00  0.00     0.076 C 
ENDBRANCH   4   6
ENDBRANCH   3   4
ENDBRANCH   2   3
ENDBRANCH   1   2
BRANCH   1  20
ATOM     20  O   UNL A   1      32.043  29.849  26.391  1.00  0.00    -0.458 OA
BRANCH  20  21
ATOM     21  C   UNL A   1      32.459  31.067  26.842  1.00  0.00     0.338 C 
ATOM     22  O   UNL A   1      31.805  32.089  26.840  1.00  0.00    -0.246 OA
BRANCH  21  23
ATOM     23  C   UNL A   1      33.832  30.924  27.427  1.00  0.00     0.060 A 
ATOM     24  C   UNL A   1      34.348  29.656  27.650  1.00  0.00     0.016 A 
ATOM     25  C   UNL A   1      34.588  32.025  27.854  1.00  0.00     0.016 A 
ATOM     26  C   UNL A   1      35.527  29.494  28.375  1.00  0.00     0.010 A 
ATOM     27  C   UNL A   1      35.836  31.842  28.511  1.00  0.00     0.010 A 
ATOM     28  C   UNL A   1      36.323  30.558  28.815  1.00  0.00    -0.014 A 
BRANCH  28  29
ATOM     29  C   UNL A   1      37.591  30.276  29.595  1.00  0.00     0.031 A 
ATOM     30  C   UNL A   1      38.777  29.557  28.974  1.00  0.00     0.074 A 
ATOM     31  C   UNL A   1      37.776  30.749  30.854  1.00  0.00     0.049 A 
ATOM     32  N   UNL A   1      39.823  29.025  29.567  1.00  0.00    -0.248 NA
ATOM     33  C   UNL A   1      38.799  29.425  27.510  1.00  0.00     0.031 C 
ATOM     34  C   UNL A   1      36.828  31.566  31.616  1.00  0.00     0.029 A 
ATOM     35  N   UNL A   1      38.856  30.650  31.709  1.00  0.00    -0.354 N 
ATOM     36  C   UNL A   1      40.577  28.423  28.564  1.00  0.00     0.074 A 
ATOM     37  C   UNL A   1      39.886  28.686  27.316  1.00  0.00     0.031 C 
ATOM     38  C   UNL A   1      37.412  32.006  32.737  1.00  0.00     0.029 A 
ATOM     39  C   UNL A   1      38.689  31.328  32.895  1.00  0.00     0.049 A 
ATOM     40  H   UNL A   1      39.671  30.142  31.490  1.00  0.00     0.167 HD
ATOM     41  C   UNL A   1      41.722  27.700  28.669  1.00  0.00     0.031 A 
ATOM     42  C   UNL A   1      39.405  31.345  34.038  1.00  0.00     0.031 A 
ATOM     43  C   UNL A   1      42.459  27.489  29.892  1.00  0.00     0.049 A 
ATOM     44  C   UNL A   1      40.593  30.442  34.176  1.00  0.00     0.074 A 
ATOM     45  C   UNL A   1      43.588  26.709  30.099  1.00  0.00     0.029 A 
ATOM     46  N   UNL A   1      42.167  28.087  31.105  1.00  0.00    -0.354 N 
ATOM     47  N   UNL A   1      41.182  29.707  33.269  1.00  0.00    -0.248 NA
ATOM     48  C   UNL A   1      41.180  30.325  35.521  1.00  0.00     0.031 C 
ATOM     49  C   UNL A   1      43.951  26.801  31.448  1.00  0.00     0.029 A 
ATOM     50  C   UNL A   1      43.081  27.682  32.067  1.00  0.00     0.049 A 
ATOM     51  H   UNL A   1      41.420  28.708  31.263  1.00  0.00     0.167 HD
ATOM     52  C   UNL A   1      42.203  29.038  33.931  1.00  0.00     0.074 A 
ATOM     53  C   UNL A   1      42.178  29.481  35.308  1.00  0.00     0.031 C 
ATOM     54  C   UNL A   1      43.068  28.121  33.437  1.00  0.00     0.031 A 
BRANCH  41  55
ATOM     55  C   UNL A   1      42.215  26.989  27.436  1.00  0.00    -0.014 A 
ATOM     56  C   UNL A   1      41.741  25.726  27.057  1.00  0.00     0.009 A 
ATOM     57  C   UNL A   1      43.142  27.643  26.606  1.00  0.00     0.009 A 
ATOM     58  C   UNL A   1      42.213  25.118  25.888  1.00  0.00     0.001 A 
ATOM     59  C   UNL A   1      43.591  27.046  25.426  1.00  0.00     0.001 A 
ATOM     60  C   UNL A   1      43.133  25.780  25.074  1.00  0.00     0.000 A 
ENDBRANCH  41  55
BRANCH  42  61
ATOM     61  C   UNL A   1      38.927  32.128  35.214  1.00  0.00    -0.014 A 
ATOM     62  C   UNL A   1      39.261  33.482  35.362  1.00  0.00     0.009 A 
ATOM     63  C   UNL A   1      38.156  31.510  36.215  1.00  0.00     0.009 A 
ATOM     64  C   UNL A   1      38.843  34.194  36.490  1.00  0.00     0.001 A 
ATOM     65  C   UNL A   1      37.702  32.234  37.317  1.00  0.00     0.001 A 
ATOM     66  C   UNL A   1      38.055  33.573  37.459  1.00  0.00     0.000 A 
ENDBRANCH  42  61
BRANCH  54  67
ATOM     67  C   UNL A   1      44.091  27.563  34.384  1.00  0.00    -0.014 A 
ATOM     68  C   UNL A   1      45.325  28.204  34.582  1.00  0.00     0.009 A 
ATOM     69  C   UNL A   1      43.813  26.390  35.101  1.00  0.00     0.009 A 
ATOM     70  C   UNL A   1      46.270  27.664  35.457  1.00  0.00     0.001 A 
ATOM     71  C   UNL A   1      44.750  25.864  35.993  1.00  0.00     0.001 A 
ATOM     72  C   UNL A   1      45.980  26.497  36.164  1.00  0.00     0.000 A 
ENDBRANCH  54  67
ENDBRANCH  28  29
ENDBRANCH  21  23
ENDBRANCH  20  21
ENDBRANCH   1  20
TORSDOF 11
ENDMDL
