MODEL 1
REMARK VINA RESULT:     -10.4      0.000      0.000
REMARK SMILES Cc1cscc1C(=O)N1CC[C@H](C(=O)OCCOC(=O)c2ccc(-c3c4nc(c(-c5ccccc5)c5ccc([nH]5)c(-c5ccccc5)c5nc(c(-c6ccccc6)c6ccc3[nH]6)C=C5)C=C4)cc2)[C@H]1C
REMARK SMILES IDX 16 1 15 2 13 3 14 4 12 5 9 6 10 7 69 8 11 9 70 10 7 11 8 12
REMARK SMILES IDX 6 13 1 14 2 15 3 16 4 17 5 18 17 19 18 20 19 21 20 22 21 23
REMARK SMILES IDX 22 24 68 25 23 26 67 27 24 28 25 29 26 30 61 31 27 32 66 33
REMARK SMILES IDX 60 34 62 35 28 36 65 37 59 38 58 39 29 41 51 42 36 43 50 44
REMARK SMILES IDX 37 45 40 46 49 47 63 48 38 49 39 50 48 52 64 53 41 54 30 55
REMARK SMILES IDX 31 56 35 57 32 58 34 59 33 60 52 61 53 62 57 63 54 64 56 65
REMARK SMILES IDX 55 66 42 67 43 68 47 69 44 70 46 71 45 72
REMARK H PARENT 62 40 40 51
REMARK Flexibility Score: inf
ROOT
ATOM      1  C   UNL A   1      36.371  22.732  23.570  1.00  0.00     0.274 C 
ENDROOT
BRANCH   1   2
ATOM      2  O   UNL A   1      35.360  23.571  24.169  1.00  0.00    -0.462 OA
BRANCH   2   3
ATOM      3  C   UNL A   1      34.353  23.983  23.349  1.00  0.00     0.311 C 
ATOM      4  O   UNL A   1      33.928  23.345  22.398  1.00  0.00    -0.252 OA
BRANCH   3   5
ATOM      5  C   UNL A   1      33.861  25.366  23.749  1.00  0.00     0.123 C 
ATOM      6  N   UNL A   1      32.090  25.148  25.362  1.00  0.00    -0.335 N 
ATOM      7  C   UNL A   1      31.497  25.100  24.030  1.00  0.00     0.121 C 
ATOM      8  C   UNL A   1      33.526  25.439  25.243  1.00  0.00     0.096 C 
ATOM      9  C   UNL A   1      32.532  25.694  23.081  1.00  0.00     0.039 C 
ATOM     10  C   UNL A   1      33.851  26.810  25.829  1.00  0.00     0.032 C 
BRANCH   6  11
ATOM     11  C   UNL A   1      31.714  24.110  26.216  1.00  0.00     0.255 C 
ATOM     12  O   UNL A   1      30.942  24.312  27.153  1.00  0.00    -0.269 OA
BRANCH  11  13
ATOM     13  C   UNL A   1      32.248  22.766  25.952  1.00  0.00     0.053 A 
ATOM     14  C   UNL A   1      34.220  22.474  27.680  1.00  0.00     0.046 C 
ATOM     15  C   UNL A   1      33.342  22.029  26.559  1.00  0.00    -0.028 A 
ATOM     16  C   UNL A   1      33.525  20.803  25.939  1.00  0.00     0.069 A 
ATOM     17  S   UNL A   1      32.405  20.497  24.695  1.00  0.00    -0.151 S 
ATOM     18  C   UNL A   1      31.662  22.005  24.947  1.00  0.00     0.079 A 
ENDBRANCH  11  13
ENDBRANCH   6  11
ENDBRANCH   3   5
ENDBRANCH   2   3
ENDBRANCH   1   2
BRANCH   1  19
ATOM     19  C   UNL A   1      36.508  21.424  24.343  1.00  0.00     0.275 C 
BRANCH  19  20
ATOM     20  O   UNL A   1      37.031  21.680  25.659  1.00  0.00    -0.458 OA
BRANCH  20  21
ATOM     21  C   UNL A   1      38.352  21.451  25.806  1.00  0.00     0.338 C 
ATOM     22  O   UNL A   1      38.994  20.487  25.413  1.00  0.00    -0.246 OA
BRANCH  21  23
ATOM     23  C   UNL A   1      38.987  22.580  26.496  1.00  0.00     0.060 A 
ATOM     24  C   UNL A   1      38.425  23.844  26.371  1.00  0.00     0.016 A 
ATOM     25  C   UNL A   1      40.235  22.422  27.096  1.00  0.00     0.016 A 
ATOM     26  C   UNL A   1      39.176  24.971  26.700  1.00  0.00     0.010 A 
ATOM     27  C   UNL A   1      40.923  23.551  27.558  1.00  0.00     0.010 A 
ATOM     28  C   UNL A   1      40.431  24.847  27.317  1.00  0.00    -0.014 A 
BRANCH  28  29
ATOM     29  C   UNL A   1      41.240  26.051  27.682  1.00  0.00     0.031 A 
ATOM     30  C   UNL A   1      40.700  27.067  28.662  1.00  0.00     0.074 A 
ATOM     31  C   UNL A   1      42.461  26.260  27.148  1.00  0.00     0.049 A 
ATOM     32  N   UNL A   1      41.117  28.285  28.908  1.00  0.00    -0.248 NA
ATOM     33  C   UNL A   1      39.527  26.669  29.456  1.00  0.00     0.031 C 
ATOM     34  C   UNL A   1      43.163  25.359  26.231  1.00  0.00     0.029 A 
ATOM     35  N   UNL A   1      43.336  27.307  27.311  1.00  0.00    -0.354 N 
ATOM     36  C   UNL A   1      40.212  28.823  29.815  1.00  0.00     0.074 A 
ATOM     37  C   UNL A   1      39.233  27.794  30.094  1.00  0.00     0.031 C 
ATOM     38  C   UNL A   1      44.377  25.862  25.960  1.00  0.00     0.029 A 
ATOM     39  C   UNL A   1      44.499  27.169  26.593  1.00  0.00     0.049 A 
ATOM     40  H   UNL A   1      43.148  28.083  27.887  1.00  0.00     0.167 HD
ATOM     41  C   UNL A   1      40.190  30.064  30.359  1.00  0.00     0.031 A 
ATOM     42  C   UNL A   1      45.533  28.012  26.411  1.00  0.00     0.031 A 
ATOM     43  C   UNL A   1      41.200  31.067  30.147  1.00  0.00     0.049 A 
ATOM     44  C   UNL A   1      45.491  29.381  27.020  1.00  0.00     0.074 A 
ATOM     45  C   UNL A   1      41.258  32.356  30.654  1.00  0.00     0.029 A 
ATOM     46  N   UNL A   1      42.347  30.882  29.394  1.00  0.00    -0.354 N 
ATOM     47  N   UNL A   1      44.568  29.917  27.780  1.00  0.00    -0.248 NA
ATOM     48  C   UNL A   1      46.620  30.273  26.718  1.00  0.00     0.031 C 
ATOM     49  C   UNL A   1      42.435  32.956  30.192  1.00  0.00     0.029 A 
ATOM     50  C   UNL A   1      43.121  32.030  29.425  1.00  0.00     0.049 A 
ATOM     51  H   UNL A   1      42.578  30.057  28.908  1.00  0.00     0.167 HD
ATOM     52  C   UNL A   1      45.004  31.207  28.047  1.00  0.00     0.074 A 
ATOM     53  C   UNL A   1      46.283  31.368  27.387  1.00  0.00     0.031 C 
ATOM     54  C   UNL A   1      44.391  32.176  28.766  1.00  0.00     0.031 A 
BRANCH  41  55
ATOM     55  C   UNL A   1      39.007  30.431  31.209  1.00  0.00    -0.014 A 
ATOM     56  C   UNL A   1      39.005  30.227  32.596  1.00  0.00     0.009 A 
ATOM     57  C   UNL A   1      37.894  31.039  30.607  1.00  0.00     0.009 A 
ATOM     58  C   UNL A   1      37.898  30.605  33.361  1.00  0.00     0.001 A 
ATOM     59  C   UNL A   1      36.798  31.434  31.376  1.00  0.00     0.001 A 
ATOM     60  C   UNL A   1      36.799  31.210  32.751  1.00  0.00     0.000 A 
ENDBRANCH  41  55
BRANCH  42  61
ATOM     61  C   UNL A   1      46.671  27.602  25.550  1.00  0.00    -0.014 A 
ATOM     62  C   UNL A   1      47.708  26.815  26.070  1.00  0.00     0.009 A 
ATOM     63  C   UNL A   1      46.711  27.978  24.198  1.00  0.00     0.009 A 
ATOM     64  C   UNL A   1      48.770  26.421  25.254  1.00  0.00     0.001 A 
ATOM     65  C   UNL A   1      47.761  27.559  23.378  1.00  0.00     0.001 A 
ATOM     66  C   UNL A   1      48.791  26.787  23.909  1.00  0.00     0.000 A 
ENDBRANCH  42  61
BRANCH  54  67
ATOM     67  C   UNL A   1      45.108  33.485  28.897  1.00  0.00    -0.014 A 
ATOM     68  C   UNL A   1      46.027  33.703  29.935  1.00  0.00     0.009 A 
ATOM     69  C   UNL A   1      44.882  34.501  27.956  1.00  0.00     0.009 A 
ATOM     70  C   UNL A   1      46.689  34.927  30.042  1.00  0.00     0.001 A 
ATOM     71  C   UNL A   1      45.559  35.717  28.058  1.00  0.00     0.001 A 
ATOM     72  C   UNL A   1      46.456  35.931  29.103  1.00  0.00     0.000 A 
ENDBRANCH  54  67
ENDBRANCH  28  29
ENDBRANCH  21  23
ENDBRANCH  20  21
ENDBRANCH  19  20
ENDBRANCH   1  19
TORSDOF 13
ENDMDL
MODEL 2
REMARK VINA RESULT:     -10.4      1.652      2.660
REMARK SMILES Cc1cscc1C(=O)N1CC[C@H](C(=O)OCCOC(=O)c2ccc(-c3c4nc(c(-c5ccccc5)c5ccc([nH]5)c(-c5ccccc5)c5nc(c(-c6ccccc6)c6ccc3[nH]6)C=C5)C=C4)cc2)[C@H]1C
REMARK SMILES IDX 16 1 15 2 13 3 14 4 12 5 9 6 10 7 69 8 11 9 70 10 7 11 8 12
REMARK SMILES IDX 6 13 1 14 2 15 3 16 4 17 5 18 17 19 18 20 19 21 20 22 21 23
REMARK SMILES IDX 22 24 68 25 23 26 67 27 24 28 25 29 26 30 61 31 27 32 66 33
REMARK SMILES IDX 60 34 62 35 28 36 65 37 59 38 58 39 29 41 51 42 36 43 50 44
REMARK SMILES IDX 37 45 40 46 49 47 63 48 38 49 39 50 48 52 64 53 41 54 30 55
REMARK SMILES IDX 31 56 35 57 32 58 34 59 33 60 52 61 53 62 57 63 54 64 56 65
REMARK SMILES IDX 55 66 42 67 43 68 47 69 44 70 46 71 45 72
REMARK H PARENT 62 40 40 51
REMARK Flexibility Score: inf
ROOT
ATOM      1  C   UNL A   1      35.142  21.444  26.197  1.00  0.00     0.274 C 
ENDROOT
BRANCH   1   2
ATOM      2  O   UNL A   1      33.867  21.972  25.773  1.00  0.00    -0.462 OA
BRANCH   2   3
ATOM      3  C   UNL A   1      33.794  23.322  25.612  1.00  0.00     0.311 C 
ATOM      4  O   UNL A   1      33.997  24.138  26.499  1.00  0.00    -0.252 OA
BRANCH   3   5
ATOM      5  C   UNL A   1      33.383  23.676  24.192  1.00  0.00     0.123 C 
ATOM      6  N   UNL A   1      31.426  25.074  24.251  1.00  0.00    -0.335 N 
ATOM      7  C   UNL A   1      30.988  23.684  24.248  1.00  0.00     0.121 C 
ATOM      8  C   UNL A   1      32.887  25.122  24.088  1.00  0.00     0.096 C 
ATOM      9  C   UNL A   1      32.172  22.864  23.749  1.00  0.00     0.039 C 
ATOM     10  C   UNL A   1      33.261  25.755  22.750  1.00  0.00     0.032 C 
BRANCH   6  11
ATOM     11  C   UNL A   1      30.866  25.871  25.251  1.00  0.00     0.255 C 
ATOM     12  O   UNL A   1      30.281  25.365  26.207  1.00  0.00    -0.269 OA
BRANCH  11  13
ATOM     13  C   UNL A   1      31.014  27.330  25.141  1.00  0.00     0.053 A 
ATOM     14  C   UNL A   1      29.773  27.966  22.901  1.00  0.00     0.046 C 
ATOM     15  C   UNL A   1      30.563  28.269  24.129  1.00  0.00    -0.028 A 
ATOM     16  C   UNL A   1      30.990  29.557  24.416  1.00  0.00     0.069 A 
ATOM     17  S   UNL A   1      31.865  29.674  25.870  1.00  0.00    -0.151 S 
ATOM     18  C   UNL A   1      31.708  28.003  26.139  1.00  0.00     0.079 A 
ENDBRANCH  11  13
ENDBRANCH   6  11
ENDBRANCH   3   5
ENDBRANCH   2   3
ENDBRANCH   1   2
BRANCH   1  19
ATOM     19  C   UNL A   1      35.874  20.803  25.022  1.00  0.00     0.275 C 
BRANCH  19  20
ATOM     20  O   UNL A   1      37.077  21.536  24.730  1.00  0.00    -0.458 OA
BRANCH  20  21
ATOM     21  C   UNL A   1      38.183  21.103  25.369  1.00  0.00     0.338 C 
ATOM     22  O   UNL A   1      38.663  19.978  25.357  1.00  0.00    -0.246 OA
BRANCH  21  23
ATOM     23  C   UNL A   1      38.815  22.212  26.093  1.00  0.00     0.060 A 
ATOM     24  C   UNL A   1      38.263  23.483  25.989  1.00  0.00     0.016 A 
ATOM     25  C   UNL A   1      40.052  22.032  26.708  1.00  0.00     0.016 A 
ATOM     26  C   UNL A   1      39.016  24.597  26.355  1.00  0.00     0.010 A 
ATOM     27  C   UNL A   1      40.741  23.146  27.206  1.00  0.00     0.010 A 
ATOM     28  C   UNL A   1      40.261  24.450  26.987  1.00  0.00    -0.014 A 
BRANCH  28  29
ATOM     29  C   UNL A   1      41.072  25.640  27.391  1.00  0.00     0.031 A 
ATOM     30  C   UNL A   1      40.529  26.631  28.395  1.00  0.00     0.074 A 
ATOM     31  C   UNL A   1      42.298  25.858  26.872  1.00  0.00     0.049 A 
ATOM     32  N   UNL A   1      40.949  27.840  28.677  1.00  0.00    -0.248 NA
ATOM     33  C   UNL A   1      39.348  26.216  29.169  1.00  0.00     0.031 C 
ATOM     34  C   UNL A   1      43.003  24.980  25.936  1.00  0.00     0.029 A 
ATOM     35  N   UNL A   1      43.176  26.897  27.071  1.00  0.00    -0.354 N 
ATOM     36  C   UNL A   1      40.039  28.356  29.592  1.00  0.00     0.074 A 
ATOM     37  C   UNL A   1      39.054  27.325  29.835  1.00  0.00     0.031 C 
ATOM     38  C   UNL A   1      44.221  25.485  25.688  1.00  0.00     0.029 A 
ATOM     39  C   UNL A   1      44.344  26.773  26.357  1.00  0.00     0.049 A 
ATOM     40  H   UNL A   1      42.987  27.658  27.666  1.00  0.00     0.167 HD
ATOM     41  C   UNL A   1      40.019  29.582  30.170  1.00  0.00     0.031 A 
ATOM     42  C   UNL A   1      45.382  27.617  26.206  1.00  0.00     0.031 A 
ATOM     43  C   UNL A   1      41.034  30.587  29.993  1.00  0.00     0.049 A 
ATOM     44  C   UNL A   1      45.341  28.968  26.853  1.00  0.00     0.074 A 
ATOM     45  C   UNL A   1      41.094  31.860  30.536  1.00  0.00     0.029 A 
ATOM     46  N   UNL A   1      42.186  30.417  29.244  1.00  0.00    -0.354 N 
ATOM     47  N   UNL A   1      44.415  29.488  27.620  1.00  0.00    -0.248 NA
ATOM     48  C   UNL A   1      46.477  29.864  26.584  1.00  0.00     0.031 C 
ATOM     49  C   UNL A   1      42.276  32.468  30.099  1.00  0.00     0.029 A 
ATOM     50  C   UNL A   1      42.965  31.561  29.312  1.00  0.00     0.049 A 
ATOM     51  H   UNL A   1      42.417  29.605  28.737  1.00  0.00     0.167 HD
ATOM     52  C   UNL A   1      44.854  30.768  27.926  1.00  0.00     0.074 A 
ATOM     53  C   UNL A   1      46.139  30.941  27.280  1.00  0.00     0.031 C 
ATOM     54  C   UNL A   1      44.239  31.719  28.667  1.00  0.00     0.031 A 
BRANCH  41  55
ATOM     55  C   UNL A   1      38.831  29.931  31.020  1.00  0.00    -0.014 A 
ATOM     56  C   UNL A   1      38.837  29.736  32.409  1.00  0.00     0.009 A 
ATOM     57  C   UNL A   1      37.703  30.512  30.418  1.00  0.00     0.009 A 
ATOM     58  C   UNL A   1      37.724  30.096  33.175  1.00  0.00     0.001 A 
ATOM     59  C   UNL A   1      36.602  30.891  31.188  1.00  0.00     0.001 A 
ATOM     60  C   UNL A   1      36.611  30.675  32.564  1.00  0.00     0.000 A 
ENDBRANCH  41  55
BRANCH  42  61
ATOM     61  C   UNL A   1      46.525  27.225  25.343  1.00  0.00    -0.014 A 
ATOM     62  C   UNL A   1      46.703  27.820  24.086  1.00  0.00     0.009 A 
ATOM     63  C   UNL A   1      47.455  26.271  25.784  1.00  0.00     0.009 A 
ATOM     64  C   UNL A   1      47.786  27.459  23.283  1.00  0.00     0.001 A 
ATOM     65  C   UNL A   1      48.552  25.932  24.990  1.00  0.00     0.001 A 
ATOM     66  C   UNL A   1      48.713  26.522  23.739  1.00  0.00     0.000 A 
ENDBRANCH  42  61
BRANCH  54  67
ATOM     67  C   UNL A   1      44.961  33.021  28.839  1.00  0.00    -0.014 A 
ATOM     68  C   UNL A   1      44.662  34.125  28.025  1.00  0.00     0.009 A 
ATOM     69  C   UNL A   1      45.933  33.152  29.842  1.00  0.00     0.009 A 
ATOM     70  C   UNL A   1      45.341  35.331  28.199  1.00  0.00     0.001 A 
ATOM     71  C   UNL A   1      46.599  34.365  30.023  1.00  0.00     0.001 A 
ATOM     72  C   UNL A   1      46.307  35.451  29.198  1.00  0.00     0.000 A 
ENDBRANCH  54  67
ENDBRANCH  28  29
ENDBRANCH  21  23
ENDBRANCH  20  21
ENDBRANCH  19  20
ENDBRANCH   1  19
TORSDOF 13
ENDMDL
MODEL 3
REMARK VINA RESULT:     -10.3      1.573      2.534
REMARK SMILES Cc1cscc1C(=O)N1CC[C@H](C(=O)OCCOC(=O)c2ccc(-c3c4nc(c(-c5ccccc5)c5ccc([nH]5)c(-c5ccccc5)c5nc(c(-c6ccccc6)c6ccc3[nH]6)C=C5)C=C4)cc2)[C@H]1C
REMARK SMILES IDX 16 1 15 2 13 3 14 4 12 5 9 6 10 7 69 8 11 9 70 10 7 11 8 12
REMARK SMILES IDX 6 13 1 14 2 15 3 16 4 17 5 18 17 19 18 20 19 21 20 22 21 23
REMARK SMILES IDX 22 24 68 25 23 26 67 27 24 28 25 29 26 30 61 31 27 32 66 33
REMARK SMILES IDX 60 34 62 35 28 36 65 37 59 38 58 39 29 41 51 42 36 43 50 44
REMARK SMILES IDX 37 45 40 46 49 47 63 48 38 49 39 50 48 52 64 53 41 54 30 55
REMARK SMILES IDX 31 56 35 57 32 58 34 59 33 60 52 61 53 62 57 63 54 64 56 65
REMARK SMILES IDX 55 66 42 67 43 68 47 69 44 70 46 71 45 72
REMARK H PARENT 62 40 40 51
REMARK Flexibility Score: inf
ROOT
ATOM      1  C   UNL A   1      35.062  21.451  25.995  1.00  0.00     0.274 C 
ENDROOT
BRANCH   1   2
ATOM      2  O   UNL A   1      34.124  22.124  25.128  1.00  0.00    -0.462 OA
BRANCH   2   3
ATOM      3  C   UNL A   1      33.430  23.159  25.676  1.00  0.00     0.311 C 
ATOM      4  O   UNL A   1      32.370  23.044  26.274  1.00  0.00    -0.252 OA
BRANCH   3   5
ATOM      5  C   UNL A   1      34.127  24.483  25.403  1.00  0.00     0.123 C 
ATOM      6  N   UNL A   1      32.874  25.725  23.768  1.00  0.00    -0.335 N 
ATOM      7  C   UNL A   1      33.805  24.856  23.059  1.00  0.00     0.121 C 
ATOM      8  C   UNL A   1      33.123  25.626  25.214  1.00  0.00     0.096 C 
ATOM      9  C   UNL A   1      34.869  24.453  24.073  1.00  0.00     0.039 C 
ATOM     10  C   UNL A   1      33.657  26.946  25.763  1.00  0.00     0.032 C 
BRANCH   6  11
ATOM     11  C   UNL A   1      31.547  25.649  23.339  1.00  0.00     0.255 C 
ATOM     12  O   UNL A   1      31.008  24.561  23.144  1.00  0.00    -0.269 OA
BRANCH  11  13
ATOM     13  C   UNL A   1      30.806  26.905  23.149  1.00  0.00     0.053 A 
ATOM     14  C   UNL A   1      28.384  26.403  24.066  1.00  0.00     0.046 C 
ATOM     15  C   UNL A   1      29.430  27.263  23.441  1.00  0.00    -0.028 A 
ATOM     16  C   UNL A   1      29.152  28.559  23.030  1.00  0.00     0.069 A 
ATOM     17  S   UNL A   1      30.492  29.359  22.355  1.00  0.00    -0.151 S 
ATOM     18  C   UNL A   1      31.469  27.987  22.580  1.00  0.00     0.079 A 
ENDBRANCH  11  13
ENDBRANCH   6  11
ENDBRANCH   3   5
ENDBRANCH   2   3
ENDBRANCH   1   2
BRANCH   1  19
ATOM     19  C   UNL A   1      36.151  20.764  25.177  1.00  0.00     0.275 C 
BRANCH  19  20
ATOM     20  O   UNL A   1      37.270  21.651  25.000  1.00  0.00    -0.458 OA
BRANCH  20  21
ATOM     21  C   UNL A   1      38.402  21.280  25.632  1.00  0.00     0.338 C 
ATOM     22  O   UNL A   1      38.934  20.179  25.632  1.00  0.00    -0.246 OA
BRANCH  21  23
ATOM     23  C   UNL A   1      38.991  22.429  26.331  1.00  0.00     0.060 A 
ATOM     24  C   UNL A   1      38.464  23.694  26.104  1.00  0.00     0.016 A 
ATOM     25  C   UNL A   1      40.174  22.280  27.051  1.00  0.00     0.016 A 
ATOM     26  C   UNL A   1      39.200  24.824  26.455  1.00  0.00     0.010 A 
ATOM     27  C   UNL A   1      40.836  23.418  27.528  1.00  0.00     0.010 A 
ATOM     28  C   UNL A   1      40.391  24.709  27.190  1.00  0.00    -0.014 A 
BRANCH  28  29
ATOM     29  C   UNL A   1      41.182  25.917  27.579  1.00  0.00     0.031 A 
ATOM     30  C   UNL A   1      40.617  26.920  28.558  1.00  0.00     0.074 A 
ATOM     31  C   UNL A   1      42.411  26.141  27.068  1.00  0.00     0.049 A 
ATOM     32  N   UNL A   1      41.020  28.140  28.821  1.00  0.00    -0.248 NA
ATOM     33  C   UNL A   1      39.433  26.505  29.328  1.00  0.00     0.031 C 
ATOM     34  C   UNL A   1      43.137  25.254  26.156  1.00  0.00     0.029 A 
ATOM     35  N   UNL A   1      43.274  27.194  27.255  1.00  0.00    -0.354 N 
ATOM     36  C   UNL A   1      40.094  28.662  29.717  1.00  0.00     0.074 A 
ATOM     37  C   UNL A   1      39.119  27.622  29.970  1.00  0.00     0.031 C 
ATOM     38  C   UNL A   1      44.350  25.769  25.911  1.00  0.00     0.029 A 
ATOM     39  C   UNL A   1      44.451  27.071  26.556  1.00  0.00     0.049 A 
ATOM     40  H   UNL A   1      43.070  27.964  27.834  1.00  0.00     0.167 HD
ATOM     41  C   UNL A   1      40.052  29.898  30.271  1.00  0.00     0.031 A 
ATOM     42  C   UNL A   1      45.480  27.925  26.399  1.00  0.00     0.031 A 
ATOM     43  C   UNL A   1      41.057  30.912  30.084  1.00  0.00     0.049 A 
ATOM     44  C   UNL A   1      45.416  29.288  27.019  1.00  0.00     0.074 A 
ATOM     45  C   UNL A   1      41.095  32.196  30.603  1.00  0.00     0.029 A 
ATOM     46  N   UNL A   1      42.218  30.742  29.350  1.00  0.00    -0.354 N 
ATOM     47  N   UNL A   1      44.475  29.810  27.767  1.00  0.00    -0.248 NA
ATOM     48  C   UNL A   1      46.543  30.192  26.744  1.00  0.00     0.031 C 
ATOM     49  C   UNL A   1      42.274  32.810  30.167  1.00  0.00     0.029 A 
ATOM     50  C   UNL A   1      42.982  31.897  29.404  1.00  0.00     0.049 A 
ATOM     51  H   UNL A   1      42.465  29.924  28.862  1.00  0.00     0.167 HD
ATOM     52  C   UNL A   1      44.895  31.101  28.052  1.00  0.00     0.074 A 
ATOM     53  C   UNL A   1      46.185  31.279  27.416  1.00  0.00     0.031 C 
ATOM     54  C   UNL A   1      44.261  32.059  28.769  1.00  0.00     0.031 A 
BRANCH  41  55
ATOM     55  C   UNL A   1      38.852  30.248  31.103  1.00  0.00    -0.014 A 
ATOM     56  C   UNL A   1      38.853  30.100  32.497  1.00  0.00     0.009 A 
ATOM     57  C   UNL A   1      37.715  30.783  30.475  1.00  0.00     0.009 A 
ATOM     58  C   UNL A   1      37.728  30.460  33.244  1.00  0.00     0.001 A 
ATOM     59  C   UNL A   1      36.601  31.162  31.226  1.00  0.00     0.001 A 
ATOM     60  C   UNL A   1      36.606  30.993  32.608  1.00  0.00     0.000 A 
ENDBRANCH  41  55
BRANCH  42  61
ATOM     61  C   UNL A   1      46.637  27.531  25.555  1.00  0.00    -0.014 A 
ATOM     62  C   UNL A   1      47.683  26.769  26.093  1.00  0.00     0.009 A 
ATOM     63  C   UNL A   1      46.686  27.900  24.202  1.00  0.00     0.009 A 
ATOM     64  C   UNL A   1      48.762  26.390  25.292  1.00  0.00     0.001 A 
ATOM     65  C   UNL A   1      47.753  27.497  23.397  1.00  0.00     0.001 A 
ATOM     66  C   UNL A   1      48.792  26.748  23.945  1.00  0.00     0.000 A 
ENDBRANCH  42  61
BRANCH  54  67
ATOM     67  C   UNL A   1      44.965  33.373  28.923  1.00  0.00    -0.014 A 
ATOM     68  C   UNL A   1      45.862  33.591  29.981  1.00  0.00     0.009 A 
ATOM     69  C   UNL A   1      44.749  34.394  27.986  1.00  0.00     0.009 A 
ATOM     70  C   UNL A   1      46.512  34.819  30.109  1.00  0.00     0.001 A 
ATOM     71  C   UNL A   1      45.413  35.615  28.109  1.00  0.00     0.001 A 
ATOM     72  C   UNL A   1      46.289  35.828  29.173  1.00  0.00     0.000 A 
ENDBRANCH  54  67
ENDBRANCH  28  29
ENDBRANCH  21  23
ENDBRANCH  20  21
ENDBRANCH  19  20
ENDBRANCH   1  19
TORSDOF 13
ENDMDL
