MODEL 1
REMARK VINA RESULT:      -9.9      0.000      0.000
REMARK SMILES CSCc1ccc(C(=O)N2C[C@@H](O)C[C@@H]2C(=O)OCCOC(=O)c2ccc(-c3c4nc(c(-c5ccccc5)c5ccc([nH]5)c(-c5ccccc5)c5nc(c(-c6ccccc6)c6ccc3[nH]6)C=C5)C=C4)cc2)o1
REMARK SMILES IDX 19 1 18 2 16 3 17 4 15 5 10 6 11 7 12 8 14 9 8 10 9 11 7 12
REMARK SMILES IDX 4 13 5 14 72 15 6 16 3 17 2 18 1 19 13 20 20 22 21 23 22 24
REMARK SMILES IDX 23 25 24 26 25 27 71 28 26 29 70 30 27 31 28 32 29 33 64 34
REMARK SMILES IDX 30 35 69 36 63 37 65 38 31 39 68 40 62 41 61 42 32 44 54 45
REMARK SMILES IDX 39 46 53 47 40 48 43 49 52 50 66 51 41 52 42 53 51 55 67 56
REMARK SMILES IDX 44 57 33 58 34 59 38 60 35 61 37 62 36 63 55 64 56 65 60 66
REMARK SMILES IDX 57 67 59 68 58 69 45 70 46 71 50 72 47 73 49 74 48 75
REMARK H PARENT 13 21 65 43 43 54
REMARK Flexibility Score: inf
ROOT
ATOM      1  C   UNL A   1      32.941  25.219  22.766  1.00  0.00     0.274 C 
ENDROOT
BRANCH   1   2
ATOM      2  O   UNL A   1      33.154  24.240  23.793  1.00  0.00    -0.461 OA
BRANCH   2   3
ATOM      3  C   UNL A   1      33.771  24.679  24.927  1.00  0.00     0.329 C 
ATOM      4  O   UNL A   1      34.721  25.447  24.965  1.00  0.00    -0.250 OA
BRANCH   3   5
ATOM      5  C   UNL A   1      33.128  24.025  26.145  1.00  0.00     0.198 C 
ATOM      6  N   UNL A   1      32.756  22.619  25.963  1.00  0.00    -0.319 N 
ATOM      7  C   UNL A   1      31.459  22.373  26.534  1.00  0.00     0.152 C 
ATOM      8  C   UNL A   1      30.736  23.663  26.193  1.00  0.00     0.136 C 
ATOM      9  C   UNL A   1      31.803  24.717  26.505  1.00  0.00     0.071 C 
BRANCH   6  10
ATOM     10  C   UNL A   1      33.676  21.603  25.908  1.00  0.00     0.290 C 
ATOM     11  O   UNL A   1      34.512  21.486  26.802  1.00  0.00    -0.265 OA
BRANCH  10  12
ATOM     12  C   UNL A   1      33.410  20.608  24.885  1.00  0.00     0.191 A 
ATOM     13  C   UNL A   1      33.597  18.622  23.918  1.00  0.00     0.114 A 
ATOM     14  C   UNL A   1      32.463  19.213  23.400  1.00  0.00     0.047 A 
ATOM     15  O   UNL A   1      34.192  19.493  24.790  1.00  0.00    -0.455 OA
ATOM     16  C   UNL A   1      32.353  20.487  24.006  1.00  0.00     0.056 A 
BRANCH  13  17
ATOM     17  C   UNL A   1      34.249  17.290  23.784  1.00  0.00     0.144 C 
BRANCH  17  18
ATOM     18  S   UNL A   1      34.100  16.222  25.240  1.00  0.00    -0.157 SA
ATOM     19  C   UNL A   1      32.395  16.619  25.674  1.00  0.00     0.085 C 
ENDBRANCH  17  18
ENDBRANCH  13  17
ENDBRANCH  10  12
ENDBRANCH   6  10
BRANCH   8  20
ATOM     20  O   UNL A   1      29.545  23.869  26.924  1.00  0.00    -0.391 OA
ATOM     21  H   UNL A   1      28.782  23.680  26.357  1.00  0.00     0.211 HD
ENDBRANCH   8  20
ENDBRANCH   3   5
ENDBRANCH   2   3
ENDBRANCH   1   2
BRANCH   1  22
ATOM     22  C   UNL A   1      31.508  25.758  22.837  1.00  0.00     0.275 C 
BRANCH  22  23
ATOM     23  O   UNL A   1      31.470  27.168  23.153  1.00  0.00    -0.458 OA
BRANCH  23  24
ATOM     24  C   UNL A   1      30.880  27.492  24.335  1.00  0.00     0.338 C 
ATOM     25  O   UNL A   1      29.829  27.036  24.765  1.00  0.00    -0.246 OA
BRANCH  24  26
ATOM     26  C   UNL A   1      31.760  28.377  25.140  1.00  0.00     0.060 A 
ATOM     27  C   UNL A   1      31.579  28.410  26.529  1.00  0.00     0.016 A 
ATOM     28  C   UNL A   1      32.770  29.151  24.571  1.00  0.00     0.016 A 
ATOM     29  C   UNL A   1      32.491  29.091  27.357  1.00  0.00     0.010 A 
ATOM     30  C   UNL A   1      33.655  29.859  25.405  1.00  0.00     0.010 A 
ATOM     31  C   UNL A   1      33.588  29.761  26.811  1.00  0.00    -0.014 A 
BRANCH  31  32
ATOM     32  C   UNL A   1      34.591  30.491  27.653  1.00  0.00     0.031 A 
ATOM     33  C   UNL A   1      35.903  29.812  27.878  1.00  0.00     0.074 A 
ATOM     34  C   UNL A   1      34.398  31.695  28.244  1.00  0.00     0.049 A 
ATOM     35  N   UNL A   1      36.895  30.174  28.648  1.00  0.00    -0.248 NA
ATOM     36  C   UNL A   1      36.148  28.594  27.089  1.00  0.00     0.031 C 
ATOM     37  C   UNL A   1      33.309  32.623  27.989  1.00  0.00     0.029 A 
ATOM     38  N   UNL A   1      35.109  32.342  29.239  1.00  0.00    -0.354 N 
ATOM     39  C   UNL A   1      37.916  29.289  28.359  1.00  0.00     0.074 A 
ATOM     40  C   UNL A   1      37.389  28.303  27.440  1.00  0.00     0.031 C 
ATOM     41  C   UNL A   1      33.310  33.616  28.895  1.00  0.00     0.029 A 
ATOM     42  C   UNL A   1      34.451  33.435  29.775  1.00  0.00     0.049 A 
ATOM     43  H   UNL A   1      36.001  32.051  29.537  1.00  0.00     0.167 HD
ATOM     44  C   UNL A   1      39.203  29.333  28.767  1.00  0.00     0.031 A 
ATOM     45  C   UNL A   1      34.729  34.193  30.856  1.00  0.00     0.031 A 
ATOM     46  C   UNL A   1      39.720  30.253  29.737  1.00  0.00     0.049 A 
ATOM     47  C   UNL A   1      36.035  33.986  31.564  1.00  0.00     0.074 A 
ATOM     48  C   UNL A   1      41.003  30.339  30.244  1.00  0.00     0.029 A 
ATOM     49  N   UNL A   1      38.969  31.229  30.372  1.00  0.00    -0.354 N 
ATOM     50  N   UNL A   1      36.996  33.145  31.280  1.00  0.00    -0.248 NA
ATOM     51  C   UNL A   1      36.323  34.877  32.698  1.00  0.00     0.031 C 
ATOM     52  C   UNL A   1      41.013  31.323  31.237  1.00  0.00     0.029 A 
ATOM     53  C   UNL A   1      39.752  31.893  31.300  1.00  0.00     0.049 A 
ATOM     54  H   UNL A   1      38.021  31.421  30.191  1.00  0.00     0.167 HD
ATOM     55  C   UNL A   1      38.040  33.473  32.129  1.00  0.00     0.074 A 
ATOM     56  C   UNL A   1      37.576  34.549  32.980  1.00  0.00     0.031 C 
ATOM     57  C   UNL A   1      39.292  32.960  32.152  1.00  0.00     0.031 A 
BRANCH  44  58
ATOM     58  C   UNL A   1      40.115  28.328  28.140  1.00  0.00    -0.014 A 
ATOM     59  C   UNL A   1      40.355  27.097  28.776  1.00  0.00     0.009 A 
ATOM     60  C   UNL A   1      40.784  28.629  26.948  1.00  0.00     0.009 A 
ATOM     61  C   UNL A   1      41.288  26.205  28.249  1.00  0.00     0.001 A 
ATOM     62  C   UNL A   1      41.697  27.723  26.411  1.00  0.00     0.001 A 
ATOM     63  C   UNL A   1      41.958  26.520  27.068  1.00  0.00     0.000 A 
ENDBRANCH  44  58
BRANCH  45  64
ATOM     64  C   UNL A   1      33.789  35.219  31.393  1.00  0.00    -0.014 A 
ATOM     65  C   UNL A   1      34.003  36.592  31.203  1.00  0.00     0.009 A 
ATOM     66  C   UNL A   1      32.768  34.819  32.269  1.00  0.00     0.009 A 
ATOM     67  C   UNL A   1      33.216  37.532  31.883  1.00  0.00     0.001 A 
ATOM     68  C   UNL A   1      31.958  35.756  32.916  1.00  0.00     0.001 A 
ATOM     69  C   UNL A   1      32.191  37.115  32.731  1.00  0.00     0.000 A 
ENDBRANCH  45  64
BRANCH  57  70
ATOM     70  C   UNL A   1      40.286  33.611  33.066  1.00  0.00    -0.014 A 
ATOM     71  C   UNL A   1      40.442  33.209  34.400  1.00  0.00     0.009 A 
ATOM     72  C   UNL A   1      41.114  34.623  32.556  1.00  0.00     0.009 A 
ATOM     73  C   UNL A   1      41.400  33.821  35.209  1.00  0.00     0.001 A 
ATOM     74  C   UNL A   1      42.092  35.211  33.356  1.00  0.00     0.001 A 
ATOM     75  C   UNL A   1      42.229  34.814  34.684  1.00  0.00     0.000 A 
ENDBRANCH  57  70
ENDBRANCH  31  32
ENDBRANCH  24  26
ENDBRANCH  23  24
ENDBRANCH  22  23
ENDBRANCH   1  22
TORSDOF 16
ENDMDL
MODEL 2
REMARK VINA RESULT:      -9.8      4.432      9.699
REMARK SMILES CSCc1ccc(C(=O)N2C[C@@H](O)C[C@@H]2C(=O)OCCOC(=O)c2ccc(-c3c4nc(c(-c5ccccc5)c5ccc([nH]5)c(-c5ccccc5)c5nc(c(-c6ccccc6)c6ccc3[nH]6)C=C5)C=C4)cc2)o1
REMARK SMILES IDX 19 1 18 2 16 3 17 4 15 5 10 6 11 7 12 8 14 9 8 10 9 11 7 12
REMARK SMILES IDX 4 13 5 14 72 15 6 16 3 17 2 18 1 19 13 20 20 22 21 23 22 24
REMARK SMILES IDX 23 25 24 26 25 27 71 28 26 29 70 30 27 31 28 32 29 33 64 34
REMARK SMILES IDX 30 35 69 36 63 37 65 38 31 39 68 40 62 41 61 42 32 44 54 45
REMARK SMILES IDX 39 46 53 47 40 48 43 49 52 50 66 51 41 52 42 53 51 55 67 56
REMARK SMILES IDX 44 57 33 58 34 59 38 60 35 61 37 62 36 63 55 64 56 65 60 66
REMARK SMILES IDX 57 67 59 68 58 69 45 70 46 71 50 72 47 73 49 74 48 75
REMARK H PARENT 13 21 65 43 43 54
REMARK Flexibility Score: inf
ROOT
ATOM      1  C   UNL A   1      33.209  28.366  25.278  1.00  0.00     0.274 C 
ENDROOT
BRANCH   1   2
ATOM      2  O   UNL A   1      33.354  27.219  26.128  1.00  0.00    -0.461 OA
BRANCH   2   3
ATOM      3  C   UNL A   1      32.242  26.446  26.292  1.00  0.00     0.329 C 
ATOM      4  O   UNL A   1      31.290  26.716  27.009  1.00  0.00    -0.250 OA
BRANCH   3   5
ATOM      5  C   UNL A   1      32.389  25.162  25.482  1.00  0.00     0.198 C 
ATOM      6  N   UNL A   1      31.383  24.980  24.431  1.00  0.00    -0.319 N 
ATOM      7  C   UNL A   1      30.922  23.618  24.419  1.00  0.00     0.152 C 
ATOM      8  C   UNL A   1      30.904  23.298  25.903  1.00  0.00     0.136 C 
ATOM      9  C   UNL A   1      32.220  23.924  26.378  1.00  0.00     0.071 C 
BRANCH   6  10
ATOM     10  C   UNL A   1      31.375  25.708  23.269  1.00  0.00     0.290 C 
ATOM     11  O   UNL A   1      31.980  25.293  22.282  1.00  0.00    -0.265 OA
BRANCH  10  12
ATOM     12  C   UNL A   1      30.435  26.814  23.260  1.00  0.00     0.191 A 
ATOM     13  C   UNL A   1      29.618  28.751  22.557  1.00  0.00     0.114 A 
ATOM     14  C   UNL A   1      28.599  28.109  23.227  1.00  0.00     0.047 A 
ATOM     15  O   UNL A   1      30.745  27.976  22.616  1.00  0.00    -0.455 OA
ATOM     16  C   UNL A   1      29.125  26.879  23.690  1.00  0.00     0.056 A 
BRANCH  13  17
ATOM     17  C   UNL A   1      29.738  30.012  21.774  1.00  0.00     0.144 C 
BRANCH  17  18
ATOM     18  S   UNL A   1      28.176  30.893  21.510  1.00  0.00    -0.157 SA
ATOM     19  C   UNL A   1      28.060  31.695  23.121  1.00  0.00     0.085 C 
ENDBRANCH  17  18
ENDBRANCH  13  17
ENDBRANCH  10  12
ENDBRANCH   6  10
BRANCH   8  20
ATOM     20  O   UNL A   1      30.827  21.919  26.196  1.00  0.00    -0.391 OA
ATOM     21  H   UNL A   1      31.721  21.543  26.218  1.00  0.00     0.211 HD
ENDBRANCH   8  20
ENDBRANCH   3   5
ENDBRANCH   2   3
ENDBRANCH   1   2
BRANCH   1  22
ATOM     22  C   UNL A   1      33.312  29.652  26.105  1.00  0.00     0.275 C 
BRANCH  22  23
ATOM     23  O   UNL A   1      33.922  29.425  27.395  1.00  0.00    -0.458 OA
BRANCH  23  24
ATOM     24  C   UNL A   1      34.573  30.490  27.936  1.00  0.00     0.338 C 
ATOM     25  O   UNL A   1      34.070  31.564  28.239  1.00  0.00    -0.246 OA
BRANCH  24  26
ATOM     26  C   UNL A   1      35.977  30.140  28.269  1.00  0.00     0.060 A 
ATOM     27  C   UNL A   1      36.273  29.752  29.582  1.00  0.00     0.016 A 
ATOM     28  C   UNL A   1      37.000  30.157  27.322  1.00  0.00     0.016 A 
ATOM     29  C   UNL A   1      37.543  29.243  29.913  1.00  0.00     0.010 A 
ATOM     30  C   UNL A   1      38.278  29.681  27.671  1.00  0.00     0.010 A 
ATOM     31  C   UNL A   1      38.540  29.126  28.943  1.00  0.00    -0.014 A 
BRANCH  31  32
ATOM     32  C   UNL A   1      39.904  28.581  29.245  1.00  0.00     0.031 A 
ATOM     33  C   UNL A   1      40.905  29.542  29.801  1.00  0.00     0.074 A 
ATOM     34  C   UNL A   1      40.309  27.306  29.034  1.00  0.00     0.049 A 
ATOM     35  N   UNL A   1      42.174  29.357  30.046  1.00  0.00    -0.248 NA
ATOM     36  C   UNL A   1      40.391  30.869  30.180  1.00  0.00     0.031 C 
ATOM     37  C   UNL A   1      39.462  26.168  28.717  1.00  0.00     0.029 A 
ATOM     38  N   UNL A   1      41.574  26.747  29.012  1.00  0.00    -0.354 N 
ATOM     39  C   UNL A   1      42.586  30.502  30.701  1.00  0.00     0.074 A 
ATOM     40  C   UNL A   1      41.469  31.424  30.705  1.00  0.00     0.031 C 
ATOM     41  C   UNL A   1      40.208  25.105  28.366  1.00  0.00     0.029 A 
ATOM     42  C   UNL A   1      41.610  25.465  28.492  1.00  0.00     0.049 A 
ATOM     43  H   UNL A   1      42.375  27.219  29.336  1.00  0.00     0.167 HD
ATOM     44  C   UNL A   1      43.768  30.741  31.309  1.00  0.00     0.031 A 
ATOM     45  C   UNL A   1      42.651  24.678  28.146  1.00  0.00     0.031 A 
ATOM     46  C   UNL A   1      44.908  29.874  31.245  1.00  0.00     0.049 A 
ATOM     47  C   UNL A   1      44.038  25.126  28.495  1.00  0.00     0.074 A 
ATOM     48  C   UNL A   1      46.163  30.059  31.794  1.00  0.00     0.029 A 
ATOM     49  N   UNL A   1      44.940  28.667  30.563  1.00  0.00    -0.354 N 
ATOM     50  N   UNL A   1      44.416  26.214  29.116  1.00  0.00    -0.248 NA
ATOM     51  C   UNL A   1      45.136  24.208  28.156  1.00  0.00     0.031 C 
ATOM     52  C   UNL A   1      46.976  28.998  31.386  1.00  0.00     0.029 A 
ATOM     53  C   UNL A   1      46.208  28.119  30.639  1.00  0.00     0.049 A 
ATOM     54  H   UNL A   1      44.175  28.262  30.094  1.00  0.00     0.167 HD
ATOM     55  C   UNL A   1      45.776  26.064  29.334  1.00  0.00     0.074 A 
ATOM     56  C   UNL A   1      46.169  24.810  28.727  1.00  0.00     0.031 C 
ATOM     57  C   UNL A   1      46.605  26.875  30.032  1.00  0.00     0.031 A 
BRANCH  44  58
ATOM     58  C   UNL A   1      43.850  32.015  32.086  1.00  0.00    -0.014 A 
ATOM     59  C   UNL A   1      44.319  33.190  31.473  1.00  0.00     0.009 A 
ATOM     60  C   UNL A   1      43.518  32.033  33.446  1.00  0.00     0.009 A 
ATOM     61  C   UNL A   1      44.499  34.350  32.224  1.00  0.00     0.001 A 
ATOM     62  C   UNL A   1      43.676  33.204  34.187  1.00  0.00     0.001 A 
ATOM     63  C   UNL A   1      44.177  34.355  33.580  1.00  0.00     0.000 A 
ENDBRANCH  44  58
BRANCH  45  64
ATOM     64  C   UNL A   1      42.486  23.388  27.417  1.00  0.00    -0.014 A 
ATOM     65  C   UNL A   1      42.242  22.182  28.089  1.00  0.00     0.009 A 
ATOM     66  C   UNL A   1      42.768  23.339  26.043  1.00  0.00     0.009 A 
ATOM     67  C   UNL A   1      42.290  20.963  27.398  1.00  0.00     0.001 A 
ATOM     68  C   UNL A   1      42.777  22.128  25.346  1.00  0.00     0.001 A 
ATOM     69  C   UNL A   1      42.548  20.937  26.027  1.00  0.00     0.000 A 
ENDBRANCH  45  64
BRANCH  57  70
ATOM     70  C   UNL A   1      48.007  26.395  30.257  1.00  0.00    -0.014 A 
ATOM     71  C   UNL A   1      49.031  26.633  29.331  1.00  0.00     0.009 A 
ATOM     72  C   UNL A   1      48.309  25.726  31.455  1.00  0.00     0.009 A 
ATOM     73  C   UNL A   1      50.330  26.195  29.594  1.00  0.00     0.001 A 
ATOM     74  C   UNL A   1      49.613  25.319  31.730  1.00  0.00     0.001 A 
ATOM     75  C   UNL A   1      50.621  25.548  30.796  1.00  0.00     0.000 A 
ENDBRANCH  57  70
ENDBRANCH  31  32
ENDBRANCH  24  26
ENDBRANCH  23  24
ENDBRANCH  22  23
ENDBRANCH   1  22
TORSDOF 16
ENDMDL
MODEL 3
REMARK VINA RESULT:      -9.7      4.973     10.433
REMARK SMILES CSCc1ccc(C(=O)N2C[C@@H](O)C[C@@H]2C(=O)OCCOC(=O)c2ccc(-c3c4nc(c(-c5ccccc5)c5ccc([nH]5)c(-c5ccccc5)c5nc(c(-c6ccccc6)c6ccc3[nH]6)C=C5)C=C4)cc2)o1
REMARK SMILES IDX 19 1 18 2 16 3 17 4 15 5 10 6 11 7 12 8 14 9 8 10 9 11 7 12
REMARK SMILES IDX 4 13 5 14 72 15 6 16 3 17 2 18 1 19 13 20 20 22 21 23 22 24
REMARK SMILES IDX 23 25 24 26 25 27 71 28 26 29 70 30 27 31 28 32 29 33 64 34
REMARK SMILES IDX 30 35 69 36 63 37 65 38 31 39 68 40 62 41 61 42 32 44 54 45
REMARK SMILES IDX 39 46 53 47 40 48 43 49 52 50 66 51 41 52 42 53 51 55 67 56
REMARK SMILES IDX 44 57 33 58 34 59 38 60 35 61 37 62 36 63 55 64 56 65 60 66
REMARK SMILES IDX 57 67 59 68 58 69 45 70 46 71 50 72 47 73 49 74 48 75
REMARK H PARENT 13 21 65 43 43 54
REMARK Flexibility Score: inf
ROOT
ATOM      1  C   UNL A   1      38.338  21.566  25.562  1.00  0.00     0.274 C 
ENDROOT
BRANCH   1   2
ATOM      2  O   UNL A   1      37.252  21.786  24.650  1.00  0.00    -0.461 OA
BRANCH   2   3
ATOM      3  C   UNL A   1      36.126  22.347  25.177  1.00  0.00     0.329 C 
ATOM      4  O   UNL A   1      36.079  23.020  26.197  1.00  0.00    -0.250 OA
BRANCH   3   5
ATOM      5  C   UNL A   1      34.919  21.963  24.328  1.00  0.00     0.198 C 
ATOM      6  N   UNL A   1      33.881  22.993  24.236  1.00  0.00    -0.319 N 
ATOM      7  C   UNL A   1      32.579  22.396  24.365  1.00  0.00     0.152 C 
ATOM      8  C   UNL A   1      32.848  21.321  25.403  1.00  0.00     0.136 C 
ATOM      9  C   UNL A   1      34.189  20.750  24.928  1.00  0.00     0.071 C 
BRANCH   6  10
ATOM     10  C   UNL A   1      34.029  24.141  23.499  1.00  0.00     0.290 C 
ATOM     11  O   UNL A   1      34.187  24.070  22.281  1.00  0.00    -0.265 OA
BRANCH  10  12
ATOM     12  C   UNL A   1      33.746  25.363  24.229  1.00  0.00     0.191 A 
ATOM     13  C   UNL A   1      32.632  27.227  24.669  1.00  0.00     0.114 A 
ATOM     14  C   UNL A   1      33.347  26.913  25.805  1.00  0.00     0.047 A 
ATOM     15  O   UNL A   1      32.912  26.304  23.699  1.00  0.00    -0.455 OA
ATOM     16  C   UNL A   1      34.071  25.731  25.519  1.00  0.00     0.056 A 
BRANCH  13  17
ATOM     17  C   UNL A   1      31.630  28.268  24.305  1.00  0.00     0.144 C 
BRANCH  17  18
ATOM     18  S   UNL A   1      30.477  27.785  22.993  1.00  0.00    -0.157 SA
ATOM     19  C   UNL A   1      30.266  29.406  22.231  1.00  0.00     0.085 C 
ENDBRANCH  17  18
ENDBRANCH  13  17
ENDBRANCH  10  12
ENDBRANCH   6  10
BRANCH   8  20
ATOM     20  O   UNL A   1      31.842  20.334  25.488  1.00  0.00    -0.391 OA
ATOM     21  H   UNL A   1      31.552  20.091  24.595  1.00  0.00     0.211 HD
ENDBRANCH   8  20
ENDBRANCH   3   5
ENDBRANCH   2   3
ENDBRANCH   1   2
BRANCH   1  22
ATOM     22  C   UNL A   1      38.956  20.183  25.324  1.00  0.00     0.275 C 
BRANCH  22  23
ATOM     23  O   UNL A   1      39.767  19.748  26.438  1.00  0.00    -0.458 OA
BRANCH  23  24
ATOM     24  C   UNL A   1      41.099  19.626  26.187  1.00  0.00     0.338 C 
ATOM     25  O   UNL A   1      41.637  18.708  25.584  1.00  0.00    -0.246 OA
BRANCH  24  26
ATOM     26  C   UNL A   1      41.830  20.848  26.607  1.00  0.00     0.060 A 
ATOM     27  C   UNL A   1      42.367  21.678  25.614  1.00  0.00     0.016 A 
ATOM     28  C   UNL A   1      41.979  21.211  27.944  1.00  0.00     0.016 A 
ATOM     29  C   UNL A   1      42.915  22.932  25.942  1.00  0.00     0.010 A 
ATOM     30  C   UNL A   1      42.563  22.451  28.267  1.00  0.00     0.010 A 
ATOM     31  C   UNL A   1      42.949  23.371  27.268  1.00  0.00    -0.014 A 
BRANCH  31  32
ATOM     32  C   UNL A   1      43.514  24.702  27.665  1.00  0.00     0.031 A 
ATOM     33  C   UNL A   1      42.532  25.797  27.929  1.00  0.00     0.074 A 
ATOM     34  C   UNL A   1      44.831  24.998  27.778  1.00  0.00     0.049 A 
ATOM     35  N   UNL A   1      42.757  27.060  28.181  1.00  0.00    -0.248 NA
ATOM     36  C   UNL A   1      41.114  25.404  27.968  1.00  0.00     0.031 C 
ATOM     37  C   UNL A   1      45.936  24.054  27.786  1.00  0.00     0.029 A 
ATOM     38  N   UNL A   1      45.482  26.215  27.867  1.00  0.00    -0.354 N 
ATOM     39  C   UNL A   1      41.522  27.587  28.508  1.00  0.00     0.074 A 
ATOM     40  C   UNL A   1      40.538  26.545  28.305  1.00  0.00     0.031 C 
ATOM     41  C   UNL A   1      47.112  24.700  27.701  1.00  0.00     0.029 A 
ATOM     42  C   UNL A   1      46.852  26.129  27.693  1.00  0.00     0.049 A 
ATOM     43  H   UNL A   1      45.014  27.064  28.039  1.00  0.00     0.167 HD
ATOM     44  C   UNL A   1      41.238  28.811  29.004  1.00  0.00     0.031 A 
ATOM     45  C   UNL A   1      47.787  27.090  27.535  1.00  0.00     0.031 A 
ATOM     46  C   UNL A   1      42.188  29.877  29.136  1.00  0.00     0.049 A 
ATOM     47  C   UNL A   1      47.385  28.522  27.721  1.00  0.00     0.074 A 
ATOM     48  C   UNL A   1      41.977  31.167  29.586  1.00  0.00     0.029 A 
ATOM     49  N   UNL A   1      43.526  29.786  28.786  1.00  0.00    -0.354 N 
ATOM     50  N   UNL A   1      46.212  29.010  28.032  1.00  0.00    -0.248 NA
ATOM     51  C   UNL A   1      48.450  29.530  27.601  1.00  0.00     0.031 C 
ATOM     52  C   UNL A   1      43.172  31.878  29.444  1.00  0.00     0.029 A 
ATOM     53  C   UNL A   1      44.143  31.011  28.968  1.00  0.00     0.049 A 
ATOM     54  H   UNL A   1      43.970  28.972  28.456  1.00  0.00     0.167 HD
ATOM     55  C   UNL A   1      46.417  30.364  28.246  1.00  0.00     0.074 A 
ATOM     56  C   UNL A   1      47.813  30.632  27.971  1.00  0.00     0.031 C 
ATOM     57  C   UNL A   1      45.529  31.283  28.690  1.00  0.00     0.031 A 
BRANCH  44  58
ATOM     58  C   UNL A   1      39.821  29.025  29.426  1.00  0.00    -0.014 A 
ATOM     59  C   UNL A   1      39.406  28.668  30.721  1.00  0.00     0.009 A 
ATOM     60  C   UNL A   1      38.882  29.525  28.515  1.00  0.00     0.009 A 
ATOM     61  C   UNL A   1      38.063  28.766  31.080  1.00  0.00     0.001 A 
ATOM     62  C   UNL A   1      37.544  29.645  28.888  1.00  0.00     0.001 A 
ATOM     63  C   UNL A   1      37.134  29.254  30.162  1.00  0.00     0.000 A 
ENDBRANCH  44  58
BRANCH  45  64
ATOM     64  C   UNL A   1      49.202  26.794  27.166  1.00  0.00    -0.014 A 
ATOM     65  C   UNL A   1      49.595  26.595  25.835  1.00  0.00     0.009 A 
ATOM     66  C   UNL A   1      50.130  26.520  28.182  1.00  0.00     0.009 A 
ATOM     67  C   UNL A   1      50.882  26.126  25.539  1.00  0.00     0.001 A 
ATOM     68  C   UNL A   1      51.426  26.090  27.886  1.00  0.00     0.001 A 
ATOM     69  C   UNL A   1      51.799  25.881  26.561  1.00  0.00     0.000 A 
ENDBRANCH  45  64
BRANCH  57  70
ATOM     70  C   UNL A   1      46.054  32.654  28.995  1.00  0.00    -0.014 A 
ATOM     71  C   UNL A   1      46.606  32.977  30.242  1.00  0.00     0.009 A 
ATOM     72  C   UNL A   1      46.032  33.628  27.984  1.00  0.00     0.009 A 
ATOM     73  C   UNL A   1      47.111  34.257  30.474  1.00  0.00     0.001 A 
ATOM     74  C   UNL A   1      46.567  34.895  28.207  1.00  0.00     0.001 A 
ATOM     75  C   UNL A   1      47.100  35.211  29.455  1.00  0.00     0.000 A 
ENDBRANCH  57  70
ENDBRANCH  31  32
ENDBRANCH  24  26
ENDBRANCH  23  24
ENDBRANCH  22  23
ENDBRANCH   1  22
TORSDOF 16
ENDMDL
