MODEL 1
REMARK VINA RESULT:     -10.7      0.000      0.000
REMARK SMILES CC(C)n1ncnc1C[C@@H](C(=O)OCCOC(=O)c1ccc(-c2c3nc(c(-c4ccccc4)c4ccc([nH]4)c(-c4ccccc4)c4nc(c(-c5ccccc5)c5ccc2[nH]5)C=C4)C=C3)cc1)c1cccc(Br)c1
REMARK SMILES IDX 14 1 13 2 11 3 12 4 10 5 9 6 8 7 4 8 5 9 6 10 7 11 2 12 1 13
REMARK SMILES IDX 3 14 67 15 68 16 73 17 69 18 71 19 70 20 72 21 15 22 16 23
REMARK SMILES IDX 17 24 18 25 19 26 20 27 66 28 21 29 65 30 22 31 23 32 24 33
REMARK SMILES IDX 59 34 25 35 64 36 58 37 60 38 26 39 63 40 57 41 56 42 27 44
REMARK SMILES IDX 49 45 34 46 48 47 35 48 38 49 47 50 61 51 36 52 37 53 46 55
REMARK SMILES IDX 62 56 39 57 28 58 29 59 33 60 30 61 32 62 31 63 50 64 51 65
REMARK SMILES IDX 55 66 52 67 54 68 53 69 40 70 41 71 45 72 42 73 44 74 43 75
REMARK H PARENT 60 43 38 54
REMARK Flexibility Score: inf
ROOT
ATOM      1  C   UNL A   1      33.766  29.630  26.569  1.00  0.00     0.274 C 
ENDROOT
BRANCH   1   2
ATOM      2  O   UNL A   1      33.443  28.452  27.328  1.00  0.00    -0.462 OA
BRANCH   2   3
ATOM      3  C   UNL A   1      32.247  27.860  27.128  1.00  0.00     0.313 C 
ATOM      4  O   UNL A   1      31.346  27.931  27.956  1.00  0.00    -0.252 OA
BRANCH   3   5
ATOM      5  C   UNL A   1      32.192  27.009  25.826  1.00  0.00     0.137 C 
BRANCH   5   6
ATOM      6  C   UNL A   1      30.773  26.844  25.192  1.00  0.00     0.097 C 
BRANCH   6   7
ATOM      7  C   UNL A   1      30.456  27.624  23.944  1.00  0.00     0.128 A 
ATOM      8  N   UNL A   1      31.002  27.512  22.677  1.00  0.00    -0.248 N 
ATOM      9  N   UNL A   1      30.334  28.322  21.814  1.00  0.00    -0.159 NA
ATOM     10  C   UNL A   1      29.399  28.862  22.582  1.00  0.00     0.246 A 
ATOM     11  N   UNL A   1      29.434  28.460  23.866  1.00  0.00    -0.220 NA
BRANCH   8  12
ATOM     12  C   UNL A   1      31.994  26.620  22.083  1.00  0.00     0.103 C 
ATOM     13  C   UNL A   1      33.427  27.059  22.442  1.00  0.00     0.033 C 
ATOM     14  C   UNL A   1      31.864  25.132  22.396  1.00  0.00     0.033 C 
ENDBRANCH   8  12
ENDBRANCH   6   7
ENDBRANCH   5   6
BRANCH   5  15
ATOM     15  C   UNL A   1      32.860  25.597  25.964  1.00  0.00    -0.032 A 
ATOM     16  C   UNL A   1      32.088  24.503  26.407  1.00  0.00     0.005 A 
ATOM     17  C   UNL A   1      34.207  25.318  25.657  1.00  0.00     0.020 A 
ATOM     18  C   UNL A   1      32.634  23.224  26.581  1.00  0.00     0.001 A 
ATOM     19  C   UNL A   1      34.743  24.028  25.789  1.00  0.00     0.018 A 
ATOM     20  C   UNL A   1      33.966  22.982  26.267  1.00  0.00     0.016 A 
ATOM     21  Br  UNL A   1      36.541  23.701  25.299  1.00  0.00    -0.051 Br
ENDBRANCH   5  15
ENDBRANCH   3   5
ENDBRANCH   2   3
ENDBRANCH   1   2
BRANCH   1  22
ATOM     22  C   UNL A   1      34.013  30.805  27.507  1.00  0.00     0.275 C 
BRANCH  22  23
ATOM     23  O   UNL A   1      35.418  31.057  27.657  1.00  0.00    -0.458 OA
BRANCH  23  24
ATOM     24  C   UNL A   1      35.738  31.672  28.813  1.00  0.00     0.338 C 
ATOM     25  O   UNL A   1      35.303  32.729  29.247  1.00  0.00    -0.246 OA
BRANCH  24  26
ATOM     26  C   UNL A   1      36.838  31.003  29.493  1.00  0.00     0.060 A 
ATOM     27  C   UNL A   1      38.099  31.615  29.464  1.00  0.00     0.016 A 
ATOM     28  C   UNL A   1      36.674  29.661  29.843  1.00  0.00     0.016 A 
ATOM     29  C   UNL A   1      39.224  30.842  29.672  1.00  0.00     0.010 A 
ATOM     30  C   UNL A   1      37.799  28.886  30.029  1.00  0.00     0.010 A 
ATOM     31  C   UNL A   1      39.064  29.472  29.886  1.00  0.00    -0.014 A 
BRANCH  31  32
ATOM     32  C   UNL A   1      40.255  28.642  29.964  1.00  0.00     0.031 A 
ATOM     33  C   UNL A   1      40.883  28.528  31.303  1.00  0.00     0.074 A 
ATOM     34  C   UNL A   1      40.637  27.862  28.935  1.00  0.00     0.049 A 
ATOM     35  N   UNL A   1      42.122  28.703  31.624  1.00  0.00    -0.248 NA
ATOM     36  C   UNL A   1      39.999  28.211  32.437  1.00  0.00     0.031 C 
ATOM     37  C   UNL A   1      39.906  27.636  27.684  1.00  0.00     0.029 A 
ATOM     38  N   UNL A   1      41.679  26.983  28.856  1.00  0.00    -0.354 N 
ATOM     39  C   UNL A   1      42.214  28.345  32.965  1.00  0.00     0.074 A 
ATOM     40  C   UNL A   1      40.866  28.174  33.445  1.00  0.00     0.031 C 
ATOM     41  C   UNL A   1      40.388  26.522  27.091  1.00  0.00     0.029 A 
ATOM     42  C   UNL A   1      41.514  26.025  27.866  1.00  0.00     0.049 A 
ATOM     43  H   UNL A   1      42.468  27.025  29.444  1.00  0.00     0.167 HD
ATOM     44  C   UNL A   1      43.388  27.957  33.530  1.00  0.00     0.031 A 
ATOM     45  C   UNL A   1      42.185  24.855  27.741  1.00  0.00     0.031 A 
ATOM     46  C   UNL A   1      44.537  28.417  32.800  1.00  0.00     0.049 A 
ATOM     47  C   UNL A   1      43.401  24.920  28.583  1.00  0.00     0.074 A 
ATOM     48  C   UNL A   1      44.991  29.648  32.364  1.00  0.00     0.029 A 
ATOM     49  N   UNL A   1      45.292  27.486  32.130  1.00  0.00    -0.354 N 
ATOM     50  N   UNL A   1      44.450  25.636  28.304  1.00  0.00    -0.248 NA
ATOM     51  C   UNL A   1      43.323  24.436  29.953  1.00  0.00     0.031 C 
ATOM     52  C   UNL A   1      45.652  29.386  31.128  1.00  0.00     0.029 A 
ATOM     53  C   UNL A   1      45.573  28.013  30.897  1.00  0.00     0.049 A 
ATOM     54  H   UNL A   1      45.577  26.608  32.471  1.00  0.00     0.167 HD
ATOM     55  C   UNL A   1      44.935  26.047  29.536  1.00  0.00     0.074 A 
ATOM     56  C   UNL A   1      44.289  25.172  30.508  1.00  0.00     0.031 C 
ATOM     57  C   UNL A   1      45.585  27.241  29.676  1.00  0.00     0.031 A 
BRANCH  44  58
ATOM     58  C   UNL A   1      43.458  26.810  34.509  1.00  0.00    -0.014 A 
ATOM     59  C   UNL A   1      43.445  25.493  34.019  1.00  0.00     0.009 A 
ATOM     60  C   UNL A   1      43.235  26.974  35.892  1.00  0.00     0.009 A 
ATOM     61  C   UNL A   1      43.150  24.410  34.855  1.00  0.00     0.001 A 
ATOM     62  C   UNL A   1      42.993  25.891  36.738  1.00  0.00     0.001 A 
ATOM     63  C   UNL A   1      42.920  24.610  36.214  1.00  0.00     0.000 A 
ENDBRANCH  44  58
BRANCH  45  64
ATOM     64  C   UNL A   1      41.735  23.596  27.109  1.00  0.00    -0.014 A 
ATOM     65  C   UNL A   1      42.625  22.813  26.360  1.00  0.00     0.009 A 
ATOM     66  C   UNL A   1      40.481  23.040  27.421  1.00  0.00     0.009 A 
ATOM     67  C   UNL A   1      42.280  21.517  25.955  1.00  0.00     0.001 A 
ATOM     68  C   UNL A   1      40.129  21.752  27.005  1.00  0.00     0.001 A 
ATOM     69  C   UNL A   1      41.034  20.987  26.282  1.00  0.00     0.000 A 
ENDBRANCH  45  64
BRANCH  57  70
ATOM     70  C   UNL A   1      46.051  27.950  28.431  1.00  0.00    -0.014 A 
ATOM     71  C   UNL A   1      47.327  27.756  27.878  1.00  0.00     0.009 A 
ATOM     72  C   UNL A   1      45.129  28.733  27.720  1.00  0.00     0.009 A 
ATOM     73  C   UNL A   1      47.687  28.367  26.674  1.00  0.00     0.001 A 
ATOM     74  C   UNL A   1      45.480  29.324  26.504  1.00  0.00     0.001 A 
ATOM     75  C   UNL A   1      46.762  29.149  25.987  1.00  0.00     0.000 A 
ENDBRANCH  57  70
ENDBRANCH  31  32
ENDBRANCH  24  26
ENDBRANCH  23  24
ENDBRANCH  22  23
ENDBRANCH   1  22
TORSDOF 15
ENDMDL
MODEL 2
REMARK VINA RESULT:     -10.6      1.870      2.934
REMARK SMILES CC(C)n1ncnc1C[C@@H](C(=O)OCCOC(=O)c1ccc(-c2c3nc(c(-c4ccccc4)c4ccc([nH]4)c(-c4ccccc4)c4nc(c(-c5ccccc5)c5ccc2[nH]5)C=C4)C=C3)cc1)c1cccc(Br)c1
REMARK SMILES IDX 14 1 13 2 11 3 12 4 10 5 9 6 8 7 4 8 5 9 6 10 7 11 2 12 1 13
REMARK SMILES IDX 3 14 67 15 68 16 73 17 69 18 71 19 70 20 72 21 15 22 16 23
REMARK SMILES IDX 17 24 18 25 19 26 20 27 66 28 21 29 65 30 22 31 23 32 24 33
REMARK SMILES IDX 59 34 25 35 64 36 58 37 60 38 26 39 63 40 57 41 56 42 27 44
REMARK SMILES IDX 49 45 34 46 48 47 35 48 38 49 47 50 61 51 36 52 37 53 46 55
REMARK SMILES IDX 62 56 39 57 28 58 29 59 33 60 30 61 32 62 31 63 50 64 51 65
REMARK SMILES IDX 55 66 52 67 54 68 53 69 40 70 41 71 45 72 42 73 44 74 43 75
REMARK H PARENT 60 43 38 54
REMARK Flexibility Score: inf
ROOT
ATOM      1  C   UNL A   1      34.386  29.090  27.290  1.00  0.00     0.274 C 
ENDROOT
BRANCH   1   2
ATOM      2  O   UNL A   1      33.534  28.764  26.178  1.00  0.00    -0.462 OA
BRANCH   2   3
ATOM      3  C   UNL A   1      32.516  27.899  26.372  1.00  0.00     0.313 C 
ATOM      4  O   UNL A   1      31.957  27.796  27.458  1.00  0.00    -0.252 OA
BRANCH   3   5
ATOM      5  C   UNL A   1      32.229  26.999  25.135  1.00  0.00     0.137 C 
BRANCH   5   6
ATOM      6  C   UNL A   1      33.376  26.929  24.076  1.00  0.00     0.097 C 
BRANCH   6   7
ATOM      7  C   UNL A   1      33.581  25.637  23.331  1.00  0.00     0.128 A 
ATOM      8  N   UNL A   1      34.370  24.550  23.663  1.00  0.00    -0.248 N 
ATOM      9  N   UNL A   1      34.163  23.542  22.776  1.00  0.00    -0.159 NA
ATOM     10  C   UNL A   1      33.240  24.045  21.969  1.00  0.00     0.246 A 
ATOM     11  N   UNL A   1      32.859  25.300  22.277  1.00  0.00    -0.220 NA
BRANCH   8  12
ATOM     12  C   UNL A   1      35.214  24.230  24.813  1.00  0.00     0.103 C 
ATOM     13  C   UNL A   1      34.368  24.010  26.082  1.00  0.00     0.033 C 
ATOM     14  C   UNL A   1      36.163  23.045  24.666  1.00  0.00     0.033 C 
ENDBRANCH   8  12
ENDBRANCH   6   7
ENDBRANCH   5   6
BRANCH   5  15
ATOM     15  C   UNL A   1      30.879  27.333  24.411  1.00  0.00    -0.032 A 
ATOM     16  C   UNL A   1      29.786  26.449  24.535  1.00  0.00     0.005 A 
ATOM     17  C   UNL A   1      30.653  28.488  23.636  1.00  0.00     0.020 A 
ATOM     18  C   UNL A   1      28.564  26.675  23.886  1.00  0.00     0.001 A 
ATOM     19  C   UNL A   1      29.416  28.737  23.023  1.00  0.00     0.018 A 
ATOM     20  C   UNL A   1      28.374  27.826  23.131  1.00  0.00     0.016 A 
ATOM     21  Br  UNL A   1      29.153  30.337  22.048  1.00  0.00    -0.051 Br
ENDBRANCH   5  15
ENDBRANCH   3   5
ENDBRANCH   2   3
ENDBRANCH   1   2
BRANCH   1  22
ATOM     22  C   UNL A   1      34.521  30.602  27.419  1.00  0.00     0.275 C 
BRANCH  22  23
ATOM     23  O   UNL A   1      35.860  30.970  27.783  1.00  0.00    -0.458 OA
BRANCH  23  24
ATOM     24  C   UNL A   1      36.009  31.242  29.094  1.00  0.00     0.338 C 
ATOM     25  O   UNL A   1      35.365  32.026  29.777  1.00  0.00    -0.246 OA
BRANCH  24  26
ATOM     26  C   UNL A   1      37.186  30.589  29.650  1.00  0.00     0.060 A 
ATOM     27  C   UNL A   1      38.446  31.039  29.233  1.00  0.00     0.016 A 
ATOM     28  C   UNL A   1      37.013  29.360  30.291  1.00  0.00     0.016 A 
ATOM     29  C   UNL A   1      39.533  30.195  29.353  1.00  0.00     0.010 A 
ATOM     30  C   UNL A   1      38.094  28.511  30.390  1.00  0.00     0.010 A 
ATOM     31  C   UNL A   1      39.331  28.914  29.869  1.00  0.00    -0.014 A 
BRANCH  31  32
ATOM     32  C   UNL A   1      40.448  27.983  29.863  1.00  0.00     0.031 A 
ATOM     33  C   UNL A   1      41.275  27.950  31.092  1.00  0.00     0.074 A 
ATOM     34  C   UNL A   1      40.592  27.065  28.888  1.00  0.00     0.049 A 
ATOM     35  N   UNL A   1      42.560  28.035  31.196  1.00  0.00    -0.248 NA
ATOM     36  C   UNL A   1      40.567  27.843  32.379  1.00  0.00     0.031 C 
ATOM     37  C   UNL A   1      39.649  26.782  27.801  1.00  0.00     0.029 A 
ATOM     38  N   UNL A   1      41.532  26.084  28.756  1.00  0.00    -0.354 N 
ATOM     39  C   UNL A   1      42.842  27.813  32.540  1.00  0.00     0.074 A 
ATOM     40  C   UNL A   1      41.582  27.828  33.239  1.00  0.00     0.031 C 
ATOM     41  C   UNL A   1      39.936  25.569  27.279  1.00  0.00     0.029 A 
ATOM     42  C   UNL A   1      41.130  25.048  27.926  1.00  0.00     0.049 A 
ATOM     43  H   UNL A   1      42.407  26.110  29.206  1.00  0.00     0.167 HD
ATOM     44  C   UNL A   1      44.057  27.373  32.960  1.00  0.00     0.031 A 
ATOM     45  C   UNL A   1      41.675  23.811  27.840  1.00  0.00     0.031 A 
ATOM     46  C   UNL A   1      45.105  27.638  32.013  1.00  0.00     0.049 A 
ATOM     47  C   UNL A   1      43.014  23.843  28.471  1.00  0.00     0.074 A 
ATOM     48  C   UNL A   1      45.579  28.764  31.367  1.00  0.00     0.029 A 
ATOM     49  N   UNL A   1      45.662  26.571  31.351  1.00  0.00    -0.354 N 
ATOM     50  N   UNL A   1      44.057  24.419  27.950  1.00  0.00    -0.248 NA
ATOM     51  C   UNL A   1      43.123  23.518  29.885  1.00  0.00     0.031 C 
ATOM     52  C   UNL A   1      46.004  28.310  30.084  1.00  0.00     0.029 A 
ATOM     53  C   UNL A   1      45.778  26.935  30.035  1.00  0.00     0.049 A 
ATOM     54  H   UNL A   1      45.927  25.710  31.747  1.00  0.00     0.167 HD
ATOM     55  C   UNL A   1      44.769  24.909  29.035  1.00  0.00     0.074 A 
ATOM     56  C   UNL A   1      44.223  24.209  30.192  1.00  0.00     0.031 C 
ATOM     57  C   UNL A   1      45.528  26.040  28.929  1.00  0.00     0.031 A 
BRANCH  44  58
ATOM     58  C   UNL A   1      44.195  26.334  34.047  1.00  0.00    -0.014 A 
ATOM     59  C   UNL A   1      43.780  25.017  33.788  1.00  0.00     0.009 A 
ATOM     60  C   UNL A   1      44.433  26.670  35.396  1.00  0.00     0.009 A 
ATOM     61  C   UNL A   1      43.546  24.112  34.830  1.00  0.00     0.001 A 
ATOM     62  C   UNL A   1      44.251  25.754  36.433  1.00  0.00     0.001 A 
ATOM     63  C   UNL A   1      43.778  24.483  36.152  1.00  0.00     0.000 A 
ENDBRANCH  44  58
BRANCH  45  64
ATOM     64  C   UNL A   1      41.028  22.543  27.441  1.00  0.00    -0.014 A 
ATOM     65  C   UNL A   1      39.854  22.550  26.673  1.00  0.00     0.009 A 
ATOM     66  C   UNL A   1      41.680  21.310  27.624  1.00  0.00     0.009 A 
ATOM     67  C   UNL A   1      39.363  21.370  26.096  1.00  0.00     0.001 A 
ATOM     68  C   UNL A   1      41.183  20.129  27.063  1.00  0.00     0.001 A 
ATOM     69  C   UNL A   1      40.031  20.163  26.288  1.00  0.00     0.000 A 
ENDBRANCH  45  64
BRANCH  57  70
ATOM     70  C   UNL A   1      45.838  26.564  27.551  1.00  0.00    -0.014 A 
ATOM     71  C   UNL A   1      47.034  26.266  26.876  1.00  0.00     0.009 A 
ATOM     72  C   UNL A   1      44.840  27.266  26.859  1.00  0.00     0.009 A 
ATOM     73  C   UNL A   1      47.244  26.702  25.565  1.00  0.00     0.001 A 
ATOM     74  C   UNL A   1      45.040  27.680  25.540  1.00  0.00     0.001 A 
ATOM     75  C   UNL A   1      46.246  27.407  24.897  1.00  0.00     0.000 A 
ENDBRANCH  57  70
ENDBRANCH  31  32
ENDBRANCH  24  26
ENDBRANCH  23  24
ENDBRANCH  22  23
ENDBRANCH   1  22
TORSDOF 15
ENDMDL
MODEL 3
REMARK VINA RESULT:     -10.5      4.272      6.069
REMARK SMILES CC(C)n1ncnc1C[C@@H](C(=O)OCCOC(=O)c1ccc(-c2c3nc(c(-c4ccccc4)c4ccc([nH]4)c(-c4ccccc4)c4nc(c(-c5ccccc5)c5ccc2[nH]5)C=C4)C=C3)cc1)c1cccc(Br)c1
REMARK SMILES IDX 14 1 13 2 11 3 12 4 10 5 9 6 8 7 4 8 5 9 6 10 7 11 2 12 1 13
REMARK SMILES IDX 3 14 67 15 68 16 73 17 69 18 71 19 70 20 72 21 15 22 16 23
REMARK SMILES IDX 17 24 18 25 19 26 20 27 66 28 21 29 65 30 22 31 23 32 24 33
REMARK SMILES IDX 59 34 25 35 64 36 58 37 60 38 26 39 63 40 57 41 56 42 27 44
REMARK SMILES IDX 49 45 34 46 48 47 35 48 38 49 47 50 61 51 36 52 37 53 46 55
REMARK SMILES IDX 62 56 39 57 28 58 29 59 33 60 30 61 32 62 31 63 50 64 51 65
REMARK SMILES IDX 55 66 52 67 54 68 53 69 40 70 41 71 45 72 42 73 44 74 43 75
REMARK H PARENT 60 43 38 54
REMARK Flexibility Score: inf
ROOT
ATOM      1  C   UNL A   1      38.602  34.588  34.141  1.00  0.00     0.274 C 
ENDROOT
BRANCH   1   2
ATOM      2  O   UNL A   1      37.381  34.949  33.472  1.00  0.00    -0.462 OA
BRANCH   2   3
ATOM      3  C   UNL A   1      36.315  34.129  33.581  1.00  0.00     0.313 C 
ATOM      4  O   UNL A   1      35.650  34.069  34.609  1.00  0.00    -0.252 OA
BRANCH   3   5
ATOM      5  C   UNL A   1      36.111  33.216  32.337  1.00  0.00     0.137 C 
BRANCH   5   6
ATOM      6  C   UNL A   1      34.636  33.085  31.836  1.00  0.00     0.097 C 
BRANCH   6   7
ATOM      7  C   UNL A   1      34.119  34.114  30.866  1.00  0.00     0.128 A 
ATOM      8  N   UNL A   1      34.268  34.178  29.492  1.00  0.00    -0.248 N 
ATOM      9  N   UNL A   1      33.531  35.204  28.994  1.00  0.00    -0.159 NA
ATOM     10  C   UNL A   1      32.945  35.697  30.076  1.00  0.00     0.246 A 
ATOM     11  N   UNL A   1      33.267  35.062  31.219  1.00  0.00    -0.220 NA
BRANCH   8  12
ATOM     12  C   UNL A   1      34.899  33.303  28.506  1.00  0.00     0.103 C 
ATOM     13  C   UNL A   1      36.430  33.278  28.679  1.00  0.00     0.033 C 
ATOM     14  C   UNL A   1      34.407  31.860  28.444  1.00  0.00     0.033 C 
ENDBRANCH   8  12
ENDBRANCH   6   7
ENDBRANCH   5   6
BRANCH   5  15
ATOM     15  C   UNL A   1      36.729  31.784  32.494  1.00  0.00    -0.032 A 
ATOM     16  C   UNL A   1      36.270  30.734  31.672  1.00  0.00     0.005 A 
ATOM     17  C   UNL A   1      37.751  31.452  33.406  1.00  0.00     0.020 A 
ATOM     18  C   UNL A   1      36.760  29.426  31.785  1.00  0.00     0.001 A 
ATOM     19  C   UNL A   1      38.273  30.152  33.489  1.00  0.00     0.018 A 
ATOM     20  C   UNL A   1      37.770  29.133  32.694  1.00  0.00     0.016 A 
ATOM     21  Br  UNL A   1      39.690  29.782  34.689  1.00  0.00    -0.051 Br
ENDBRANCH   5  15
ENDBRANCH   3   5
ENDBRANCH   2   3
ENDBRANCH   1   2
BRANCH   1  22
ATOM     22  C   UNL A   1      39.773  34.666  33.169  1.00  0.00     0.275 C 
BRANCH  22  23
ATOM     23  O   UNL A   1      39.920  33.437  32.442  1.00  0.00    -0.458 OA
BRANCH  23  24
ATOM     24  C   UNL A   1      39.707  33.563  31.117  1.00  0.00     0.338 C 
ATOM     25  O   UNL A   1      39.046  34.414  30.539  1.00  0.00    -0.246 OA
BRANCH  24  26
ATOM     26  C   UNL A   1      40.249  32.433  30.374  1.00  0.00     0.060 A 
ATOM     27  C   UNL A   1      39.399  31.349  30.116  1.00  0.00     0.016 A 
ATOM     28  C   UNL A   1      41.636  32.333  30.251  1.00  0.00     0.016 A 
ATOM     29  C   UNL A   1      39.953  30.113  29.846  1.00  0.00     0.010 A 
ATOM     30  C   UNL A   1      42.188  31.095  30.002  1.00  0.00     0.010 A 
ATOM     31  C   UNL A   1      41.344  29.986  29.858  1.00  0.00    -0.014 A 
BRANCH  31  32
ATOM     32  C   UNL A   1      41.916  28.658  29.713  1.00  0.00     0.031 A 
ATOM     33  C   UNL A   1      42.663  28.139  30.883  1.00  0.00     0.074 A 
ATOM     34  C   UNL A   1      41.608  27.871  28.664  1.00  0.00     0.049 A 
ATOM     35  N   UNL A   1      43.848  27.625  30.915  1.00  0.00    -0.248 NA
ATOM     36  C   UNL A   1      42.009  28.240  32.199  1.00  0.00     0.031 C 
ATOM     37  C   UNL A   1      40.618  28.148  27.618  1.00  0.00     0.029 A 
ATOM     38  N   UNL A   1      41.998  26.589  28.400  1.00  0.00    -0.354 N 
ATOM     39  C   UNL A   1      44.025  27.173  32.218  1.00  0.00     0.074 A 
ATOM     40  C   UNL A   1      42.924  27.688  32.991  1.00  0.00     0.031 C 
ATOM     41  C   UNL A   1      40.313  26.992  26.989  1.00  0.00     0.029 A 
ATOM     42  C   UNL A   1      41.153  25.930  27.520  1.00  0.00     0.049 A 
ATOM     43  H   UNL A   1      42.798  26.175  28.797  1.00  0.00     0.167 HD
ATOM     44  C   UNL A   1      44.917  26.196  32.529  1.00  0.00     0.031 A 
ATOM     45  C   UNL A   1      41.076  24.594  27.308  1.00  0.00     0.031 A 
ATOM     46  C   UNL A   1      45.951  26.049  31.542  1.00  0.00     0.049 A 
ATOM     47  C   UNL A   1      42.295  23.960  27.856  1.00  0.00     0.074 A 
ATOM     48  C   UNL A   1      46.872  26.898  30.956  1.00  0.00     0.029 A 
ATOM     49  N   UNL A   1      45.950  24.915  30.768  1.00  0.00    -0.354 N 
ATOM     50  N   UNL A   1      43.476  24.051  27.317  1.00  0.00    -0.248 NA
ATOM     51  C   UNL A   1      42.273  23.487  29.232  1.00  0.00     0.031 C 
ATOM     52  C   UNL A   1      47.019  26.425  29.619  1.00  0.00     0.029 A 
ATOM     53  C   UNL A   1      46.192  25.311  29.479  1.00  0.00     0.049 A 
ATOM     54  H   UNL A   1      45.803  23.993  31.080  1.00  0.00     0.167 HD
ATOM     55  C   UNL A   1      44.354  24.062  28.391  1.00  0.00     0.074 A 
ATOM     56  C   UNL A   1      43.573  23.576  29.523  1.00  0.00     0.031 C 
ATOM     57  C   UNL A   1      45.541  24.735  28.325  1.00  0.00     0.031 A 
BRANCH  44  58
ATOM     58  C   UNL A   1      44.589  25.108  33.523  1.00  0.00    -0.014 A 
ATOM     59  C   UNL A   1      45.064  25.221  34.840  1.00  0.00     0.009 A 
ATOM     60  C   UNL A   1      44.092  23.846  33.135  1.00  0.00     0.009 A 
ATOM     61  C   UNL A   1      45.107  24.113  35.694  1.00  0.00     0.001 A 
ATOM     62  C   UNL A   1      44.085  22.752  34.001  1.00  0.00     0.001 A 
ATOM     63  C   UNL A   1      44.621  22.878  35.272  1.00  0.00     0.000 A 
ENDBRANCH  44  58
BRANCH  45  64
ATOM     64  C   UNL A   1      39.915  23.798  26.853  1.00  0.00    -0.014 A 
ATOM     65  C   UNL A   1      38.699  24.421  26.540  1.00  0.00     0.009 A 
ATOM     66  C   UNL A   1      40.059  22.440  26.512  1.00  0.00     0.009 A 
ATOM     67  C   UNL A   1      37.674  23.717  25.893  1.00  0.00     0.001 A 
ATOM     68  C   UNL A   1      39.032  21.732  25.881  1.00  0.00     0.001 A 
ATOM     69  C   UNL A   1      37.844  22.375  25.560  1.00  0.00     0.000 A 
ENDBRANCH  45  64
BRANCH  57  70
ATOM     70  C   UNL A   1      46.028  25.192  26.975  1.00  0.00    -0.014 A 
ATOM     71  C   UNL A   1      45.688  26.439  26.426  1.00  0.00     0.009 A 
ATOM     72  C   UNL A   1      46.965  24.399  26.295  1.00  0.00     0.009 A 
ATOM     73  C   UNL A   1      46.231  26.859  25.209  1.00  0.00     0.001 A 
ATOM     74  C   UNL A   1      47.527  24.828  25.091  1.00  0.00     0.001 A 
ATOM     75  C   UNL A   1      47.152  26.054  24.543  1.00  0.00     0.000 A 
ENDBRANCH  57  70
ENDBRANCH  31  32
ENDBRANCH  24  26
ENDBRANCH  23  24
ENDBRANCH  22  23
ENDBRANCH   1  22
TORSDOF 15
ENDMDL
