MODEL 1
REMARK VINA RESULT:     -10.5      0.000      0.000
REMARK SMILES O=C(CN1C(=O)S/C(=C\c2cccc(F)c2)C1=O)NCC(=O)OCCOC(=O)c1ccc(-c2c3nc(c(-c4ccccc4)c4ccc([nH]4)c(-c4ccccc4)c4nc(c(-c5ccccc5)c5ccc2[nH]5)C=C4)C=C3)cc1
REMARK SMILES IDX 24 1 23 2 21 3 22 4 20 5 19 6 1 7 2 8 3 10 4 11 5 12 17 13
REMARK SMILES IDX 6 14 7 15 8 16 18 17 9 18 10 19 11 20 16 21 12 22 14 23
REMARK SMILES IDX 13 24 15 25 25 26 26 27 27 28 28 29 29 30 30 31 76 32 31 33
REMARK SMILES IDX 75 34 32 35 33 36 34 37 69 38 35 39 74 40 68 41 70 42 36 43
REMARK SMILES IDX 73 44 67 45 66 46 37 48 59 49 44 50 58 51 45 52 48 53 57 54
REMARK SMILES IDX 71 55 46 56 47 57 56 59 72 60 49 61 38 62 39 63 43 64 40 65
REMARK SMILES IDX 42 66 41 67 60 68 61 69 65 70 62 71 64 72 63 73 50 74 51 75
REMARK SMILES IDX 55 76 52 77 54 78 53 79
REMARK H PARENT 19 9 70 47 48 58
REMARK Flexibility Score: inf
ROOT
ATOM      1  C   UNL A   1      31.898  29.036  26.186  1.00  0.00     0.274 C 
ENDROOT
BRANCH   1   2
ATOM      2  O   UNL A   1      31.535  29.750  24.991  1.00  0.00    -0.461 OA
BRANCH   2   3
ATOM      3  C   UNL A   1      31.593  29.066  23.813  1.00  0.00     0.325 C 
ATOM      4  O   UNL A   1      32.548  29.069  23.047  1.00  0.00    -0.250 OA
BRANCH   3   5
ATOM      5  C   UNL A   1      30.285  28.334  23.519  1.00  0.00     0.238 C 
BRANCH   5   6
ATOM      6  N   UNL A   1      30.474  26.936  23.175  1.00  0.00    -0.344 N 
ATOM      7  O   UNL A   1      29.843  26.100  25.209  1.00  0.00    -0.273 OA
ATOM      8  C   UNL A   1      30.253  25.914  24.067  1.00  0.00     0.240 C 
ATOM      9  H   UNL A   1      30.773  26.711  22.265  1.00  0.00     0.164 HD
BRANCH   8  10
ATOM     10  C   UNL A   1      30.424  24.520  23.467  1.00  0.00     0.229 C 
BRANCH  10  11
ATOM     11  N   UNL A   1      31.625  23.924  24.015  1.00  0.00    -0.259 N 
ATOM     12  C   UNL A   1      31.588  23.058  25.067  1.00  0.00     0.294 C 
ATOM     13  C   UNL A   1      32.863  24.279  23.539  1.00  0.00     0.268 C 
ATOM     14  O   UNL A   1      30.604  22.686  25.693  1.00  0.00    -0.261 OA
ATOM     15  S   UNL A   1      33.221  22.576  25.501  1.00  0.00    -0.022 SA
ATOM     16  C   UNL A   1      33.923  23.538  24.264  1.00  0.00     0.083 C 
ATOM     17  O   UNL A   1      33.086  25.087  22.650  1.00  0.00    -0.268 OA
ATOM     18  C   UNL A   1      35.214  23.691  23.938  1.00  0.00     0.029 C 
BRANCH  18  19
ATOM     19  C   UNL A   1      36.368  23.068  24.592  1.00  0.00    -0.021 A 
ATOM     20  C   UNL A   1      37.176  23.762  25.502  1.00  0.00     0.008 A 
ATOM     21  C   UNL A   1      36.644  21.722  24.325  1.00  0.00     0.047 A 
ATOM     22  C   UNL A   1      38.273  23.136  26.099  1.00  0.00     0.004 A 
ATOM     23  C   UNL A   1      37.735  21.107  24.929  1.00  0.00     0.123 A 
ATOM     24  C   UNL A   1      38.557  21.804  25.807  1.00  0.00     0.039 A 
ATOM     25  F   UNL A   1      37.997  19.821  24.659  1.00  0.00    -0.207 F 
ENDBRANCH  18  19
ENDBRANCH  10  11
ENDBRANCH   8  10
ENDBRANCH   5   6
ENDBRANCH   3   5
ENDBRANCH   2   3
ENDBRANCH   1   2
BRANCH   1  26
ATOM     26  C   UNL A   1      33.418  28.868  26.273  1.00  0.00     0.275 C 
BRANCH  26  27
ATOM     27  O   UNL A   1      33.900  28.989  27.627  1.00  0.00    -0.458 OA
BRANCH  27  28
ATOM     28  C   UNL A   1      34.522  30.159  27.901  1.00  0.00     0.338 C 
ATOM     29  O   UNL A   1      34.006  31.265  27.956  1.00  0.00    -0.246 OA
BRANCH  28  30
ATOM     30  C   UNL A   1      35.924  29.913  28.286  1.00  0.00     0.060 A 
ATOM     31  C   UNL A   1      36.903  30.100  27.308  1.00  0.00     0.016 A 
ATOM     32  C   UNL A   1      36.272  29.427  29.549  1.00  0.00     0.016 A 
ATOM     33  C   UNL A   1      38.231  29.775  27.576  1.00  0.00     0.010 A 
ATOM     34  C   UNL A   1      37.610  29.111  29.820  1.00  0.00     0.010 A 
ATOM     35  C   UNL A   1      38.595  29.262  28.829  1.00  0.00    -0.014 A 
BRANCH  35  36
ATOM     36  C   UNL A   1      40.003  28.843  29.057  1.00  0.00     0.031 A 
ATOM     37  C   UNL A   1      40.960  29.757  29.770  1.00  0.00     0.074 A 
ATOM     38  C   UNL A   1      40.405  27.615  28.676  1.00  0.00     0.049 A 
ATOM     39  N   UNL A   1      42.217  29.558  30.080  1.00  0.00    -0.248 NA
ATOM     40  C   UNL A   1      40.438  31.065  30.190  1.00  0.00     0.031 C 
ATOM     41  C   UNL A   1      39.564  26.619  28.011  1.00  0.00     0.029 A 
ATOM     42  N   UNL A   1      41.621  26.990  28.811  1.00  0.00    -0.354 N 
ATOM     43  C   UNL A   1      42.639  30.718  30.719  1.00  0.00     0.074 A 
ATOM     44  C   UNL A   1      41.512  31.627  30.725  1.00  0.00     0.031 C 
ATOM     45  C   UNL A   1      40.281  25.500  27.819  1.00  0.00     0.029 A 
ATOM     46  C   UNL A   1      41.643  25.716  28.300  1.00  0.00     0.049 A 
ATOM     47  H   UNL A   1      42.402  27.416  29.234  1.00  0.00     0.167 HD
ATOM     48  C   UNL A   1      43.851  31.000  31.256  1.00  0.00     0.031 A 
ATOM     49  C   UNL A   1      42.649  24.825  28.214  1.00  0.00     0.031 A 
ATOM     50  C   UNL A   1      44.975  30.099  31.243  1.00  0.00     0.049 A 
ATOM     51  C   UNL A   1      44.002  25.189  28.759  1.00  0.00     0.074 A 
ATOM     52  C   UNL A   1      46.241  30.292  31.771  1.00  0.00     0.029 A 
ATOM     53  N   UNL A   1      44.972  28.838  30.667  1.00  0.00    -0.354 N 
ATOM     54  N   UNL A   1      44.381  26.284  29.373  1.00  0.00    -0.248 NA
ATOM     55  C   UNL A   1      45.066  24.187  28.603  1.00  0.00     0.031 C 
ATOM     56  C   UNL A   1      47.021  29.172  31.462  1.00  0.00     0.029 A 
ATOM     57  C   UNL A   1      46.221  28.253  30.803  1.00  0.00     0.049 A 
ATOM     58  H   UNL A   1      44.198  28.420  30.226  1.00  0.00     0.167 HD
ATOM     59  C   UNL A   1      45.716  26.092  29.701  1.00  0.00     0.074 A 
ATOM     60  C   UNL A   1      46.075  24.767  29.237  1.00  0.00     0.031 C 
ATOM     61  C   UNL A   1      46.570  26.936  30.331  1.00  0.00     0.031 A 
BRANCH  48  62
ATOM     62  C   UNL A   1      44.037  32.362  31.869  1.00  0.00    -0.014 A 
ATOM     63  C   UNL A   1      44.485  33.455  31.111  1.00  0.00     0.009 A 
ATOM     64  C   UNL A   1      43.727  32.560  33.225  1.00  0.00     0.009 A 
ATOM     65  C   UNL A   1      44.654  34.708  31.706  1.00  0.00     0.001 A 
ATOM     66  C   UNL A   1      43.866  33.821  33.809  1.00  0.00     0.001 A 
ATOM     67  C   UNL A   1      44.339  34.890  33.052  1.00  0.00     0.000 A 
ENDBRANCH  48  62
BRANCH  49  68
ATOM     68  C   UNL A   1      42.422  23.505  27.567  1.00  0.00    -0.014 A 
ATOM     69  C   UNL A   1      42.642  23.330  26.193  1.00  0.00     0.009 A 
ATOM     70  C   UNL A   1      41.968  22.414  28.325  1.00  0.00     0.009 A 
ATOM     71  C   UNL A   1      42.384  22.098  25.587  1.00  0.00     0.001 A 
ATOM     72  C   UNL A   1      41.745  21.174  27.723  1.00  0.00     0.001 A 
ATOM     73  C   UNL A   1      41.941  21.019  26.352  1.00  0.00     0.000 A 
ENDBRANCH  49  68
BRANCH  61  74
ATOM     74  C   UNL A   1      47.965  26.434  30.589  1.00  0.00    -0.014 A 
ATOM     75  C   UNL A   1      48.993  26.604  29.649  1.00  0.00     0.009 A 
ATOM     76  C   UNL A   1      48.257  25.796  31.805  1.00  0.00     0.009 A 
ATOM     77  C   UNL A   1      50.272  26.105  29.902  1.00  0.00     0.001 A 
ATOM     78  C   UNL A   1      49.545  25.328  32.070  1.00  0.00     0.001 A 
ATOM     79  C   UNL A   1      50.548  25.470  31.113  1.00  0.00     0.000 A 
ENDBRANCH  61  74
ENDBRANCH  35  36
ENDBRANCH  28  30
ENDBRANCH  27  28
ENDBRANCH  26  27
ENDBRANCH   1  26
TORSDOF 15
ENDMDL
MODEL 2
REMARK VINA RESULT:     -10.3      3.489      7.994
REMARK SMILES O=C(CN1C(=O)S/C(=C\c2cccc(F)c2)C1=O)NCC(=O)OCCOC(=O)c1ccc(-c2c3nc(c(-c4ccccc4)c4ccc([nH]4)c(-c4ccccc4)c4nc(c(-c5ccccc5)c5ccc2[nH]5)C=C4)C=C3)cc1
REMARK SMILES IDX 24 1 23 2 21 3 22 4 20 5 19 6 1 7 2 8 3 10 4 11 5 12 17 13
REMARK SMILES IDX 6 14 7 15 8 16 18 17 9 18 10 19 11 20 16 21 12 22 14 23
REMARK SMILES IDX 13 24 15 25 25 26 26 27 27 28 28 29 29 30 30 31 76 32 31 33
REMARK SMILES IDX 75 34 32 35 33 36 34 37 69 38 35 39 74 40 68 41 70 42 36 43
REMARK SMILES IDX 73 44 67 45 66 46 37 48 59 49 44 50 58 51 45 52 48 53 57 54
REMARK SMILES IDX 71 55 46 56 47 57 56 59 72 60 49 61 38 62 39 63 43 64 40 65
REMARK SMILES IDX 42 66 41 67 60 68 61 69 65 70 62 71 64 72 63 73 50 74 51 75
REMARK SMILES IDX 55 76 52 77 54 78 53 79
REMARK H PARENT 19 9 70 47 48 58
REMARK Flexibility Score: inf
ROOT
ATOM      1  C   UNL A   1      36.023  20.136  25.005  1.00  0.00     0.274 C 
ENDROOT
BRANCH   1   2
ATOM      2  O   UNL A   1      35.359  21.334  25.441  1.00  0.00    -0.461 OA
BRANCH   2   3
ATOM      3  C   UNL A   1      34.002  21.378  25.313  1.00  0.00     0.325 C 
ATOM      4  O   UNL A   1      33.205  21.145  26.214  1.00  0.00    -0.250 OA
BRANCH   3   5
ATOM      5  C   UNL A   1      33.579  21.692  23.880  1.00  0.00     0.238 C 
BRANCH   5   6
ATOM      6  N   UNL A   1      32.779  22.898  23.768  1.00  0.00    -0.344 N 
ATOM      7  O   UNL A   1      33.495  23.470  21.672  1.00  0.00    -0.273 OA
ATOM      8  C   UNL A   1      32.814  23.715  22.664  1.00  0.00     0.240 C 
ATOM      9  H   UNL A   1      32.186  23.142  24.516  1.00  0.00     0.164 HD
BRANCH   8  10
ATOM     10  C   UNL A   1      31.825  24.878  22.721  1.00  0.00     0.229 C 
BRANCH  10  11
ATOM     11  N   UNL A   1      32.473  26.007  23.355  1.00  0.00    -0.259 N 
ATOM     12  C   UNL A   1      33.313  26.837  22.673  1.00  0.00     0.294 C 
ATOM     13  C   UNL A   1      32.325  26.235  24.701  1.00  0.00     0.268 C 
ATOM     14  O   UNL A   1      33.652  26.754  21.499  1.00  0.00    -0.261 OA
ATOM     15  S   UNL A   1      33.958  28.059  23.758  1.00  0.00    -0.022 SA
ATOM     16  C   UNL A   1      33.089  27.440  25.104  1.00  0.00     0.083 C 
ATOM     17  O   UNL A   1      31.667  25.557  25.476  1.00  0.00    -0.268 OA
ATOM     18  C   UNL A   1      33.056  27.882  26.369  1.00  0.00     0.029 C 
BRANCH  18  19
ATOM     19  C   UNL A   1      33.793  29.022  26.923  1.00  0.00    -0.021 A 
ATOM     20  C   UNL A   1      35.160  28.955  27.222  1.00  0.00     0.008 A 
ATOM     21  C   UNL A   1      33.111  30.229  27.121  1.00  0.00     0.047 A 
ATOM     22  C   UNL A   1      35.825  30.060  27.758  1.00  0.00     0.004 A 
ATOM     23  C   UNL A   1      33.784  31.325  27.649  1.00  0.00     0.123 A 
ATOM     24  C   UNL A   1      35.133  31.249  27.977  1.00  0.00     0.039 A 
ATOM     25  F   UNL A   1      33.120  32.472  27.844  1.00  0.00    -0.207 F 
ENDBRANCH  18  19
ENDBRANCH  10  11
ENDBRANCH   8  10
ENDBRANCH   5   6
ENDBRANCH   3   5
ENDBRANCH   2   3
ENDBRANCH   1   2
BRANCH   1  26
ATOM     26  C   UNL A   1      37.523  20.387  24.819  1.00  0.00     0.275 C 
BRANCH  26  27
ATOM     27  O   UNL A   1      37.997  21.474  25.639  1.00  0.00    -0.458 OA
BRANCH  27  28
ATOM     28  C   UNL A   1      39.215  21.271  26.196  1.00  0.00     0.338 C 
ATOM     29  O   UNL A   1      39.850  20.228  26.201  1.00  0.00    -0.246 OA
BRANCH  28  30
ATOM     30  C   UNL A   1      39.769  22.546  26.687  1.00  0.00     0.060 A 
ATOM     31  C   UNL A   1      39.234  23.725  26.164  1.00  0.00     0.016 A 
ATOM     32  C   UNL A   1      40.846  22.592  27.575  1.00  0.00     0.016 A 
ATOM     33  C   UNL A   1      39.791  24.956  26.503  1.00  0.00     0.010 A 
ATOM     34  C   UNL A   1      41.399  23.832  27.923  1.00  0.00     0.010 A 
ATOM     35  C   UNL A   1      40.889  25.021  27.372  1.00  0.00    -0.014 A 
BRANCH  35  36
ATOM     36  C   UNL A   1      41.517  26.341  27.646  1.00  0.00     0.031 A 
ATOM     37  C   UNL A   1      42.839  26.695  27.023  1.00  0.00     0.074 A 
ATOM     38  C   UNL A   1      40.870  27.245  28.406  1.00  0.00     0.049 A 
ATOM     39  N   UNL A   1      43.530  27.803  27.126  1.00  0.00    -0.248 NA
ATOM     40  C   UNL A   1      43.466  25.672  26.174  1.00  0.00     0.031 C 
ATOM     41  C   UNL A   1      39.564  27.040  29.035  1.00  0.00     0.029 A 
ATOM     42  N   UNL A   1      41.216  28.525  28.763  1.00  0.00    -0.354 N 
ATOM     43  C   UNL A   1      44.678  27.606  26.366  1.00  0.00     0.074 A 
ATOM     44  C   UNL A   1      44.603  26.262  25.834  1.00  0.00     0.031 C 
ATOM     45  C   UNL A   1      39.209  28.162  29.680  1.00  0.00     0.029 A 
ATOM     46  C   UNL A   1      40.280  29.146  29.552  1.00  0.00     0.049 A 
ATOM     47  H   UNL A   1      42.055  28.955  28.481  1.00  0.00     0.167 HD
ATOM     48  C   UNL A   1      45.698  28.465  26.130  1.00  0.00     0.031 A 
ATOM     49  C   UNL A   1      40.288  30.366  30.122  1.00  0.00     0.031 A 
ATOM     50  C   UNL A   1      45.778  29.801  26.667  1.00  0.00     0.049 A 
ATOM     51  C   UNL A   1      41.463  31.276  29.897  1.00  0.00     0.074 A 
ATOM     52  C   UNL A   1      46.768  30.750  26.475  1.00  0.00     0.029 A 
ATOM     53  N   UNL A   1      44.834  30.374  27.506  1.00  0.00    -0.354 N 
ATOM     54  N   UNL A   1      42.533  31.081  29.164  1.00  0.00    -0.248 NA
ATOM     55  C   UNL A   1      41.427  32.580  30.574  1.00  0.00     0.031 C 
ATOM     56  C   UNL A   1      46.453  31.874  27.246  1.00  0.00     0.029 A 
ATOM     57  C   UNL A   1      45.233  31.652  27.862  1.00  0.00     0.049 A 
ATOM     58  H   UNL A   1      44.005  29.936  27.806  1.00  0.00     0.167 HD
ATOM     59  C   UNL A   1      43.282  32.245  29.271  1.00  0.00     0.074 A 
ATOM     60  C   UNL A   1      42.534  33.149  30.120  1.00  0.00     0.031 C 
ATOM     61  C   UNL A   1      44.483  32.541  28.714  1.00  0.00     0.031 A 
BRANCH  48  62
ATOM     62  C   UNL A   1      46.839  27.971  25.281  1.00  0.00    -0.014 A 
ATOM     63  C   UNL A   1      47.961  27.347  25.849  1.00  0.00     0.009 A 
ATOM     64  C   UNL A   1      46.772  28.104  23.885  1.00  0.00     0.009 A 
ATOM     65  C   UNL A   1      49.008  26.900  25.039  1.00  0.00     0.001 A 
ATOM     66  C   UNL A   1      47.807  27.628  23.075  1.00  0.00     0.001 A 
ATOM     67  C   UNL A   1      48.927  27.037  23.654  1.00  0.00     0.000 A 
ENDBRANCH  48  62
BRANCH  49  68
ATOM     68  C   UNL A   1      39.151  30.796  30.980  1.00  0.00    -0.014 A 
ATOM     69  C   UNL A   1      39.137  30.506  32.353  1.00  0.00     0.009 A 
ATOM     70  C   UNL A   1      38.063  31.486  30.423  1.00  0.00     0.009 A 
ATOM     71  C   UNL A   1      38.045  30.875  33.143  1.00  0.00     0.001 A 
ATOM     72  C   UNL A   1      36.988  31.883  31.220  1.00  0.00     0.001 A 
ATOM     73  C   UNL A   1      36.974  31.568  32.577  1.00  0.00     0.000 A 
ENDBRANCH  49  68
BRANCH  61  74
ATOM     74  C   UNL A   1      45.041  33.914  28.976  1.00  0.00    -0.014 A 
ATOM     75  C   UNL A   1      45.891  34.166  30.063  1.00  0.00     0.009 A 
ATOM     76  C   UNL A   1      44.721  34.969  28.106  1.00  0.00     0.009 A 
ATOM     77  C   UNL A   1      46.374  35.456  30.300  1.00  0.00     0.001 A 
ATOM     78  C   UNL A   1      45.232  36.249  28.325  1.00  0.00     0.001 A 
ATOM     79  C   UNL A   1      46.046  36.494  29.428  1.00  0.00     0.000 A 
ENDBRANCH  61  74
ENDBRANCH  35  36
ENDBRANCH  28  30
ENDBRANCH  27  28
ENDBRANCH  26  27
ENDBRANCH   1  26
TORSDOF 15
ENDMDL
MODEL 3
REMARK VINA RESULT:     -10.3      5.027      9.595
REMARK SMILES O=C(CN1C(=O)S/C(=C\c2cccc(F)c2)C1=O)NCC(=O)OCCOC(=O)c1ccc(-c2c3nc(c(-c4ccccc4)c4ccc([nH]4)c(-c4ccccc4)c4nc(c(-c5ccccc5)c5ccc2[nH]5)C=C4)C=C3)cc1
REMARK SMILES IDX 24 1 23 2 21 3 22 4 20 5 19 6 1 7 2 8 3 10 4 11 5 12 17 13
REMARK SMILES IDX 6 14 7 15 8 16 18 17 9 18 10 19 11 20 16 21 12 22 14 23
REMARK SMILES IDX 13 24 15 25 25 26 26 27 27 28 28 29 29 30 30 31 76 32 31 33
REMARK SMILES IDX 75 34 32 35 33 36 34 37 69 38 35 39 74 40 68 41 70 42 36 43
REMARK SMILES IDX 73 44 67 45 66 46 37 48 59 49 44 50 58 51 45 52 48 53 57 54
REMARK SMILES IDX 71 55 46 56 47 57 56 59 72 60 49 61 38 62 39 63 43 64 40 65
REMARK SMILES IDX 42 66 41 67 60 68 61 69 65 70 62 71 64 72 63 73 50 74 51 75
REMARK SMILES IDX 55 76 52 77 54 78 53 79
REMARK H PARENT 19 9 70 47 48 58
REMARK Flexibility Score: inf
ROOT
ATOM      1  C   UNL A   1      46.045  21.751  25.192  1.00  0.00     0.274 C 
ENDROOT
BRANCH   1   2
ATOM      2  O   UNL A   1      46.139  20.534  24.433  1.00  0.00    -0.461 OA
BRANCH   2   3
ATOM      3  C   UNL A   1      45.720  19.386  25.038  1.00  0.00     0.325 C 
ATOM      4  O   UNL A   1      46.432  18.643  25.702  1.00  0.00    -0.250 OA
BRANCH   3   5
ATOM      5  C   UNL A   1      44.252  19.092  24.737  1.00  0.00     0.238 C 
BRANCH   5   6
ATOM      6  N   UNL A   1      43.359  19.453  25.824  1.00  0.00    -0.344 N 
ATOM      7  O   UNL A   1      42.804  21.515  25.005  1.00  0.00    -0.273 OA
ATOM      8  C   UNL A   1      42.710  20.662  25.883  1.00  0.00     0.240 C 
ATOM      9  H   UNL A   1      43.214  18.804  26.550  1.00  0.00     0.164 HD
BRANCH   8  10
ATOM     10  C   UNL A   1      41.750  20.794  27.064  1.00  0.00     0.229 C 
BRANCH  10  11
ATOM     11  N   UNL A   1      40.413  21.014  26.552  1.00  0.00    -0.259 N 
ATOM     12  C   UNL A   1      39.704  20.029  25.932  1.00  0.00     0.294 C 
ATOM     13  C   UNL A   1      39.841  22.262  26.602  1.00  0.00     0.268 C 
ATOM     14  O   UNL A   1      40.065  18.882  25.702  1.00  0.00    -0.261 OA
ATOM     15  S   UNL A   1      38.153  20.656  25.394  1.00  0.00    -0.022 SA
ATOM     16  C   UNL A   1      38.480  22.225  26.012  1.00  0.00     0.083 C 
ATOM     17  O   UNL A   1      40.355  23.271  27.059  1.00  0.00    -0.268 OA
ATOM     18  C   UNL A   1      37.711  23.322  25.992  1.00  0.00     0.029 C 
BRANCH  18  19
ATOM     19  C   UNL A   1      36.375  23.451  25.403  1.00  0.00    -0.021 A 
ATOM     20  C   UNL A   1      35.254  23.807  26.164  1.00  0.00     0.008 A 
ATOM     21  C   UNL A   1      36.227  23.250  24.026  1.00  0.00     0.047 A 
ATOM     22  C   UNL A   1      33.995  23.911  25.568  1.00  0.00     0.004 A 
ATOM     23  C   UNL A   1      34.970  23.362  23.441  1.00  0.00     0.123 A 
ATOM     24  C   UNL A   1      33.852  23.683  24.201  1.00  0.00     0.039 A 
ATOM     25  F   UNL A   1      34.838  23.156  22.124  1.00  0.00    -0.207 F 
ENDBRANCH  18  19
ENDBRANCH  10  11
ENDBRANCH   8  10
ENDBRANCH   5   6
ENDBRANCH   3   5
ENDBRANCH   2   3
ENDBRANCH   1   2
BRANCH   1  26
ATOM     26  C   UNL A   1      45.965  22.964  24.260  1.00  0.00     0.275 C 
BRANCH  26  27
ATOM     27  O   UNL A   1      44.951  23.902  24.674  1.00  0.00    -0.458 OA
BRANCH  27  28
ATOM     28  C   UNL A   1      45.418  25.132  24.995  1.00  0.00     0.338 C 
ATOM     29  O   UNL A   1      46.334  25.730  24.451  1.00  0.00    -0.246 OA
BRANCH  28  30
ATOM     30  C   UNL A   1      44.560  25.750  26.022  1.00  0.00     0.060 A 
ATOM     31  C   UNL A   1      44.715  27.119  26.253  1.00  0.00     0.016 A 
ATOM     32  C   UNL A   1      43.682  24.997  26.806  1.00  0.00     0.016 A 
ATOM     33  C   UNL A   1      44.016  27.737  27.287  1.00  0.00     0.010 A 
ATOM     34  C   UNL A   1      42.972  25.623  27.839  1.00  0.00     0.010 A 
ATOM     35  C   UNL A   1      43.151  26.993  28.101  1.00  0.00    -0.014 A 
BRANCH  35  36
ATOM     36  C   UNL A   1      42.486  27.662  29.250  1.00  0.00     0.031 A 
ATOM     37  C   UNL A   1      43.160  27.708  30.593  1.00  0.00     0.074 A 
ATOM     38  C   UNL A   1      41.303  28.280  29.072  1.00  0.00     0.049 A 
ATOM     39  N   UNL A   1      42.748  28.263  31.706  1.00  0.00    -0.248 NA
ATOM     40  C   UNL A   1      44.468  27.045  30.701  1.00  0.00     0.031 C 
ATOM     41  C   UNL A   1      40.564  28.342  27.810  1.00  0.00     0.029 A 
ATOM     42  N   UNL A   1      40.523  28.990  29.951  1.00  0.00    -0.354 N 
ATOM     43  C   UNL A   1      43.738  28.007  32.648  1.00  0.00     0.074 A 
ATOM     44  C   UNL A   1      44.755  27.219  31.983  1.00  0.00     0.031 C 
ATOM     45  C   UNL A   1      39.451  29.071  27.990  1.00  0.00     0.029 A 
ATOM     46  C   UNL A   1      39.373  29.486  29.388  1.00  0.00     0.049 A 
ATOM     47  H   UNL A   1      40.765  29.129  30.896  1.00  0.00     0.167 HD
ATOM     48  C   UNL A   1      43.797  28.392  33.945  1.00  0.00     0.031 A 
ATOM     49  C   UNL A   1      38.360  30.183  29.937  1.00  0.00     0.031 A 
ATOM     50  C   UNL A   1      42.781  29.168  34.610  1.00  0.00     0.049 A 
ATOM     51  C   UNL A   1      38.421  30.543  31.396  1.00  0.00     0.074 A 
ATOM     52  C   UNL A   1      42.757  29.617  35.920  1.00  0.00     0.029 A 
ATOM     53  N   UNL A   1      41.605  29.605  34.018  1.00  0.00    -0.354 N 
ATOM     54  N   UNL A   1      39.370  30.305  32.269  1.00  0.00    -0.248 NA
ATOM     55  C   UNL A   1      37.269  31.274  31.943  1.00  0.00     0.031 C 
ATOM     56  C   UNL A   1      41.541  30.273  36.137  1.00  0.00     0.029 A 
ATOM     57  C   UNL A   1      40.838  30.294  34.944  1.00  0.00     0.049 A 
ATOM     58  H   UNL A   1      41.353  29.447  33.080  1.00  0.00     0.167 HD
ATOM     59  C   UNL A   1      38.943  30.881  33.459  1.00  0.00     0.074 A 
ATOM     60  C   UNL A   1      37.660  31.497  33.189  1.00  0.00     0.031 C 
ATOM     61  C   UNL A   1      39.559  30.898  34.667  1.00  0.00     0.031 A 
BRANCH  48  62
ATOM     62  C   UNL A   1      44.988  27.944  34.748  1.00  0.00    -0.014 A 
ATOM     63  C   UNL A   1      46.063  28.808  35.016  1.00  0.00     0.009 A 
ATOM     64  C   UNL A   1      45.020  26.643  35.275  1.00  0.00     0.009 A 
ATOM     65  C   UNL A   1      47.159  28.366  35.761  1.00  0.00     0.001 A 
ATOM     66  C   UNL A   1      46.103  26.213  36.046  1.00  0.00     0.001 A 
ATOM     67  C   UNL A   1      47.175  27.072  36.279  1.00  0.00     0.000 A 
ENDBRANCH  48  62
BRANCH  49  68
ATOM     68  C   UNL A   1      37.189  30.574  29.109  1.00  0.00    -0.014 A 
ATOM     69  C   UNL A   1      37.022  31.899  28.679  1.00  0.00     0.009 A 
ATOM     70  C   UNL A   1      36.220  29.621  28.756  1.00  0.00     0.009 A 
ATOM     71  C   UNL A   1      35.896  32.266  27.938  1.00  0.00     0.001 A 
ATOM     72  C   UNL A   1      35.113  29.983  27.986  1.00  0.00     0.001 A 
ATOM     73  C   UNL A   1      34.945  31.307  27.587  1.00  0.00     0.000 A 
ENDBRANCH  49  68
BRANCH  61  74
ATOM     74  C   UNL A   1      38.868  31.642  35.778  1.00  0.00    -0.014 A 
ATOM     75  C   UNL A   1      38.074  30.977  36.725  1.00  0.00     0.009 A 
ATOM     76  C   UNL A   1      39.030  33.032  35.886  1.00  0.00     0.009 A 
ATOM     77  C   UNL A   1      37.421  31.694  37.730  1.00  0.00     0.001 A 
ATOM     78  C   UNL A   1      38.405  33.743  36.912  1.00  0.00     0.001 A 
ATOM     79  C   UNL A   1      37.590  33.076  37.824  1.00  0.00     0.000 A 
ENDBRANCH  61  74
ENDBRANCH  35  36
ENDBRANCH  28  30
ENDBRANCH  27  28
ENDBRANCH  26  27
ENDBRANCH   1  26
TORSDOF 15
ENDMDL
