MODEL 1
REMARK VINA RESULT:      -7.9      0.000      0.000
REMARK SMILES C=CCSc1ccccc1C(=O)OCCOC(=O)c1ccc(-c2c3nc(c(-c4ccccc4)c4ccc([nH]4)c(-c4ccccc4)c4nc(c(-c5ccccc5)c5ccc2[nH]5)C=C4)C=C3)cc1
REMARK SMILES IDX 14 1 13 2 11 3 12 4 10 5 5 6 6 7 7 8 9 9 8 10 4 11 3 12 2 13
REMARK SMILES IDX 1 14 15 15 16 16 17 17 18 18 19 19 20 20 66 21 21 22 65 23
REMARK SMILES IDX 22 24 23 25 24 26 59 27 25 28 64 29 58 30 60 31 26 32 63 33
REMARK SMILES IDX 57 34 56 35 27 37 49 38 34 39 48 40 35 41 38 42 47 43 61 44
REMARK SMILES IDX 36 45 37 46 46 48 62 49 39 50 28 51 29 52 33 53 30 54 32 55
REMARK SMILES IDX 31 56 50 57 51 58 55 59 52 60 54 61 53 62 40 63 41 64 45 65
REMARK SMILES IDX 42 66 44 67 43 68
REMARK H PARENT 60 36 38 47
REMARK Flexibility Score: inf
ROOT
ATOM      1  C   UNL A   1      41.799  20.379  26.130  1.00  0.00     0.275 C 
ENDROOT
BRANCH   1   2
ATOM      2  O   UNL A   1      42.608  21.201  26.999  1.00  0.00    -0.458 OA
BRANCH   2   3
ATOM      3  C   UNL A   1      43.099  22.354  26.495  1.00  0.00     0.339 C 
ATOM      4  O   UNL A   1      42.839  22.840  25.407  1.00  0.00    -0.246 OA
BRANCH   3   5
ATOM      5  C   UNL A   1      43.843  23.076  27.551  1.00  0.00     0.073 A 
ATOM      6  C   UNL A   1      45.174  23.514  27.441  1.00  0.00     0.022 A 
ATOM      7  C   UNL A   1      45.732  24.204  28.536  1.00  0.00     0.016 A 
ATOM      8  C   UNL A   1      45.000  24.449  29.703  1.00  0.00     0.001 A 
ATOM      9  C   UNL A   1      43.100  23.368  28.713  1.00  0.00     0.017 A 
ATOM     10  C   UNL A   1      43.678  24.038  29.790  1.00  0.00     0.001 A 
BRANCH   6  11
ATOM     11  S   UNL A   1      46.157  23.550  25.938  1.00  0.00    -0.121 SA
BRANCH  11  12
ATOM     12  C   UNL A   1      45.694  25.102  25.112  1.00  0.00     0.101 C 
BRANCH  12  13
ATOM     13  C   UNL A   1      46.519  26.276  25.528  1.00  0.00    -0.024 C 
ATOM     14  C   UNL A   1      46.281  27.540  25.150  1.00  0.00     0.005 C 
ENDBRANCH  12  13
ENDBRANCH  11  12
ENDBRANCH   6  11
ENDBRANCH   3   5
ENDBRANCH   2   3
ENDBRANCH   1   2
BRANCH   1  15
ATOM     15  C   UNL A   1      40.383  20.315  26.696  1.00  0.00     0.275 C 
BRANCH  15  16
ATOM     16  O   UNL A   1      40.071  21.612  27.226  1.00  0.00    -0.458 OA
BRANCH  16  17
ATOM     17  C   UNL A   1      39.323  22.428  26.454  1.00  0.00     0.338 C 
ATOM     18  O   UNL A   1      38.541  22.121  25.569  1.00  0.00    -0.246 OA
BRANCH  17  19
ATOM     19  C   UNL A   1      39.624  23.809  26.858  1.00  0.00     0.060 A 
ATOM     20  C   UNL A   1      39.522  24.167  28.204  1.00  0.00     0.016 A 
ATOM     21  C   UNL A   1      40.011  24.748  25.905  1.00  0.00     0.016 A 
ATOM     22  C   UNL A   1      39.798  25.471  28.606  1.00  0.00     0.010 A 
ATOM     23  C   UNL A   1      40.367  26.032  26.321  1.00  0.00     0.010 A 
ATOM     24  C   UNL A   1      40.270  26.405  27.675  1.00  0.00    -0.014 A 
BRANCH  24  25
ATOM     25  C   UNL A   1      40.713  27.758  28.104  1.00  0.00     0.031 A 
ATOM     26  C   UNL A   1      42.174  28.050  28.292  1.00  0.00     0.074 A 
ATOM     27  C   UNL A   1      39.797  28.707  28.384  1.00  0.00     0.049 A 
ATOM     28  N   UNL A   1      42.746  29.066  28.887  1.00  0.00    -0.248 NA
ATOM     29  C   UNL A   1      43.117  27.058  27.751  1.00  0.00     0.031 C 
ATOM     30  C   UNL A   1      38.350  28.573  28.206  1.00  0.00     0.029 A 
ATOM     31  N   UNL A   1      39.950  29.973  28.894  1.00  0.00    -0.354 N 
ATOM     32  C   UNL A   1      44.111  28.810  28.842  1.00  0.00     0.074 A 
ATOM     33  C   UNL A   1      44.281  27.545  28.159  1.00  0.00     0.031 C 
ATOM     34  C   UNL A   1      37.751  29.716  28.573  1.00  0.00     0.029 A 
ATOM     35  C   UNL A   1      38.758  30.627  29.101  1.00  0.00     0.049 A 
ATOM     36  H   UNL A   1      40.827  30.374  29.091  1.00  0.00     0.167 HD
ATOM     37  C   UNL A   1      45.125  29.559  29.337  1.00  0.00     0.031 A 
ATOM     38  C   UNL A   1      38.495  31.804  29.698  1.00  0.00     0.031 A 
ATOM     39  C   UNL A   1      44.945  30.823  30.001  1.00  0.00     0.049 A 
ATOM     40  C   UNL A   1      39.628  32.588  30.290  1.00  0.00     0.074 A 
ATOM     41  C   UNL A   1      45.906  31.664  30.537  1.00  0.00     0.029 A 
ATOM     42  N   UNL A   1      43.717  31.433  30.213  1.00  0.00    -0.354 N 
ATOM     43  N   UNL A   1      40.910  32.312  30.288  1.00  0.00    -0.248 NA
ATOM     44  C   UNL A   1      39.277  33.833  30.986  1.00  0.00     0.031 C 
ATOM     45  C   UNL A   1      45.255  32.763  31.108  1.00  0.00     0.029 A 
ATOM     46  C   UNL A   1      43.894  32.630  30.886  1.00  0.00     0.049 A 
ATOM     47  H   UNL A   1      42.849  31.067  29.927  1.00  0.00     0.167 HD
ATOM     48  C   UNL A   1      41.520  33.352  30.976  1.00  0.00     0.074 A 
ATOM     49  C   UNL A   1      40.470  34.274  31.362  1.00  0.00     0.031 C 
ATOM     50  C   UNL A   1      42.833  33.526  31.266  1.00  0.00     0.031 A 
BRANCH  37  51
ATOM     51  C   UNL A   1      46.517  29.000  29.221  1.00  0.00    -0.014 A 
ATOM     52  C   UNL A   1      47.376  29.375  28.176  1.00  0.00     0.009 A 
ATOM     53  C   UNL A   1      46.981  28.093  30.187  1.00  0.00     0.009 A 
ATOM     54  C   UNL A   1      48.657  28.823  28.081  1.00  0.00     0.001 A 
ATOM     55  C   UNL A   1      48.270  27.564  30.104  1.00  0.00     0.001 A 
ATOM     56  C   UNL A   1      49.103  27.921  29.046  1.00  0.00     0.000 A 
ENDBRANCH  37  51
BRANCH  38  57
ATOM     57  C   UNL A   1      37.091  32.279  29.808  1.00  0.00    -0.014 A 
ATOM     58  C   UNL A   1      36.312  31.941  30.925  1.00  0.00     0.009 A 
ATOM     59  C   UNL A   1      36.532  33.099  28.814  1.00  0.00     0.009 A 
ATOM     60  C   UNL A   1      35.001  32.411  31.040  1.00  0.00     0.001 A 
ATOM     61  C   UNL A   1      35.232  33.590  28.946  1.00  0.00     0.001 A 
ATOM     62  C   UNL A   1      34.466  33.242  30.057  1.00  0.00     0.000 A 
ENDBRANCH  38  57
BRANCH  50  63
ATOM     63  C   UNL A   1      43.200  34.773  32.015  1.00  0.00    -0.014 A 
ATOM     64  C   UNL A   1      43.589  35.937  31.335  1.00  0.00     0.009 A 
ATOM     65  C   UNL A   1      43.129  34.788  33.416  1.00  0.00     0.009 A 
ATOM     66  C   UNL A   1      43.926  37.088  32.050  1.00  0.00     0.001 A 
ATOM     67  C   UNL A   1      43.444  35.947  34.125  1.00  0.00     0.001 A 
ATOM     68  C   UNL A   1      43.850  37.093  33.443  1.00  0.00     0.000 A 
ENDBRANCH  50  63
ENDBRANCH  24  25
ENDBRANCH  17  19
ENDBRANCH  16  17
ENDBRANCH  15  16
ENDBRANCH   1  15
TORSDOF 14
ENDMDL
MODEL 2
REMARK VINA RESULT:      -7.8      5.300      8.397
REMARK SMILES C=CCSc1ccccc1C(=O)OCCOC(=O)c1ccc(-c2c3nc(c(-c4ccccc4)c4ccc([nH]4)c(-c4ccccc4)c4nc(c(-c5ccccc5)c5ccc2[nH]5)C=C4)C=C3)cc1
REMARK SMILES IDX 14 1 13 2 11 3 12 4 10 5 5 6 6 7 7 8 9 9 8 10 4 11 3 12 2 13
REMARK SMILES IDX 1 14 15 15 16 16 17 17 18 18 19 19 20 20 66 21 21 22 65 23
REMARK SMILES IDX 22 24 23 25 24 26 59 27 25 28 64 29 58 30 60 31 26 32 63 33
REMARK SMILES IDX 57 34 56 35 27 37 49 38 34 39 48 40 35 41 38 42 47 43 61 44
REMARK SMILES IDX 36 45 37 46 46 48 62 49 39 50 28 51 29 52 33 53 30 54 32 55
REMARK SMILES IDX 31 56 50 57 51 58 55 59 52 60 54 61 53 62 40 63 41 64 45 65
REMARK SMILES IDX 42 66 44 67 43 68
REMARK H PARENT 60 36 38 47
REMARK Flexibility Score: inf
ROOT
ATOM      1  C   UNL A   1      31.686  28.294  26.761  1.00  0.00     0.275 C 
ENDROOT
BRANCH   1   2
ATOM      2  O   UNL A   1      32.601  27.286  26.280  1.00  0.00    -0.458 OA
BRANCH   2   3
ATOM      3  C   UNL A   1      32.158  26.012  26.221  1.00  0.00     0.339 C 
ATOM      4  O   UNL A   1      31.132  25.576  26.717  1.00  0.00    -0.246 OA
BRANCH   3   5
ATOM      5  C   UNL A   1      32.990  25.244  25.269  1.00  0.00     0.073 A 
ATOM      6  C   UNL A   1      32.615  24.917  23.955  1.00  0.00     0.022 A 
ATOM      7  C   UNL A   1      33.533  24.190  23.170  1.00  0.00     0.016 A 
ATOM      8  C   UNL A   1      34.779  23.796  23.670  1.00  0.00     0.001 A 
ATOM      9  C   UNL A   1      34.266  24.881  25.747  1.00  0.00     0.017 A 
ATOM     10  C   UNL A   1      35.151  24.149  24.959  1.00  0.00     0.001 A 
BRANCH   6  11
ATOM     11  S   UNL A   1      31.206  25.579  23.059  1.00  0.00    -0.121 SA
BRANCH  11  12
ATOM     12  C   UNL A   1      31.881  26.944  22.066  1.00  0.00     0.101 C 
BRANCH  12  13
ATOM     13  C   UNL A   1      32.820  27.830  22.819  1.00  0.00    -0.024 C 
ATOM     14  C   UNL A   1      34.026  28.205  22.372  1.00  0.00     0.005 C 
ENDBRANCH  12  13
ENDBRANCH  11  12
ENDBRANCH   6  11
ENDBRANCH   3   5
ENDBRANCH   2   3
ENDBRANCH   1   2
BRANCH   1  15
ATOM     15  C   UNL A   1      31.702  29.472  25.792  1.00  0.00     0.275 C 
BRANCH  15  16
ATOM     16  O   UNL A   1      32.986  30.107  25.905  1.00  0.00    -0.458 OA
BRANCH  16  17
ATOM     17  C   UNL A   1      33.128  31.035  26.874  1.00  0.00     0.338 C 
ATOM     18  O   UNL A   1      32.354  31.926  27.186  1.00  0.00    -0.246 OA
BRANCH  17  19
ATOM     19  C   UNL A   1      34.431  30.802  27.515  1.00  0.00     0.060 A 
ATOM     20  C   UNL A   1      35.211  31.896  27.898  1.00  0.00     0.016 A 
ATOM     21  C   UNL A   1      34.877  29.503  27.742  1.00  0.00     0.016 A 
ATOM     22  C   UNL A   1      36.449  31.697  28.502  1.00  0.00     0.010 A 
ATOM     23  C   UNL A   1      36.080  29.306  28.423  1.00  0.00     0.010 A 
ATOM     24  C   UNL A   1      36.875  30.400  28.814  1.00  0.00    -0.014 A 
BRANCH  24  25
ATOM     25  C   UNL A   1      38.121  30.168  29.592  1.00  0.00     0.031 A 
ATOM     26  C   UNL A   1      39.223  29.324  29.019  1.00  0.00     0.074 A 
ATOM     27  C   UNL A   1      38.236  30.665  30.840  1.00  0.00     0.049 A 
ATOM     28  N   UNL A   1      40.263  28.803  29.618  1.00  0.00    -0.248 NA
ATOM     29  C   UNL A   1      39.134  29.012  27.584  1.00  0.00     0.031 C 
ATOM     30  C   UNL A   1      37.261  31.535  31.503  1.00  0.00     0.029 A 
ATOM     31  N   UNL A   1      39.221  30.498  31.781  1.00  0.00    -0.354 N 
ATOM     32  C   UNL A   1      40.922  28.057  28.649  1.00  0.00     0.074 A 
ATOM     33  C   UNL A   1      40.166  28.195  27.422  1.00  0.00     0.031 C 
ATOM     34  C   UNL A   1      37.708  31.846  32.730  1.00  0.00     0.029 A 
ATOM     35  C   UNL A   1      38.949  31.124  32.975  1.00  0.00     0.049 A 
ATOM     36  H   UNL A   1      40.043  29.980  31.618  1.00  0.00     0.167 HD
ATOM     37  C   UNL A   1      42.049  27.316  28.777  1.00  0.00     0.031 A 
ATOM     38  C   UNL A   1      39.594  31.080  34.156  1.00  0.00     0.031 A 
ATOM     39  C   UNL A   1      42.802  27.196  29.998  1.00  0.00     0.049 A 
ATOM     40  C   UNL A   1      40.807  30.207  34.291  1.00  0.00     0.074 A 
ATOM     41  C   UNL A   1      43.959  26.474  30.235  1.00  0.00     0.029 A 
ATOM     42  N   UNL A   1      42.473  27.826  31.190  1.00  0.00    -0.354 N 
ATOM     43  N   UNL A   1      41.392  29.465  33.382  1.00  0.00    -0.248 NA
ATOM     44  C   UNL A   1      41.433  30.147  35.618  1.00  0.00     0.031 C 
ATOM     45  C   UNL A   1      44.308  26.635  31.580  1.00  0.00     0.029 A 
ATOM     46  C   UNL A   1      43.394  27.495  32.169  1.00  0.00     0.049 A 
ATOM     47  H   UNL A   1      41.699  28.419  31.319  1.00  0.00     0.167 HD
ATOM     48  C   UNL A   1      42.460  28.854  34.024  1.00  0.00     0.074 A 
ATOM     49  C   UNL A   1      42.453  29.330  35.393  1.00  0.00     0.031 C 
ATOM     50  C   UNL A   1      43.363  27.975  33.526  1.00  0.00     0.031 A 
BRANCH  37  51
ATOM     51  C   UNL A   1      42.504  26.535  27.574  1.00  0.00    -0.014 A 
ATOM     52  C   UNL A   1      43.406  27.075  26.645  1.00  0.00     0.009 A 
ATOM     53  C   UNL A   1      42.030  25.228  27.378  1.00  0.00     0.009 A 
ATOM     54  C   UNL A   1      43.794  26.335  25.524  1.00  0.00     0.001 A 
ATOM     55  C   UNL A   1      42.441  24.481  26.272  1.00  0.00     0.001 A 
ATOM     56  C   UNL A   1      43.313  25.039  25.341  1.00  0.00     0.000 A 
ENDBRANCH  37  51
BRANCH  38  57
ATOM     57  C   UNL A   1      39.069  31.850  35.314  1.00  0.00    -0.014 A 
ATOM     58  C   UNL A   1      38.247  31.230  36.266  1.00  0.00     0.009 A 
ATOM     59  C   UNL A   1      39.412  33.201  35.490  1.00  0.00     0.009 A 
ATOM     60  C   UNL A   1      37.776  31.947  37.368  1.00  0.00     0.001 A 
ATOM     61  C   UNL A   1      38.963  33.907  36.608  1.00  0.00     0.001 A 
ATOM     62  C   UNL A   1      38.142  33.281  37.543  1.00  0.00     0.000 A 
ENDBRANCH  38  57
BRANCH  50  63
ATOM     63  C   UNL A   1      44.429  27.496  34.466  1.00  0.00    -0.014 A 
ATOM     64  C   UNL A   1      45.631  28.203  34.618  1.00  0.00     0.009 A 
ATOM     65  C   UNL A   1      44.214  26.338  35.228  1.00  0.00     0.009 A 
ATOM     66  C   UNL A   1      46.611  27.742  35.499  1.00  0.00     0.001 A 
ATOM     67  C   UNL A   1      45.186  25.892  36.124  1.00  0.00     0.001 A 
ATOM     68  C   UNL A   1      46.386  26.589  36.253  1.00  0.00     0.000 A 
ENDBRANCH  50  63
ENDBRANCH  24  25
ENDBRANCH  17  19
ENDBRANCH  16  17
ENDBRANCH  15  16
ENDBRANCH   1  15
TORSDOF 14
ENDMDL
MODEL 3
REMARK VINA RESULT:      -7.8      5.967     10.119
REMARK SMILES C=CCSc1ccccc1C(=O)OCCOC(=O)c1ccc(-c2c3nc(c(-c4ccccc4)c4ccc([nH]4)c(-c4ccccc4)c4nc(c(-c5ccccc5)c5ccc2[nH]5)C=C4)C=C3)cc1
REMARK SMILES IDX 14 1 13 2 11 3 12 4 10 5 5 6 6 7 7 8 9 9 8 10 4 11 3 12 2 13
REMARK SMILES IDX 1 14 15 15 16 16 17 17 18 18 19 19 20 20 66 21 21 22 65 23
REMARK SMILES IDX 22 24 23 25 24 26 59 27 25 28 64 29 58 30 60 31 26 32 63 33
REMARK SMILES IDX 57 34 56 35 27 37 49 38 34 39 48 40 35 41 38 42 47 43 61 44
REMARK SMILES IDX 36 45 37 46 46 48 62 49 39 50 28 51 29 52 33 53 30 54 32 55
REMARK SMILES IDX 31 56 50 57 51 58 55 59 52 60 54 61 53 62 40 63 41 64 45 65
REMARK SMILES IDX 42 66 44 67 43 68
REMARK H PARENT 60 36 38 47
REMARK Flexibility Score: inf
ROOT
ATOM      1  C   UNL A   1      32.623  31.000  27.145  1.00  0.00     0.275 C 
ENDROOT
BRANCH   1   2
ATOM      2  O   UNL A   1      31.697  30.132  26.456  1.00  0.00    -0.458 OA
BRANCH   2   3
ATOM      3  C   UNL A   1      32.154  29.448  25.386  1.00  0.00     0.339 C 
ATOM      4  O   UNL A   1      33.183  29.668  24.768  1.00  0.00    -0.246 OA
BRANCH   3   5
ATOM      5  C   UNL A   1      31.334  28.232  25.190  1.00  0.00     0.073 A 
ATOM      6  C   UNL A   1      30.587  27.943  24.035  1.00  0.00     0.022 A 
ATOM      7  C   UNL A   1      29.869  26.730  24.002  1.00  0.00     0.016 A 
ATOM      8  C   UNL A   1      29.887  25.835  25.078  1.00  0.00     0.001 A 
ATOM      9  C   UNL A   1      31.380  27.302  26.249  1.00  0.00     0.017 A 
ATOM     10  C   UNL A   1      30.651  26.117  26.201  1.00  0.00     0.001 A 
BRANCH   6  11
ATOM     11  S   UNL A   1      30.679  28.815  22.467  1.00  0.00    -0.121 SA
BRANCH  11  12
ATOM     12  C   UNL A   1      29.404  30.107  22.574  1.00  0.00     0.101 C 
BRANCH  12  13
ATOM     13  C   UNL A   1      28.035  29.635  22.208  1.00  0.00    -0.024 C 
ATOM     14  C   UNL A   1      27.178  29.062  23.065  1.00  0.00     0.005 C 
ENDBRANCH  12  13
ENDBRANCH  11  12
ENDBRANCH   6  11
ENDBRANCH   3   5
ENDBRANCH   2   3
ENDBRANCH   1   2
BRANCH   1  15
ATOM     15  C   UNL A   1      32.024  32.401  27.212  1.00  0.00     0.275 C 
BRANCH  15  16
ATOM     16  O   UNL A   1      33.114  33.335  27.250  1.00  0.00    -0.458 OA
BRANCH  16  17
ATOM     17  C   UNL A   1      33.192  34.144  28.327  1.00  0.00     0.338 C 
ATOM     18  O   UNL A   1      32.427  35.035  28.660  1.00  0.00    -0.246 OA
BRANCH  17  19
ATOM     19  C   UNL A   1      34.409  33.774  29.065  1.00  0.00     0.060 A 
ATOM     20  C   UNL A   1      34.329  32.824  30.086  1.00  0.00     0.016 A 
ATOM     21  C   UNL A   1      35.629  34.362  28.741  1.00  0.00     0.016 A 
ATOM     22  C   UNL A   1      35.469  32.464  30.799  1.00  0.00     0.010 A 
ATOM     23  C   UNL A   1      36.785  33.939  29.401  1.00  0.00     0.010 A 
ATOM     24  C   UNL A   1      36.717  32.982  30.432  1.00  0.00    -0.014 A 
BRANCH  24  25
ATOM     25  C   UNL A   1      37.968  32.501  31.077  1.00  0.00     0.031 A 
ATOM     26  C   UNL A   1      38.733  31.354  30.481  1.00  0.00     0.074 A 
ATOM     27  C   UNL A   1      38.382  33.055  32.235  1.00  0.00     0.049 A 
ATOM     28  N   UNL A   1      39.688  30.633  31.009  1.00  0.00    -0.248 NA
ATOM     29  C   UNL A   1      38.361  30.956  29.114  1.00  0.00     0.031 C 
ATOM     30  C   UNL A   1      37.759  34.200  32.901  1.00  0.00     0.029 A 
ATOM     31  N   UNL A   1      39.422  32.717  33.065  1.00  0.00    -0.354 N 
ATOM     32  C   UNL A   1      39.996  29.663  30.063  1.00  0.00     0.074 A 
ATOM     33  C   UNL A   1      39.126  29.889  28.928  1.00  0.00     0.031 C 
ATOM     34  C   UNL A   1      38.442  34.487  34.020  1.00  0.00     0.029 A 
ATOM     35  C   UNL A   1      39.490  33.491  34.200  1.00  0.00     0.049 A 
ATOM     36  H   UNL A   1      40.058  31.992  32.867  1.00  0.00     0.167 HD
ATOM     37  C   UNL A   1      40.911  28.668  30.143  1.00  0.00     0.031 A 
ATOM     38  C   UNL A   1      40.269  33.381  35.291  1.00  0.00     0.031 A 
ATOM     39  C   UNL A   1      41.782  28.461  31.271  1.00  0.00     0.049 A 
ATOM     40  C   UNL A   1      41.236  32.238  35.383  1.00  0.00     0.074 A 
ATOM     41  C   UNL A   1      42.748  27.486  31.451  1.00  0.00     0.029 A 
ATOM     42  N   UNL A   1      41.795  29.252  32.410  1.00  0.00    -0.354 N 
ATOM     43  N   UNL A   1      41.481  31.295  34.505  1.00  0.00    -0.248 NA
ATOM     44  C   UNL A   1      42.015  32.129  36.623  1.00  0.00     0.031 C 
ATOM     45  C   UNL A   1      43.318  27.663  32.717  1.00  0.00     0.029 A 
ATOM     46  C   UNL A   1      42.739  28.778  33.304  1.00  0.00     0.049 A 
ATOM     47  H   UNL A   1      41.218  30.035  32.560  1.00  0.00     0.167 HD
ATOM     48  C   UNL A   1      42.448  30.484  35.083  1.00  0.00     0.074 A 
ATOM     49  C   UNL A   1      42.759  31.059  36.377  1.00  0.00     0.031 C 
ATOM     50  C   UNL A   1      43.025  29.362  34.589  1.00  0.00     0.031 A 
BRANCH  37  51
ATOM     51  C   UNL A   1      40.980  27.698  28.995  1.00  0.00    -0.014 A 
ATOM     52  C   UNL A   1      40.176  26.549  28.954  1.00  0.00     0.009 A 
ATOM     53  C   UNL A   1      41.856  27.950  27.927  1.00  0.00     0.009 A 
ATOM     54  C   UNL A   1      40.276  25.653  27.885  1.00  0.00     0.001 A 
ATOM     55  C   UNL A   1      41.935  27.068  26.848  1.00  0.00     0.001 A 
ATOM     56  C   UNL A   1      41.153  25.915  26.834  1.00  0.00     0.000 A 
ENDBRANCH  37  51
BRANCH  38  57
ATOM     57  C   UNL A   1      40.124  34.356  36.404  1.00  0.00    -0.014 A 
ATOM     58  C   UNL A   1      40.879  35.537  36.418  1.00  0.00     0.009 A 
ATOM     59  C   UNL A   1      39.205  34.125  37.442  1.00  0.00     0.009 A 
ATOM     60  C   UNL A   1      40.722  36.465  37.450  1.00  0.00     0.001 A 
ATOM     61  C   UNL A   1      39.030  35.068  38.457  1.00  0.00     0.001 A 
ATOM     62  C   UNL A   1      39.791  36.235  38.462  1.00  0.00     0.000 A 
ENDBRANCH  38  57
BRANCH  50  63
ATOM     63  C   UNL A   1      44.066  28.703  35.445  1.00  0.00    -0.014 A 
ATOM     64  C   UNL A   1      43.720  27.695  36.358  1.00  0.00     0.009 A 
ATOM     65  C   UNL A   1      45.412  29.077  35.314  1.00  0.00     0.009 A 
ATOM     66  C   UNL A   1      44.704  27.093  37.145  1.00  0.00     0.001 A 
ATOM     67  C   UNL A   1      46.394  28.457  36.085  1.00  0.00     0.001 A 
ATOM     68  C   UNL A   1      46.040  27.472  37.005  1.00  0.00     0.000 A 
ENDBRANCH  50  63
ENDBRANCH  24  25
ENDBRANCH  17  19
ENDBRANCH  16  17
ENDBRANCH  15  16
ENDBRANCH   1  15
TORSDOF 14
ENDMDL
