MODEL 1
REMARK VINA RESULT:     -10.6      0.000      0.000
REMARK SMILES C[C@@H](C(=O)OCCOC(=O)c1ccc(-c2c3nc(c(-c4ccccc4)c4ccc([nH]4)c(-c4ccccc4)c4nc(c(-c5ccccc5)c5ccc2[nH]5)C=C4)C=C3)cc1)c1ccc(N[C@H]2CCC[C@@H]2O)cc1F
REMARK SMILES IDX 6 1 5 2 3 3 4 4 2 5 1 6 59 7 60 8 71 9 61 10 70 11 72 12
REMARK SMILES IDX 62 13 63 14 64 16 65 17 68 18 66 19 67 20 69 21 7 23 8 24
REMARK SMILES IDX 9 25 10 26 11 27 12 28 58 29 13 30 57 31 14 32 15 33 16 34
REMARK SMILES IDX 51 35 17 36 56 37 50 38 52 39 18 40 55 41 49 42 48 43 19 45
REMARK SMILES IDX 41 46 26 47 40 48 27 49 30 50 39 51 53 52 28 53 29 54 38 56
REMARK SMILES IDX 54 57 31 58 20 59 21 60 25 61 22 62 24 63 23 64 42 65 43 66
REMARK SMILES IDX 47 67 44 68 46 69 45 70 32 71 33 72 37 73 34 74 36 75 35 76
REMARK H PARENT 63 15 69 22 52 44 30 55
REMARK Flexibility Score: inf
ROOT
ATOM      1  C   UNL A   1      35.763  22.989  24.178  1.00  0.00     0.274 C 
ENDROOT
BRANCH   1   2
ATOM      2  O   UNL A   1      34.375  23.380  24.181  1.00  0.00    -0.462 OA
BRANCH   2   3
ATOM      3  C   UNL A   1      34.083  24.609  23.671  1.00  0.00     0.313 C 
ATOM      4  O   UNL A   1      34.352  24.947  22.524  1.00  0.00    -0.252 OA
BRANCH   3   5
ATOM      5  C   UNL A   1      33.435  25.537  24.713  1.00  0.00     0.129 C 
ATOM      6  C   UNL A   1      32.605  24.780  25.757  1.00  0.00     0.025 C 
BRANCH   5   7
ATOM      7  C   UNL A   1      32.661  26.668  24.045  1.00  0.00     0.002 A 
ATOM      8  C   UNL A   1      31.422  26.489  23.420  1.00  0.00     0.010 A 
ATOM      9  C   UNL A   1      33.226  27.943  23.976  1.00  0.00     0.129 A 
ATOM     10  C   UNL A   1      30.787  27.552  22.754  1.00  0.00     0.026 A 
ATOM     11  C   UNL A   1      32.599  28.993  23.299  1.00  0.00     0.065 A 
ATOM     12  F   UNL A   1      34.413  28.177  24.556  1.00  0.00    -0.207 F 
ATOM     13  C   UNL A   1      31.361  28.822  22.669  1.00  0.00     0.037 A 
BRANCH  13  14
ATOM     14  N   UNL A   1      30.821  29.883  21.976  1.00  0.00    -0.380 N 
ATOM     15  H   UNL A   1      31.379  30.214  21.236  1.00  0.00     0.160 HD
BRANCH  14  16
ATOM     16  C   UNL A   1      29.561  30.601  22.156  1.00  0.00     0.107 C 
ATOM     17  C   UNL A   1      28.340  29.890  21.575  1.00  0.00     0.027 C 
ATOM     18  C   UNL A   1      29.206  30.941  23.616  1.00  0.00     0.136 C 
ATOM     19  C   UNL A   1      27.295  29.850  22.686  1.00  0.00     0.005 C 
ATOM     20  C   UNL A   1      27.680  30.989  23.610  1.00  0.00     0.034 C 
BRANCH  18  21
ATOM     21  O   UNL A   1      29.740  32.190  24.042  1.00  0.00    -0.391 OA
ATOM     22  H   UNL A   1      29.426  32.388  24.937  1.00  0.00     0.211 HD
ENDBRANCH  18  21
ENDBRANCH  14  16
ENDBRANCH  13  14
ENDBRANCH   5   7
ENDBRANCH   3   5
ENDBRANCH   2   3
ENDBRANCH   1   2
BRANCH   1  23
ATOM     23  C   UNL A   1      36.402  23.181  25.554  1.00  0.00     0.275 C 
BRANCH  23  24
ATOM     24  O   UNL A   1      37.633  23.924  25.459  1.00  0.00    -0.458 OA
BRANCH  24  25
ATOM     25  C   UNL A   1      38.676  23.413  26.150  1.00  0.00     0.338 C 
ATOM     26  O   UNL A   1      39.054  22.254  26.180  1.00  0.00    -0.246 OA
BRANCH  25  27
ATOM     27  C   UNL A   1      39.401  24.499  26.824  1.00  0.00     0.060 A 
ATOM     28  C   UNL A   1      39.065  24.767  28.143  1.00  0.00     0.016 A 
ATOM     29  C   UNL A   1      40.279  25.342  26.140  1.00  0.00     0.016 A 
ATOM     30  C   UNL A   1      39.529  25.924  28.757  1.00  0.00     0.010 A 
ATOM     31  C   UNL A   1      40.803  26.474  26.790  1.00  0.00     0.010 A 
ATOM     32  C   UNL A   1      40.396  26.808  28.093  1.00  0.00    -0.014 A 
BRANCH  32  33
ATOM     33  C   UNL A   1      40.772  28.086  28.775  1.00  0.00     0.031 A 
ATOM     34  C   UNL A   1      39.810  29.253  28.825  1.00  0.00     0.074 A 
ATOM     35  C   UNL A   1      41.891  28.141  29.529  1.00  0.00     0.049 A 
ATOM     36  N   UNL A   1      39.904  30.368  29.516  1.00  0.00    -0.248 NA
ATOM     37  C   UNL A   1      38.564  29.142  28.050  1.00  0.00     0.031 C 
ATOM     38  C   UNL A   1      42.881  27.068  29.652  1.00  0.00     0.029 A 
ATOM     39  N   UNL A   1      42.358  29.118  30.380  1.00  0.00    -0.354 N 
ATOM     40  C   UNL A   1      38.709  31.047  29.311  1.00  0.00     0.074 A 
ATOM     41  C   UNL A   1      37.944  30.274  28.357  1.00  0.00     0.031 C 
ATOM     42  C   UNL A   1      43.797  27.416  30.568  1.00  0.00     0.029 A 
ATOM     43  C   UNL A   1      43.509  28.764  31.044  1.00  0.00     0.049 A 
ATOM     44  H   UNL A   1      41.910  29.986  30.500  1.00  0.00     0.167 HD
ATOM     45  C   UNL A   1      38.252  32.174  29.908  1.00  0.00     0.031 A 
ATOM     46  C   UNL A   1      44.271  29.449  31.920  1.00  0.00     0.031 A 
ATOM     47  C   UNL A   1      38.987  32.970  30.851  1.00  0.00     0.049 A 
ATOM     48  C   UNL A   1      43.877  30.839  32.322  1.00  0.00     0.074 A 
ATOM     49  C   UNL A   1      38.591  34.134  31.489  1.00  0.00     0.029 A 
ATOM     50  N   UNL A   1      40.272  32.697  31.281  1.00  0.00    -0.354 N 
ATOM     51  N   UNL A   1      42.752  31.471  32.101  1.00  0.00    -0.248 NA
ATOM     52  C   UNL A   1      44.871  31.619  33.075  1.00  0.00     0.031 C 
ATOM     53  C   UNL A   1      39.659  34.596  32.266  1.00  0.00     0.029 A 
ATOM     54  C   UNL A   1      40.704  33.696  32.139  1.00  0.00     0.049 A 
ATOM     55  H   UNL A   1      40.802  31.911  31.017  1.00  0.00     0.167 HD
ATOM     56  C   UNL A   1      42.900  32.720  32.688  1.00  0.00     0.074 A 
ATOM     57  C   UNL A   1      44.213  32.750  33.297  1.00  0.00     0.031 C 
ATOM     58  C   UNL A   1      42.019  33.749  32.718  1.00  0.00     0.031 A 
BRANCH  45  59
ATOM     59  C   UNL A   1      36.853  32.607  29.580  1.00  0.00    -0.014 A 
ATOM     60  C   UNL A   1      36.603  33.383  28.438  1.00  0.00     0.009 A 
ATOM     61  C   UNL A   1      35.773  32.181  30.367  1.00  0.00     0.009 A 
ATOM     62  C   UNL A   1      35.299  33.745  28.098  1.00  0.00     0.001 A 
ATOM     63  C   UNL A   1      34.468  32.532  30.016  1.00  0.00     0.001 A 
ATOM     64  C   UNL A   1      34.232  33.317  28.886  1.00  0.00     0.000 A 
ENDBRANCH  45  59
BRANCH  46  65
ATOM     65  C   UNL A   1      45.545  28.861  32.417  1.00  0.00    -0.014 A 
ATOM     66  C   UNL A   1      45.597  28.161  33.632  1.00  0.00     0.009 A 
ATOM     67  C   UNL A   1      46.729  29.030  31.681  1.00  0.00     0.009 A 
ATOM     68  C   UNL A   1      46.812  27.653  34.101  1.00  0.00     0.001 A 
ATOM     69  C   UNL A   1      47.934  28.496  32.137  1.00  0.00     0.001 A 
ATOM     70  C   UNL A   1      47.977  27.815  33.350  1.00  0.00     0.000 A 
ENDBRANCH  46  65
BRANCH  58  71
ATOM     71  C   UNL A   1      42.448  35.004  33.419  1.00  0.00    -0.014 A 
ATOM     72  C   UNL A   1      43.134  36.012  32.725  1.00  0.00     0.009 A 
ATOM     73  C   UNL A   1      42.145  35.196  34.776  1.00  0.00     0.009 A 
ATOM     74  C   UNL A   1      43.530  37.179  33.381  1.00  0.00     0.001 A 
ATOM     75  C   UNL A   1      42.522  36.374  35.424  1.00  0.00     0.001 A 
ATOM     76  C   UNL A   1      43.219  37.361  34.729  1.00  0.00     0.000 A 
ENDBRANCH  58  71
ENDBRANCH  32  33
ENDBRANCH  25  27
ENDBRANCH  24  25
ENDBRANCH  23  24
ENDBRANCH   1  23
TORSDOF 15
ENDMDL
MODEL 2
REMARK VINA RESULT:     -10.5      4.429      9.166
REMARK SMILES C[C@@H](C(=O)OCCOC(=O)c1ccc(-c2c3nc(c(-c4ccccc4)c4ccc([nH]4)c(-c4ccccc4)c4nc(c(-c5ccccc5)c5ccc2[nH]5)C=C4)C=C3)cc1)c1ccc(N[C@H]2CCC[C@@H]2O)cc1F
REMARK SMILES IDX 6 1 5 2 3 3 4 4 2 5 1 6 59 7 60 8 71 9 61 10 70 11 72 12
REMARK SMILES IDX 62 13 63 14 64 16 65 17 68 18 66 19 67 20 69 21 7 23 8 24
REMARK SMILES IDX 9 25 10 26 11 27 12 28 58 29 13 30 57 31 14 32 15 33 16 34
REMARK SMILES IDX 51 35 17 36 56 37 50 38 52 39 18 40 55 41 49 42 48 43 19 45
REMARK SMILES IDX 41 46 26 47 40 48 27 49 30 50 39 51 53 52 28 53 29 54 38 56
REMARK SMILES IDX 54 57 31 58 20 59 21 60 25 61 22 62 24 63 23 64 42 65 43 66
REMARK SMILES IDX 47 67 44 68 46 69 45 70 32 71 33 72 37 73 34 74 36 75 35 76
REMARK H PARENT 63 15 69 22 52 44 30 55
REMARK Flexibility Score: inf
ROOT
ATOM      1  C   UNL A   1      34.580  34.574  32.690  1.00  0.00     0.274 C 
ENDROOT
BRANCH   1   2
ATOM      2  O   UNL A   1      34.466  33.842  31.453  1.00  0.00    -0.462 OA
BRANCH   2   3
ATOM      3  C   UNL A   1      33.877  34.490  30.409  1.00  0.00     0.313 C 
ATOM      4  O   UNL A   1      32.759  34.989  30.468  1.00  0.00    -0.252 OA
BRANCH   3   5
ATOM      5  C   UNL A   1      34.746  34.471  29.141  1.00  0.00     0.129 C 
ATOM      6  C   UNL A   1      34.438  35.629  28.184  1.00  0.00     0.025 C 
BRANCH   5   7
ATOM      7  C   UNL A   1      34.702  33.108  28.457  1.00  0.00     0.002 A 
ATOM      8  C   UNL A   1      33.512  32.435  28.159  1.00  0.00     0.010 A 
ATOM      9  C   UNL A   1      35.895  32.444  28.166  1.00  0.00     0.129 A 
ATOM     10  C   UNL A   1      33.532  31.147  27.596  1.00  0.00     0.026 A 
ATOM     11  C   UNL A   1      35.910  31.158  27.622  1.00  0.00     0.065 A 
ATOM     12  F   UNL A   1      37.069  33.039  28.430  1.00  0.00    -0.207 F 
ATOM     13  C   UNL A   1      34.725  30.475  27.323  1.00  0.00     0.037 A 
BRANCH  13  14
ATOM     14  N   UNL A   1      34.809  29.190  26.835  1.00  0.00    -0.380 N 
ATOM     15  H   UNL A   1      35.595  28.686  27.144  1.00  0.00     0.160 HD
BRANCH  14  16
ATOM     16  C   UNL A   1      33.927  28.449  25.934  1.00  0.00     0.107 C 
ATOM     17  C   UNL A   1      32.936  27.524  26.639  1.00  0.00     0.027 C 
ATOM     18  C   UNL A   1      33.094  29.320  24.974  1.00  0.00     0.136 C 
ATOM     19  C   UNL A   1      31.560  27.849  26.066  1.00  0.00     0.005 C 
ATOM     20  C   UNL A   1      31.850  28.474  24.715  1.00  0.00     0.034 C 
BRANCH  18  21
ATOM     21  O   UNL A   1      33.767  29.600  23.752  1.00  0.00    -0.391 OA
ATOM     22  H   UNL A   1      33.120  29.859  23.078  1.00  0.00     0.211 HD
ENDBRANCH  18  21
ENDBRANCH  14  16
ENDBRANCH  13  14
ENDBRANCH   5   7
ENDBRANCH   3   5
ENDBRANCH   2   3
ENDBRANCH   1   2
BRANCH   1  23
ATOM     23  C   UNL A   1      35.133  33.694  33.812  1.00  0.00     0.275 C 
BRANCH  23  24
ATOM     24  O   UNL A   1      35.640  32.448  33.297  1.00  0.00    -0.458 OA
BRANCH  24  25
ATOM     25  C   UNL A   1      36.807  32.028  33.836  1.00  0.00     0.338 C 
ATOM     26  O   UNL A   1      37.157  32.096  35.001  1.00  0.00    -0.246 OA
BRANCH  25  27
ATOM     27  C   UNL A   1      37.611  31.354  32.805  1.00  0.00     0.060 A 
ATOM     28  C   UNL A   1      38.780  30.731  33.216  1.00  0.00     0.016 A 
ATOM     29  C   UNL A   1      37.313  31.458  31.446  1.00  0.00     0.016 A 
ATOM     30  C   UNL A   1      39.702  30.293  32.274  1.00  0.00     0.010 A 
ATOM     31  C   UNL A   1      38.217  30.948  30.496  1.00  0.00     0.010 A 
ATOM     32  C   UNL A   1      39.448  30.401  30.896  1.00  0.00    -0.014 A 
BRANCH  32  33
ATOM     33  C   UNL A   1      40.528  30.005  29.938  1.00  0.00     0.031 A 
ATOM     34  C   UNL A   1      41.694  30.927  29.657  1.00  0.00     0.074 A 
ATOM     35  C   UNL A   1      40.579  28.740  29.470  1.00  0.00     0.049 A 
ATOM     36  N   UNL A   1      42.799  30.676  28.990  1.00  0.00    -0.248 NA
ATOM     37  C   UNL A   1      41.648  32.280  30.234  1.00  0.00     0.031 C 
ATOM     38  C   UNL A   1      39.573  27.705  29.719  1.00  0.00     0.029 A 
ATOM     39  N   UNL A   1      41.544  28.089  28.735  1.00  0.00    -0.354 N 
ATOM     40  C   UNL A   1      43.595  31.806  29.129  1.00  0.00     0.074 A 
ATOM     41  C   UNL A   1      42.816  32.783  29.858  1.00  0.00     0.031 C 
ATOM     42  C   UNL A   1      40.000  26.541  29.205  1.00  0.00     0.029 A 
ATOM     43  C   UNL A   1      41.271  26.758  28.524  1.00  0.00     0.049 A 
ATOM     44  H   UNL A   1      42.353  28.535  28.394  1.00  0.00     0.167 HD
ATOM     45  C   UNL A   1      44.882  31.999  28.750  1.00  0.00     0.031 A 
ATOM     46  C   UNL A   1      41.945  25.813  27.838  1.00  0.00     0.031 A 
ATOM     47  C   UNL A   1      45.682  31.055  28.019  1.00  0.00     0.049 A 
ATOM     48  C   UNL A   1      43.239  26.164  27.165  1.00  0.00     0.074 A 
ATOM     49  C   UNL A   1      46.991  31.188  27.589  1.00  0.00     0.029 A 
ATOM     50  N   UNL A   1      45.246  29.814  27.595  1.00  0.00    -0.354 N 
ATOM     51  N   UNL A   1      43.966  27.245  27.293  1.00  0.00    -0.248 NA
ATOM     52  C   UNL A   1      43.793  25.171  26.233  1.00  0.00     0.031 C 
ATOM     53  C   UNL A   1      47.332  30.045  26.856  1.00  0.00     0.029 A 
ATOM     54  C   UNL A   1      46.244  29.188  26.866  1.00  0.00     0.049 A 
ATOM     55  H   UNL A   1      44.359  29.431  27.782  1.00  0.00     0.167 HD
ATOM     56  C   UNL A   1      45.063  27.062  26.462  1.00  0.00     0.074 A 
ATOM     57  C   UNL A   1      44.920  25.757  25.852  1.00  0.00     0.031 C 
ATOM     58  C   UNL A   1      46.096  27.908  26.229  1.00  0.00     0.031 A 
BRANCH  45  59
ATOM     59  C   UNL A   1      45.533  33.289  29.154  1.00  0.00    -0.014 A 
ATOM     60  C   UNL A   1      46.236  33.375  30.366  1.00  0.00     0.009 A 
ATOM     61  C   UNL A   1      45.512  34.397  28.296  1.00  0.00     0.009 A 
ATOM     62  C   UNL A   1      46.888  34.555  30.724  1.00  0.00     0.001 A 
ATOM     63  C   UNL A   1      46.179  35.571  28.649  1.00  0.00     0.001 A 
ATOM     64  C   UNL A   1      46.862  35.652  29.864  1.00  0.00     0.000 A 
ENDBRANCH  45  59
BRANCH  46  65
ATOM     65  C   UNL A   1      41.364  24.453  27.676  1.00  0.00    -0.014 A 
ATOM     66  C   UNL A   1      41.871  23.356  28.388  1.00  0.00     0.009 A 
ATOM     67  C   UNL A   1      40.309  24.245  26.772  1.00  0.00     0.009 A 
ATOM     68  C   UNL A   1      41.338  22.080  28.190  1.00  0.00     0.001 A 
ATOM     69  C   UNL A   1      39.759  22.975  26.599  1.00  0.00     0.001 A 
ATOM     70  C   UNL A   1      40.279  21.892  27.301  1.00  0.00     0.000 A 
ENDBRANCH  46  65
BRANCH  58  71
ATOM     71  C   UNL A   1      47.151  27.456  25.262  1.00  0.00    -0.014 A 
ATOM     72  C   UNL A   1      47.083  27.819  23.908  1.00  0.00     0.009 A 
ATOM     73  C   UNL A   1      48.235  26.684  25.707  1.00  0.00     0.009 A 
ATOM     74  C   UNL A   1      48.069  27.398  23.014  1.00  0.00     0.001 A 
ATOM     75  C   UNL A   1      49.231  26.283  24.815  1.00  0.00     0.001 A 
ATOM     76  C   UNL A   1      49.144  26.635  23.468  1.00  0.00     0.000 A 
ENDBRANCH  58  71
ENDBRANCH  32  33
ENDBRANCH  25  27
ENDBRANCH  24  25
ENDBRANCH  23  24
ENDBRANCH   1  23
TORSDOF 15
ENDMDL
MODEL 3
REMARK VINA RESULT:     -10.4      3.707      8.054
REMARK SMILES C[C@@H](C(=O)OCCOC(=O)c1ccc(-c2c3nc(c(-c4ccccc4)c4ccc([nH]4)c(-c4ccccc4)c4nc(c(-c5ccccc5)c5ccc2[nH]5)C=C4)C=C3)cc1)c1ccc(N[C@H]2CCC[C@@H]2O)cc1F
REMARK SMILES IDX 6 1 5 2 3 3 4 4 2 5 1 6 59 7 60 8 71 9 61 10 70 11 72 12
REMARK SMILES IDX 62 13 63 14 64 16 65 17 68 18 66 19 67 20 69 21 7 23 8 24
REMARK SMILES IDX 9 25 10 26 11 27 12 28 58 29 13 30 57 31 14 32 15 33 16 34
REMARK SMILES IDX 51 35 17 36 56 37 50 38 52 39 18 40 55 41 49 42 48 43 19 45
REMARK SMILES IDX 41 46 26 47 40 48 27 49 30 50 39 51 53 52 28 53 29 54 38 56
REMARK SMILES IDX 54 57 31 58 20 59 21 60 25 61 22 62 24 63 23 64 42 65 43 66
REMARK SMILES IDX 47 67 44 68 46 69 45 70 32 71 33 72 37 73 34 74 36 75 35 76
REMARK H PARENT 63 15 69 22 52 44 30 55
REMARK Flexibility Score: inf
ROOT
ATOM      1  C   UNL A   1      33.978  33.562  28.851  1.00  0.00     0.274 C 
ENDROOT
BRANCH   1   2
ATOM      2  O   UNL A   1      34.363  32.345  28.180  1.00  0.00    -0.462 OA
BRANCH   2   3
ATOM      3  C   UNL A   1      33.361  31.612  27.618  1.00  0.00     0.313 C 
ATOM      4  O   UNL A   1      32.300  32.095  27.241  1.00  0.00    -0.252 OA
BRANCH   3   5
ATOM      5  C   UNL A   1      33.692  30.111  27.568  1.00  0.00     0.129 C 
ATOM      6  C   UNL A   1      35.199  29.828  27.565  1.00  0.00     0.025 C 
BRANCH   5   7
ATOM      7  C   UNL A   1      32.955  29.418  26.426  1.00  0.00     0.002 A 
ATOM      8  C   UNL A   1      33.322  29.549  25.082  1.00  0.00     0.010 A 
ATOM      9  C   UNL A   1      31.812  28.664  26.700  1.00  0.00     0.129 A 
ATOM     10  C   UNL A   1      32.562  28.948  24.063  1.00  0.00     0.026 A 
ATOM     11  C   UNL A   1      31.051  28.082  25.684  1.00  0.00     0.065 A 
ATOM     12  F   UNL A   1      31.411  28.502  27.970  1.00  0.00    -0.207 F 
ATOM     13  C   UNL A   1      31.407  28.211  24.336  1.00  0.00     0.037 A 
BRANCH  13  14
ATOM     14  N   UNL A   1      30.586  27.655  23.380  1.00  0.00    -0.380 N 
ATOM     15  H   UNL A   1      30.724  26.691  23.234  1.00  0.00     0.160 HD
BRANCH  14  16
ATOM     16  C   UNL A   1      29.547  28.254  22.546  1.00  0.00     0.107 C 
ATOM     17  C   UNL A   1      28.122  28.020  23.045  1.00  0.00     0.027 C 
ATOM     18  C   UNL A   1      29.680  29.774  22.327  1.00  0.00     0.136 C 
ATOM     19  C   UNL A   1      27.448  29.387  23.085  1.00  0.00     0.005 C 
ATOM     20  C   UNL A   1      28.240  30.229  22.104  1.00  0.00     0.034 C 
BRANCH  18  21
ATOM     21  O   UNL A   1      30.486  30.105  21.202  1.00  0.00    -0.391 OA
ATOM     22  H   UNL A   1      31.099  30.817  21.442  1.00  0.00     0.211 HD
ENDBRANCH  18  21
ENDBRANCH  14  16
ENDBRANCH  13  14
ENDBRANCH   5   7
ENDBRANCH   3   5
ENDBRANCH   2   3
ENDBRANCH   1   2
BRANCH   1  23
ATOM     23  C   UNL A   1      34.570  33.637  30.259  1.00  0.00     0.275 C 
BRANCH  23  24
ATOM     24  O   UNL A   1      34.609  32.337  30.879  1.00  0.00    -0.458 OA
BRANCH  24  25
ATOM     25  C   UNL A   1      35.572  32.166  31.812  1.00  0.00     0.338 C 
ATOM     26  O   UNL A   1      35.556  32.530  32.976  1.00  0.00    -0.246 OA
BRANCH  25  27
ATOM     27  C   UNL A   1      36.664  31.357  31.251  1.00  0.00     0.060 A 
ATOM     28  C   UNL A   1      37.414  30.597  32.136  1.00  0.00     0.016 A 
ATOM     29  C   UNL A   1      37.049  31.458  29.913  1.00  0.00     0.016 A 
ATOM     30  C   UNL A   1      38.600  30.009  31.715  1.00  0.00     0.010 A 
ATOM     31  C   UNL A   1      38.214  30.802  29.475  1.00  0.00     0.010 A 
ATOM     32  C   UNL A   1      39.033  30.107  30.381  1.00  0.00    -0.014 A 
BRANCH  32  33
ATOM     33  C   UNL A   1      40.370  29.540  30.022  1.00  0.00     0.031 A 
ATOM     34  C   UNL A   1      40.507  28.110  29.546  1.00  0.00     0.074 A 
ATOM     35  C   UNL A   1      41.441  30.357  29.922  1.00  0.00     0.049 A 
ATOM     36  N   UNL A   1      41.559  27.511  29.033  1.00  0.00    -0.248 NA
ATOM     37  C   UNL A   1      39.309  27.257  29.599  1.00  0.00     0.031 C 
ATOM     38  C   UNL A   1      41.452  31.781  30.265  1.00  0.00     0.029 A 
ATOM     39  N   UNL A   1      42.713  30.124  29.450  1.00  0.00    -0.354 N 
ATOM     40  C   UNL A   1      41.128  26.248  28.646  1.00  0.00     0.074 A 
ATOM     41  C   UNL A   1      39.751  26.125  29.067  1.00  0.00     0.031 C 
ATOM     42  C   UNL A   1      42.642  32.305  29.935  1.00  0.00     0.029 A 
ATOM     43  C   UNL A   1      43.507  31.246  29.428  1.00  0.00     0.049 A 
ATOM     44  H   UNL A   1      43.023  29.237  29.156  1.00  0.00     0.167 HD
ATOM     45  C   UNL A   1      41.789  25.296  27.943  1.00  0.00     0.031 A 
ATOM     46  C   UNL A   1      44.796  31.412  29.070  1.00  0.00     0.031 A 
ATOM     47  C   UNL A   1      43.159  25.381  27.516  1.00  0.00     0.049 A 
ATOM     48  C   UNL A   1      45.588  30.238  28.577  1.00  0.00     0.074 A 
ATOM     49  C   UNL A   1      43.899  24.448  26.809  1.00  0.00     0.029 A 
ATOM     50  N   UNL A   1      43.998  26.450  27.768  1.00  0.00    -0.354 N 
ATOM     51  N   UNL A   1      45.167  29.046  28.236  1.00  0.00    -0.248 NA
ATOM     52  C   UNL A   1      47.041  30.427  28.443  1.00  0.00     0.031 C 
ATOM     53  C   UNL A   1      45.207  24.931  26.680  1.00  0.00     0.029 A 
ATOM     54  C   UNL A   1      45.265  26.181  27.273  1.00  0.00     0.049 A 
ATOM     55  H   UNL A   1      43.737  27.279  28.230  1.00  0.00     0.167 HD
ATOM     56  C   UNL A   1      46.299  28.344  27.845  1.00  0.00     0.074 A 
ATOM     57  C   UNL A   1      47.423  29.249  27.967  1.00  0.00     0.031 C 
ATOM     58  C   UNL A   1      46.392  27.060  27.422  1.00  0.00     0.031 A 
BRANCH  45  59
ATOM     59  C   UNL A   1      41.019  24.069  27.551  1.00  0.00    -0.014 A 
ATOM     60  C   UNL A   1      39.979  24.159  26.614  1.00  0.00     0.009 A 
ATOM     61  C   UNL A   1      41.377  22.812  28.058  1.00  0.00     0.009 A 
ATOM     62  C   UNL A   1      39.293  23.014  26.206  1.00  0.00     0.001 A 
ATOM     63  C   UNL A   1      40.699  21.667  27.637  1.00  0.00     0.001 A 
ATOM     64  C   UNL A   1      39.655  21.769  26.715  1.00  0.00     0.000 A 
ENDBRANCH  45  59
BRANCH  46  65
ATOM     65  C   UNL A   1      45.453  32.736  29.246  1.00  0.00    -0.014 A 
ATOM     66  C   UNL A   1      45.474  33.680  28.210  1.00  0.00     0.009 A 
ATOM     67  C   UNL A   1      46.095  33.043  30.457  1.00  0.00     0.009 A 
ATOM     68  C   UNL A   1      46.133  34.901  28.381  1.00  0.00     0.001 A 
ATOM     69  C   UNL A   1      46.726  34.275  30.636  1.00  0.00     0.001 A 
ATOM     70  C   UNL A   1      46.752  35.199  29.596  1.00  0.00     0.000 A 
ENDBRANCH  46  65
BRANCH  58  71
ATOM     71  C   UNL A   1      47.758  26.548  27.072  1.00  0.00    -0.014 A 
ATOM     72  C   UNL A   1      48.519  25.838  28.013  1.00  0.00     0.009 A 
ATOM     73  C   UNL A   1      48.281  26.750  25.785  1.00  0.00     0.009 A 
ATOM     74  C   UNL A   1      49.788  25.362  27.681  1.00  0.00     0.001 A 
ATOM     75  C   UNL A   1      49.542  26.253  25.449  1.00  0.00     0.001 A 
ATOM     76  C   UNL A   1      50.297  25.566  26.398  1.00  0.00     0.000 A 
ENDBRANCH  58  71
ENDBRANCH  32  33
ENDBRANCH  25  27
ENDBRANCH  24  25
ENDBRANCH  23  24
ENDBRANCH   1  23
TORSDOF 15
ENDMDL
