MODEL 1
REMARK VINA RESULT:     -10.5      0.000      0.000
REMARK SMILES O=C(OCCOC(=O)[C@@H]1CCC(=O)N1C(=O)/C=C/c1ccccc1)c1ccc(-c2c3nc(c(-c4ccccc4)c4ccc([nH]4)c(-c4ccccc4)c4nc(c(-c5ccccc5)c5ccc2[nH]5)C=C4)C=C3)cc1
REMARK SMILES IDX 5 1 4 2 3 3 2 4 1 5 25 6 26 7 72 8 27 9 71 10 28 11 29 12
REMARK SMILES IDX 30 13 65 14 31 15 70 16 64 17 66 18 32 19 69 20 63 21 62 22
REMARK SMILES IDX 33 24 55 25 40 26 54 27 41 28 44 29 53 30 67 31 42 32 43 33
REMARK SMILES IDX 52 35 68 36 45 37 34 38 35 39 39 40 36 41 38 42 37 43 56 44
REMARK SMILES IDX 57 45 61 46 58 47 60 48 59 49 46 50 47 51 51 52 48 53 50 54
REMARK SMILES IDX 49 55 6 56 7 57 8 58 9 59 10 60 14 61 11 62 12 63 13 64
REMARK SMILES IDX 15 65 16 66 17 67 18 68 19 69 20 70 24 71 21 72 23 73 22 74
REMARK H PARENT 66 23 44 34
REMARK Flexibility Score: inf
ROOT
ATOM      1  C   UNL A   1      36.933  22.288  23.959  1.00  0.00     0.274 C 
ENDROOT
BRANCH   1   2
ATOM      2  C   UNL A   1      37.678  21.550  25.067  1.00  0.00     0.275 C 
BRANCH   2   3
ATOM      3  O   UNL A   1      38.169  22.390  26.125  1.00  0.00    -0.458 OA
BRANCH   3   4
ATOM      4  C   UNL A   1      39.427  22.857  26.279  1.00  0.00     0.338 C 
ATOM      5  O   UNL A   1      40.402  22.128  26.123  1.00  0.00    -0.246 OA
BRANCH   4   6
ATOM      6  C   UNL A   1      39.661  24.233  26.772  1.00  0.00     0.060 A 
ATOM      7  C   UNL A   1      40.490  25.171  26.149  1.00  0.00     0.016 A 
ATOM      8  C   UNL A   1      39.087  24.544  28.004  1.00  0.00     0.016 A 
ATOM      9  C   UNL A   1      40.699  26.433  26.731  1.00  0.00     0.010 A 
ATOM     10  C   UNL A   1      39.281  25.802  28.568  1.00  0.00     0.010 A 
ATOM     11  C   UNL A   1      40.106  26.752  27.956  1.00  0.00    -0.014 A 
BRANCH  11  12
ATOM     12  C   UNL A   1      40.412  27.995  28.709  1.00  0.00     0.031 A 
ATOM     13  C   UNL A   1      41.634  28.035  29.595  1.00  0.00     0.074 A 
ATOM     14  C   UNL A   1      39.543  29.023  28.737  1.00  0.00     0.049 A 
ATOM     15  N   UNL A   1      42.055  28.995  30.379  1.00  0.00    -0.248 NA
ATOM     16  C   UNL A   1      42.467  26.821  29.630  1.00  0.00     0.031 C 
ATOM     17  C   UNL A   1      38.273  29.087  28.017  1.00  0.00     0.029 A 
ATOM     18  N   UNL A   1      39.576  30.192  29.458  1.00  0.00    -0.354 N 
ATOM     19  C   UNL A   1      43.201  28.500  30.991  1.00  0.00     0.074 A 
ATOM     20  C   UNL A   1      43.346  27.124  30.571  1.00  0.00     0.031 C 
ATOM     21  C   UNL A   1      37.613  30.198  28.389  1.00  0.00     0.029 A 
ATOM     22  C   UNL A   1      38.431  30.941  29.346  1.00  0.00     0.049 A 
ATOM     23  H   UNL A   1      40.348  30.467  30.003  1.00  0.00     0.167 HD
ATOM     24  C   UNL A   1      44.093  29.143  31.781  1.00  0.00     0.031 A 
ATOM     25  C   UNL A   1      38.082  32.097  29.940  1.00  0.00     0.031 A 
ATOM     26  C   UNL A   1      43.966  30.515  32.182  1.00  0.00     0.049 A 
ATOM     27  C   UNL A   1      39.079  32.817  30.805  1.00  0.00     0.074 A 
ATOM     28  C   UNL A   1      44.881  31.317  32.842  1.00  0.00     0.029 A 
ATOM     29  N   UNL A   1      42.835  31.286  31.969  1.00  0.00    -0.354 N 
ATOM     30  N   UNL A   1      40.264  32.420  31.201  1.00  0.00    -0.248 NA
ATOM     31  C   UNL A   1      38.717  34.171  31.249  1.00  0.00     0.031 C 
ATOM     32  C   UNL A   1      44.292  32.571  33.047  1.00  0.00     0.029 A 
ATOM     33  C   UNL A   1      43.022  32.553  32.489  1.00  0.00     0.049 A 
ATOM     34  H   UNL A   1      42.019  30.977  31.513  1.00  0.00     0.167 HD
ATOM     35  C   UNL A   1      40.815  33.498  31.882  1.00  0.00     0.074 A 
ATOM     36  C   UNL A   1      39.827  34.556  31.866  1.00  0.00     0.031 C 
ATOM     37  C   UNL A   1      42.043  33.607  32.444  1.00  0.00     0.031 A 
BRANCH  24  38
ATOM     38  C   UNL A   1      45.312  28.368  32.193  1.00  0.00    -0.014 A 
ATOM     39  C   UNL A   1      45.324  27.651  33.402  1.00  0.00     0.009 A 
ATOM     40  C   UNL A   1      46.460  28.364  31.390  1.00  0.00     0.009 A 
ATOM     41  C   UNL A   1      46.481  26.999  33.830  1.00  0.00     0.001 A 
ATOM     42  C   UNL A   1      47.608  27.685  31.808  1.00  0.00     0.001 A 
ATOM     43  C   UNL A   1      47.623  27.016  33.032  1.00  0.00     0.000 A 
ENDBRANCH  24  38
BRANCH  25  44
ATOM     44  C   UNL A   1      36.744  32.687  29.683  1.00  0.00    -0.014 A 
ATOM     45  C   UNL A   1      35.677  32.447  30.562  1.00  0.00     0.009 A 
ATOM     46  C   UNL A   1      36.529  33.489  28.552  1.00  0.00     0.009 A 
ATOM     47  C   UNL A   1      34.412  32.979  30.299  1.00  0.00     0.001 A 
ATOM     48  C   UNL A   1      35.266  34.032  28.301  1.00  0.00     0.001 A 
ATOM     49  C   UNL A   1      34.208  33.771  29.171  1.00  0.00     0.000 A 
ENDBRANCH  25  44
BRANCH  37  50
ATOM     50  C   UNL A   1      42.426  34.940  33.016  1.00  0.00    -0.014 A 
ATOM     51  C   UNL A   1      43.200  35.856  32.290  1.00  0.00     0.009 A 
ATOM     52  C   UNL A   1      41.951  35.301  34.288  1.00  0.00     0.009 A 
ATOM     53  C   UNL A   1      43.509  37.104  32.838  1.00  0.00     0.001 A 
ATOM     54  C   UNL A   1      42.244  36.556  34.823  1.00  0.00     0.001 A 
ATOM     55  C   UNL A   1      43.027  37.454  34.099  1.00  0.00     0.000 A 
ENDBRANCH  37  50
ENDBRANCH  11  12
ENDBRANCH   4   6
ENDBRANCH   3   4
ENDBRANCH   2   3
ENDBRANCH   1   2
BRANCH   1  56
ATOM     56  O   UNL A   1      36.098  23.375  24.402  1.00  0.00    -0.461 OA
BRANCH  56  57
ATOM     57  C   UNL A   1      34.749  23.161  24.346  1.00  0.00     0.329 C 
ATOM     58  O   UNL A   1      34.151  22.931  23.303  1.00  0.00    -0.250 OA
BRANCH  57  59
ATOM     59  C   UNL A   1      34.067  23.323  25.721  1.00  0.00     0.204 C 
ATOM     60  C   UNL A   1      34.305  22.128  26.635  1.00  0.00     0.047 C 
ATOM     61  N   UNL A   1      32.614  23.506  25.787  1.00  0.00    -0.265 N 
ATOM     62  C   UNL A   1      33.303  22.342  27.742  1.00  0.00     0.103 C 
ATOM     63  C   UNL A   1      32.197  23.099  27.063  1.00  0.00     0.230 C 
ATOM     64  O   UNL A   1      31.127  23.331  27.626  1.00  0.00    -0.274 OA
BRANCH  61  65
ATOM     65  C   UNL A   1      32.010  24.559  25.127  1.00  0.00     0.253 C 
ATOM     66  O   UNL A   1      31.011  24.403  24.426  1.00  0.00    -0.269 OA
BRANCH  65  67
ATOM     67  C   UNL A   1      32.476  25.970  25.386  1.00  0.00     0.072 C 
ATOM     68  C   UNL A   1      32.282  26.741  26.468  1.00  0.00     0.014 C 
BRANCH  68  69
ATOM     69  C   UNL A   1      32.695  28.146  26.635  1.00  0.00    -0.025 A 
ATOM     70  C   UNL A   1      34.046  28.415  26.899  1.00  0.00     0.008 A 
ATOM     71  C   UNL A   1      31.777  29.202  26.689  1.00  0.00     0.008 A 
ATOM     72  C   UNL A   1      34.477  29.710  27.197  1.00  0.00     0.001 A 
ATOM     73  C   UNL A   1      32.209  30.499  26.993  1.00  0.00     0.001 A 
ATOM     74  C   UNL A   1      33.557  30.753  27.247  1.00  0.00     0.000 A 
ENDBRANCH  68  69
ENDBRANCH  65  67
ENDBRANCH  61  65
ENDBRANCH  57  59
ENDBRANCH  56  57
ENDBRANCH   1  56
TORSDOF 14
ENDMDL
MODEL 2
REMARK VINA RESULT:     -10.3      2.718      7.985
REMARK SMILES O=C(OCCOC(=O)[C@@H]1CCC(=O)N1C(=O)/C=C/c1ccccc1)c1ccc(-c2c3nc(c(-c4ccccc4)c4ccc([nH]4)c(-c4ccccc4)c4nc(c(-c5ccccc5)c5ccc2[nH]5)C=C4)C=C3)cc1
REMARK SMILES IDX 5 1 4 2 3 3 2 4 1 5 25 6 26 7 72 8 27 9 71 10 28 11 29 12
REMARK SMILES IDX 30 13 65 14 31 15 70 16 64 17 66 18 32 19 69 20 63 21 62 22
REMARK SMILES IDX 33 24 55 25 40 26 54 27 41 28 44 29 53 30 67 31 42 32 43 33
REMARK SMILES IDX 52 35 68 36 45 37 34 38 35 39 39 40 36 41 38 42 37 43 56 44
REMARK SMILES IDX 57 45 61 46 58 47 60 48 59 49 46 50 47 51 51 52 48 53 50 54
REMARK SMILES IDX 49 55 6 56 7 57 8 58 9 59 10 60 14 61 11 62 12 63 13 64
REMARK SMILES IDX 15 65 16 66 17 67 18 68 19 69 20 70 24 71 21 72 23 73 22 74
REMARK H PARENT 66 23 44 34
REMARK Flexibility Score: inf
ROOT
ATOM      1  C   UNL A   1      33.956  28.987  25.606  1.00  0.00     0.274 C 
ENDROOT
BRANCH   1   2
ATOM      2  C   UNL A   1      33.733  29.135  27.108  1.00  0.00     0.275 C 
BRANCH   2   3
ATOM      3  O   UNL A   1      33.783  30.487  27.592  1.00  0.00    -0.458 OA
BRANCH   3   4
ATOM      4  C   UNL A   1      34.690  31.017  28.442  1.00  0.00     0.338 C 
ATOM      5  O   UNL A   1      34.548  32.145  28.906  1.00  0.00    -0.246 OA
BRANCH   4   6
ATOM      6  C   UNL A   1      35.952  30.301  28.732  1.00  0.00     0.060 A 
ATOM      7  C   UNL A   1      36.270  29.713  29.961  1.00  0.00     0.016 A 
ATOM      8  C   UNL A   1      36.915  30.330  27.724  1.00  0.00     0.016 A 
ATOM      9  C   UNL A   1      37.523  29.111  30.159  1.00  0.00     0.010 A 
ATOM     10  C   UNL A   1      38.149  29.715  27.918  1.00  0.00     0.010 A 
ATOM     11  C   UNL A   1      38.481  29.122  29.140  1.00  0.00    -0.014 A 
BRANCH  11  12
ATOM     12  C   UNL A   1      39.878  28.655  29.331  1.00  0.00     0.031 A 
ATOM     13  C   UNL A   1      40.935  29.651  29.742  1.00  0.00     0.074 A 
ATOM     14  C   UNL A   1      40.244  27.404  28.995  1.00  0.00     0.049 A 
ATOM     15  N   UNL A   1      42.220  29.470  29.910  1.00  0.00    -0.248 NA
ATOM     16  C   UNL A   1      40.490  31.039  29.954  1.00  0.00     0.031 C 
ATOM     17  C   UNL A   1      39.357  26.361  28.485  1.00  0.00     0.029 A 
ATOM     18  N   UNL A   1      41.488  26.820  28.977  1.00  0.00    -0.354 N 
ATOM     19  C   UNL A   1      42.730  30.717  30.251  1.00  0.00     0.074 A 
ATOM     20  C   UNL A   1      41.639  31.661  30.162  1.00  0.00     0.031 C 
ATOM     21  C   UNL A   1      40.093  25.292  28.133  1.00  0.00     0.029 A 
ATOM     22  C   UNL A   1      41.498  25.562  28.427  1.00  0.00     0.049 A 
ATOM     23  H   UNL A   1      42.295  27.262  29.326  1.00  0.00     0.167 HD
ATOM     24  C   UNL A   1      43.977  31.046  30.666  1.00  0.00     0.031 A 
ATOM     25  C   UNL A   1      42.522  24.720  28.192  1.00  0.00     0.031 A 
ATOM     26  C   UNL A   1      45.058  30.108  30.779  1.00  0.00     0.049 A 
ATOM     27  C   UNL A   1      43.902  25.081  28.667  1.00  0.00     0.074 A 
ATOM     28  C   UNL A   1      46.311  30.289  31.338  1.00  0.00     0.029 A 
ATOM     29  N   UNL A   1      45.011  28.807  30.306  1.00  0.00    -0.354 N 
ATOM     30  N   UNL A   1      44.325  26.204  29.194  1.00  0.00    -0.248 NA
ATOM     31  C   UNL A   1      44.930  24.034  28.573  1.00  0.00     0.031 C 
ATOM     32  C   UNL A   1      47.032  29.099  31.181  1.00  0.00     0.029 A 
ATOM     33  C   UNL A   1      46.215  28.173  30.550  1.00  0.00     0.049 A 
ATOM     34  H   UNL A   1      44.235  28.396  29.861  1.00  0.00     0.167 HD
ATOM     35  C   UNL A   1      45.647  25.976  29.557  1.00  0.00     0.074 A 
ATOM     36  C   UNL A   1      45.962  24.618  29.168  1.00  0.00     0.031 C 
ATOM     37  C   UNL A   1      46.509  26.812  30.184  1.00  0.00     0.031 A 
BRANCH  24  38
ATOM     38  C   UNL A   1      44.194  32.471  31.088  1.00  0.00    -0.014 A 
ATOM     39  C   UNL A   1      44.590  33.439  30.148  1.00  0.00     0.009 A 
ATOM     40  C   UNL A   1      44.027  32.852  32.426  1.00  0.00     0.009 A 
ATOM     41  C   UNL A   1      44.875  34.745  30.551  1.00  0.00     0.001 A 
ATOM     42  C   UNL A   1      44.284  34.168  32.820  1.00  0.00     0.001 A 
ATOM     43  C   UNL A   1      44.722  35.108  31.887  1.00  0.00     0.000 A 
ENDBRANCH  24  38
BRANCH  25  44
ATOM     44  C   UNL A   1      42.270  23.415  27.531  1.00  0.00    -0.014 A 
ATOM     45  C   UNL A   1      41.824  22.313  28.274  1.00  0.00     0.009 A 
ATOM     46  C   UNL A   1      42.482  23.267  26.152  1.00  0.00     0.009 A 
ATOM     47  C   UNL A   1      41.618  21.078  27.653  1.00  0.00     0.001 A 
ATOM     48  C   UNL A   1      42.261  22.035  25.532  1.00  0.00     0.001 A 
ATOM     49  C   UNL A   1      41.835  20.941  26.284  1.00  0.00     0.000 A 
ENDBRANCH  25  44
BRANCH  37  50
ATOM     50  C   UNL A   1      47.851  26.262  30.566  1.00  0.00    -0.014 A 
ATOM     51  C   UNL A   1      48.921  26.239  29.660  1.00  0.00     0.009 A 
ATOM     52  C   UNL A   1      48.056  25.808  31.879  1.00  0.00     0.009 A 
ATOM     53  C   UNL A   1      50.169  25.753  30.059  1.00  0.00     0.001 A 
ATOM     54  C   UNL A   1      49.309  25.343  32.280  1.00  0.00     0.001 A 
ATOM     55  C   UNL A   1      50.362  25.310  31.368  1.00  0.00     0.000 A 
ENDBRANCH  37  50
ENDBRANCH  11  12
ENDBRANCH   4   6
ENDBRANCH   3   4
ENDBRANCH   2   3
ENDBRANCH   1   2
BRANCH   1  56
ATOM     56  O   UNL A   1      33.302  27.857  24.999  1.00  0.00    -0.461 OA
BRANCH  56  57
ATOM     57  C   UNL A   1      32.859  28.032  23.717  1.00  0.00     0.329 C 
ATOM     58  O   UNL A   1      33.225  28.957  23.004  1.00  0.00    -0.250 OA
BRANCH  57  59
ATOM     59  C   UNL A   1      31.798  26.988  23.309  1.00  0.00     0.204 C 
ATOM     60  C   UNL A   1      30.485  27.165  24.060  1.00  0.00     0.047 C 
ATOM     61  N   UNL A   1      32.088  25.561  23.482  1.00  0.00    -0.265 N 
ATOM     62  C   UNL A   1      29.750  25.882  23.768  1.00  0.00     0.103 C 
ATOM     63  C   UNL A   1      30.860  24.890  23.561  1.00  0.00     0.230 C 
ATOM     64  O   UNL A   1      30.640  23.685  23.439  1.00  0.00    -0.274 OA
BRANCH  61  65
ATOM     65  C   UNL A   1      33.190  24.992  22.872  1.00  0.00     0.253 C 
ATOM     66  O   UNL A   1      33.329  24.986  21.650  1.00  0.00    -0.269 OA
BRANCH  65  67
ATOM     67  C   UNL A   1      34.340  24.501  23.715  1.00  0.00     0.072 C 
ATOM     68  C   UNL A   1      35.167  23.465  23.500  1.00  0.00     0.014 C 
BRANCH  68  69
ATOM     69  C   UNL A   1      36.228  22.982  24.401  1.00  0.00    -0.025 A 
ATOM     70  C   UNL A   1      36.845  23.905  25.258  1.00  0.00     0.008 A 
ATOM     71  C   UNL A   1      36.744  21.682  24.332  1.00  0.00     0.008 A 
ATOM     72  C   UNL A   1      37.943  23.540  26.039  1.00  0.00     0.001 A 
ATOM     73  C   UNL A   1      37.849  21.317  25.111  1.00  0.00     0.001 A 
ATOM     74  C   UNL A   1      38.448  22.245  25.963  1.00  0.00     0.000 A 
ENDBRANCH  68  69
ENDBRANCH  65  67
ENDBRANCH  61  65
ENDBRANCH  57  59
ENDBRANCH  56  57
ENDBRANCH   1  56
TORSDOF 14
ENDMDL
MODEL 3
REMARK VINA RESULT:     -10.3      3.392      7.798
REMARK SMILES O=C(OCCOC(=O)[C@@H]1CCC(=O)N1C(=O)/C=C/c1ccccc1)c1ccc(-c2c3nc(c(-c4ccccc4)c4ccc([nH]4)c(-c4ccccc4)c4nc(c(-c5ccccc5)c5ccc2[nH]5)C=C4)C=C3)cc1
REMARK SMILES IDX 5 1 4 2 3 3 2 4 1 5 25 6 26 7 72 8 27 9 71 10 28 11 29 12
REMARK SMILES IDX 30 13 65 14 31 15 70 16 64 17 66 18 32 19 69 20 63 21 62 22
REMARK SMILES IDX 33 24 55 25 40 26 54 27 41 28 44 29 53 30 67 31 42 32 43 33
REMARK SMILES IDX 52 35 68 36 45 37 34 38 35 39 39 40 36 41 38 42 37 43 56 44
REMARK SMILES IDX 57 45 61 46 58 47 60 48 59 49 46 50 47 51 51 52 48 53 50 54
REMARK SMILES IDX 49 55 6 56 7 57 8 58 9 59 10 60 14 61 11 62 12 63 13 64
REMARK SMILES IDX 15 65 16 66 17 67 18 68 19 69 20 70 24 71 21 72 23 73 22 74
REMARK H PARENT 66 23 44 34
REMARK Flexibility Score: inf
ROOT
ATOM      1  C   UNL A   1      32.427  30.543  26.799  1.00  0.00     0.274 C 
ENDROOT
BRANCH   1   2
ATOM      2  C   UNL A   1      31.614  31.830  26.897  1.00  0.00     0.275 C 
BRANCH   2   3
ATOM      3  O   UNL A   1      32.386  33.038  26.791  1.00  0.00    -0.458 OA
BRANCH   3   4
ATOM      4  C   UNL A   1      32.953  33.735  27.801  1.00  0.00     0.338 C 
ATOM      5  O   UNL A   1      32.510  34.825  28.152  1.00  0.00    -0.246 OA
BRANCH   4   6
ATOM      6  C   UNL A   1      34.209  33.262  28.424  1.00  0.00     0.060 A 
ATOM      7  C   UNL A   1      35.491  33.530  27.934  1.00  0.00     0.016 A 
ATOM      8  C   UNL A   1      34.063  32.401  29.510  1.00  0.00     0.016 A 
ATOM      9  C   UNL A   1      36.622  32.982  28.562  1.00  0.00     0.010 A 
ATOM     10  C   UNL A   1      35.187  31.875  30.142  1.00  0.00     0.010 A 
ATOM     11  C   UNL A   1      36.476  32.135  29.664  1.00  0.00    -0.014 A 
BRANCH  11  12
ATOM     12  C   UNL A   1      37.607  31.390  30.274  1.00  0.00     0.031 A 
ATOM     13  C   UNL A   1      38.080  31.775  31.655  1.00  0.00     0.074 A 
ATOM     14  C   UNL A   1      38.313  30.492  29.561  1.00  0.00     0.049 A 
ATOM     15  N   UNL A   1      39.081  31.296  32.349  1.00  0.00    -0.248 NA
ATOM     16  C   UNL A   1      37.353  32.867  32.323  1.00  0.00     0.031 C 
ATOM     17  C   UNL A   1      38.042  30.093  28.182  1.00  0.00     0.029 A 
ATOM     18  N   UNL A   1      39.451  29.797  29.890  1.00  0.00    -0.354 N 
ATOM     19  C   UNL A   1      39.095  32.024  33.533  1.00  0.00     0.074 A 
ATOM     20  C   UNL A   1      38.076  33.043  33.416  1.00  0.00     0.031 C 
ATOM     21  C   UNL A   1      39.028  29.282  27.757  1.00  0.00     0.029 A 
ATOM     22  C   UNL A   1      39.979  29.078  28.847  1.00  0.00     0.049 A 
ATOM     23  H   UNL A   1      39.850  29.812  30.791  1.00  0.00     0.167 HD
ATOM     24  C   UNL A   1      39.841  31.830  34.647  1.00  0.00     0.031 A 
ATOM     25  C   UNL A   1      41.099  28.333  28.777  1.00  0.00     0.031 A 
ATOM     26  C   UNL A   1      40.837  30.805  34.776  1.00  0.00     0.049 A 
ATOM     27  C   UNL A   1      41.917  28.107  30.019  1.00  0.00     0.074 A 
ATOM     28  C   UNL A   1      41.537  30.410  35.902  1.00  0.00     0.029 A 
ATOM     29  N   UNL A   1      41.285  30.019  33.726  1.00  0.00    -0.354 N 
ATOM     30  N   UNL A   1      41.781  28.648  31.205  1.00  0.00    -0.248 NA
ATOM     31  C   UNL A   1      43.000  27.117  29.928  1.00  0.00     0.031 C 
ATOM     32  C   UNL A   1      42.427  29.395  35.527  1.00  0.00     0.029 A 
ATOM     33  C   UNL A   1      42.258  29.145  34.173  1.00  0.00     0.049 A 
ATOM     34  H   UNL A   1      40.958  30.076  32.799  1.00  0.00     0.167 HD
ATOM     35  C   UNL A   1      42.716  28.017  32.017  1.00  0.00     0.074 A 
ATOM     36  C   UNL A   1      43.427  27.070  31.183  1.00  0.00     0.031 C 
ATOM     37  C   UNL A   1      42.940  28.188  33.342  1.00  0.00     0.031 A 
BRANCH  24  38
ATOM     38  C   UNL A   1      39.539  32.713  35.824  1.00  0.00    -0.014 A 
ATOM     39  C   UNL A   1      40.296  33.875  36.054  1.00  0.00     0.009 A 
ATOM     40  C   UNL A   1      38.514  32.382  36.720  1.00  0.00     0.009 A 
ATOM     41  C   UNL A   1      40.076  34.653  37.192  1.00  0.00     0.001 A 
ATOM     42  C   UNL A   1      38.276  33.180  37.843  1.00  0.00     0.001 A 
ATOM     43  C   UNL A   1      39.066  34.304  38.085  1.00  0.00     0.000 A 
ENDBRANCH  24  38
BRANCH  25  44
ATOM     44  C   UNL A   1      41.479  27.686  27.496  1.00  0.00    -0.014 A 
ATOM     45  C   UNL A   1      40.965  26.428  27.152  1.00  0.00     0.009 A 
ATOM     46  C   UNL A   1      42.366  28.325  26.616  1.00  0.00     0.009 A 
ATOM     47  C   UNL A   1      41.350  25.809  25.960  1.00  0.00     0.001 A 
ATOM     48  C   UNL A   1      42.737  27.710  25.418  1.00  0.00     0.001 A 
ATOM     49  C   UNL A   1      42.234  26.451  25.095  1.00  0.00     0.000 A 
ENDBRANCH  25  44
BRANCH  37  50
ATOM     50  C   UNL A   1      43.938  27.280  33.997  1.00  0.00    -0.014 A 
ATOM     51  C   UNL A   1      43.571  26.023  34.496  1.00  0.00     0.009 A 
ATOM     52  C   UNL A   1      45.284  27.676  34.063  1.00  0.00     0.009 A 
ATOM     53  C   UNL A   1      44.531  25.186  35.069  1.00  0.00     0.001 A 
ATOM     54  C   UNL A   1      46.245  26.829  34.616  1.00  0.00     0.001 A 
ATOM     55  C   UNL A   1      45.867  25.588  35.124  1.00  0.00     0.000 A 
ENDBRANCH  37  50
ENDBRANCH  11  12
ENDBRANCH   4   6
ENDBRANCH   3   4
ENDBRANCH   2   3
ENDBRANCH   1   2
BRANCH   1  56
ATOM     56  O   UNL A   1      31.776  29.458  26.112  1.00  0.00    -0.461 OA
BRANCH  56  57
ATOM     57  C   UNL A   1      31.720  28.266  26.780  1.00  0.00     0.329 C 
ATOM     58  O   UNL A   1      31.356  28.170  27.944  1.00  0.00    -0.250 OA
BRANCH  57  59
ATOM     59  C   UNL A   1      32.240  27.087  25.931  1.00  0.00     0.204 C 
ATOM     60  C   UNL A   1      33.756  27.099  25.781  1.00  0.00     0.047 C 
ATOM     61  N   UNL A   1      31.773  26.932  24.551  1.00  0.00    -0.265 N 
ATOM     62  C   UNL A   1      33.996  26.101  24.677  1.00  0.00     0.103 C 
ATOM     63  C   UNL A   1      32.735  26.179  23.864  1.00  0.00     0.230 C 
ATOM     64  O   UNL A   1      32.622  25.600  22.783  1.00  0.00    -0.274 OA
BRANCH  61  65
ATOM     65  C   UNL A   1      30.423  26.809  24.278  1.00  0.00     0.253 C 
ATOM     66  O   UNL A   1      29.794  25.787  24.548  1.00  0.00    -0.269 OA
BRANCH  65  67
ATOM     67  C   UNL A   1      29.649  28.005  23.784  1.00  0.00     0.072 C 
ATOM     68  C   UNL A   1      30.079  29.059  23.073  1.00  0.00     0.014 C 
BRANCH  68  69
ATOM     69  C   UNL A   1      29.291  30.241  22.683  1.00  0.00    -0.025 A 
ATOM     70  C   UNL A   1      28.957  30.401  21.330  1.00  0.00     0.008 A 
ATOM     71  C   UNL A   1      28.992  31.279  23.575  1.00  0.00     0.008 A 
ATOM     72  C   UNL A   1      28.327  31.562  20.876  1.00  0.00     0.001 A 
ATOM     73  C   UNL A   1      28.366  32.445  23.119  1.00  0.00     0.001 A 
ATOM     74  C   UNL A   1      28.035  32.587  21.771  1.00  0.00     0.000 A 
ENDBRANCH  68  69
ENDBRANCH  65  67
ENDBRANCH  61  65
ENDBRANCH  57  59
ENDBRANCH  56  57
ENDBRANCH   1  56
TORSDOF 14
ENDMDL
