MODEL 1
REMARK VINA RESULT:     -11.8      0.000      0.000
REMARK SMILES COC(=O)c1ccc2c(c1)=N[C@H](c1cn(CCC(=O)OCCOC(=O)c3ccc(-c4c5nc(c(-c6ccccc6)c6ccc([nH]6)c(-c6ccccc6)c6nc(c(-c7ccccc7)c7ccc4[nH]7)C=C6)C=C5)cc3)c3ccccc13)N=2
REMARK SMILES IDX 20 1 18 2 19 3 17 4 16 5 15 6 13 7 14 8 79 9 74 10 78 11
REMARK SMILES IDX 75 12 77 13 76 14 12 15 5 16 6 17 10 18 7 19 9 20 8 21 11 22
REMARK SMILES IDX 80 23 3 24 4 25 2 26 1 27 21 28 22 29 23 30 24 31 25 32
REMARK SMILES IDX 26 33 27 34 73 35 28 36 72 37 29 38 30 39 31 40 66 41 32 42
REMARK SMILES IDX 71 43 65 44 67 45 33 46 70 47 64 48 63 49 34 51 56 52 41 53
REMARK SMILES IDX 55 54 42 55 45 56 54 57 68 58 43 59 44 60 53 62 69 63 46 64
REMARK SMILES IDX 35 65 36 66 40 67 37 68 39 69 38 70 57 71 58 72 62 73 59 74
REMARK SMILES IDX 61 75 60 76 47 77 48 78 52 79 49 80 51 81 50 82
REMARK H PARENT 67 50 45 61
REMARK Flexibility Score: inf
ROOT
ATOM      1  O   UNL A   1      36.235  21.883  25.695  1.00  0.00    -0.462 OA
ENDROOT
BRANCH   1   2
ATOM      2  C   UNL A   1      35.024  21.451  26.084  1.00  0.00     0.307 C 
ATOM      3  O   UNL A   1      34.513  21.750  27.157  1.00  0.00    -0.252 OA
BRANCH   2   4
ATOM      4  C   UNL A   1      34.350  20.537  25.074  1.00  0.00     0.144 C 
BRANCH   4   5
ATOM      5  C   UNL A   1      32.825  20.604  24.967  1.00  0.00     0.134 C 
BRANCH   5   6
ATOM      6  N   UNL A   1      32.427  21.806  24.255  1.00  0.00    -0.346 N 
ATOM      7  C   UNL A   1      32.966  23.574  23.055  1.00  0.00     0.024 A 
ATOM      8  C   UNL A   1      32.930  22.186  23.038  1.00  0.00     0.094 A 
ATOM      9  C   UNL A   1      32.678  23.952  24.404  1.00  0.00     0.007 A 
ATOM     10  C   UNL A   1      31.892  22.909  24.871  1.00  0.00     0.048 A 
ATOM     11  C   UNL A   1      32.761  25.124  25.169  1.00  0.00     0.011 A 
ATOM     12  C   UNL A   1      30.902  23.089  25.836  1.00  0.00     0.027 A 
ATOM     13  C   UNL A   1      31.854  25.296  26.217  1.00  0.00     0.001 A 
ATOM     14  C   UNL A   1      30.874  24.334  26.470  1.00  0.00     0.002 A 
BRANCH   7  15
ATOM     15  C   UNL A   1      33.001  24.487  21.859  1.00  0.00     0.255 C 
ATOM     16  C   UNL A   1      31.236  28.566  22.666  1.00  0.00     0.062 A 
ATOM     17  C   UNL A   1      32.651  28.870  22.852  1.00  0.00     0.018 A 
ATOM     18  C   UNL A   1      30.795  27.330  22.374  1.00  0.00     0.046 A 
ATOM     19  C   UNL A   1      33.625  27.957  22.723  1.00  0.00     0.031 A 
ATOM     20  C   UNL A   1      31.801  26.283  22.165  1.00  0.00     0.087 A 
ATOM     21  C   UNL A   1      33.232  26.595  22.345  1.00  0.00     0.086 A 
ATOM     22  N   UNL A   1      31.625  25.075  21.754  1.00  0.00    -0.252 NA
ATOM     23  N   UNL A   1      33.985  25.588  22.071  1.00  0.00    -0.252 NA
BRANCH  16  24
ATOM     24  C   UNL A   1      30.183  29.625  22.773  1.00  0.00     0.337 C 
ATOM     25  O   UNL A   1      29.657  29.973  23.807  1.00  0.00    -0.246 OA
BRANCH  24  26
ATOM     26  O   UNL A   1      29.874  30.075  21.523  1.00  0.00    -0.465 OA
ATOM     27  C   UNL A   1      28.496  30.403  21.338  1.00  0.00     0.282 C 
ENDBRANCH  24  26
ENDBRANCH  16  24
ENDBRANCH   7  15
ENDBRANCH   5   6
ENDBRANCH   4   5
ENDBRANCH   2   4
ENDBRANCH   1   2
BRANCH   1  28
ATOM     28  C   UNL A   1      37.030  20.997  24.884  1.00  0.00     0.274 C 
BRANCH  28  29
ATOM     29  C   UNL A   1      38.463  21.030  25.418  1.00  0.00     0.275 C 
BRANCH  29  30
ATOM     30  O   UNL A   1      38.665  22.277  26.109  1.00  0.00    -0.458 OA
BRANCH  30  31
ATOM     31  C   UNL A   1      39.686  22.282  27.003  1.00  0.00     0.338 C 
ATOM     32  O   UNL A   1      40.352  21.320  27.349  1.00  0.00    -0.246 OA
BRANCH  31  33
ATOM     33  C   UNL A   1      40.107  23.693  27.198  1.00  0.00     0.060 A 
ATOM     34  C   UNL A   1      41.290  24.012  27.873  1.00  0.00     0.016 A 
ATOM     35  C   UNL A   1      39.143  24.680  26.958  1.00  0.00     0.016 A 
ATOM     36  C   UNL A   1      41.418  25.258  28.474  1.00  0.00     0.010 A 
ATOM     37  C   UNL A   1      39.267  25.919  27.574  1.00  0.00     0.010 A 
ATOM     38  C   UNL A   1      40.367  26.178  28.398  1.00  0.00    -0.014 A 
BRANCH  38  39
ATOM     39  C   UNL A   1      40.528  27.475  29.050  1.00  0.00     0.031 A 
ATOM     40  C   UNL A   1      41.602  28.304  28.444  1.00  0.00     0.074 A 
ATOM     41  C   UNL A   1      39.763  27.999  30.031  1.00  0.00     0.049 A 
ATOM     42  N   UNL A   1      42.718  28.661  28.986  1.00  0.00    -0.248 NA
ATOM     43  C   UNL A   1      41.468  28.674  27.029  1.00  0.00     0.031 C 
ATOM     44  C   UNL A   1      38.513  27.522  30.606  1.00  0.00     0.029 A 
ATOM     45  N   UNL A   1      39.936  29.185  30.680  1.00  0.00    -0.354 N 
ATOM     46  C   UNL A   1      43.391  29.404  28.022  1.00  0.00     0.074 A 
ATOM     47  C   UNL A   1      42.641  29.260  26.801  1.00  0.00     0.031 C 
ATOM     48  C   UNL A   1      37.911  28.505  31.310  1.00  0.00     0.029 A 
ATOM     49  C   UNL A   1      38.826  29.623  31.387  1.00  0.00     0.049 A 
ATOM     50  H   UNL A   1      40.781  29.690  30.650  1.00  0.00     0.167 HD
ATOM     51  C   UNL A   1      44.433  30.223  28.328  1.00  0.00     0.031 A 
ATOM     52  C   UNL A   1      38.650  30.830  31.974  1.00  0.00     0.031 A 
ATOM     53  C   UNL A   1      44.963  29.955  29.637  1.00  0.00     0.049 A 
ATOM     54  C   UNL A   1      39.996  31.406  32.189  1.00  0.00     0.074 A 
ATOM     55  C   UNL A   1      45.585  28.872  30.226  1.00  0.00     0.029 A 
ATOM     56  N   UNL A   1      44.555  30.761  30.674  1.00  0.00    -0.354 N 
ATOM     57  N   UNL A   1      40.866  30.908  33.022  1.00  0.00    -0.248 NA
ATOM     58  C   UNL A   1      40.542  32.250  31.138  1.00  0.00     0.031 C 
ATOM     59  C   UNL A   1      45.074  28.838  31.555  1.00  0.00     0.029 A 
ATOM     60  C   UNL A   1      44.219  29.931  31.712  1.00  0.00     0.049 A 
ATOM     61  H   UNL A   1      44.511  31.745  30.671  1.00  0.00     0.167 HD
ATOM     62  C   UNL A   1      42.085  31.022  32.370  1.00  0.00     0.074 A 
ATOM     63  C   UNL A   1      41.832  31.925  31.247  1.00  0.00     0.031 C 
ATOM     64  C   UNL A   1      43.119  30.166  32.623  1.00  0.00     0.031 A 
BRANCH  51  65
ATOM     65  C   UNL A   1      44.780  31.467  27.558  1.00  0.00    -0.014 A 
ATOM     66  C   UNL A   1      43.999  32.637  27.576  1.00  0.00     0.009 A 
ATOM     67  C   UNL A   1      46.055  31.570  26.976  1.00  0.00     0.009 A 
ATOM     68  C   UNL A   1      44.457  33.846  27.048  1.00  0.00     0.001 A 
ATOM     69  C   UNL A   1      46.538  32.790  26.487  1.00  0.00     0.001 A 
ATOM     70  C   UNL A   1      45.739  33.928  26.525  1.00  0.00     0.000 A 
ENDBRANCH  51  65
BRANCH  52  71
ATOM     71  C   UNL A   1      37.420  31.655  31.912  1.00  0.00    -0.014 A 
ATOM     72  C   UNL A   1      36.792  32.082  33.099  1.00  0.00     0.009 A 
ATOM     73  C   UNL A   1      36.703  31.790  30.713  1.00  0.00     0.009 A 
ATOM     74  C   UNL A   1      35.486  32.582  33.097  1.00  0.00     0.001 A 
ATOM     75  C   UNL A   1      35.393  32.290  30.711  1.00  0.00     0.001 A 
ATOM     76  C   UNL A   1      34.779  32.669  31.904  1.00  0.00     0.000 A 
ENDBRANCH  52  71
BRANCH  64  77
ATOM     77  C   UNL A   1      42.996  29.175  33.758  1.00  0.00    -0.014 A 
ATOM     78  C   UNL A   1      42.244  28.009  33.537  1.00  0.00     0.009 A 
ATOM     79  C   UNL A   1      43.367  29.486  35.079  1.00  0.00     0.009 A 
ATOM     80  C   UNL A   1      41.838  27.202  34.603  1.00  0.00     0.001 A 
ATOM     81  C   UNL A   1      42.979  28.664  36.144  1.00  0.00     0.001 A 
ATOM     82  C   UNL A   1      42.201  27.533  35.906  1.00  0.00     0.000 A 
ENDBRANCH  64  77
ENDBRANCH  38  39
ENDBRANCH  31  33
ENDBRANCH  30  31
ENDBRANCH  29  30
ENDBRANCH  28  29
ENDBRANCH   1  28
TORSDOF 16
ENDMDL
MODEL 2
REMARK VINA RESULT:     -11.8      2.420      8.010
REMARK SMILES COC(=O)c1ccc2c(c1)=N[C@H](c1cn(CCC(=O)OCCOC(=O)c3ccc(-c4c5nc(c(-c6ccccc6)c6ccc([nH]6)c(-c6ccccc6)c6nc(c(-c7ccccc7)c7ccc4[nH]7)C=C6)C=C5)cc3)c3ccccc13)N=2
REMARK SMILES IDX 20 1 18 2 19 3 17 4 16 5 15 6 13 7 14 8 79 9 74 10 78 11
REMARK SMILES IDX 75 12 77 13 76 14 12 15 5 16 6 17 10 18 7 19 9 20 8 21 11 22
REMARK SMILES IDX 80 23 3 24 4 25 2 26 1 27 21 28 22 29 23 30 24 31 25 32
REMARK SMILES IDX 26 33 27 34 73 35 28 36 72 37 29 38 30 39 31 40 66 41 32 42
REMARK SMILES IDX 71 43 65 44 67 45 33 46 70 47 64 48 63 49 34 51 56 52 41 53
REMARK SMILES IDX 55 54 42 55 45 56 54 57 68 58 43 59 44 60 53 62 69 63 46 64
REMARK SMILES IDX 35 65 36 66 40 67 37 68 39 69 38 70 57 71 58 72 62 73 59 74
REMARK SMILES IDX 61 75 60 76 47 77 48 78 52 79 49 80 51 81 50 82
REMARK H PARENT 67 50 45 61
REMARK Flexibility Score: inf
ROOT
ATOM      1  O   UNL A   1      33.052  29.585  25.655  1.00  0.00    -0.462 OA
ENDROOT
BRANCH   1   2
ATOM      2  C   UNL A   1      32.612  29.213  24.441  1.00  0.00     0.307 C 
ATOM      3  O   UNL A   1      33.357  28.942  23.506  1.00  0.00    -0.252 OA
BRANCH   2   4
ATOM      4  C   UNL A   1      31.096  29.176  24.327  1.00  0.00     0.144 C 
BRANCH   4   5
ATOM      5  C   UNL A   1      30.488  28.232  23.287  1.00  0.00     0.134 C 
BRANCH   5   6
ATOM      6  N   UNL A   1      30.563  26.859  23.755  1.00  0.00    -0.346 N 
ATOM      7  C   UNL A   1      30.937  25.420  25.382  1.00  0.00     0.024 A 
ATOM      8  C   UNL A   1      30.077  26.426  24.962  1.00  0.00     0.094 A 
ATOM      9  C   UNL A   1      32.048  25.458  24.481  1.00  0.00     0.007 A 
ATOM     10  C   UNL A   1      31.495  25.956  23.309  1.00  0.00     0.048 A 
ATOM     11  C   UNL A   1      33.336  24.907  24.433  1.00  0.00     0.011 A 
ATOM     12  C   UNL A   1      31.973  25.608  22.047  1.00  0.00     0.027 A 
ATOM     13  C   UNL A   1      33.896  24.641  23.182  1.00  0.00     0.001 A 
ATOM     14  C   UNL A   1      33.173  24.892  22.014  1.00  0.00     0.002 A 
BRANCH   7  15
ATOM     15  C   UNL A   1      30.632  24.334  26.378  1.00  0.00     0.255 C 
ATOM     16  C   UNL A   1      32.812  20.467  25.538  1.00  0.00     0.062 A 
ATOM     17  C   UNL A   1      33.704  21.039  26.540  1.00  0.00     0.018 A 
ATOM     18  C   UNL A   1      31.713  21.107  25.100  1.00  0.00     0.046 A 
ATOM     19  C   UNL A   1      33.493  22.228  27.124  1.00  0.00     0.031 A 
ATOM     20  C   UNL A   1      31.381  22.392  25.726  1.00  0.00     0.087 A 
ATOM     21  C   UNL A   1      32.281  22.963  26.747  1.00  0.00     0.086 A 
ATOM     22  N   UNL A   1      30.325  23.111  25.566  1.00  0.00    -0.252 NA
ATOM     23  N   UNL A   1      31.822  24.062  27.236  1.00  0.00    -0.252 NA
BRANCH  16  24
ATOM     24  C   UNL A   1      33.058  19.115  24.944  1.00  0.00     0.337 C 
ATOM     25  O   UNL A   1      32.241  18.224  24.895  1.00  0.00    -0.246 OA
BRANCH  24  26
ATOM     26  O   UNL A   1      34.357  19.038  24.535  1.00  0.00    -0.465 OA
ATOM     27  C   UNL A   1      34.871  17.707  24.450  1.00  0.00     0.282 C 
ENDBRANCH  24  26
ENDBRANCH  16  24
ENDBRANCH   7  15
ENDBRANCH   5   6
ENDBRANCH   4   5
ENDBRANCH   2   4
ENDBRANCH   1   2
BRANCH   1  28
ATOM     28  C   UNL A   1      32.154  30.347  26.484  1.00  0.00     0.274 C 
BRANCH  28  29
ATOM     29  C   UNL A   1      32.993  31.320  27.314  1.00  0.00     0.275 C 
BRANCH  29  30
ATOM     30  O   UNL A   1      34.381  30.978  27.153  1.00  0.00    -0.458 OA
BRANCH  30  31
ATOM     31  C   UNL A   1      35.259  31.876  27.670  1.00  0.00     0.338 C 
ATOM     32  O   UNL A   1      35.073  33.073  27.812  1.00  0.00    -0.246 OA
BRANCH  31  33
ATOM     33  C   UNL A   1      36.317  31.112  28.381  1.00  0.00     0.060 A 
ATOM     34  C   UNL A   1      37.386  31.762  29.007  1.00  0.00     0.016 A 
ATOM     35  C   UNL A   1      36.372  29.734  28.141  1.00  0.00     0.016 A 
ATOM     36  C   UNL A   1      38.575  31.075  29.213  1.00  0.00     0.010 A 
ATOM     37  C   UNL A   1      37.568  29.054  28.334  1.00  0.00     0.010 A 
ATOM     38  C   UNL A   1      38.693  29.746  28.794  1.00  0.00    -0.014 A 
BRANCH  38  39
ATOM     39  C   UNL A   1      39.961  29.055  29.014  1.00  0.00     0.031 A 
ATOM     40  C   UNL A   1      40.268  28.843  30.452  1.00  0.00     0.074 A 
ATOM     41  C   UNL A   1      40.781  28.530  28.079  1.00  0.00     0.049 A 
ATOM     42  N   UNL A   1      41.225  29.375  31.137  1.00  0.00    -0.248 NA
ATOM     43  C   UNL A   1      39.327  28.040  31.245  1.00  0.00     0.031 C 
ATOM     44  C   UNL A   1      40.589  28.365  26.645  1.00  0.00     0.029 A 
ATOM     45  N   UNL A   1      41.990  27.930  28.271  1.00  0.00    -0.354 N 
ATOM     46  C   UNL A   1      41.084  28.889  32.432  1.00  0.00     0.074 A 
ATOM     47  C   UNL A   1      39.826  28.189  32.469  1.00  0.00     0.031 C 
ATOM     48  C   UNL A   1      41.495  27.496  26.144  1.00  0.00     0.029 A 
ATOM     49  C   UNL A   1      42.444  27.189  27.190  1.00  0.00     0.049 A 
ATOM     50  H   UNL A   1      42.499  28.016  29.110  1.00  0.00     0.167 HD
ATOM     51  C   UNL A   1      42.088  28.953  33.348  1.00  0.00     0.031 A 
ATOM     52  C   UNL A   1      43.510  26.355  27.157  1.00  0.00     0.031 A 
ATOM     53  C   UNL A   1      43.122  29.869  32.952  1.00  0.00     0.049 A 
ATOM     54  C   UNL A   1      44.401  26.748  28.272  1.00  0.00     0.074 A 
ATOM     55  C   UNL A   1      43.176  31.231  32.733  1.00  0.00     0.029 A 
ATOM     56  N   UNL A   1      44.248  29.350  32.357  1.00  0.00    -0.354 N 
ATOM     57  N   UNL A   1      45.041  27.883  28.313  1.00  0.00    -0.248 NA
ATOM     58  C   UNL A   1      44.210  26.085  29.551  1.00  0.00     0.031 C 
ATOM     59  C   UNL A   1      44.039  31.385  31.610  1.00  0.00     0.029 A 
ATOM     60  C   UNL A   1      44.501  30.117  31.250  1.00  0.00     0.049 A 
ATOM     61  H   UNL A   1      44.772  28.576  32.667  1.00  0.00     0.167 HD
ATOM     62  C   UNL A   1      44.965  28.283  29.639  1.00  0.00     0.074 A 
ATOM     63  C   UNL A   1      44.507  27.099  30.367  1.00  0.00     0.031 C 
ATOM     64  C   UNL A   1      45.007  29.601  29.996  1.00  0.00     0.031 A 
BRANCH  51  65
ATOM     65  C   UNL A   1      42.274  27.961  34.463  1.00  0.00    -0.014 A 
ATOM     66  C   UNL A   1      41.788  28.157  35.769  1.00  0.00     0.009 A 
ATOM     67  C   UNL A   1      42.743  26.672  34.153  1.00  0.00     0.009 A 
ATOM     68  C   UNL A   1      41.765  27.131  36.716  1.00  0.00     0.001 A 
ATOM     69  C   UNL A   1      42.680  25.629  35.084  1.00  0.00     0.001 A 
ATOM     70  C   UNL A   1      42.189  25.859  36.365  1.00  0.00     0.000 A 
ENDBRANCH  51  65
BRANCH  52  71
ATOM     71  C   UNL A   1      43.541  25.010  26.536  1.00  0.00    -0.014 A 
ATOM     72  C   UNL A   1      44.190  24.814  25.300  1.00  0.00     0.009 A 
ATOM     73  C   UNL A   1      42.705  23.982  27.001  1.00  0.00     0.009 A 
ATOM     74  C   UNL A   1      43.979  23.660  24.537  1.00  0.00     0.001 A 
ATOM     75  C   UNL A   1      42.493  22.827  26.234  1.00  0.00     0.001 A 
ATOM     76  C   UNL A   1      43.116  22.674  24.997  1.00  0.00     0.000 A 
ENDBRANCH  52  71
BRANCH  64  77
ATOM     77  C   UNL A   1      45.311  30.642  28.943  1.00  0.00    -0.014 A 
ATOM     78  C   UNL A   1      44.277  31.020  28.072  1.00  0.00     0.009 A 
ATOM     79  C   UNL A   1      46.623  31.043  28.631  1.00  0.00     0.009 A 
ATOM     80  C   UNL A   1      44.547  31.738  26.904  1.00  0.00     0.001 A 
ATOM     81  C   UNL A   1      46.889  31.782  27.473  1.00  0.00     0.001 A 
ATOM     82  C   UNL A   1      45.853  32.114  26.602  1.00  0.00     0.000 A 
ENDBRANCH  64  77
ENDBRANCH  38  39
ENDBRANCH  31  33
ENDBRANCH  30  31
ENDBRANCH  29  30
ENDBRANCH  28  29
ENDBRANCH   1  28
TORSDOF 16
ENDMDL
MODEL 3
REMARK VINA RESULT:     -11.7      2.761      8.265
REMARK SMILES COC(=O)c1ccc2c(c1)=N[C@H](c1cn(CCC(=O)OCCOC(=O)c3ccc(-c4c5nc(c(-c6ccccc6)c6ccc([nH]6)c(-c6ccccc6)c6nc(c(-c7ccccc7)c7ccc4[nH]7)C=C6)C=C5)cc3)c3ccccc13)N=2
REMARK SMILES IDX 20 1 18 2 19 3 17 4 16 5 15 6 13 7 14 8 79 9 74 10 78 11
REMARK SMILES IDX 75 12 77 13 76 14 12 15 5 16 6 17 10 18 7 19 9 20 8 21 11 22
REMARK SMILES IDX 80 23 3 24 4 25 2 26 1 27 21 28 22 29 23 30 24 31 25 32
REMARK SMILES IDX 26 33 27 34 73 35 28 36 72 37 29 38 30 39 31 40 66 41 32 42
REMARK SMILES IDX 71 43 65 44 67 45 33 46 70 47 64 48 63 49 34 51 56 52 41 53
REMARK SMILES IDX 55 54 42 55 45 56 54 57 68 58 43 59 44 60 53 62 69 63 46 64
REMARK SMILES IDX 35 65 36 66 40 67 37 68 39 69 38 70 57 71 58 72 62 73 59 74
REMARK SMILES IDX 61 75 60 76 47 77 48 78 52 79 49 80 51 81 50 82
REMARK H PARENT 67 50 45 61
REMARK Flexibility Score: inf
ROOT
ATOM      1  O   UNL A   1      34.523  31.596  27.689  1.00  0.00    -0.462 OA
ENDROOT
BRANCH   1   2
ATOM      2  C   UNL A   1      33.659  30.665  27.247  1.00  0.00     0.307 C 
ATOM      3  O   UNL A   1      32.446  30.833  27.214  1.00  0.00    -0.252 OA
BRANCH   2   4
ATOM      4  C   UNL A   1      34.327  29.372  26.810  1.00  0.00     0.144 C 
BRANCH   4   5
ATOM      5  C   UNL A   1      33.895  28.771  25.471  1.00  0.00     0.134 C 
BRANCH   5   6
ATOM      6  N   UNL A   1      32.654  28.033  25.633  1.00  0.00    -0.346 N 
ATOM      7  C   UNL A   1      31.542  26.133  25.529  1.00  0.00     0.024 A 
ATOM      8  C   UNL A   1      32.563  26.789  26.204  1.00  0.00     0.094 A 
ATOM      9  C   UNL A   1      31.216  26.966  24.413  1.00  0.00     0.007 A 
ATOM     10  C   UNL A   1      31.542  28.240  24.856  1.00  0.00     0.048 A 
ATOM     11  C   UNL A   1      30.469  26.837  23.234  1.00  0.00     0.011 A 
ATOM     12  C   UNL A   1      30.868  29.381  24.422  1.00  0.00     0.027 A 
ATOM     13  C   UNL A   1      29.865  27.979  22.705  1.00  0.00     0.001 A 
ATOM     14  C   UNL A   1      29.980  29.208  23.357  1.00  0.00     0.002 A 
BRANCH   7  15
ATOM     15  C   UNL A   1      30.748  24.955  26.027  1.00  0.00     0.255 C 
ATOM     16  C   UNL A   1      32.926  21.019  25.607  1.00  0.00     0.062 A 
ATOM     17  C   UNL A   1      33.226  21.318  27.004  1.00  0.00     0.018 A 
ATOM     18  C   UNL A   1      32.209  21.849  24.830  1.00  0.00     0.046 A 
ATOM     19  C   UNL A   1      32.794  22.422  27.632  1.00  0.00     0.031 A 
ATOM     20  C   UNL A   1      31.655  23.056  25.453  1.00  0.00     0.087 A 
ATOM     21  C   UNL A   1      31.953  23.350  26.869  1.00  0.00     0.086 A 
ATOM     22  N   UNL A   1      30.841  23.916  24.949  1.00  0.00    -0.252 NA
ATOM     23  N   UNL A   1      31.350  24.411  27.280  1.00  0.00    -0.252 NA
BRANCH  16  24
ATOM     24  C   UNL A   1      33.388  19.752  24.956  1.00  0.00     0.337 C 
ATOM     25  O   UNL A   1      34.541  19.491  24.698  1.00  0.00    -0.246 OA
BRANCH  24  26
ATOM     26  O   UNL A   1      32.302  18.988  24.648  1.00  0.00    -0.465 OA
ATOM     27  C   UNL A   1      32.491  17.586  24.851  1.00  0.00     0.282 C 
ENDBRANCH  24  26
ENDBRANCH  16  24
ENDBRANCH   7  15
ENDBRANCH   5   6
ENDBRANCH   4   5
ENDBRANCH   2   4
ENDBRANCH   1   2
BRANCH   1  28
ATOM     28  C   UNL A   1      34.007  32.916  27.945  1.00  0.00     0.274 C 
BRANCH  28  29
ATOM     29  C   UNL A   1      34.275  33.247  29.414  1.00  0.00     0.275 C 
BRANCH  29  30
ATOM     30  O   UNL A   1      35.262  32.329  29.917  1.00  0.00    -0.458 OA
BRANCH  30  31
ATOM     31  C   UNL A   1      36.483  32.871  30.159  1.00  0.00     0.338 C 
ATOM     32  O   UNL A   1      36.729  33.794  30.917  1.00  0.00    -0.246 OA
BRANCH  31  33
ATOM     33  C   UNL A   1      37.506  31.920  29.653  1.00  0.00     0.060 A 
ATOM     34  C   UNL A   1      37.156  30.633  29.229  1.00  0.00     0.016 A 
ATOM     35  C   UNL A   1      38.846  32.240  29.902  1.00  0.00     0.016 A 
ATOM     36  C   UNL A   1      38.113  29.626  29.243  1.00  0.00     0.010 A 
ATOM     37  C   UNL A   1      39.797  31.227  29.931  1.00  0.00     0.010 A 
ATOM     38  C   UNL A   1      39.411  29.907  29.680  1.00  0.00    -0.014 A 
BRANCH  38  39
ATOM     39  C   UNL A   1      40.391  28.823  29.693  1.00  0.00     0.031 A 
ATOM     40  C   UNL A   1      40.912  28.524  31.052  1.00  0.00     0.074 A 
ATOM     41  C   UNL A   1      40.766  28.046  28.655  1.00  0.00     0.049 A 
ATOM     42  N   UNL A   1      42.115  28.697  31.487  1.00  0.00    -0.248 NA
ATOM     43  C   UNL A   1      39.950  28.095  32.076  1.00  0.00     0.031 C 
ATOM     44  C   UNL A   1      40.226  27.952  27.306  1.00  0.00     0.029 A 
ATOM     45  N   UNL A   1      41.716  27.068  28.646  1.00  0.00    -0.354 N 
ATOM     46  C   UNL A   1      42.102  28.293  32.817  1.00  0.00     0.074 A 
ATOM     47  C   UNL A   1      40.722  28.067  33.160  1.00  0.00     0.031 C 
ATOM     48  C   UNL A   1      40.658  26.824  26.701  1.00  0.00     0.029 A 
ATOM     49  C   UNL A   1      41.652  26.212  27.556  1.00  0.00     0.049 A 
ATOM     50  H   UNL A   1      42.392  26.976  29.356  1.00  0.00     0.167 HD
ATOM     51  C   UNL A   1      43.242  28.011  33.505  1.00  0.00     0.031 A 
ATOM     52  C   UNL A   1      42.344  25.063  27.373  1.00  0.00     0.031 A 
ATOM     53  C   UNL A   1      44.412  28.515  32.839  1.00  0.00     0.049 A 
ATOM     54  C   UNL A   1      43.533  25.130  28.252  1.00  0.00     0.074 A 
ATOM     55  C   UNL A   1      44.870  29.775  32.510  1.00  0.00     0.029 A 
ATOM     56  N   UNL A   1      45.143  27.639  32.072  1.00  0.00    -0.354 N 
ATOM     57  N   UNL A   1      44.509  25.976  28.076  1.00  0.00    -0.248 NA
ATOM     58  C   UNL A   1      43.411  24.577  29.591  1.00  0.00     0.031 C 
ATOM     59  C   UNL A   1      45.471  29.620  31.228  1.00  0.00     0.029 A 
ATOM     60  C   UNL A   1      45.393  28.269  30.881  1.00  0.00     0.049 A 
ATOM     61  H   UNL A   1      45.431  26.733  32.329  1.00  0.00     0.167 HD
ATOM     62  C   UNL A   1      44.858  26.382  29.355  1.00  0.00     0.074 A 
ATOM     63  C   UNL A   1      44.199  25.429  30.250  1.00  0.00     0.031 C 
ATOM     64  C   UNL A   1      45.415  27.606  29.595  1.00  0.00     0.031 A 
BRANCH  51  65
ATOM     65  C   UNL A   1      43.320  27.019  34.632  1.00  0.00    -0.014 A 
ATOM     66  C   UNL A   1      43.073  27.348  35.978  1.00  0.00     0.009 A 
ATOM     67  C   UNL A   1      43.411  25.650  34.326  1.00  0.00     0.009 A 
ATOM     68  C   UNL A   1      42.922  26.374  36.966  1.00  0.00     0.001 A 
ATOM     69  C   UNL A   1      43.214  24.668  35.304  1.00  0.00     0.001 A 
ATOM     70  C   UNL A   1      42.967  25.031  36.624  1.00  0.00     0.000 A 
ENDBRANCH  51  65
BRANCH  52  71
ATOM     71  C   UNL A   1      41.788  23.787  26.863  1.00  0.00    -0.014 A 
ATOM     72  C   UNL A   1      40.496  23.374  27.245  1.00  0.00     0.009 A 
ATOM     73  C   UNL A   1      42.614  22.841  26.236  1.00  0.00     0.009 A 
ATOM     74  C   UNL A   1      40.061  22.059  27.050  1.00  0.00     0.001 A 
ATOM     75  C   UNL A   1      42.178  21.522  26.043  1.00  0.00     0.001 A 
ATOM     76  C   UNL A   1      40.909  21.128  26.465  1.00  0.00     0.000 A 
ENDBRANCH  52  71
BRANCH  64  77
ATOM     77  C   UNL A   1      45.815  28.477  28.425  1.00  0.00    -0.014 A 
ATOM     78  C   UNL A   1      47.184  28.615  28.144  1.00  0.00     0.009 A 
ATOM     79  C   UNL A   1      44.914  29.348  27.787  1.00  0.00     0.009 A 
ATOM     80  C   UNL A   1      47.644  29.618  27.286  1.00  0.00     0.001 A 
ATOM     81  C   UNL A   1      45.374  30.337  26.910  1.00  0.00     0.001 A 
ATOM     82  C   UNL A   1      46.740  30.482  26.674  1.00  0.00     0.000 A 
ENDBRANCH  64  77
ENDBRANCH  38  39
ENDBRANCH  31  33
ENDBRANCH  30  31
ENDBRANCH  29  30
ENDBRANCH  28  29
ENDBRANCH   1  28
TORSDOF 16
ENDMDL
