MODEL 1
REMARK VINA RESULT:      -9.9      0.000      0.000
REMARK SMILES Cc1cc2c(c(C)c1Cl)C=C(C(=O)OCCOC(=O)c1ccc(-c3c4nc(c(-c5ccccc5)c5ccc([nH]5)c(-c5ccccc5)c5nc(c(-c6ccccc6)c6ccc3[nH]6)C=C5)C=C4)cc1)[C@@H](C(F)(F)F)O2
REMARK SMILES IDX 16 1 15 2 14 3 12 4 13 5 11 6 1 7 2 8 3 9 8 10 4 11 6 12
REMARK SMILES IDX 9 13 5 14 73 15 7 16 10 17 68 18 69 19 70 20 71 21 72 22
REMARK SMILES IDX 17 23 18 24 19 25 20 26 21 27 67 28 22 29 66 30 23 31 24 32
REMARK SMILES IDX 25 33 60 34 26 35 65 36 59 37 61 38 27 39 64 40 58 41 57 42
REMARK SMILES IDX 28 44 50 45 35 46 49 47 36 48 39 49 48 50 62 51 37 52 38 53
REMARK SMILES IDX 47 55 63 56 40 57 29 58 30 59 34 60 31 61 33 62 32 63 51 64
REMARK SMILES IDX 52 65 56 66 53 67 55 68 54 69 41 70 42 71 46 72 43 73 45 74
REMARK SMILES IDX 44 75
REMARK H PARENT 61 43 39 54
REMARK Flexibility Score: inf
ROOT
ATOM      1  C   UNL A   1      40.999  19.862  26.147  1.00  0.00     0.275 C 
ENDROOT
BRANCH   1   2
ATOM      2  C   UNL A   1      42.332  20.004  26.878  1.00  0.00     0.275 C 
BRANCH   2   3
ATOM      3  O   UNL A   1      43.361  20.493  25.990  1.00  0.00    -0.459 OA
BRANCH   3   4
ATOM      4  C   UNL A   1      43.312  21.817  25.711  1.00  0.00     0.338 C 
ATOM      5  O   UNL A   1      42.454  22.396  25.064  1.00  0.00    -0.246 OA
BRANCH   4   6
ATOM      6  C   UNL A   1      44.451  22.513  26.339  1.00  0.00     0.087 C 
ATOM      7  C   UNL A   1      48.606  26.324  29.549  1.00  0.00     0.046 C 
ATOM      8  C   UNL A   1      47.420  25.518  29.087  1.00  0.00    -0.028 A 
ATOM      9  C   UNL A   1      47.580  24.737  27.933  1.00  0.00     0.052 A 
ATOM     10  C   UNL A   1      46.195  25.470  29.777  1.00  0.00     0.047 A 
ATOM     11  C   UNL A   1      46.534  23.965  27.435  1.00  0.00     0.128 A 
ATOM     12  C   UNL A   1      45.113  24.704  29.280  1.00  0.00    -0.021 A 
ATOM     13  Cl  UNL A   1      46.031  26.356  31.263  1.00  0.00    -0.084 Cl
ATOM     14  C   UNL A   1      45.296  23.957  28.085  1.00  0.00     0.022 A 
ATOM     15  O   UNL A   1      46.829  23.235  26.318  1.00  0.00    -0.475 OA
ATOM     16  C   UNL A   1      43.787  24.646  30.005  1.00  0.00     0.047 C 
ATOM     17  C   UNL A   1      44.225  23.172  27.482  1.00  0.00     0.027 C 
ATOM     18  C   UNL A   1      45.762  22.546  25.615  1.00  0.00     0.316 C 
BRANCH  18  19
ATOM     19  C   UNL A   1      45.614  23.164  24.215  1.00  0.00     0.430 C 
ATOM     20  F   UNL A   1      45.103  22.273  23.332  1.00  0.00    -0.167 F 
ATOM     21  F   UNL A   1      44.770  24.224  24.226  1.00  0.00    -0.167 F 
ATOM     22  F   UNL A   1      46.796  23.595  23.720  1.00  0.00    -0.167 F 
ENDBRANCH  18  19
ENDBRANCH   4   6
ENDBRANCH   3   4
ENDBRANCH   2   3
ENDBRANCH   1   2
BRANCH   1  23
ATOM     23  O   UNL A   1      39.953  20.480  26.918  1.00  0.00    -0.458 OA
BRANCH  23  24
ATOM     24  C   UNL A   1      39.237  21.438  26.286  1.00  0.00     0.338 C 
ATOM     25  O   UNL A   1      38.379  21.286  25.435  1.00  0.00    -0.246 OA
BRANCH  24  26
ATOM     26  C   UNL A   1      39.608  22.762  26.816  1.00  0.00     0.060 A 
ATOM     27  C   UNL A   1      39.171  23.902  26.154  1.00  0.00     0.016 A 
ATOM     28  C   UNL A   1      40.505  22.876  27.877  1.00  0.00     0.016 A 
ATOM     29  C   UNL A   1      39.723  25.142  26.459  1.00  0.00     0.010 A 
ATOM     30  C   UNL A   1      40.957  24.144  28.269  1.00  0.00     0.010 A 
ATOM     31  C   UNL A   1      40.611  25.292  27.534  1.00  0.00    -0.014 A 
BRANCH  31  32
ATOM     32  C   UNL A   1      41.184  26.637  27.851  1.00  0.00     0.031 A 
ATOM     33  C   UNL A   1      42.521  27.059  27.287  1.00  0.00     0.074 A 
ATOM     34  C   UNL A   1      40.488  27.518  28.603  1.00  0.00     0.049 A 
ATOM     35  N   UNL A   1      43.230  28.128  27.558  1.00  0.00    -0.248 NA
ATOM     36  C   UNL A   1      43.149  26.166  26.300  1.00  0.00     0.031 C 
ATOM     37  C   UNL A   1      39.161  27.285  29.176  1.00  0.00     0.029 A 
ATOM     38  N   UNL A   1      40.783  28.806  28.981  1.00  0.00    -0.354 N 
ATOM     39  C   UNL A   1      44.408  28.000  26.830  1.00  0.00     0.074 A 
ATOM     40  C   UNL A   1      44.321  26.752  26.106  1.00  0.00     0.031 C 
ATOM     41  C   UNL A   1      38.718  28.415  29.743  1.00  0.00     0.029 A 
ATOM     42  C   UNL A   1      39.772  29.420  29.683  1.00  0.00     0.049 A 
ATOM     43  H   UNL A   1      41.638  29.247  28.770  1.00  0.00     0.167 HD
ATOM     44  C   UNL A   1      45.467  28.845  26.772  1.00  0.00     0.031 A 
ATOM     45  C   UNL A   1      39.702  30.639  30.251  1.00  0.00     0.031 A 
ATOM     46  C   UNL A   1      45.534  30.115  27.446  1.00  0.00     0.049 A 
ATOM     47  C   UNL A   1      40.899  31.541  30.204  1.00  0.00     0.074 A 
ATOM     48  C   UNL A   1      46.572  31.032  27.452  1.00  0.00     0.029 A 
ATOM     49  N   UNL A   1      44.514  30.660  28.207  1.00  0.00    -0.354 N 
ATOM     50  N   UNL A   1      42.043  31.357  29.594  1.00  0.00    -0.248 NA
ATOM     51  C   UNL A   1      40.809  32.803  30.954  1.00  0.00     0.031 C 
ATOM     52  C   UNL A   1      46.193  32.117  28.247  1.00  0.00     0.029 A 
ATOM     53  C   UNL A   1      44.902  31.896  28.695  1.00  0.00     0.049 A 
ATOM     54  H   UNL A   1      43.644  30.233  28.377  1.00  0.00     0.167 HD
ATOM     55  C   UNL A   1      42.809  32.478  29.884  1.00  0.00     0.074 A 
ATOM     56  C   UNL A   1      41.992  33.348  30.704  1.00  0.00     0.031 C 
ATOM     57  C   UNL A   1      44.082  32.752  29.511  1.00  0.00     0.031 A 
BRANCH  44  58
ATOM     58  C   UNL A   1      46.665  28.413  25.973  1.00  0.00    -0.014 A 
ATOM     59  C   UNL A   1      47.909  28.183  26.581  1.00  0.00     0.009 A 
ATOM     60  C   UNL A   1      46.526  28.169  24.597  1.00  0.00     0.009 A 
ATOM     61  C   UNL A   1      48.994  27.737  25.820  1.00  0.00     0.001 A 
ATOM     62  C   UNL A   1      47.604  27.698  23.845  1.00  0.00     0.001 A 
ATOM     63  C   UNL A   1      48.839  27.490  24.456  1.00  0.00     0.000 A 
ENDBRANCH  44  58
BRANCH  45  64
ATOM     64  C   UNL A   1      38.458  31.057  30.951  1.00  0.00    -0.014 A 
ATOM     65  C   UNL A   1      37.400  31.637  30.234  1.00  0.00     0.009 A 
ATOM     66  C   UNL A   1      38.307  30.849  32.332  1.00  0.00     0.009 A 
ATOM     67  C   UNL A   1      36.218  31.998  30.886  1.00  0.00     0.001 A 
ATOM     68  C   UNL A   1      37.113  31.180  32.974  1.00  0.00     0.001 A 
ATOM     69  C   UNL A   1      36.071  31.760  32.253  1.00  0.00     0.000 A 
ENDBRANCH  45  64
BRANCH  57  70
ATOM     70  C   UNL A   1      44.670  34.054  29.970  1.00  0.00    -0.014 A 
ATOM     71  C   UNL A   1      45.417  34.131  31.155  1.00  0.00     0.009 A 
ATOM     72  C   UNL A   1      44.532  35.200  29.172  1.00  0.00     0.009 A 
ATOM     73  C   UNL A   1      46.000  35.339  31.541  1.00  0.00     0.001 A 
ATOM     74  C   UNL A   1      45.136  36.400  29.550  1.00  0.00     0.001 A 
ATOM     75  C   UNL A   1      45.865  36.469  30.736  1.00  0.00     0.000 A 
ENDBRANCH  57  70
ENDBRANCH  31  32
ENDBRANCH  24  26
ENDBRANCH  23  24
ENDBRANCH   1  23
TORSDOF 12
ENDMDL
MODEL 2
REMARK VINA RESULT:      -9.8      0.916      6.104
REMARK SMILES Cc1cc2c(c(C)c1Cl)C=C(C(=O)OCCOC(=O)c1ccc(-c3c4nc(c(-c5ccccc5)c5ccc([nH]5)c(-c5ccccc5)c5nc(c(-c6ccccc6)c6ccc3[nH]6)C=C5)C=C4)cc1)[C@@H](C(F)(F)F)O2
REMARK SMILES IDX 16 1 15 2 14 3 12 4 13 5 11 6 1 7 2 8 3 9 8 10 4 11 6 12
REMARK SMILES IDX 9 13 5 14 73 15 7 16 10 17 68 18 69 19 70 20 71 21 72 22
REMARK SMILES IDX 17 23 18 24 19 25 20 26 21 27 67 28 22 29 66 30 23 31 24 32
REMARK SMILES IDX 25 33 60 34 26 35 65 36 59 37 61 38 27 39 64 40 58 41 57 42
REMARK SMILES IDX 28 44 50 45 35 46 49 47 36 48 39 49 48 50 62 51 37 52 38 53
REMARK SMILES IDX 47 55 63 56 40 57 29 58 30 59 34 60 31 61 33 62 32 63 51 64
REMARK SMILES IDX 52 65 56 66 53 67 55 68 54 69 41 70 42 71 46 72 43 73 45 74
REMARK SMILES IDX 44 75
REMARK H PARENT 61 43 39 54
REMARK Flexibility Score: inf
ROOT
ATOM      1  C   UNL A   1      40.001  19.671  25.894  1.00  0.00     0.275 C 
ENDROOT
BRANCH   1   2
ATOM      2  C   UNL A   1      41.490  19.522  26.196  1.00  0.00     0.275 C 
BRANCH   2   3
ATOM      3  O   UNL A   1      42.214  20.722  25.844  1.00  0.00    -0.459 OA
BRANCH   3   4
ATOM      4  C   UNL A   1      43.498  20.538  25.457  1.00  0.00     0.338 C 
ATOM      5  O   UNL A   1      43.916  19.683  24.692  1.00  0.00    -0.246 OA
BRANCH   4   6
ATOM      6  C   UNL A   1      44.366  21.560  26.070  1.00  0.00     0.087 C 
ATOM      7  C   UNL A   1      47.172  26.405  29.349  1.00  0.00     0.046 C 
ATOM      8  C   UNL A   1      46.317  25.252  28.893  1.00  0.00    -0.028 A 
ATOM      9  C   UNL A   1      46.628  24.667  27.656  1.00  0.00     0.052 A 
ATOM     10  C   UNL A   1      45.270  24.707  29.659  1.00  0.00     0.047 A 
ATOM     11  C   UNL A   1      45.886  23.600  27.158  1.00  0.00     0.128 A 
ATOM     12  C   UNL A   1      44.493  23.632  29.165  1.00  0.00    -0.021 A 
ATOM     13  Cl  UNL A   1      44.952  25.365  31.237  1.00  0.00    -0.084 Cl
ATOM     14  C   UNL A   1      44.809  23.090  27.890  1.00  0.00     0.022 A 
ATOM     15  O   UNL A   1      46.307  23.109  25.954  1.00  0.00    -0.475 OA
ATOM     16  C   UNL A   1      43.361  23.039  29.974  1.00  0.00     0.047 C 
ATOM     17  C   UNL A   1      44.038  22.008  27.288  1.00  0.00     0.027 C 
ATOM     18  C   UNL A   1      45.494  22.125  25.262  1.00  0.00     0.316 C 
BRANCH  18  19
ATOM     19  C   UNL A   1      44.988  22.740  23.947  1.00  0.00     0.430 C 
ATOM     20  F   UNL A   1      45.851  23.668  23.470  1.00  0.00    -0.167 F 
ATOM     21  F   UNL A   1      44.856  21.801  22.978  1.00  0.00    -0.167 F 
ATOM     22  F   UNL A   1      43.785  23.340  24.094  1.00  0.00    -0.167 F 
ENDBRANCH  18  19
ENDBRANCH   4   6
ENDBRANCH   3   4
ENDBRANCH   2   3
ENDBRANCH   1   2
BRANCH   1  23
ATOM     23  O   UNL A   1      39.427  20.670  26.758  1.00  0.00    -0.458 OA
BRANCH  23  24
ATOM     24  C   UNL A   1      38.841  21.721  26.142  1.00  0.00     0.338 C 
ATOM     25  O   UNL A   1      37.949  21.695  25.312  1.00  0.00    -0.246 OA
BRANCH  24  26
ATOM     26  C   UNL A   1      39.411  22.977  26.659  1.00  0.00     0.060 A 
ATOM     27  C   UNL A   1      39.015  24.183  26.093  1.00  0.00     0.016 A 
ATOM     28  C   UNL A   1      40.441  22.956  27.598  1.00  0.00     0.016 A 
ATOM     29  C   UNL A   1      39.727  25.348  26.362  1.00  0.00     0.010 A 
ATOM     30  C   UNL A   1      41.068  24.156  27.966  1.00  0.00     0.010 A 
ATOM     31  C   UNL A   1      40.754  25.363  27.317  1.00  0.00    -0.014 A 
BRANCH  31  32
ATOM     32  C   UNL A   1      41.498  26.629  27.597  1.00  0.00     0.031 A 
ATOM     33  C   UNL A   1      40.974  27.626  28.604  1.00  0.00     0.074 A 
ATOM     34  C   UNL A   1      42.682  26.875  26.994  1.00  0.00     0.049 A 
ATOM     35  N   UNL A   1      41.414  28.831  28.878  1.00  0.00    -0.248 NA
ATOM     36  C   UNL A   1      39.802  27.229  29.400  1.00  0.00     0.031 C 
ATOM     37  C   UNL A   1      43.350  25.988  26.039  1.00  0.00     0.029 A 
ATOM     38  N   UNL A   1      43.555  27.928  27.125  1.00  0.00    -0.354 N 
ATOM     39  C   UNL A   1      40.537  29.353  29.821  1.00  0.00     0.074 A 
ATOM     40  C   UNL A   1      39.539  28.339  30.075  1.00  0.00     0.031 C 
ATOM     41  C   UNL A   1      44.563  26.481  25.750  1.00  0.00     0.029 A 
ATOM     42  C   UNL A   1      44.714  27.777  26.399  1.00  0.00     0.049 A 
ATOM     43  H   UNL A   1      43.369  28.716  27.685  1.00  0.00     0.167 HD
ATOM     44  C   UNL A   1      40.560  30.569  30.422  1.00  0.00     0.031 A 
ATOM     45  C   UNL A   1      45.770  28.596  26.237  1.00  0.00     0.031 A 
ATOM     46  C   UNL A   1      41.583  31.560  30.216  1.00  0.00     0.049 A 
ATOM     47  C   UNL A   1      45.756  29.950  26.882  1.00  0.00     0.074 A 
ATOM     48  C   UNL A   1      41.681  32.824  30.774  1.00  0.00     0.029 A 
ATOM     49  N   UNL A   1      42.697  31.390  29.412  1.00  0.00    -0.354 N 
ATOM     50  N   UNL A   1      44.865  30.465  27.692  1.00  0.00    -0.248 NA
ATOM     51  C   UNL A   1      46.874  30.850  26.561  1.00  0.00     0.031 C 
ATOM     52  C   UNL A   1      42.837  33.433  30.279  1.00  0.00     0.029 A 
ATOM     53  C   UNL A   1      43.483  32.529  29.453  1.00  0.00     0.049 A 
ATOM     54  H   UNL A   1      42.901  30.581  28.890  1.00  0.00     0.167 HD
ATOM     55  C   UNL A   1      45.313  31.746  27.979  1.00  0.00     0.074 A 
ATOM     56  C   UNL A   1      46.567  31.923  27.278  1.00  0.00     0.031 C 
ATOM     57  C   UNL A   1      44.727  32.695  28.749  1.00  0.00     0.031 A 
BRANCH  44  58
ATOM     58  C   UNL A   1      39.424  30.918  31.342  1.00  0.00    -0.014 A 
ATOM     59  C   UNL A   1      38.260  31.542  30.869  1.00  0.00     0.009 A 
ATOM     60  C   UNL A   1      39.496  30.552  32.697  1.00  0.00     0.009 A 
ATOM     61  C   UNL A   1      37.200  31.813  31.740  1.00  0.00     0.001 A 
ATOM     62  C   UNL A   1      38.425  30.799  33.559  1.00  0.00     0.001 A 
ATOM     63  C   UNL A   1      37.281  31.436  33.081  1.00  0.00     0.000 A 
ENDBRANCH  44  58
BRANCH  45  64
ATOM     64  C   UNL A   1      46.915  28.167  25.390  1.00  0.00    -0.014 A 
ATOM     65  C   UNL A   1      48.093  27.684  25.979  1.00  0.00     0.009 A 
ATOM     66  C   UNL A   1      46.825  28.205  23.989  1.00  0.00     0.009 A 
ATOM     67  C   UNL A   1      49.156  27.247  25.183  1.00  0.00     0.001 A 
ATOM     68  C   UNL A   1      47.875  27.739  23.196  1.00  0.00     0.001 A 
ATOM     69  C   UNL A   1      49.041  27.265  23.793  1.00  0.00     0.000 A 
ENDBRANCH  45  64
BRANCH  57  70
ATOM     70  C   UNL A   1      45.442  34.007  28.890  1.00  0.00    -0.014 A 
ATOM     71  C   UNL A   1      45.182  35.069  28.012  1.00  0.00     0.009 A 
ATOM     72  C   UNL A   1      46.333  34.203  29.956  1.00  0.00     0.009 A 
ATOM     73  C   UNL A   1      45.817  36.299  28.188  1.00  0.00     0.001 A 
ATOM     74  C   UNL A   1      46.949  35.441  30.143  1.00  0.00     0.001 A 
ATOM     75  C   UNL A   1      46.694  36.486  29.256  1.00  0.00     0.000 A 
ENDBRANCH  57  70
ENDBRANCH  31  32
ENDBRANCH  24  26
ENDBRANCH  23  24
ENDBRANCH   1  23
TORSDOF 12
ENDMDL
MODEL 3
REMARK VINA RESULT:      -9.6      4.960      9.657
REMARK SMILES Cc1cc2c(c(C)c1Cl)C=C(C(=O)OCCOC(=O)c1ccc(-c3c4nc(c(-c5ccccc5)c5ccc([nH]5)c(-c5ccccc5)c5nc(c(-c6ccccc6)c6ccc3[nH]6)C=C5)C=C4)cc1)[C@@H](C(F)(F)F)O2
REMARK SMILES IDX 16 1 15 2 14 3 12 4 13 5 11 6 1 7 2 8 3 9 8 10 4 11 6 12
REMARK SMILES IDX 9 13 5 14 73 15 7 16 10 17 68 18 69 19 70 20 71 21 72 22
REMARK SMILES IDX 17 23 18 24 19 25 20 26 21 27 67 28 22 29 66 30 23 31 24 32
REMARK SMILES IDX 25 33 60 34 26 35 65 36 59 37 61 38 27 39 64 40 58 41 57 42
REMARK SMILES IDX 28 44 50 45 35 46 49 47 36 48 39 49 48 50 62 51 37 52 38 53
REMARK SMILES IDX 47 55 63 56 40 57 29 58 30 59 34 60 31 61 33 62 32 63 51 64
REMARK SMILES IDX 52 65 56 66 53 67 55 68 54 69 41 70 42 71 46 72 43 73 45 74
REMARK SMILES IDX 44 75
REMARK H PARENT 61 43 39 54
REMARK Flexibility Score: inf
ROOT
ATOM      1  C   UNL A   1      35.924  20.816  25.206  1.00  0.00     0.275 C 
ENDROOT
BRANCH   1   2
ATOM      2  C   UNL A   1      34.739  21.569  24.605  1.00  0.00     0.275 C 
BRANCH   2   3
ATOM      3  O   UNL A   1      34.820  22.981  24.897  1.00  0.00    -0.459 OA
BRANCH   3   4
ATOM      4  C   UNL A   1      33.883  23.456  25.752  1.00  0.00     0.338 C 
ATOM      5  O   UNL A   1      33.633  23.035  26.870  1.00  0.00    -0.246 OA
BRANCH   4   6
ATOM      6  C   UNL A   1      33.192  24.616  25.158  1.00  0.00     0.087 C 
ATOM      7  C   UNL A   1      30.033  30.092  23.702  1.00  0.00     0.046 C 
ATOM      8  C   UNL A   1      30.905  29.026  24.312  1.00  0.00    -0.028 A 
ATOM      9  C   UNL A   1      30.979  27.793  23.647  1.00  0.00     0.052 A 
ATOM     10  C   UNL A   1      31.680  29.222  25.470  1.00  0.00     0.047 A 
ATOM     11  C   UNL A   1      31.758  26.752  24.144  1.00  0.00     0.128 A 
ATOM     12  C   UNL A   1      32.466  28.172  26.002  1.00  0.00    -0.021 A 
ATOM     13  Cl  UNL A   1      31.669  30.783  26.235  1.00  0.00    -0.084 Cl
ATOM     14  C   UNL A   1      32.485  26.922  25.326  1.00  0.00     0.022 A 
ATOM     15  O   UNL A   1      31.759  25.613  23.389  1.00  0.00    -0.475 OA
ATOM     16  C   UNL A   1      33.300  28.363  27.249  1.00  0.00     0.047 C 
ATOM     17  C   UNL A   1      33.237  25.775  25.824  1.00  0.00     0.027 C 
ATOM     18  C   UNL A   1      32.385  24.412  23.912  1.00  0.00     0.316 C 
BRANCH  18  19
ATOM     19  C   UNL A   1      31.303  23.339  24.114  1.00  0.00     0.430 C 
ATOM     20  F   UNL A   1      30.848  23.328  25.390  1.00  0.00    -0.167 F 
ATOM     21  F   UNL A   1      30.227  23.562  23.322  1.00  0.00    -0.167 F 
ATOM     22  F   UNL A   1      31.759  22.097  23.835  1.00  0.00    -0.167 F 
ENDBRANCH  18  19
ENDBRANCH   4   6
ENDBRANCH   3   4
ENDBRANCH   2   3
ENDBRANCH   1   2
BRANCH   1  23
ATOM     23  O   UNL A   1      37.157  21.409  24.756  1.00  0.00    -0.458 OA
BRANCH  23  24
ATOM     24  C   UNL A   1      38.276  21.012  25.403  1.00  0.00     0.338 C 
ATOM     25  O   UNL A   1      38.745  19.888  25.459  1.00  0.00    -0.246 OA
BRANCH  24  26
ATOM     26  C   UNL A   1      38.925  22.178  26.026  1.00  0.00     0.060 A 
ATOM     27  C   UNL A   1      38.324  23.426  25.915  1.00  0.00     0.016 A 
ATOM     28  C   UNL A   1      40.193  22.066  26.593  1.00  0.00     0.016 A 
ATOM     29  C   UNL A   1      39.036  24.575  26.245  1.00  0.00     0.010 A 
ATOM     30  C   UNL A   1      40.853  23.217  27.049  1.00  0.00     0.010 A 
ATOM     31  C   UNL A   1      40.305  24.494  26.837  1.00  0.00    -0.014 A 
BRANCH  31  32
ATOM     32  C   UNL A   1      41.047  25.743  27.194  1.00  0.00     0.031 A 
ATOM     33  C   UNL A   1      40.497  26.700  28.225  1.00  0.00     0.074 A 
ATOM     34  C   UNL A   1      42.250  26.006  26.638  1.00  0.00     0.049 A 
ATOM     35  N   UNL A   1      40.934  27.889  28.563  1.00  0.00    -0.248 NA
ATOM     36  C   UNL A   1      39.297  26.277  28.966  1.00  0.00     0.031 C 
ATOM     37  C   UNL A   1      42.944  25.156  25.669  1.00  0.00     0.029 A 
ATOM     38  N   UNL A   1      43.125  27.047  26.842  1.00  0.00    -0.354 N 
ATOM     39  C   UNL A   1      40.030  28.377  29.500  1.00  0.00     0.074 A 
ATOM     40  C   UNL A   1      39.019  27.359  29.679  1.00  0.00     0.031 C 
ATOM     41  C   UNL A   1      44.168  25.653  25.439  1.00  0.00     0.029 A 
ATOM     42  C   UNL A   1      44.305  26.919  26.147  1.00  0.00     0.049 A 
ATOM     43  H   UNL A   1      42.925  27.812  27.428  1.00  0.00     0.167 HD
ATOM     44  C   UNL A   1      40.039  29.566  30.151  1.00  0.00     0.031 A 
ATOM     45  C   UNL A   1      45.370  27.738  26.052  1.00  0.00     0.031 A 
ATOM     46  C   UNL A   1      41.073  30.559  30.020  1.00  0.00     0.049 A 
ATOM     47  C   UNL A   1      45.342  29.063  26.753  1.00  0.00     0.074 A 
ATOM     48  C   UNL A   1      41.160  31.797  30.633  1.00  0.00     0.029 A 
ATOM     49  N   UNL A   1      42.212  30.415  29.245  1.00  0.00    -0.354 N 
ATOM     50  N   UNL A   1      44.428  29.549  27.557  1.00  0.00    -0.248 NA
ATOM     51  C   UNL A   1      46.474  29.968  26.506  1.00  0.00     0.031 C 
ATOM     52  C   UNL A   1      42.335  32.419  30.202  1.00  0.00     0.029 A 
ATOM     53  C   UNL A   1      43.002  31.546  29.358  1.00  0.00     0.049 A 
ATOM     54  H   UNL A   1      42.428  29.627  28.696  1.00  0.00     0.167 HD
ATOM     55  C   UNL A   1      44.874  30.815  27.911  1.00  0.00     0.074 A 
ATOM     56  C   UNL A   1      46.151  31.013  27.258  1.00  0.00     0.031 C 
ATOM     57  C   UNL A   1      44.269  31.734  28.702  1.00  0.00     0.031 A 
BRANCH  44  58
ATOM     58  C   UNL A   1      38.877  29.883  31.050  1.00  0.00    -0.014 A 
ATOM     59  C   UNL A   1      38.925  29.634  32.429  1.00  0.00     0.009 A 
ATOM     60  C   UNL A   1      37.738  30.505  30.510  1.00  0.00     0.009 A 
ATOM     61  C   UNL A   1      37.846  29.983  33.247  1.00  0.00     0.001 A 
ATOM     62  C   UNL A   1      36.673  30.877  31.334  1.00  0.00     0.001 A 
ATOM     63  C   UNL A   1      36.725  30.609  32.700  1.00  0.00     0.000 A 
ENDBRANCH  44  58
BRANCH  45  64
ATOM     64  C   UNL A   1      46.539  27.337  25.225  1.00  0.00    -0.014 A 
ATOM     65  C   UNL A   1      47.441  26.368  25.690  1.00  0.00     0.009 A 
ATOM     66  C   UNL A   1      46.741  27.895  23.951  1.00  0.00     0.009 A 
ATOM     67  C   UNL A   1      48.519  25.966  24.898  1.00  0.00     0.001 A 
ATOM     68  C   UNL A   1      47.800  27.468  23.148  1.00  0.00     0.001 A 
ATOM     69  C   UNL A   1      48.692  26.508  23.624  1.00  0.00     0.000 A 
ENDBRANCH  45  64
BRANCH  57  70
ATOM     70  C   UNL A   1      44.985  33.034  28.921  1.00  0.00    -0.014 A 
ATOM     71  C   UNL A   1      45.935  33.172  29.944  1.00  0.00     0.009 A 
ATOM     72  C   UNL A   1      44.756  34.110  28.050  1.00  0.00     0.009 A 
ATOM     73  C   UNL A   1      46.629  34.372  30.102  1.00  0.00     0.001 A 
ATOM     74  C   UNL A   1      45.469  35.301  28.196  1.00  0.00     0.001 A 
ATOM     75  C   UNL A   1      46.401  35.432  29.225  1.00  0.00     0.000 A 
ENDBRANCH  57  70
ENDBRANCH  31  32
ENDBRANCH  24  26
ENDBRANCH  23  24
ENDBRANCH   1  23
TORSDOF 12
ENDMDL
