MODEL 1
REMARK VINA RESULT:     -13.6      0.000      0.000
REMARK SMILES C[C@]12C(=O)N(c3ccc(C(=O)OCCOC(=O)c4ccc(-c5c6nc(c(-c7ccccc7)c7ccc([nH]7)c(-c7ccccc7)c7nc(c(-c8ccccc8)c8ccc5[nH]8)C=C7)C=C6)cc4)cc3)C(=O)[C@H]1[C@H]1c3ccccc3[C@@H]2c2ccccc21
REMARK SMILES IDX 14 1 13 2 12 3 10 4 11 5 9 6 6 7 7 8 67 9 8 10 66 11 5 12
REMARK SMILES IDX 1 13 2 14 3 15 70 16 78 17 4 18 68 19 71 20 77 21 79 22
REMARK SMILES IDX 69 23 72 24 84 25 76 26 80 27 73 28 83 29 75 30 81 31 74 32
REMARK SMILES IDX 82 33 15 34 16 35 17 36 18 37 19 38 65 39 20 40 64 41 21 42
REMARK SMILES IDX 22 43 23 44 58 45 24 46 63 47 57 48 59 49 25 50 62 51 56 52
REMARK SMILES IDX 55 53 26 55 48 56 33 57 47 58 34 59 37 60 46 61 60 62 35 63
REMARK SMILES IDX 36 64 45 66 61 67 38 68 27 69 28 70 32 71 29 72 31 73 30 74
REMARK SMILES IDX 49 75 50 76 54 77 51 78 53 79 52 80 39 81 40 82 44 83 41 84
REMARK SMILES IDX 43 85 42 86
REMARK H PARENT 59 54 37 65
REMARK Flexibility Score: inf
ROOT
ATOM      1  C   UNL A   1      39.707  20.068  25.604  1.00  0.00     0.275 C 
ENDROOT
BRANCH   1   2
ATOM      2  C   UNL A   1      39.263  21.423  26.162  1.00  0.00     0.275 C 
BRANCH   2   3
ATOM      3  O   UNL A   1      38.080  21.905  25.488  1.00  0.00    -0.458 OA
BRANCH   3   4
ATOM      4  C   UNL A   1      37.690  23.156  25.823  1.00  0.00     0.338 C 
ATOM      5  O   UNL A   1      38.366  24.005  26.387  1.00  0.00    -0.246 OA
BRANCH   4   6
ATOM      6  C   UNL A   1      36.356  23.462  25.264  1.00  0.00     0.060 A 
ATOM      7  C   UNL A   1      33.945  24.059  23.888  1.00  0.00     0.052 A 
ATOM      8  C   UNL A   1      34.832  23.069  23.437  1.00  0.00     0.028 A 
ATOM      9  C   UNL A   1      34.277  24.720  25.080  1.00  0.00     0.028 A 
ATOM     10  C   UNL A   1      36.027  22.807  24.088  1.00  0.00     0.018 A 
ATOM     11  C   UNL A   1      35.468  24.406  25.782  1.00  0.00     0.018 A 
BRANCH   7  12
ATOM     12  N   UNL A   1      32.903  24.475  23.001  1.00  0.00    -0.250 N 
ATOM     13  C   UNL A   1      31.200  26.258  20.778  1.00  0.00     0.024 C 
ATOM     14  C   UNL A   1      31.722  26.322  22.228  1.00  0.00     0.071 C 
ATOM     15  C   UNL A   1      33.036  25.607  22.233  1.00  0.00     0.241 C 
ATOM     16  C   UNL A   1      30.823  25.492  23.202  1.00  0.00     0.107 C 
ATOM     17  C   UNL A   1      31.921  27.774  22.779  1.00  0.00     0.066 C 
ATOM     18  O   UNL A   1      34.007  25.995  21.596  1.00  0.00    -0.273 OA
ATOM     19  C   UNL A   1      31.551  24.143  23.130  1.00  0.00     0.238 C 
ATOM     20  C   UNL A   1      29.979  26.518  24.071  1.00  0.00     0.063 C 
ATOM     21  C   UNL A   1      32.156  27.702  24.300  1.00  0.00    -0.036 A 
ATOM     22  C   UNL A   1      30.561  28.435  22.608  1.00  0.00    -0.036 A 
ATOM     23  O   UNL A   1      31.039  23.044  23.270  1.00  0.00    -0.274 OA
ATOM     24  C   UNL A   1      31.071  27.118  25.024  1.00  0.00    -0.036 A 
ATOM     25  C   UNL A   1      29.507  27.730  23.251  1.00  0.00    -0.036 A 
ATOM     26  C   UNL A   1      33.331  28.034  24.956  1.00  0.00     0.005 A 
ATOM     27  C   UNL A   1      30.348  29.645  21.959  1.00  0.00     0.005 A 
ATOM     28  C   UNL A   1      31.174  26.846  26.382  1.00  0.00     0.004 A 
ATOM     29  C   UNL A   1      28.228  28.268  23.244  1.00  0.00     0.004 A 
ATOM     30  C   UNL A   1      33.432  27.757  26.323  1.00  0.00     0.000 A 
ATOM     31  C   UNL A   1      29.061  30.170  21.952  1.00  0.00     0.000 A 
ATOM     32  C   UNL A   1      32.369  27.168  27.027  1.00  0.00     0.000 A 
ATOM     33  C   UNL A   1      28.012  29.490  22.589  1.00  0.00     0.000 A 
ENDBRANCH   7  12
ENDBRANCH   4   6
ENDBRANCH   3   4
ENDBRANCH   2   3
ENDBRANCH   1   2
BRANCH   1  34
ATOM     34  O   UNL A   1      40.819  19.541  26.355  1.00  0.00    -0.458 OA
BRANCH  34  35
ATOM     35  C   UNL A   1      42.043  19.840  25.869  1.00  0.00     0.338 C 
ATOM     36  O   UNL A   1      42.703  19.207  25.064  1.00  0.00    -0.246 OA
BRANCH  35  37
ATOM     37  C   UNL A   1      42.487  21.130  26.417  1.00  0.00     0.060 A 
ATOM     38  C   UNL A   1      42.783  22.204  25.583  1.00  0.00     0.016 A 
ATOM     39  C   UNL A   1      42.463  21.303  27.797  1.00  0.00     0.016 A 
ATOM     40  C   UNL A   1      43.058  23.455  26.151  1.00  0.00     0.010 A 
ATOM     41  C   UNL A   1      42.596  22.573  28.349  1.00  0.00     0.010 A 
ATOM     42  C   UNL A   1      42.931  23.665  27.539  1.00  0.00    -0.014 A 
BRANCH  42  43
ATOM     43  C   UNL A   1      43.158  25.005  28.151  1.00  0.00     0.031 A 
ATOM     44  C   UNL A   1      44.547  25.444  28.557  1.00  0.00     0.074 A 
ATOM     45  C   UNL A   1      42.112  25.826  28.385  1.00  0.00     0.049 A 
ATOM     46  N   UNL A   1      44.928  26.576  29.096  1.00  0.00    -0.248 NA
ATOM     47  C   UNL A   1      45.647  24.483  28.362  1.00  0.00     0.031 C 
ATOM     48  C   UNL A   1      40.708  25.503  28.122  1.00  0.00     0.029 A 
ATOM     49  N   UNL A   1      42.066  27.105  28.888  1.00  0.00    -0.354 N 
ATOM     50  C   UNL A   1      46.295  26.450  29.319  1.00  0.00     0.074 A 
ATOM     51  C   UNL A   1      46.671  25.115  28.917  1.00  0.00     0.031 C 
ATOM     52  C   UNL A   1      39.948  26.572  28.408  1.00  0.00     0.029 A 
ATOM     53  C   UNL A   1      40.800  27.643  28.915  1.00  0.00     0.049 A 
ATOM     54  H   UNL A   1      42.864  27.589  29.201  1.00  0.00     0.167 HD
ATOM     55  C   UNL A   1      47.169  27.374  29.781  1.00  0.00     0.031 A 
ATOM     56  C   UNL A   1      40.368  28.862  29.293  1.00  0.00     0.031 A 
ATOM     57  C   UNL A   1      46.812  28.721  30.134  1.00  0.00     0.049 A 
ATOM     58  C   UNL A   1      41.365  29.886  29.761  1.00  0.00     0.074 A 
ATOM     59  C   UNL A   1      47.646  29.749  30.534  1.00  0.00     0.029 A 
ATOM     60  N   UNL A   1      45.523  29.227  30.119  1.00  0.00    -0.354 N 
ATOM     61  N   UNL A   1      42.665  29.773  29.881  1.00  0.00    -0.248 NA
ATOM     62  C   UNL A   1      40.840  31.210  30.132  1.00  0.00     0.031 C 
ATOM     63  C   UNL A   1      46.857  30.866  30.811  1.00  0.00     0.029 A 
ATOM     64  C   UNL A   1      45.538  30.551  30.522  1.00  0.00     0.049 A 
ATOM     65  H   UNL A   1      44.719  28.721  29.861  1.00  0.00     0.167 HD
ATOM     66  C   UNL A   1      43.115  31.012  30.320  1.00  0.00     0.074 A 
ATOM     67  C   UNL A   1      41.954  31.870  30.425  1.00  0.00     0.031 C 
ATOM     68  C   UNL A   1      44.380  31.398  30.612  1.00  0.00     0.031 A 
BRANCH  55  69
ATOM     69  C   UNL A   1      48.619  26.990  29.899  1.00  0.00    -0.014 A 
ATOM     70  C   UNL A   1      49.106  26.449  31.099  1.00  0.00     0.009 A 
ATOM     71  C   UNL A   1      49.527  27.281  28.868  1.00  0.00     0.009 A 
ATOM     72  C   UNL A   1      50.473  26.225  31.272  1.00  0.00     0.001 A 
ATOM     73  C   UNL A   1      50.889  27.029  29.032  1.00  0.00     0.001 A 
ATOM     74  C   UNL A   1      51.363  26.512  30.238  1.00  0.00     0.000 A 
ENDBRANCH  55  69
BRANCH  56  75
ATOM     75  C   UNL A   1      38.920  29.193  29.194  1.00  0.00    -0.014 A 
ATOM     76  C   UNL A   1      38.387  29.723  28.008  1.00  0.00     0.009 A 
ATOM     77  C   UNL A   1      38.070  29.015  30.296  1.00  0.00     0.009 A 
ATOM     78  C   UNL A   1      37.040  30.085  27.935  1.00  0.00     0.001 A 
ATOM     79  C   UNL A   1      36.716  29.349  30.210  1.00  0.00     0.001 A 
ATOM     80  C   UNL A   1      36.204  29.892  29.033  1.00  0.00     0.000 A 
ENDBRANCH  56  75
BRANCH  68  81
ATOM     81  C   UNL A   1      44.603  32.814  31.063  1.00  0.00    -0.014 A 
ATOM     82  C   UNL A   1      44.925  33.802  30.118  1.00  0.00     0.009 A 
ATOM     83  C   UNL A   1      44.624  33.143  32.426  1.00  0.00     0.009 A 
ATOM     84  C   UNL A   1      45.283  35.086  30.530  1.00  0.00     0.001 A 
ATOM     85  C   UNL A   1      44.954  34.436  32.834  1.00  0.00     0.001 A 
ATOM     86  C   UNL A   1      45.294  35.403  31.887  1.00  0.00     0.000 A 
ENDBRANCH  68  81
ENDBRANCH  42  43
ENDBRANCH  35  37
ENDBRANCH  34  35
ENDBRANCH   1  34
TORSDOF 12
ENDMDL
MODEL 2
REMARK VINA RESULT:     -13.5      0.408      5.606
REMARK SMILES C[C@]12C(=O)N(c3ccc(C(=O)OCCOC(=O)c4ccc(-c5c6nc(c(-c7ccccc7)c7ccc([nH]7)c(-c7ccccc7)c7nc(c(-c8ccccc8)c8ccc5[nH]8)C=C7)C=C6)cc4)cc3)C(=O)[C@H]1[C@H]1c3ccccc3[C@@H]2c2ccccc21
REMARK SMILES IDX 14 1 13 2 12 3 10 4 11 5 9 6 6 7 7 8 67 9 8 10 66 11 5 12
REMARK SMILES IDX 1 13 2 14 3 15 70 16 78 17 4 18 68 19 71 20 77 21 79 22
REMARK SMILES IDX 69 23 72 24 84 25 76 26 80 27 73 28 83 29 75 30 81 31 74 32
REMARK SMILES IDX 82 33 15 34 16 35 17 36 18 37 19 38 65 39 20 40 64 41 21 42
REMARK SMILES IDX 22 43 23 44 58 45 24 46 63 47 57 48 59 49 25 50 62 51 56 52
REMARK SMILES IDX 55 53 26 55 48 56 33 57 47 58 34 59 37 60 46 61 60 62 35 63
REMARK SMILES IDX 36 64 45 66 61 67 38 68 27 69 28 70 32 71 29 72 31 73 30 74
REMARK SMILES IDX 49 75 50 76 54 77 51 78 53 79 52 80 39 81 40 82 44 83 41 84
REMARK SMILES IDX 43 85 42 86
REMARK H PARENT 59 54 37 65
REMARK Flexibility Score: inf
ROOT
ATOM      1  C   UNL A   1      39.707  20.105  25.759  1.00  0.00     0.275 C 
ENDROOT
BRANCH   1   2
ATOM      2  C   UNL A   1      39.293  21.507  26.216  1.00  0.00     0.275 C 
BRANCH   2   3
ATOM      3  O   UNL A   1      38.045  21.908  25.610  1.00  0.00    -0.458 OA
BRANCH   3   4
ATOM      4  C   UNL A   1      37.639  23.165  25.896  1.00  0.00     0.338 C 
ATOM      5  O   UNL A   1      38.300  24.041  26.436  1.00  0.00    -0.246 OA
BRANCH   4   6
ATOM      6  C   UNL A   1      36.307  23.437  25.313  1.00  0.00     0.060 A 
ATOM      7  C   UNL A   1      33.910  24.005  23.901  1.00  0.00     0.052 A 
ATOM      8  C   UNL A   1      34.877  23.121  23.399  1.00  0.00     0.028 A 
ATOM      9  C   UNL A   1      34.156  24.572  25.161  1.00  0.00     0.028 A 
ATOM     10  C   UNL A   1      36.063  22.875  24.070  1.00  0.00     0.018 A 
ATOM     11  C   UNL A   1      35.340  24.270  25.879  1.00  0.00     0.018 A 
BRANCH   7  12
ATOM     12  N   UNL A   1      32.874  24.435  23.015  1.00  0.00    -0.250 N 
ATOM     13  C   UNL A   1      31.199  26.236  20.784  1.00  0.00     0.024 C 
ATOM     14  C   UNL A   1      31.726  26.299  22.232  1.00  0.00     0.071 C 
ATOM     15  C   UNL A   1      33.026  25.560  22.238  1.00  0.00     0.241 C 
ATOM     16  C   UNL A   1      30.813  25.492  23.214  1.00  0.00     0.107 C 
ATOM     17  C   UNL A   1      31.953  27.751  22.773  1.00  0.00     0.066 C 
ATOM     18  O   UNL A   1      34.003  25.925  21.596  1.00  0.00    -0.273 OA
ATOM     19  C   UNL A   1      31.516  24.129  23.149  1.00  0.00     0.238 C 
ATOM     20  C   UNL A   1      29.991  26.539  24.079  1.00  0.00     0.063 C 
ATOM     21  C   UNL A   1      32.191  27.684  24.294  1.00  0.00    -0.036 A 
ATOM     22  C   UNL A   1      30.605  28.436  22.601  1.00  0.00    -0.036 A 
ATOM     23  O   UNL A   1      30.984  23.041  23.298  1.00  0.00    -0.274 OA
ATOM     24  C   UNL A   1      31.097  27.125  25.025  1.00  0.00    -0.036 A 
ATOM     25  C   UNL A   1      29.540  27.755  23.251  1.00  0.00    -0.036 A 
ATOM     26  C   UNL A   1      33.373  27.998  24.945  1.00  0.00     0.005 A 
ATOM     27  C   UNL A   1      30.413  29.645  21.945  1.00  0.00     0.005 A 
ATOM     28  C   UNL A   1      31.199  26.860  26.384  1.00  0.00     0.004 A 
ATOM     29  C   UNL A   1      28.271  28.317  23.244  1.00  0.00     0.004 A 
ATOM     30  C   UNL A   1      33.474  27.728  26.314  1.00  0.00     0.000 A 
ATOM     31  C   UNL A   1      29.136  30.195  21.938  1.00  0.00     0.000 A 
ATOM     32  C   UNL A   1      32.401  27.164  27.024  1.00  0.00     0.000 A 
ATOM     33  C   UNL A   1      28.076  29.538  22.582  1.00  0.00     0.000 A 
ENDBRANCH   7  12
ENDBRANCH   4   6
ENDBRANCH   3   4
ENDBRANCH   2   3
ENDBRANCH   1   2
BRANCH   1  34
ATOM     34  O   UNL A   1      40.862  19.646  26.489  1.00  0.00    -0.458 OA
BRANCH  34  35
ATOM     35  C   UNL A   1      42.056  19.917  25.921  1.00  0.00     0.338 C 
ATOM     36  O   UNL A   1      42.676  19.238  25.123  1.00  0.00    -0.246 OA
BRANCH  35  37
ATOM     37  C   UNL A   1      42.521  21.240  26.366  1.00  0.00     0.060 A 
ATOM     38  C   UNL A   1      42.774  22.259  25.452  1.00  0.00     0.016 A 
ATOM     39  C   UNL A   1      42.561  21.499  27.732  1.00  0.00     0.016 A 
ATOM     40  C   UNL A   1      43.071  23.543  25.926  1.00  0.00     0.010 A 
ATOM     41  C   UNL A   1      42.716  22.802  28.195  1.00  0.00     0.010 A 
ATOM     42  C   UNL A   1      43.009  23.840  27.303  1.00  0.00    -0.014 A 
BRANCH  42  43
ATOM     43  C   UNL A   1      43.260  25.217  27.818  1.00  0.00     0.031 A 
ATOM     44  C   UNL A   1      42.112  26.161  28.090  1.00  0.00     0.074 A 
ATOM     45  C   UNL A   1      44.526  25.645  28.007  1.00  0.00     0.049 A 
ATOM     46  N   UNL A   1      42.146  27.390  28.545  1.00  0.00    -0.248 NA
ATOM     47  C   UNL A   1      40.751  25.681  27.789  1.00  0.00     0.031 C 
ATOM     48  C   UNL A   1      45.735  24.874  27.707  1.00  0.00     0.029 A 
ATOM     49  N   UNL A   1      45.010  26.833  28.504  1.00  0.00    -0.354 N 
ATOM     50  C   UNL A   1      40.826  27.826  28.562  1.00  0.00     0.074 A 
ATOM     51  C   UNL A   1      40.018  26.761  28.017  1.00  0.00     0.031 C 
ATOM     52  C   UNL A   1      46.813  25.579  28.082  1.00  0.00     0.029 A 
ATOM     53  C   UNL A   1      46.381  26.870  28.608  1.00  0.00     0.049 A 
ATOM     54  H   UNL A   1      44.429  27.584  28.762  1.00  0.00     0.167 HD
ATOM     55  C   UNL A   1      40.323  28.995  29.025  1.00  0.00     0.031 A 
ATOM     56  C   UNL A   1      47.204  27.828  29.080  1.00  0.00     0.031 A 
ATOM     57  C   UNL A   1      41.115  30.038  29.616  1.00  0.00     0.049 A 
ATOM     58  C   UNL A   1      46.618  29.099  29.630  1.00  0.00     0.074 A 
ATOM     59  C   UNL A   1      40.681  31.222  30.186  1.00  0.00     0.029 A 
ATOM     60  N   UNL A   1      42.495  30.020  29.723  1.00  0.00    -0.354 N 
ATOM     61  N   UNL A   1      45.359  29.454  29.717  1.00  0.00    -0.248 NA
ATOM     62  C   UNL A   1      47.561  30.096  30.161  1.00  0.00     0.031 C 
ATOM     63  C   UNL A   1      41.802  31.945  30.594  1.00  0.00     0.029 A 
ATOM     64  C   UNL A   1      42.930  31.183  30.335  1.00  0.00     0.049 A 
ATOM     65  H   UNL A   1      43.078  29.290  29.411  1.00  0.00     0.167 HD
ATOM     66  C   UNL A   1      45.358  30.701  30.328  1.00  0.00     0.074 A 
ATOM     67  C   UNL A   1      46.738  31.034  30.611  1.00  0.00     0.031 C 
ATOM     68  C   UNL A   1      44.303  31.499  30.622  1.00  0.00     0.031 A 
BRANCH  55  69
ATOM     69  C   UNL A   1      38.835  29.209  28.958  1.00  0.00    -0.014 A 
ATOM     70  C   UNL A   1      38.252  29.722  27.789  1.00  0.00     0.009 A 
ATOM     71  C   UNL A   1      38.030  29.022  30.093  1.00  0.00     0.009 A 
ATOM     72  C   UNL A   1      36.899  30.062  27.762  1.00  0.00     0.001 A 
ATOM     73  C   UNL A   1      36.670  29.336  30.055  1.00  0.00     0.001 A 
ATOM     74  C   UNL A   1      36.109  29.867  28.894  1.00  0.00     0.000 A 
ENDBRANCH  55  69
BRANCH  56  75
ATOM     75  C   UNL A   1      48.673  27.592  29.098  1.00  0.00    -0.014 A 
ATOM     76  C   UNL A   1      49.296  27.042  30.231  1.00  0.00     0.009 A 
ATOM     77  C   UNL A   1      49.467  27.949  27.998  1.00  0.00     0.009 A 
ATOM     78  C   UNL A   1      50.682  26.874  30.267  1.00  0.00     0.001 A 
ATOM     79  C   UNL A   1      50.850  27.750  28.025  1.00  0.00     0.001 A 
ATOM     80  C   UNL A   1      51.457  27.221  29.162  1.00  0.00     0.000 A 
ENDBRANCH  56  75
BRANCH  68  81
ATOM     81  C   UNL A   1      44.574  32.812  31.302  1.00  0.00    -0.014 A 
ATOM     82  C   UNL A   1      44.857  33.949  30.529  1.00  0.00     0.009 A 
ATOM     83  C   UNL A   1      44.676  32.894  32.698  1.00  0.00     0.009 A 
ATOM     84  C   UNL A   1      45.257  35.139  31.139  1.00  0.00     0.001 A 
ATOM     85  C   UNL A   1      45.048  34.093  33.308  1.00  0.00     0.001 A 
ATOM     86  C   UNL A   1      45.349  35.210  32.528  1.00  0.00     0.000 A 
ENDBRANCH  68  81
ENDBRANCH  42  43
ENDBRANCH  35  37
ENDBRANCH  34  35
ENDBRANCH   1  34
TORSDOF 12
ENDMDL
MODEL 3
REMARK VINA RESULT:     -13.4      3.892      8.917
REMARK SMILES C[C@]12C(=O)N(c3ccc(C(=O)OCCOC(=O)c4ccc(-c5c6nc(c(-c7ccccc7)c7ccc([nH]7)c(-c7ccccc7)c7nc(c(-c8ccccc8)c8ccc5[nH]8)C=C7)C=C6)cc4)cc3)C(=O)[C@H]1[C@H]1c3ccccc3[C@@H]2c2ccccc21
REMARK SMILES IDX 14 1 13 2 12 3 10 4 11 5 9 6 6 7 7 8 67 9 8 10 66 11 5 12
REMARK SMILES IDX 1 13 2 14 3 15 70 16 78 17 4 18 68 19 71 20 77 21 79 22
REMARK SMILES IDX 69 23 72 24 84 25 76 26 80 27 73 28 83 29 75 30 81 31 74 32
REMARK SMILES IDX 82 33 15 34 16 35 17 36 18 37 19 38 65 39 20 40 64 41 21 42
REMARK SMILES IDX 22 43 23 44 58 45 24 46 63 47 57 48 59 49 25 50 62 51 56 52
REMARK SMILES IDX 55 53 26 55 48 56 33 57 47 58 34 59 37 60 46 61 60 62 35 63
REMARK SMILES IDX 36 64 45 66 61 67 38 68 27 69 28 70 32 71 29 72 31 73 30 74
REMARK SMILES IDX 49 75 50 76 54 77 51 78 53 79 52 80 39 81 40 82 44 83 41 84
REMARK SMILES IDX 43 85 42 86
REMARK H PARENT 59 54 37 65
REMARK Flexibility Score: inf
ROOT
ATOM      1  C   UNL A   1      31.029  32.308  26.200  1.00  0.00     0.275 C 
ENDROOT
BRANCH   1   2
ATOM      2  C   UNL A   1      30.522  31.205  25.266  1.00  0.00     0.275 C 
BRANCH   2   3
ATOM      3  O   UNL A   1      29.727  31.753  24.192  1.00  0.00    -0.458 OA
BRANCH   3   4
ATOM      4  C   UNL A   1      28.862  30.891  23.612  1.00  0.00     0.338 C 
ATOM      5  O   UNL A   1      27.679  31.091  23.377  1.00  0.00    -0.246 OA
BRANCH   4   6
ATOM      6  C   UNL A   1      29.565  29.688  23.119  1.00  0.00     0.060 A 
ATOM      7  C   UNL A   1      30.883  27.254  22.483  1.00  0.00     0.052 A 
ATOM      8  C   UNL A   1      29.676  27.281  23.198  1.00  0.00     0.028 A 
ATOM      9  C   UNL A   1      31.399  28.486  22.052  1.00  0.00     0.028 A 
ATOM     10  C   UNL A   1      29.056  28.471  23.541  1.00  0.00     0.018 A 
ATOM     11  C   UNL A   1      30.729  29.701  22.347  1.00  0.00     0.018 A 
BRANCH   7  12
ATOM     12  N   UNL A   1      31.607  26.021  22.439  1.00  0.00    -0.250 N 
ATOM     13  C   UNL A   1      32.449  22.856  22.983  1.00  0.00     0.024 C 
ATOM     14  C   UNL A   1      32.300  24.206  23.715  1.00  0.00     0.071 C 
ATOM     15  C   UNL A   1      31.137  24.901  23.082  1.00  0.00     0.241 C 
ATOM     16  C   UNL A   1      33.516  25.149  23.437  1.00  0.00     0.107 C 
ATOM     17  C   UNL A   1      32.053  24.080  25.256  1.00  0.00     0.066 C 
ATOM     18  O   UNL A   1      29.995  24.461  23.126  1.00  0.00    -0.273 OA
ATOM     19  C   UNL A   1      32.980  25.897  22.208  1.00  0.00     0.238 C 
ATOM     20  C   UNL A   1      34.405  25.191  24.751  1.00  0.00     0.063 C 
ATOM     21  C   UNL A   1      32.216  25.470  25.901  1.00  0.00    -0.036 A 
ATOM     22  C   UNL A   1      33.227  23.255  25.763  1.00  0.00    -0.036 A 
ATOM     23  O   UNL A   1      33.653  26.363  21.303  1.00  0.00    -0.274 OA
ATOM     24  C   UNL A   1      33.515  26.039  25.725  1.00  0.00    -0.036 A 
ATOM     25  C   UNL A   1      34.492  23.819  25.442  1.00  0.00    -0.036 A 
ATOM     26  C   UNL A   1      31.208  26.210  26.499  1.00  0.00     0.005 A 
ATOM     27  C   UNL A   1      33.108  22.104  26.531  1.00  0.00     0.005 A 
ATOM     28  C   UNL A   1      33.790  27.342  26.117  1.00  0.00     0.004 A 
ATOM     29  C   UNL A   1      35.645  23.211  25.917  1.00  0.00     0.004 A 
ATOM     30  C   UNL A   1      31.488  27.523  26.891  1.00  0.00     0.000 A 
ATOM     31  C   UNL A   1      34.271  21.499  26.995  1.00  0.00     0.000 A 
ATOM     32  C   UNL A   1      32.762  28.084  26.701  1.00  0.00     0.000 A 
ATOM     33  C   UNL A   1      35.527  22.048  26.692  1.00  0.00     0.000 A 
ENDBRANCH   7  12
ENDBRANCH   4   6
ENDBRANCH   3   4
ENDBRANCH   2   3
ENDBRANCH   1   2
BRANCH   1  34
ATOM     34  O   UNL A   1      32.233  31.896  26.876  1.00  0.00    -0.458 OA
BRANCH  34  35
ATOM     35  C   UNL A   1      32.904  32.875  27.520  1.00  0.00     0.338 C 
ATOM     36  O   UNL A   1      32.525  34.008  27.758  1.00  0.00    -0.246 OA
BRANCH  35  37
ATOM     37  C   UNL A   1      34.203  32.361  27.978  1.00  0.00     0.060 A 
ATOM     38  C   UNL A   1      35.254  33.222  28.277  1.00  0.00     0.016 A 
ATOM     39  C   UNL A   1      34.314  31.001  28.249  1.00  0.00     0.016 A 
ATOM     40  C   UNL A   1      36.422  32.702  28.850  1.00  0.00     0.010 A 
ATOM     41  C   UNL A   1      35.415  30.511  28.945  1.00  0.00     0.010 A 
ATOM     42  C   UNL A   1      36.503  31.345  29.226  1.00  0.00    -0.014 A 
BRANCH  42  43
ATOM     43  C   UNL A   1      37.715  30.791  29.894  1.00  0.00     0.031 A 
ATOM     44  C   UNL A   1      37.997  31.085  31.350  1.00  0.00     0.074 A 
ATOM     45  C   UNL A   1      38.595  30.050  29.188  1.00  0.00     0.049 A 
ATOM     46  N   UNL A   1      38.998  30.681  32.093  1.00  0.00    -0.248 NA
ATOM     47  C   UNL A   1      37.055  31.969  32.060  1.00  0.00     0.031 C 
ATOM     48  C   UNL A   1      38.496  29.754  27.757  1.00  0.00     0.029 A 
ATOM     49  N   UNL A   1      39.743  29.401  29.578  1.00  0.00    -0.354 N 
ATOM     50  C   UNL A   1      38.814  31.275  33.337  1.00  0.00     0.074 A 
ATOM     51  C   UNL A   1      37.644  32.115  33.238  1.00  0.00     0.031 C 
ATOM     52  C   UNL A   1      39.500  28.937  27.405  1.00  0.00     0.029 A 
ATOM     53  C   UNL A   1      40.342  28.683  28.570  1.00  0.00     0.049 A 
ATOM     54  H   UNL A   1      40.103  29.447  30.493  1.00  0.00     0.167 HD
ATOM     55  C   UNL A   1      39.531  31.108  34.473  1.00  0.00     0.031 A 
ATOM     56  C   UNL A   1      41.439  27.899  28.576  1.00  0.00     0.031 A 
ATOM     57  C   UNL A   1      40.665  30.235  34.593  1.00  0.00     0.049 A 
ATOM     58  C   UNL A   1      42.192  27.695  29.861  1.00  0.00     0.074 A 
ATOM     59  C   UNL A   1      41.402  29.941  35.726  1.00  0.00     0.029 A 
ATOM     60  N   UNL A   1      41.218  29.508  33.552  1.00  0.00    -0.354 N 
ATOM     61  N   UNL A   1      41.948  28.197  31.047  1.00  0.00    -0.248 NA
ATOM     62  C   UNL A   1      43.362  26.804  29.817  1.00  0.00     0.031 C 
ATOM     63  C   UNL A   1      42.433  29.075  35.362  1.00  0.00     0.029 A 
ATOM     64  C   UNL A   1      42.300  28.780  34.015  1.00  0.00     0.049 A 
ATOM     65  H   UNL A   1      40.890  29.509  32.623  1.00  0.00     0.167 HD
ATOM     66  C   UNL A   1      42.917  27.671  31.890  1.00  0.00     0.074 A 
ATOM     67  C   UNL A   1      43.743  26.792  31.088  1.00  0.00     0.031 C 
ATOM     68  C   UNL A   1      43.106  27.901  33.211  1.00  0.00     0.031 A 
BRANCH  55  69
ATOM     69  C   UNL A   1      39.096  31.850  35.707  1.00  0.00    -0.014 A 
ATOM     70  C   UNL A   1      38.153  31.277  36.575  1.00  0.00     0.009 A 
ATOM     71  C   UNL A   1      39.524  33.167  35.944  1.00  0.00     0.009 A 
ATOM     72  C   UNL A   1      37.634  32.012  37.642  1.00  0.00     0.001 A 
ATOM     73  C   UNL A   1      39.025  33.889  37.029  1.00  0.00     0.001 A 
ATOM     74  C   UNL A   1      38.071  33.315  37.869  1.00  0.00     0.000 A 
ENDBRANCH  55  69
BRANCH  56  75
ATOM     75  C   UNL A   1      41.856  27.208  27.325  1.00  0.00    -0.014 A 
ATOM     76  C   UNL A   1      41.386  25.919  27.029  1.00  0.00     0.009 A 
ATOM     77  C   UNL A   1      42.757  27.819  26.440  1.00  0.00     0.009 A 
ATOM     78  C   UNL A   1      41.824  25.250  25.883  1.00  0.00     0.001 A 
ATOM     79  C   UNL A   1      43.168  27.160  25.278  1.00  0.00     0.001 A 
ATOM     80  C   UNL A   1      42.708  25.873  25.005  1.00  0.00     0.000 A 
ENDBRANCH  56  75
BRANCH  68  81
ATOM     81  C   UNL A   1      44.236  27.190  33.902  1.00  0.00    -0.014 A 
ATOM     82  C   UNL A   1      45.520  27.759  33.901  1.00  0.00     0.009 A 
ATOM     83  C   UNL A   1      44.061  25.906  34.437  1.00  0.00     0.009 A 
ATOM     84  C   UNL A   1      46.610  27.049  34.403  1.00  0.00     0.001 A 
ATOM     85  C   UNL A   1      45.148  25.208  34.965  1.00  0.00     0.001 A 
ATOM     86  C   UNL A   1      46.423  25.775  34.937  1.00  0.00     0.000 A 
ENDBRANCH  68  81
ENDBRANCH  42  43
ENDBRANCH  35  37
ENDBRANCH  34  35
ENDBRANCH   1  34
TORSDOF 12
ENDMDL
