MODEL 1
REMARK VINA RESULT:     -10.1      0.000      0.000
REMARK SMILES C[C@H](C(=O)OCCOC(=O)c1ccc(-c2c3nc(c(-c4ccccc4)c4ccc([nH]4)c(-c4ccccc4)c4nc(c(-c5ccccc5)c5ccc2[nH]5)C=C4)C=C3)cc1)[C@H](C)[NH+]1CCN(S(C)(=O)=O)CC1
REMARK SMILES IDX 6 1 5 2 3 3 4 4 2 5 1 6 59 7 60 8 61 9 62 10 70 11 63 13
REMARK SMILES IDX 69 14 64 15 65 16 66 17 67 18 68 19 7 20 8 21 9 22 10 23
REMARK SMILES IDX 11 24 12 25 58 26 13 27 57 28 14 29 15 30 16 31 51 32 17 33
REMARK SMILES IDX 56 34 50 35 52 36 18 37 55 38 49 39 48 40 19 42 41 43 26 44
REMARK SMILES IDX 40 45 27 46 30 47 39 48 53 49 28 50 29 51 38 53 54 54 31 55
REMARK SMILES IDX 20 56 21 57 25 58 22 59 24 60 23 61 42 62 43 63 47 64 44 65
REMARK SMILES IDX 46 66 45 67 32 68 33 69 37 70 34 71 36 72 35 73
REMARK H PARENT 61 12 52 41 30 52
REMARK Flexibility Score: inf
ROOT
ATOM      1  C   UNL A   1      32.313  28.793  25.281  1.00  0.00     0.274 C 
ENDROOT
BRANCH   1   2
ATOM      2  O   UNL A   1      31.150  27.929  25.190  1.00  0.00    -0.462 OA
BRANCH   2   3
ATOM      3  C   UNL A   1      31.050  26.956  26.131  1.00  0.00     0.314 C 
ATOM      4  O   UNL A   1      31.356  27.123  27.308  1.00  0.00    -0.252 OA
BRANCH   3   5
ATOM      5  C   UNL A   1      30.463  25.637  25.622  1.00  0.00     0.154 C 
ATOM      6  C   UNL A   1      29.862  25.953  24.241  1.00  0.00     0.026 C 
BRANCH   5   7
ATOM      7  C   UNL A   1      31.375  24.351  25.614  1.00  0.00     0.195 C 
ATOM      8  C   UNL A   1      30.834  23.356  26.678  1.00  0.00     0.076 C 
BRANCH   7   9
ATOM      9  N   UNL A   1      32.815  24.623  25.931  1.00  0.00    -0.330 N 
ATOM     10  C   UNL A   1      33.580  23.452  26.452  1.00  0.00     0.279 C 
ATOM     11  C   UNL A   1      33.602  25.162  24.802  1.00  0.00     0.279 C 
ATOM     12  H   UNL A   1      32.715  25.326  26.663  1.00  0.00     0.348 HD
ATOM     13  C   UNL A   1      33.969  22.383  25.409  1.00  0.00     0.163 C 
ATOM     14  C   UNL A   1      33.898  24.139  23.681  1.00  0.00     0.163 C 
ATOM     15  N   UNL A   1      34.640  22.984  24.230  1.00  0.00    -0.191 NA
BRANCH  15  16
ATOM     16  S   UNL A   1      36.307  22.930  24.056  1.00  0.00     0.211 S 
ATOM     17  C   UNL A   1      36.762  21.338  24.717  1.00  0.00     0.176 C 
ATOM     18  O   UNL A   1      36.616  22.923  22.640  1.00  0.00    -0.212 OA
ATOM     19  O   UNL A   1      36.871  23.924  24.939  1.00  0.00    -0.212 OA
ENDBRANCH  15  16
ENDBRANCH   7   9
ENDBRANCH   5   7
ENDBRANCH   3   5
ENDBRANCH   2   3
ENDBRANCH   1   2
BRANCH   1  20
ATOM     20  C   UNL A   1      31.903  30.189  25.752  1.00  0.00     0.275 C 
BRANCH  20  21
ATOM     21  O   UNL A   1      32.433  30.393  27.070  1.00  0.00    -0.458 OA
BRANCH  21  22
ATOM     22  C   UNL A   1      33.083  31.567  27.221  1.00  0.00     0.338 C 
ATOM     23  O   UNL A   1      32.623  32.695  27.198  1.00  0.00    -0.246 OA
BRANCH  22  24
ATOM     24  C   UNL A   1      34.446  31.282  27.665  1.00  0.00     0.060 A 
ATOM     25  C   UNL A   1      34.751  29.959  27.973  1.00  0.00     0.016 A 
ATOM     26  C   UNL A   1      35.343  32.305  27.938  1.00  0.00     0.016 A 
ATOM     27  C   UNL A   1      35.898  29.664  28.693  1.00  0.00     0.010 A 
ATOM     28  C   UNL A   1      36.559  31.986  28.546  1.00  0.00     0.010 A 
ATOM     29  C   UNL A   1      36.831  30.670  28.973  1.00  0.00    -0.014 A 
BRANCH  29  30
ATOM     30  C   UNL A   1      38.074  30.363  29.729  1.00  0.00     0.031 A 
ATOM     31  C   UNL A   1      39.155  29.529  29.092  1.00  0.00     0.074 A 
ATOM     32  C   UNL A   1      38.228  30.813  30.990  1.00  0.00     0.049 A 
ATOM     33  N   UNL A   1      40.191  28.953  29.647  1.00  0.00    -0.248 NA
ATOM     34  C   UNL A   1      39.043  29.293  27.643  1.00  0.00     0.031 C 
ATOM     35  C   UNL A   1      37.291  31.682  31.708  1.00  0.00     0.029 A 
ATOM     36  N   UNL A   1      39.234  30.597  31.898  1.00  0.00    -0.354 N 
ATOM     37  C   UNL A   1      40.810  28.229  28.633  1.00  0.00     0.074 A 
ATOM     38  C   UNL A   1      40.034  28.438  27.431  1.00  0.00     0.031 C 
ATOM     39  C   UNL A   1      37.782  31.955  32.924  1.00  0.00     0.029 A 
ATOM     40  C   UNL A   1      39.006  31.190  33.117  1.00  0.00     0.049 A 
ATOM     41  H   UNL A   1      40.040  30.068  31.697  1.00  0.00     0.167 HD
ATOM     42  C   UNL A   1      41.919  27.455  28.707  1.00  0.00     0.031 A 
ATOM     43  C   UNL A   1      39.669  31.084  34.283  1.00  0.00     0.031 A 
ATOM     44  C   UNL A   1      42.700  27.286  29.906  1.00  0.00     0.049 A 
ATOM     45  C   UNL A   1      40.858  30.173  34.355  1.00  0.00     0.074 A 
ATOM     46  C   UNL A   1      43.853  26.544  30.087  1.00  0.00     0.029 A 
ATOM     47  N   UNL A   1      42.411  27.881  31.125  1.00  0.00    -0.354 N 
ATOM     48  N   UNL A   1      41.407  29.457  33.405  1.00  0.00    -0.248 NA
ATOM     49  C   UNL A   1      41.509  30.044  35.665  1.00  0.00     0.031 C 
ATOM     50  C   UNL A   1      44.229  26.642  31.431  1.00  0.00     0.029 A 
ATOM     51  C   UNL A   1      43.348  27.502  32.070  1.00  0.00     0.049 A 
ATOM     52  H   UNL A   1      41.651  28.484  31.293  1.00  0.00     0.167 HD
ATOM     53  C   UNL A   1      42.483  28.809  33.996  1.00  0.00     0.074 A 
ATOM     54  C   UNL A   1      42.518  29.234  35.381  1.00  0.00     0.031 C 
ATOM     55  C   UNL A   1      43.363  27.939  33.443  1.00  0.00     0.031 A 
BRANCH  42  56
ATOM     56  C   UNL A   1      42.321  26.685  27.476  1.00  0.00    -0.014 A 
ATOM     57  C   UNL A   1      43.144  27.242  26.486  1.00  0.00     0.009 A 
ATOM     58  C   UNL A   1      41.884  25.358  27.324  1.00  0.00     0.009 A 
ATOM     59  C   UNL A   1      43.489  26.499  25.352  1.00  0.00     0.001 A 
ATOM     60  C   UNL A   1      42.257  24.607  26.207  1.00  0.00     0.001 A 
ATOM     61  C   UNL A   1      43.050  25.183  25.217  1.00  0.00     0.000 A 
ENDBRANCH  42  56
BRANCH  43  62
ATOM     62  C   UNL A   1      39.184  31.816  35.483  1.00  0.00    -0.014 A 
ATOM     63  C   UNL A   1      39.632  33.117  35.752  1.00  0.00     0.009 A 
ATOM     64  C   UNL A   1      38.259  31.223  36.360  1.00  0.00     0.009 A 
ATOM     65  C   UNL A   1      39.178  33.803  36.883  1.00  0.00     0.001 A 
ATOM     66  C   UNL A   1      37.779  31.925  37.467  1.00  0.00     0.001 A 
ATOM     67  C   UNL A   1      38.246  33.209  37.734  1.00  0.00     0.000 A 
ENDBRANCH  43  62
BRANCH  55  68
ATOM     68  C   UNL A   1      44.464  27.431  34.330  1.00  0.00    -0.014 A 
ATOM     69  C   UNL A   1      44.325  26.243  35.064  1.00  0.00     0.009 A 
ATOM     70  C   UNL A   1      45.669  28.147  34.412  1.00  0.00     0.009 A 
ATOM     71  C   UNL A   1      45.359  25.803  35.892  1.00  0.00     0.001 A 
ATOM     72  C   UNL A   1      46.713  27.687  35.213  1.00  0.00     0.001 A 
ATOM     73  C   UNL A   1      46.552  26.521  35.962  1.00  0.00     0.000 A 
ENDBRANCH  55  68
ENDBRANCH  29  30
ENDBRANCH  22  24
ENDBRANCH  21  22
ENDBRANCH  20  21
ENDBRANCH   1  20
TORSDOF 14
ENDMDL
MODEL 2
REMARK VINA RESULT:     -10.1      5.138      9.670
REMARK SMILES C[C@H](C(=O)OCCOC(=O)c1ccc(-c2c3nc(c(-c4ccccc4)c4ccc([nH]4)c(-c4ccccc4)c4nc(c(-c5ccccc5)c5ccc2[nH]5)C=C4)C=C3)cc1)[C@H](C)[NH+]1CCN(S(C)(=O)=O)CC1
REMARK SMILES IDX 6 1 5 2 3 3 4 4 2 5 1 6 59 7 60 8 61 9 62 10 70 11 63 13
REMARK SMILES IDX 69 14 64 15 65 16 66 17 67 18 68 19 7 20 8 21 9 22 10 23
REMARK SMILES IDX 11 24 12 25 58 26 13 27 57 28 14 29 15 30 16 31 51 32 17 33
REMARK SMILES IDX 56 34 50 35 52 36 18 37 55 38 49 39 48 40 19 42 41 43 26 44
REMARK SMILES IDX 40 45 27 46 30 47 39 48 53 49 28 50 29 51 38 53 54 54 31 55
REMARK SMILES IDX 20 56 21 57 25 58 22 59 24 60 23 61 42 62 43 63 47 64 44 65
REMARK SMILES IDX 46 66 45 67 32 68 33 69 37 70 34 71 36 72 35 73
REMARK H PARENT 61 12 52 41 30 52
REMARK Flexibility Score: inf
ROOT
ATOM      1  C   UNL A   1      42.375  19.356  26.610  1.00  0.00     0.274 C 
ENDROOT
BRANCH   1   2
ATOM      2  O   UNL A   1      41.168  19.965  26.080  1.00  0.00    -0.462 OA
BRANCH   2   3
ATOM      3  C   UNL A   1      41.146  21.322  26.047  1.00  0.00     0.314 C 
ATOM      4  O   UNL A   1      41.926  21.992  25.378  1.00  0.00    -0.252 OA
BRANCH   3   5
ATOM      5  C   UNL A   1      40.023  21.959  26.870  1.00  0.00     0.154 C 
ATOM      6  C   UNL A   1      40.723  22.735  28.000  1.00  0.00     0.026 C 
BRANCH   5   7
ATOM      7  C   UNL A   1      38.927  22.814  26.127  1.00  0.00     0.195 C 
ATOM      8  C   UNL A   1      38.841  24.208  26.810  1.00  0.00     0.076 C 
BRANCH   7   9
ATOM      9  N   UNL A   1      37.557  22.206  26.154  1.00  0.00    -0.330 N 
ATOM     10  C   UNL A   1      36.443  23.166  26.410  1.00  0.00     0.279 C 
ATOM     11  C   UNL A   1      37.189  21.463  24.931  1.00  0.00     0.279 C 
ATOM     12  H   UNL A   1      37.652  21.568  26.944  1.00  0.00     0.348 HD
ATOM     13  C   UNL A   1      36.058  24.082  25.228  1.00  0.00     0.163 C 
ATOM     14  C   UNL A   1      36.920  22.354  23.696  1.00  0.00     0.163 C 
ATOM     15  N   UNL A   1      35.825  23.305  23.985  1.00  0.00    -0.191 NA
BRANCH  15  16
ATOM     16  S   UNL A   1      34.274  22.945  23.461  1.00  0.00     0.211 S 
ATOM     17  C   UNL A   1      33.230  24.040  24.406  1.00  0.00     0.176 C 
ATOM     18  O   UNL A   1      34.165  23.329  22.067  1.00  0.00    -0.212 OA
ATOM     19  O   UNL A   1      33.967  21.602  23.893  1.00  0.00    -0.212 OA
ENDBRANCH  15  16
ENDBRANCH   7   9
ENDBRANCH   5   7
ENDBRANCH   3   5
ENDBRANCH   2   3
ENDBRANCH   1   2
BRANCH   1  20
ATOM     20  C   UNL A   1      43.074  18.532  25.528  1.00  0.00     0.275 C 
BRANCH  20  21
ATOM     21  O   UNL A   1      44.434  18.980  25.430  1.00  0.00    -0.458 OA
BRANCH  21  22
ATOM     22  C   UNL A   1      44.738  19.548  24.243  1.00  0.00     0.338 C 
ATOM     23  O   UNL A   1      44.572  19.097  23.123  1.00  0.00    -0.246 OA
BRANCH  22  24
ATOM     24  C   UNL A   1      45.103  20.943  24.483  1.00  0.00     0.060 A 
ATOM     25  C   UNL A   1      45.587  21.264  25.748  1.00  0.00     0.016 A 
ATOM     26  C   UNL A   1      44.814  21.933  23.555  1.00  0.00     0.016 A 
ATOM     27  C   UNL A   1      45.648  22.590  26.148  1.00  0.00     0.010 A 
ATOM     28  C   UNL A   1      45.002  23.268  23.919  1.00  0.00     0.010 A 
ATOM     29  C   UNL A   1      45.376  23.614  25.234  1.00  0.00    -0.014 A 
BRANCH  29  30
ATOM     30  C   UNL A   1      45.455  25.040  25.646  1.00  0.00     0.031 A 
ATOM     31  C   UNL A   1      46.768  25.774  25.569  1.00  0.00     0.074 A 
ATOM     32  C   UNL A   1      44.357  25.675  26.106  1.00  0.00     0.049 A 
ATOM     33  N   UNL A   1      47.106  26.925  26.094  1.00  0.00    -0.248 NA
ATOM     34  C   UNL A   1      47.854  25.115  24.823  1.00  0.00     0.031 C 
ATOM     35  C   UNL A   1      43.008  25.106  26.174  1.00  0.00     0.029 A 
ATOM     36  N   UNL A   1      44.204  26.941  26.609  1.00  0.00    -0.354 N 
ATOM     37  C   UNL A   1      48.456  27.091  25.806  1.00  0.00     0.074 A 
ATOM     38  C   UNL A   1      48.876  25.925  25.061  1.00  0.00     0.031 C 
ATOM     39  C   UNL A   1      42.162  26.028  26.651  1.00  0.00     0.029 A 
ATOM     40  C   UNL A   1      42.923  27.210  27.031  1.00  0.00     0.049 A 
ATOM     41  H   UNL A   1      44.938  27.594  26.663  1.00  0.00     0.167 HD
ATOM     42  C   UNL A   1      49.269  28.121  26.143  1.00  0.00     0.031 A 
ATOM     43  C   UNL A   1      42.423  28.261  27.705  1.00  0.00     0.031 A 
ATOM     44  C   UNL A   1      48.825  29.292  26.855  1.00  0.00     0.049 A 
ATOM     45  C   UNL A   1      43.355  29.361  28.120  1.00  0.00     0.074 A 
ATOM     46  C   UNL A   1      49.558  30.405  27.229  1.00  0.00     0.029 A 
ATOM     47  N   UNL A   1      47.525  29.504  27.291  1.00  0.00    -0.354 N 
ATOM     48  N   UNL A   1      44.638  29.487  27.884  1.00  0.00    -0.248 NA
ATOM     49  C   UNL A   1      42.773  30.454  28.908  1.00  0.00     0.031 C 
ATOM     50  C   UNL A   1      48.715  31.263  27.941  1.00  0.00     0.029 A 
ATOM     51  C   UNL A   1      47.441  30.717  27.952  1.00  0.00     0.049 A 
ATOM     52  H   UNL A   1      46.774  28.883  27.150  1.00  0.00     0.167 HD
ATOM     53  C   UNL A   1      45.013  30.686  28.474  1.00  0.00     0.074 A 
ATOM     54  C   UNL A   1      43.817  31.255  29.062  1.00  0.00     0.031 C 
ATOM     55  C   UNL A   1      46.238  31.263  28.528  1.00  0.00     0.031 A 
BRANCH  42  56
ATOM     56  C   UNL A   1      50.730  28.003  25.798  1.00  0.00    -0.014 A 
ATOM     57  C   UNL A   1      51.259  28.527  24.609  1.00  0.00     0.009 A 
ATOM     58  C   UNL A   1      51.601  27.377  26.706  1.00  0.00     0.009 A 
ATOM     59  C   UNL A   1      52.620  28.391  24.319  1.00  0.00     0.001 A 
ATOM     60  C   UNL A   1      52.966  27.272  26.430  1.00  0.00     0.001 A 
ATOM     61  C   UNL A   1      53.472  27.769  25.231  1.00  0.00     0.000 A 
ENDBRANCH  42  56
BRANCH  43  62
ATOM     62  C   UNL A   1      40.983  28.289  28.077  1.00  0.00    -0.014 A 
ATOM     63  C   UNL A   1      40.056  28.978  27.282  1.00  0.00     0.009 A 
ATOM     64  C   UNL A   1      40.525  27.615  29.222  1.00  0.00     0.009 A 
ATOM     65  C   UNL A   1      38.704  29.007  27.635  1.00  0.00     0.001 A 
ATOM     66  C   UNL A   1      39.168  27.614  29.551  1.00  0.00     0.001 A 
ATOM     67  C   UNL A   1      38.261  28.317  28.763  1.00  0.00     0.000 A 
ENDBRANCH  43  62
BRANCH  55  68
ATOM     68  C   UNL A   1      46.328  32.601  29.204  1.00  0.00    -0.014 A 
ATOM     69  C   UNL A   1      46.582  32.712  30.579  1.00  0.00     0.009 A 
ATOM     70  C   UNL A   1      46.178  33.771  28.441  1.00  0.00     0.009 A 
ATOM     71  C   UNL A   1      46.646  33.969  31.185  1.00  0.00     0.001 A 
ATOM     72  C   UNL A   1      46.275  35.025  29.042  1.00  0.00     0.001 A 
ATOM     73  C   UNL A   1      46.498  35.123  30.415  1.00  0.00     0.000 A 
ENDBRANCH  55  68
ENDBRANCH  29  30
ENDBRANCH  22  24
ENDBRANCH  21  22
ENDBRANCH  20  21
ENDBRANCH   1  20
TORSDOF 14
ENDMDL
MODEL 3
REMARK VINA RESULT:      -9.9      1.265      1.798
REMARK SMILES C[C@H](C(=O)OCCOC(=O)c1ccc(-c2c3nc(c(-c4ccccc4)c4ccc([nH]4)c(-c4ccccc4)c4nc(c(-c5ccccc5)c5ccc2[nH]5)C=C4)C=C3)cc1)[C@H](C)[NH+]1CCN(S(C)(=O)=O)CC1
REMARK SMILES IDX 6 1 5 2 3 3 4 4 2 5 1 6 59 7 60 8 61 9 62 10 70 11 63 13
REMARK SMILES IDX 69 14 64 15 65 16 66 17 67 18 68 19 7 20 8 21 9 22 10 23
REMARK SMILES IDX 11 24 12 25 58 26 13 27 57 28 14 29 15 30 16 31 51 32 17 33
REMARK SMILES IDX 56 34 50 35 52 36 18 37 55 38 49 39 48 40 19 42 41 43 26 44
REMARK SMILES IDX 40 45 27 46 30 47 39 48 53 49 28 50 29 51 38 53 54 54 31 55
REMARK SMILES IDX 20 56 21 57 25 58 22 59 24 60 23 61 42 62 43 63 47 64 44 65
REMARK SMILES IDX 46 66 45 67 32 68 33 69 37 70 34 71 36 72 35 73
REMARK H PARENT 61 12 52 41 30 52
REMARK Flexibility Score: inf
ROOT
ATOM      1  C   UNL A   1      32.653  29.532  24.808  1.00  0.00     0.274 C 
ENDROOT
BRANCH   1   2
ATOM      2  O   UNL A   1      31.915  29.290  23.581  1.00  0.00    -0.462 OA
BRANCH   2   3
ATOM      3  C   UNL A   1      31.539  28.006  23.350  1.00  0.00     0.314 C 
ATOM      4  O   UNL A   1      32.024  27.312  22.462  1.00  0.00    -0.252 OA
BRANCH   3   5
ATOM      5  C   UNL A   1      30.496  27.463  24.330  1.00  0.00     0.154 C 
ATOM      6  C   UNL A   1      29.246  27.162  23.483  1.00  0.00     0.026 C 
BRANCH   5   7
ATOM      7  C   UNL A   1      30.893  26.271  25.281  1.00  0.00     0.195 C 
ATOM      8  C   UNL A   1      31.225  26.850  26.685  1.00  0.00     0.076 C 
BRANCH   7   9
ATOM      9  N   UNL A   1      32.085  25.490  24.815  1.00  0.00    -0.330 N 
ATOM     10  C   UNL A   1      32.891  24.857  25.900  1.00  0.00     0.279 C 
ATOM     11  C   UNL A   1      31.776  24.414  23.849  1.00  0.00     0.279 C 
ATOM     12  H   UNL A   1      32.627  26.227  24.365  1.00  0.00     0.348 HD
ATOM     13  C   UNL A   1      32.274  23.603  26.555  1.00  0.00     0.163 C 
ATOM     14  C   UNL A   1      31.043  23.197  24.458  1.00  0.00     0.163 C 
ATOM     15  N   UNL A   1      31.856  22.603  25.541  1.00  0.00    -0.191 NA
BRANCH  15  16
ATOM     16  S   UNL A   1      32.799  21.257  25.206  1.00  0.00     0.211 S 
ATOM     17  C   UNL A   1      33.873  21.115  26.623  1.00  0.00     0.176 C 
ATOM     18  O   UNL A   1      31.937  20.092  25.190  1.00  0.00    -0.212 OA
ATOM     19  O   UNL A   1      33.639  21.581  24.078  1.00  0.00    -0.212 OA
ENDBRANCH  15  16
ENDBRANCH   7   9
ENDBRANCH   5   7
ENDBRANCH   3   5
ENDBRANCH   2   3
ENDBRANCH   1   2
BRANCH   1  20
ATOM     20  C   UNL A   1      31.809  30.354  25.783  1.00  0.00     0.275 C 
BRANCH  20  21
ATOM     21  O   UNL A   1      32.510  30.429  27.033  1.00  0.00    -0.458 OA
BRANCH  21  22
ATOM     22  C   UNL A   1      33.159  31.597  27.225  1.00  0.00     0.338 C 
ATOM     23  O   UNL A   1      32.701  32.726  27.231  1.00  0.00    -0.246 OA
BRANCH  22  24
ATOM     24  C   UNL A   1      34.518  31.298  27.673  1.00  0.00     0.060 A 
ATOM     25  C   UNL A   1      34.802  29.975  28.002  1.00  0.00     0.016 A 
ATOM     26  C   UNL A   1      35.431  32.311  27.931  1.00  0.00     0.016 A 
ATOM     27  C   UNL A   1      35.944  29.673  28.726  1.00  0.00     0.010 A 
ATOM     28  C   UNL A   1      36.641  31.982  28.545  1.00  0.00     0.010 A 
ATOM     29  C   UNL A   1      36.892  30.668  28.992  1.00  0.00    -0.014 A 
BRANCH  29  30
ATOM     30  C   UNL A   1      38.130  30.353  29.754  1.00  0.00     0.031 A 
ATOM     31  C   UNL A   1      39.209  29.513  29.121  1.00  0.00     0.074 A 
ATOM     32  C   UNL A   1      38.282  30.803  31.016  1.00  0.00     0.049 A 
ATOM     33  N   UNL A   1      40.239  28.930  29.681  1.00  0.00    -0.248 NA
ATOM     34  C   UNL A   1      39.102  29.277  27.672  1.00  0.00     0.031 C 
ATOM     35  C   UNL A   1      37.347  31.678  31.729  1.00  0.00     0.029 A 
ATOM     36  N   UNL A   1      39.282  30.580  31.928  1.00  0.00    -0.354 N 
ATOM     37  C   UNL A   1      40.857  28.203  28.670  1.00  0.00     0.074 A 
ATOM     38  C   UNL A   1      40.088  28.416  27.464  1.00  0.00     0.031 C 
ATOM     39  C   UNL A   1      37.835  31.947  32.948  1.00  0.00     0.029 A 
ATOM     40  C   UNL A   1      39.053  31.174  33.145  1.00  0.00     0.049 A 
ATOM     41  H   UNL A   1      40.085  30.046  31.730  1.00  0.00     0.167 HD
ATOM     42  C   UNL A   1      41.961  27.421  28.748  1.00  0.00     0.031 A 
ATOM     43  C   UNL A   1      39.710  31.065  34.314  1.00  0.00     0.031 A 
ATOM     44  C   UNL A   1      42.735  27.247  29.950  1.00  0.00     0.049 A 
ATOM     45  C   UNL A   1      40.893  30.146  34.392  1.00  0.00     0.074 A 
ATOM     46  C   UNL A   1      43.883  26.497  30.137  1.00  0.00     0.029 A 
ATOM     47  N   UNL A   1      42.445  27.844  31.169  1.00  0.00    -0.354 N 
ATOM     48  N   UNL A   1      41.442  29.426  33.444  1.00  0.00    -0.248 NA
ATOM     49  C   UNL A   1      41.537  30.013  35.704  1.00  0.00     0.031 C 
ATOM     50  C   UNL A   1      44.254  26.594  31.482  1.00  0.00     0.029 A 
ATOM     51  C   UNL A   1      43.376  27.459  32.117  1.00  0.00     0.049 A 
ATOM     52  H   UNL A   1      41.688  28.452  31.333  1.00  0.00     0.167 HD
ATOM     53  C   UNL A   1      42.511  28.771  34.040  1.00  0.00     0.074 A 
ATOM     54  C   UNL A   1      42.542  29.196  35.425  1.00  0.00     0.031 C 
ATOM     55  C   UNL A   1      43.387  27.896  33.491  1.00  0.00     0.031 A 
BRANCH  42  56
ATOM     56  C   UNL A   1      42.363  26.649  27.519  1.00  0.00    -0.014 A 
ATOM     57  C   UNL A   1      41.867  25.363  27.254  1.00  0.00     0.009 A 
ATOM     58  C   UNL A   1      43.236  27.240  26.591  1.00  0.00     0.009 A 
ATOM     59  C   UNL A   1      42.270  24.672  26.106  1.00  0.00     0.001 A 
ATOM     60  C   UNL A   1      43.610  26.563  25.429  1.00  0.00     0.001 A 
ATOM     61  C   UNL A   1      43.135  25.274  25.194  1.00  0.00     0.000 A 
ENDBRANCH  42  56
BRANCH  43  62
ATOM     62  C   UNL A   1      39.225  31.800  35.513  1.00  0.00    -0.014 A 
ATOM     63  C   UNL A   1      39.671  33.103  35.777  1.00  0.00     0.009 A 
ATOM     64  C   UNL A   1      38.302  31.208  36.392  1.00  0.00     0.009 A 
ATOM     65  C   UNL A   1      39.216  33.791  36.905  1.00  0.00     0.001 A 
ATOM     66  C   UNL A   1      37.821  31.912  37.497  1.00  0.00     0.001 A 
ATOM     67  C   UNL A   1      38.286  33.199  37.759  1.00  0.00     0.000 A 
ENDBRANCH  43  62
BRANCH  55  68
ATOM     68  C   UNL A   1      44.481  27.381  34.382  1.00  0.00    -0.014 A 
ATOM     69  C   UNL A   1      45.698  28.066  34.518  1.00  0.00     0.009 A 
ATOM     70  C   UNL A   1      44.276  26.201  35.115  1.00  0.00     0.009 A 
ATOM     71  C   UNL A   1      46.704  27.557  35.342  1.00  0.00     0.001 A 
ATOM     72  C   UNL A   1      45.270  25.714  35.963  1.00  0.00     0.001 A 
ATOM     73  C   UNL A   1      46.487  26.386  36.067  1.00  0.00     0.000 A 
ENDBRANCH  55  68
ENDBRANCH  29  30
ENDBRANCH  22  24
ENDBRANCH  21  22
ENDBRANCH  20  21
ENDBRANCH   1  20
TORSDOF 14
ENDMDL
