MODEL 1
REMARK VINA RESULT:     -11.8      0.000      0.000
REMARK SMILES Cc1c(CC(=O)N[C@H](CO)C(=O)OCCOC(=O)c2ccc(-c3c4nc(c(-c5ccccc5)c5ccc([nH]5)c(-c5ccccc5)c5nc(c(-c6ccccc6)c6ccc3[nH]6)C=C5)C=C4)cc2)cc(-c2ccc(S(C)(=O)=O)cc2)n1-c1ccc(F)cc1
REMARK SMILES IDX 13 1 11 2 12 3 8 4 7 5 5 6 6 7 4 9 3 10 1 11 2 12 79 13
REMARK SMILES IDX 67 14 68 15 80 16 81 17 86 18 82 19 85 20 83 21 84 22 69 23
REMARK SMILES IDX 70 24 78 25 71 26 77 27 72 28 73 29 74 30 75 31 76 32 9 33
REMARK SMILES IDX 10 34 14 36 15 37 16 38 17 39 18 40 19 41 20 42 66 43 21 44
REMARK SMILES IDX 65 45 22 46 23 47 24 48 59 49 25 50 64 51 58 52 60 53 26 54
REMARK SMILES IDX 63 55 57 56 56 57 27 59 49 60 34 61 48 62 35 63 38 64 47 65
REMARK SMILES IDX 61 66 36 67 37 68 46 70 62 71 39 72 28 73 29 74 33 75 30 76
REMARK SMILES IDX 32 77 31 78 50 79 51 80 55 81 52 82 54 83 53 84 40 85 41 86
REMARK SMILES IDX 45 87 42 88 44 89 43 90
REMARK H PARENT 7 8 10 35 60 58 38 69
REMARK Flexibility Score: inf
ROOT
ATOM      1  O   UNL A   1      38.388  21.706  25.772  1.00  0.00    -0.460 OA
ENDROOT
BRANCH   1   2
ATOM      2  C   UNL A   1      37.403  21.008  25.128  1.00  0.00     0.331 C 
ATOM      3  O   UNL A   1      37.383  19.778  25.081  1.00  0.00    -0.250 OA
BRANCH   2   4
ATOM      4  C   UNL A   1      36.347  21.850  24.383  1.00  0.00     0.218 C 
BRANCH   4   5
ATOM      5  N   UNL A   1      34.984  21.293  24.552  1.00  0.00    -0.341 N 
ATOM      6  C   UNL A   1      33.763  21.781  24.186  1.00  0.00     0.225 C 
ATOM      7  O   UNL A   1      32.767  21.239  24.677  1.00  0.00    -0.275 OA
ATOM      8  H   UNL A   1      34.955  20.420  25.006  1.00  0.00     0.164 HD
BRANCH   6   9
ATOM      9  C   UNL A   1      33.616  22.902  23.165  1.00  0.00     0.137 C 
BRANCH   9  10
ATOM     10  C   UNL A   1      33.003  24.150  23.725  1.00  0.00    -0.017 A 
ATOM     11  C   UNL A   1      34.723  24.777  25.556  1.00  0.00     0.065 C 
ATOM     12  C   UNL A   1      33.518  24.997  24.699  1.00  0.00     0.024 A 
ATOM     13  N   UNL A   1      32.679  26.105  24.806  1.00  0.00    -0.314 N 
ATOM     14  C   UNL A   1      31.745  24.691  23.352  1.00  0.00     0.033 A 
ATOM     15  C   UNL A   1      31.643  25.964  23.878  1.00  0.00     0.053 A 
BRANCH  13  16
ATOM     16  C   UNL A   1      32.845  27.227  25.668  1.00  0.00     0.046 A 
ATOM     17  C   UNL A   1      31.875  27.487  26.649  1.00  0.00     0.029 A 
ATOM     18  C   UNL A   1      33.905  28.121  25.470  1.00  0.00     0.029 A 
ATOM     19  C   UNL A   1      31.957  28.646  27.418  1.00  0.00     0.041 A 
ATOM     20  C   UNL A   1      33.975  29.285  26.239  1.00  0.00     0.041 A 
ATOM     21  C   UNL A   1      33.001  29.537  27.200  1.00  0.00     0.123 A 
ATOM     22  F   UNL A   1      33.060  30.666  27.918  1.00  0.00    -0.207 F 
ENDBRANCH  13  16
BRANCH  15  23
ATOM     23  C   UNL A   1      30.748  27.045  23.430  1.00  0.00    -0.001 A 
ATOM     24  C   UNL A   1      31.258  28.112  22.669  1.00  0.00     0.011 A 
ATOM     25  C   UNL A   1      29.376  27.016  23.710  1.00  0.00     0.011 A 
ATOM     26  C   UNL A   1      30.440  29.168  22.268  1.00  0.00     0.021 A 
ATOM     27  C   UNL A   1      28.544  28.065  23.299  1.00  0.00     0.021 A 
ATOM     28  C   UNL A   1      29.089  29.150  22.607  1.00  0.00     0.067 A 
BRANCH  28  29
ATOM     29  S   UNL A   1      28.060  30.514  22.124  1.00  0.00     0.175 S 
ATOM     30  C   UNL A   1      29.061  31.938  22.465  1.00  0.00     0.163 C 
ATOM     31  O   UNL A   1      27.908  30.436  20.668  1.00  0.00    -0.224 OA
ATOM     32  O   UNL A   1      26.923  30.558  22.993  1.00  0.00    -0.224 OA
ENDBRANCH  28  29
ENDBRANCH  15  23
ENDBRANCH   9  10
ENDBRANCH   6   9
ENDBRANCH   4   5
BRANCH   4  33
ATOM     33  C   UNL A   1      36.570  22.350  22.954  1.00  0.00     0.193 C 
BRANCH  33  34
ATOM     34  O   UNL A   1      36.956  23.708  22.867  1.00  0.00    -0.394 OA
ATOM     35  H   UNL A   1      36.165  24.268  22.824  1.00  0.00     0.210 HD
ENDBRANCH  33  34
ENDBRANCH   4  33
ENDBRANCH   2   4
ENDBRANCH   1   2
BRANCH   1  36
ATOM     36  C   UNL A   1      39.633  20.960  25.868  1.00  0.00     0.274 C 
BRANCH  36  37
ATOM     37  C   UNL A   1      40.671  21.605  26.810  1.00  0.00     0.275 C 
BRANCH  37  38
ATOM     38  O   UNL A   1      41.619  22.497  26.148  1.00  0.00    -0.458 OA
BRANCH  38  39
ATOM     39  C   UNL A   1      42.185  23.469  26.919  1.00  0.00     0.338 C 
ATOM     40  O   UNL A   1      43.312  23.414  27.383  1.00  0.00    -0.246 OA
BRANCH  39  41
ATOM     41  C   UNL A   1      41.236  24.614  27.173  1.00  0.00     0.060 A 
ATOM     42  C   UNL A   1      41.196  25.689  26.297  1.00  0.00     0.016 A 
ATOM     43  C   UNL A   1      40.508  24.738  28.373  1.00  0.00     0.016 A 
ATOM     44  C   UNL A   1      40.436  26.849  26.617  1.00  0.00     0.010 A 
ATOM     45  C   UNL A   1      39.777  25.935  28.714  1.00  0.00     0.010 A 
ATOM     46  C   UNL A   1      39.734  27.044  27.852  1.00  0.00    -0.014 A 
BRANCH  46  47
ATOM     47  C   UNL A   1      39.522  28.528  28.297  1.00  0.00     0.031 A 
ATOM     48  C   UNL A   1      40.900  29.056  28.492  1.00  0.00     0.074 A 
ATOM     49  C   UNL A   1      38.523  29.418  28.642  1.00  0.00     0.049 A 
ATOM     50  N   UNL A   1      41.716  28.498  29.339  1.00  0.00    -0.248 NA
ATOM     51  C   UNL A   1      41.518  29.977  27.541  1.00  0.00     0.031 C 
ATOM     52  C   UNL A   1      37.080  29.174  28.738  1.00  0.00     0.029 A 
ATOM     53  N   UNL A   1      38.577  30.796  28.979  1.00  0.00    -0.354 N 
ATOM     54  C   UNL A   1      42.897  29.187  29.218  1.00  0.00     0.074 A 
ATOM     55  C   UNL A   1      42.784  29.914  27.964  1.00  0.00     0.031 C 
ATOM     56  C   UNL A   1      36.399  30.335  28.964  1.00  0.00     0.029 A 
ATOM     57  C   UNL A   1      37.321  31.460  29.091  1.00  0.00     0.049 A 
ATOM     58  H   UNL A   1      39.431  31.264  29.126  1.00  0.00     0.167 HD
ATOM     59  C   UNL A   1      43.512  29.591  30.365  1.00  0.00     0.031 A 
ATOM     60  C   UNL A   1      37.027  32.790  29.311  1.00  0.00     0.031 A 
ATOM     61  C   UNL A   1      43.407  31.011  30.565  1.00  0.00     0.049 A 
ATOM     62  C   UNL A   1      38.220  33.435  29.877  1.00  0.00     0.074 A 
ATOM     63  C   UNL A   1      43.639  32.109  29.763  1.00  0.00     0.029 A 
ATOM     64  N   UNL A   1      42.579  31.433  31.583  1.00  0.00    -0.354 N 
ATOM     65  N   UNL A   1      38.500  33.349  31.141  1.00  0.00    -0.248 NA
ATOM     66  C   UNL A   1      39.084  34.321  29.105  1.00  0.00     0.031 C 
ATOM     67  C   UNL A   1      42.586  33.012  30.051  1.00  0.00     0.029 A 
ATOM     68  C   UNL A   1      41.913  32.579  31.187  1.00  0.00     0.049 A 
ATOM     69  H   UNL A   1      42.476  30.989  32.456  1.00  0.00     0.167 HD
ATOM     70  C   UNL A   1      39.808  33.720  31.199  1.00  0.00     0.074 A 
ATOM     71  C   UNL A   1      40.016  34.555  30.032  1.00  0.00     0.031 C 
ATOM     72  C   UNL A   1      40.666  32.894  31.848  1.00  0.00     0.031 A 
BRANCH  59  73
ATOM     73  C   UNL A   1      43.506  28.581  31.475  1.00  0.00    -0.014 A 
ATOM     74  C   UNL A   1      44.626  27.760  31.650  1.00  0.00     0.009 A 
ATOM     75  C   UNL A   1      42.356  28.330  32.252  1.00  0.00     0.009 A 
ATOM     76  C   UNL A   1      44.573  26.680  32.536  1.00  0.00     0.001 A 
ATOM     77  C   UNL A   1      42.297  27.237  33.113  1.00  0.00     0.001 A 
ATOM     78  C   UNL A   1      43.404  26.409  33.249  1.00  0.00     0.000 A 
ENDBRANCH  59  73
BRANCH  60  79
ATOM     79  C   UNL A   1      35.860  33.776  29.317  1.00  0.00    -0.014 A 
ATOM     80  C   UNL A   1      35.116  33.976  28.111  1.00  0.00     0.009 A 
ATOM     81  C   UNL A   1      35.237  34.219  30.485  1.00  0.00     0.009 A 
ATOM     82  C   UNL A   1      33.798  34.456  28.082  1.00  0.00     0.001 A 
ATOM     83  C   UNL A   1      33.919  34.743  30.455  1.00  0.00     0.001 A 
ATOM     84  C   UNL A   1      33.188  34.825  29.266  1.00  0.00     0.000 A 
ENDBRANCH  60  79
BRANCH  72  85
ATOM     85  C   UNL A   1      40.139  32.156  33.074  1.00  0.00    -0.014 A 
ATOM     86  C   UNL A   1      39.771  30.792  33.113  1.00  0.00     0.009 A 
ATOM     87  C   UNL A   1      39.968  32.888  34.259  1.00  0.00     0.009 A 
ATOM     88  C   UNL A   1      39.184  30.213  34.245  1.00  0.00     0.001 A 
ATOM     89  C   UNL A   1      39.433  32.297  35.409  1.00  0.00     0.001 A 
ATOM     90  C   UNL A   1      39.021  30.967  35.397  1.00  0.00     0.000 A 
ENDBRANCH  72  85
ENDBRANCH  46  47
ENDBRANCH  39  41
ENDBRANCH  38  39
ENDBRANCH  37  38
ENDBRANCH  36  37
ENDBRANCH   1  36
TORSDOF 19
ENDMDL
MODEL 2
REMARK VINA RESULT:     -11.7      3.861      9.038
REMARK SMILES Cc1c(CC(=O)N[C@H](CO)C(=O)OCCOC(=O)c2ccc(-c3c4nc(c(-c5ccccc5)c5ccc([nH]5)c(-c5ccccc5)c5nc(c(-c6ccccc6)c6ccc3[nH]6)C=C5)C=C4)cc2)cc(-c2ccc(S(C)(=O)=O)cc2)n1-c1ccc(F)cc1
REMARK SMILES IDX 13 1 11 2 12 3 8 4 7 5 5 6 6 7 4 9 3 10 1 11 2 12 79 13
REMARK SMILES IDX 67 14 68 15 80 16 81 17 86 18 82 19 85 20 83 21 84 22 69 23
REMARK SMILES IDX 70 24 78 25 71 26 77 27 72 28 73 29 74 30 75 31 76 32 9 33
REMARK SMILES IDX 10 34 14 36 15 37 16 38 17 39 18 40 19 41 20 42 66 43 21 44
REMARK SMILES IDX 65 45 22 46 23 47 24 48 59 49 25 50 64 51 58 52 60 53 26 54
REMARK SMILES IDX 63 55 57 56 56 57 27 59 49 60 34 61 48 62 35 63 38 64 47 65
REMARK SMILES IDX 61 66 36 67 37 68 46 70 62 71 39 72 28 73 29 74 33 75 30 76
REMARK SMILES IDX 32 77 31 78 50 79 51 80 55 81 52 82 54 83 53 84 40 85 41 86
REMARK SMILES IDX 45 87 42 88 44 89 43 90
REMARK H PARENT 7 8 10 35 60 58 38 69
REMARK Flexibility Score: inf
ROOT
ATOM      1  O   UNL A   1      31.576  30.132  26.878  1.00  0.00    -0.460 OA
ENDROOT
BRANCH   1   2
ATOM      2  C   UNL A   1      31.388  29.426  25.720  1.00  0.00     0.331 C 
ATOM      3  O   UNL A   1      31.102  29.966  24.651  1.00  0.00    -0.250 OA
BRANCH   2   4
ATOM      4  C   UNL A   1      31.472  27.890  25.837  1.00  0.00     0.218 C 
BRANCH   4   5
ATOM      5  N   UNL A   1      30.262  27.232  25.291  1.00  0.00    -0.341 N 
ATOM      6  C   UNL A   1      29.919  26.901  24.011  1.00  0.00     0.225 C 
ATOM      7  O   UNL A   1      28.741  26.595  23.803  1.00  0.00    -0.275 OA
ATOM      8  H   UNL A   1      29.589  26.992  25.968  1.00  0.00     0.164 HD
BRANCH   6   9
ATOM      9  C   UNL A   1      30.950  26.843  22.891  1.00  0.00     0.137 C 
BRANCH   9  10
ATOM     10  C   UNL A   1      31.932  25.720  23.034  1.00  0.00    -0.017 A 
ATOM     11  C   UNL A   1      34.011  26.981  23.928  1.00  0.00     0.065 C 
ATOM     12  C   UNL A   1      33.221  25.768  23.553  1.00  0.00     0.024 A 
ATOM     13  N   UNL A   1      33.715  24.467  23.623  1.00  0.00    -0.314 N 
ATOM     14  C   UNL A   1      31.711  24.374  22.642  1.00  0.00     0.033 A 
ATOM     15  C   UNL A   1      32.722  23.594  23.167  1.00  0.00     0.053 A 
BRANCH  13  16
ATOM     16  C   UNL A   1      34.988  24.057  24.114  1.00  0.00     0.046 A 
ATOM     17  C   UNL A   1      35.845  23.328  23.273  1.00  0.00     0.029 A 
ATOM     18  C   UNL A   1      35.338  24.284  25.451  1.00  0.00     0.029 A 
ATOM     19  C   UNL A   1      37.039  22.816  23.774  1.00  0.00     0.041 A 
ATOM     20  C   UNL A   1      36.533  23.758  25.947  1.00  0.00     0.041 A 
ATOM     21  C   UNL A   1      37.368  23.028  25.107  1.00  0.00     0.123 A 
ATOM     22  F   UNL A   1      38.501  22.506  25.595  1.00  0.00    -0.207 F 
ENDBRANCH  13  16
BRANCH  15  23
ATOM     23  C   UNL A   1      32.702  22.137  23.388  1.00  0.00    -0.001 A 
ATOM     24  C   UNL A   1      33.179  21.603  24.598  1.00  0.00     0.011 A 
ATOM     25  C   UNL A   1      32.173  21.264  22.430  1.00  0.00     0.011 A 
ATOM     26  C   UNL A   1      33.208  20.226  24.816  1.00  0.00     0.021 A 
ATOM     27  C   UNL A   1      32.185  19.880  22.646  1.00  0.00     0.021 A 
ATOM     28  C   UNL A   1      32.732  19.369  23.826  1.00  0.00     0.067 A 
BRANCH  28  29
ATOM     29  S   UNL A   1      32.804  17.615  24.095  1.00  0.00     0.175 S 
ATOM     30  C   UNL A   1      34.446  17.350  24.711  1.00  0.00     0.163 C 
ATOM     31  O   UNL A   1      31.882  17.317  25.195  1.00  0.00    -0.224 OA
ATOM     32  O   UNL A   1      32.696  16.954  22.830  1.00  0.00    -0.224 OA
ENDBRANCH  28  29
ENDBRANCH  15  23
ENDBRANCH   9  10
ENDBRANCH   6   9
ENDBRANCH   4   5
BRANCH   4  33
ATOM     33  C   UNL A   1      31.950  27.199  27.116  1.00  0.00     0.193 C 
BRANCH  33  34
ATOM     34  O   UNL A   1      31.531  27.834  28.310  1.00  0.00    -0.394 OA
ATOM     35  H   UNL A   1      30.812  27.323  28.713  1.00  0.00     0.210 HD
ENDBRANCH  33  34
ENDBRANCH   4  33
ENDBRANCH   2   4
ENDBRANCH   1   2
BRANCH   1  36
ATOM     36  C   UNL A   1      32.749  30.990  26.825  1.00  0.00     0.274 C 
BRANCH  36  37
ATOM     37  C   UNL A   1      34.046  30.297  27.290  1.00  0.00     0.275 C 
BRANCH  37  38
ATOM     38  O   UNL A   1      35.152  31.207  27.576  1.00  0.00    -0.458 OA
BRANCH  38  39
ATOM     39  C   UNL A   1      35.509  31.345  28.884  1.00  0.00     0.338 C 
ATOM     40  O   UNL A   1      34.855  31.948  29.720  1.00  0.00    -0.246 OA
BRANCH  39  41
ATOM     41  C   UNL A   1      36.840  30.699  29.179  1.00  0.00     0.060 A 
ATOM     42  C   UNL A   1      37.796  30.594  28.179  1.00  0.00     0.016 A 
ATOM     43  C   UNL A   1      37.099  30.021  30.387  1.00  0.00     0.016 A 
ATOM     44  C   UNL A   1      38.981  29.835  28.395  1.00  0.00     0.010 A 
ATOM     45  C   UNL A   1      38.280  29.214  30.583  1.00  0.00     0.010 A 
ATOM     46  C   UNL A   1      39.256  29.078  29.581  1.00  0.00    -0.014 A 
BRANCH  46  47
ATOM     47  C   UNL A   1      40.211  27.852  29.410  1.00  0.00     0.031 A 
ATOM     48  C   UNL A   1      41.347  28.137  30.329  1.00  0.00     0.074 A 
ATOM     49  C   UNL A   1      40.374  26.709  28.651  1.00  0.00     0.049 A 
ATOM     50  N   UNL A   1      42.059  29.219  30.196  1.00  0.00    -0.248 NA
ATOM     51  C   UNL A   1      41.515  27.430  31.596  1.00  0.00     0.031 C 
ATOM     52  C   UNL A   1      39.545  26.229  27.540  1.00  0.00     0.029 A 
ATOM     53  N   UNL A   1      41.342  25.674  28.720  1.00  0.00    -0.354 N 
ATOM     54  C   UNL A   1      42.962  29.194  31.230  1.00  0.00     0.074 A 
ATOM     55  C   UNL A   1      42.438  28.211  32.165  1.00  0.00     0.031 C 
ATOM     56  C   UNL A   1      39.937  24.987  27.136  1.00  0.00     0.029 A 
ATOM     57  C   UNL A   1      41.095  24.534  27.901  1.00  0.00     0.049 A 
ATOM     58  H   UNL A   1      42.137  25.740  29.298  1.00  0.00     0.167 HD
ATOM     59  C   UNL A   1      44.267  29.452  30.934  1.00  0.00     0.031 A 
ATOM     60  C   UNL A   1      41.776  23.338  27.801  1.00  0.00     0.031 A 
ATOM     61  C   UNL A   1      45.082  28.269  30.996  1.00  0.00     0.049 A 
ATOM     62  C   UNL A   1      43.123  23.530  28.355  1.00  0.00     0.074 A 
ATOM     63  C   UNL A   1      45.235  27.262  31.926  1.00  0.00     0.029 A 
ATOM     64  N   UNL A   1      45.542  27.772  29.795  1.00  0.00    -0.354 N 
ATOM     65  N   UNL A   1      44.074  24.063  27.652  1.00  0.00    -0.248 NA
ATOM     66  C   UNL A   1      43.524  23.018  29.661  1.00  0.00     0.031 C 
ATOM     67  C   UNL A   1      45.338  26.067  31.172  1.00  0.00     0.029 A 
ATOM     68  C   UNL A   1      45.518  26.390  29.832  1.00  0.00     0.049 A 
ATOM     69  H   UNL A   1      45.844  28.315  29.031  1.00  0.00     0.167 HD
ATOM     70  C   UNL A   1      45.000  24.410  28.588  1.00  0.00     0.074 A 
ATOM     71  C   UNL A   1      44.761  23.517  29.705  1.00  0.00     0.031 C 
ATOM     72  C   UNL A   1      45.463  25.684  28.570  1.00  0.00     0.031 A 
BRANCH  59  73
ATOM     73  C   UNL A   1      44.484  30.574  29.962  1.00  0.00    -0.014 A 
ATOM     74  C   UNL A   1      43.888  30.501  28.698  1.00  0.00     0.009 A 
ATOM     75  C   UNL A   1      45.385  31.627  30.224  1.00  0.00     0.009 A 
ATOM     76  C   UNL A   1      44.233  31.423  27.705  1.00  0.00     0.001 A 
ATOM     77  C   UNL A   1      45.748  32.527  29.224  1.00  0.00     0.001 A 
ATOM     78  C   UNL A   1      45.175  32.419  27.964  1.00  0.00     0.000 A 
ENDBRANCH  59  73
BRANCH  60  79
ATOM     79  C   UNL A   1      41.672  21.946  27.180  1.00  0.00    -0.014 A 
ATOM     80  C   UNL A   1      42.602  21.571  26.159  1.00  0.00     0.009 A 
ATOM     81  C   UNL A   1      40.983  20.890  27.779  1.00  0.00     0.009 A 
ATOM     82  C   UNL A   1      42.921  20.240  25.850  1.00  0.00     0.001 A 
ATOM     83  C   UNL A   1      41.275  19.544  27.440  1.00  0.00     0.001 A 
ATOM     84  C   UNL A   1      42.265  19.218  26.509  1.00  0.00     0.000 A 
ENDBRANCH  60  79
BRANCH  72  85
ATOM     85  C   UNL A   1      45.622  26.356  27.210  1.00  0.00    -0.014 A 
ATOM     86  C   UNL A   1      46.809  26.376  26.441  1.00  0.00     0.009 A 
ATOM     87  C   UNL A   1      44.519  27.043  26.683  1.00  0.00     0.009 A 
ATOM     88  C   UNL A   1      46.913  27.113  25.255  1.00  0.00     0.001 A 
ATOM     89  C   UNL A   1      44.604  27.735  25.469  1.00  0.00     0.001 A 
ATOM     90  C   UNL A   1      45.805  27.789  24.766  1.00  0.00     0.000 A 
ENDBRANCH  72  85
ENDBRANCH  46  47
ENDBRANCH  39  41
ENDBRANCH  38  39
ENDBRANCH  37  38
ENDBRANCH  36  37
ENDBRANCH   1  36
TORSDOF 19
ENDMDL
MODEL 3
REMARK VINA RESULT:     -10.8      2.519      3.570
REMARK SMILES Cc1c(CC(=O)N[C@H](CO)C(=O)OCCOC(=O)c2ccc(-c3c4nc(c(-c5ccccc5)c5ccc([nH]5)c(-c5ccccc5)c5nc(c(-c6ccccc6)c6ccc3[nH]6)C=C5)C=C4)cc2)cc(-c2ccc(S(C)(=O)=O)cc2)n1-c1ccc(F)cc1
REMARK SMILES IDX 13 1 11 2 12 3 8 4 7 5 5 6 6 7 4 9 3 10 1 11 2 12 79 13
REMARK SMILES IDX 67 14 68 15 80 16 81 17 86 18 82 19 85 20 83 21 84 22 69 23
REMARK SMILES IDX 70 24 78 25 71 26 77 27 72 28 73 29 74 30 75 31 76 32 9 33
REMARK SMILES IDX 10 34 14 36 15 37 16 38 17 39 18 40 19 41 20 42 66 43 21 44
REMARK SMILES IDX 65 45 22 46 23 47 24 48 59 49 25 50 64 51 58 52 60 53 26 54
REMARK SMILES IDX 63 55 57 56 56 57 27 59 49 60 34 61 48 62 35 63 38 64 47 65
REMARK SMILES IDX 61 66 36 67 37 68 46 70 62 71 39 72 28 73 29 74 33 75 30 76
REMARK SMILES IDX 32 77 31 78 50 79 51 80 55 81 52 82 54 83 53 84 40 85 41 86
REMARK SMILES IDX 45 87 42 88 44 89 43 90
REMARK H PARENT 7 8 10 35 60 58 38 69
REMARK Flexibility Score: inf
ROOT
ATOM      1  O   UNL A   1      36.626  21.800  25.765  1.00  0.00    -0.460 OA
ENDROOT
BRANCH   1   2
ATOM      2  C   UNL A   1      35.614  21.837  24.844  1.00  0.00     0.331 C 
ATOM      3  O   UNL A   1      35.685  22.493  23.804  1.00  0.00    -0.250 OA
BRANCH   2   4
ATOM      4  C   UNL A   1      34.327  21.072  25.214  1.00  0.00     0.218 C 
BRANCH   4   5
ATOM      5  N   UNL A   1      33.885  21.379  26.595  1.00  0.00    -0.341 N 
ATOM      6  C   UNL A   1      32.900  22.201  27.061  1.00  0.00     0.225 C 
ATOM      7  O   UNL A   1      32.912  22.473  28.265  1.00  0.00    -0.275 OA
ATOM      8  H   UNL A   1      34.388  20.908  27.297  1.00  0.00     0.164 HD
BRANCH   6   9
ATOM      9  C   UNL A   1      31.786  22.717  26.157  1.00  0.00     0.137 C 
BRANCH   9  10
ATOM     10  C   UNL A   1      31.990  24.128  25.695  1.00  0.00    -0.017 A 
ATOM     11  C   UNL A   1      30.390  24.227  23.660  1.00  0.00     0.065 C 
ATOM     12  C   UNL A   1      31.333  24.799  24.671  1.00  0.00     0.024 A 
ATOM     13  N   UNL A   1      31.742  26.131  24.685  1.00  0.00    -0.314 N 
ATOM     14  C   UNL A   1      32.928  25.045  26.235  1.00  0.00     0.033 A 
ATOM     15  C   UNL A   1      32.644  26.303  25.740  1.00  0.00     0.053 A 
BRANCH  13  16
ATOM     16  C   UNL A   1      31.300  27.175  23.821  1.00  0.00     0.046 A 
ATOM     17  C   UNL A   1      32.241  27.853  23.030  1.00  0.00     0.029 A 
ATOM     18  C   UNL A   1      29.963  27.590  23.839  1.00  0.00     0.029 A 
ATOM     19  C   UNL A   1      31.848  28.954  22.272  1.00  0.00     0.041 A 
ATOM     20  C   UNL A   1      29.579  28.700  23.083  1.00  0.00     0.041 A 
ATOM     21  C   UNL A   1      30.524  29.372  22.312  1.00  0.00     0.123 A 
ATOM     22  F   UNL A   1      30.154  30.450  21.609  1.00  0.00    -0.207 F 
ENDBRANCH  13  16
BRANCH  15  23
ATOM     23  C   UNL A   1      33.048  27.600  26.312  1.00  0.00    -0.001 A 
ATOM     24  C   UNL A   1      32.070  28.509  26.755  1.00  0.00     0.011 A 
ATOM     25  C   UNL A   1      34.398  27.936  26.468  1.00  0.00     0.011 A 
ATOM     26  C   UNL A   1      32.425  29.758  27.262  1.00  0.00     0.021 A 
ATOM     27  C   UNL A   1      34.764  29.183  26.990  1.00  0.00     0.021 A 
ATOM     28  C   UNL A   1      33.773  30.098  27.355  1.00  0.00     0.067 A 
BRANCH  28  29
ATOM     29  S   UNL A   1      34.217  31.704  27.969  1.00  0.00     0.175 S 
ATOM     30  C   UNL A   1      32.859  32.734  27.479  1.00  0.00     0.163 C 
ATOM     31  O   UNL A   1      34.186  31.622  29.432  1.00  0.00    -0.224 OA
ATOM     32  O   UNL A   1      35.384  32.154  27.271  1.00  0.00    -0.224 OA
ENDBRANCH  28  29
ENDBRANCH  15  23
ENDBRANCH   9  10
ENDBRANCH   6   9
ENDBRANCH   4   5
BRANCH   4  33
ATOM     33  C   UNL A   1      34.146  19.587  24.891  1.00  0.00     0.193 C 
BRANCH  33  34
ATOM     34  O   UNL A   1      35.358  18.873  24.741  1.00  0.00    -0.394 OA
ATOM     35  H   UNL A   1      35.751  19.079  23.878  1.00  0.00     0.210 HD
ENDBRANCH  33  34
ENDBRANCH   4  33
ENDBRANCH   2   4
ENDBRANCH   1   2
BRANCH   1  36
ATOM     36  C   UNL A   1      37.938  21.685  25.150  1.00  0.00     0.274 C 
BRANCH  36  37
ATOM     37  C   UNL A   1      39.091  21.564  26.168  1.00  0.00     0.275 C 
BRANCH  37  38
ATOM     38  O   UNL A   1      40.371  22.088  25.700  1.00  0.00    -0.458 OA
BRANCH  38  39
ATOM     39  C   UNL A   1      41.125  22.766  26.611  1.00  0.00     0.338 C 
ATOM     40  O   UNL A   1      42.140  22.331  27.130  1.00  0.00    -0.246 OA
BRANCH  39  41
ATOM     41  C   UNL A   1      40.534  24.113  26.944  1.00  0.00     0.060 A 
ATOM     42  C   UNL A   1      40.986  25.250  26.289  1.00  0.00     0.016 A 
ATOM     43  C   UNL A   1      39.663  24.307  28.035  1.00  0.00     0.016 A 
ATOM     44  C   UNL A   1      40.563  26.541  26.714  1.00  0.00     0.010 A 
ATOM     45  C   UNL A   1      39.276  25.621  28.492  1.00  0.00     0.010 A 
ATOM     46  C   UNL A   1      39.731  26.788  27.856  1.00  0.00    -0.014 A 
BRANCH  46  47
ATOM     47  C   UNL A   1      39.895  28.184  28.539  1.00  0.00     0.031 A 
ATOM     48  C   UNL A   1      41.333  28.521  28.354  1.00  0.00     0.074 A 
ATOM     49  C   UNL A   1      39.196  29.102  29.299  1.00  0.00     0.049 A 
ATOM     50  N   UNL A   1      42.267  27.740  28.815  1.00  0.00    -0.248 NA
ATOM     51  C   UNL A   1      41.777  29.523  27.387  1.00  0.00     0.031 C 
ATOM     52  C   UNL A   1      37.826  29.000  29.816  1.00  0.00     0.029 A 
ATOM     53  N   UNL A   1      39.561  30.386  29.782  1.00  0.00    -0.354 N 
ATOM     54  C   UNL A   1      43.451  28.309  28.418  1.00  0.00     0.074 A 
ATOM     55  C   UNL A   1      43.085  29.252  27.373  1.00  0.00     0.031 C 
ATOM     56  C   UNL A   1      37.433  30.169  30.399  1.00  0.00     0.029 A 
ATOM     57  C   UNL A   1      38.514  31.150  30.375  1.00  0.00     0.049 A 
ATOM     58  H   UNL A   1      40.481  30.728  29.710  1.00  0.00     0.167 HD
ATOM     59  C   UNL A   1      44.434  28.438  29.353  1.00  0.00     0.031 A 
ATOM     60  C   UNL A   1      38.509  32.445  30.852  1.00  0.00     0.031 A 
ATOM     61  C   UNL A   1      44.616  29.804  29.763  1.00  0.00     0.049 A 
ATOM     62  C   UNL A   1      39.902  32.850  31.091  1.00  0.00     0.074 A 
ATOM     63  C   UNL A   1      44.767  30.994  29.082  1.00  0.00     0.029 A 
ATOM     64  N   UNL A   1      44.203  30.127  31.038  1.00  0.00    -0.354 N 
ATOM     65  N   UNL A   1      40.527  32.514  32.176  1.00  0.00    -0.248 NA
ATOM     66  C   UNL A   1      40.624  33.760  30.209  1.00  0.00     0.031 C 
ATOM     67  C   UNL A   1      44.001  31.940  29.808  1.00  0.00     0.029 A 
ATOM     68  C   UNL A   1      43.637  31.389  31.031  1.00  0.00     0.049 A 
ATOM     69  H   UNL A   1      44.297  29.551  31.831  1.00  0.00     0.167 HD
ATOM     70  C   UNL A   1      41.835  32.728  31.863  1.00  0.00     0.074 A 
ATOM     71  C   UNL A   1      41.814  33.727  30.814  1.00  0.00     0.031 C 
ATOM     72  C   UNL A   1      42.708  31.715  32.090  1.00  0.00     0.031 A 
BRANCH  59  73
ATOM     73  C   UNL A   1      44.601  27.256  30.262  1.00  0.00    -0.014 A 
ATOM     74  C   UNL A   1      45.031  26.040  29.719  1.00  0.00     0.009 A 
ATOM     75  C   UNL A   1      44.200  27.289  31.613  1.00  0.00     0.009 A 
ATOM     76  C   UNL A   1      45.000  24.877  30.493  1.00  0.00     0.001 A 
ATOM     77  C   UNL A   1      44.144  26.123  32.374  1.00  0.00     0.001 A 
ATOM     78  C   UNL A   1      44.539  24.917  31.810  1.00  0.00     0.000 A 
ENDBRANCH  59  73
BRANCH  60  79
ATOM     79  C   UNL A   1      37.565  33.533  31.360  1.00  0.00    -0.014 A 
ATOM     80  C   UNL A   1      36.353  33.787  30.645  1.00  0.00     0.009 A 
ATOM     81  C   UNL A   1      37.613  34.043  32.659  1.00  0.00     0.009 A 
ATOM     82  C   UNL A   1      35.221  34.385  31.221  1.00  0.00     0.001 A 
ATOM     83  C   UNL A   1      36.484  34.684  33.231  1.00  0.00     0.001 A 
ATOM     84  C   UNL A   1      35.281  34.820  32.531  1.00  0.00     0.000 A 
ENDBRANCH  60  79
BRANCH  72  85
ATOM     85  C   UNL A   1      42.461  30.834  33.310  1.00  0.00    -0.014 A 
ATOM     86  C   UNL A   1      41.613  29.704  33.346  1.00  0.00     0.009 A 
ATOM     87  C   UNL A   1      43.094  31.184  34.512  1.00  0.00     0.009 A 
ATOM     88  C   UNL A   1      41.346  29.012  34.534  1.00  0.00     0.001 A 
ATOM     89  C   UNL A   1      42.870  30.461  35.691  1.00  0.00     0.001 A 
ATOM     90  C   UNL A   1      41.981  29.390  35.707  1.00  0.00     0.000 A 
ENDBRANCH  72  85
ENDBRANCH  46  47
ENDBRANCH  39  41
ENDBRANCH  38  39
ENDBRANCH  37  38
ENDBRANCH  36  37
ENDBRANCH   1  36
TORSDOF 19
ENDMDL
