MODEL 1
REMARK VINA RESULT:     -10.8      0.000      0.000
REMARK SMILES O=C(COc1nc(NCc2cccc(Cl)c2)nc2c1CCC2)OCCOC(=O)c1ccc(-c2c3nc(c(-c4ccccc4)c4ccc([nH]4)c(-c4ccccc4)c4nc(c(-c5ccccc5)c5ccc2[nH]5)C=C4)C=C3)cc1
REMARK SMILES IDX 23 1 2 2 1 3 3 4 4 5 5 6 6 7 19 8 7 9 18 10 20 11 17 12
REMARK SMILES IDX 22 13 21 14 8 15 9 17 10 18 11 19 16 20 12 21 14 22 13 23
REMARK SMILES IDX 15 24 24 25 25 26 26 27 27 28 28 29 29 30 30 31 76 32 31 33
REMARK SMILES IDX 75 34 32 35 33 36 34 37 69 38 35 39 74 40 68 41 70 42 36 43
REMARK SMILES IDX 73 44 67 45 66 46 37 48 59 49 44 50 58 51 45 52 48 53 57 54
REMARK SMILES IDX 71 55 46 56 47 57 56 59 72 60 49 61 38 62 39 63 43 64 40 65
REMARK SMILES IDX 42 66 41 67 60 68 61 69 65 70 62 71 64 72 63 73 50 74 51 75
REMARK SMILES IDX 55 76 52 77 54 78 53 79
REMARK H PARENT 8 16 70 47 48 58
REMARK Flexibility Score: inf
ROOT
ATOM      1  O   UNL A   1      38.262  21.962  25.347  1.00  0.00    -0.460 OA
ENDROOT
BRANCH   1   2
ATOM      2  C   UNL A   1      37.525  23.025  25.753  1.00  0.00     0.344 C 
ATOM      3  O   UNL A   1      38.075  24.095  26.012  1.00  0.00    -0.248 OA
BRANCH   2   4
ATOM      4  C   UNL A   1      36.021  22.842  25.929  1.00  0.00     0.353 C 
BRANCH   4   5
ATOM      5  O   UNL A   1      35.226  24.015  25.972  1.00  0.00    -0.465 OA
BRANCH   5   6
ATOM      6  C   UNL A   1      33.911  23.638  26.004  1.00  0.00     0.222 A 
ATOM      7  N   UNL A   1      33.647  22.328  25.894  1.00  0.00    -0.177 NA
ATOM      8  C   UNL A   1      32.946  24.589  26.079  1.00  0.00     0.036 A 
ATOM      9  C   UNL A   1      32.355  21.968  25.827  1.00  0.00     0.226 A 
ATOM     10  C   UNL A   1      31.659  24.124  26.014  1.00  0.00     0.053 A 
ATOM     11  C   UNL A   1      33.018  26.071  26.075  1.00  0.00     0.043 C 
ATOM     12  N   UNL A   1      31.326  22.833  25.888  1.00  0.00    -0.218 NA
ATOM     13  C   UNL A   1      30.687  25.268  25.959  1.00  0.00     0.057 C 
ATOM     14  C   UNL A   1      31.571  26.431  26.444  1.00  0.00     0.011 C 
BRANCH   9  15
ATOM     15  N   UNL A   1      32.138  20.638  25.627  1.00  0.00    -0.350 N 
ATOM     16  H   UNL A   1      31.814  20.101  26.386  1.00  0.00     0.164 HD
BRANCH  15  17
ATOM     17  C   UNL A   1      32.355  19.976  24.376  1.00  0.00     0.152 C 
BRANCH  17  18
ATOM     18  C   UNL A   1      33.079  18.668  24.596  1.00  0.00    -0.027 A 
ATOM     19  C   UNL A   1      34.460  18.560  24.379  1.00  0.00     0.005 A 
ATOM     20  C   UNL A   1      32.372  17.541  25.047  1.00  0.00     0.026 A 
ATOM     21  C   UNL A   1      35.126  17.357  24.626  1.00  0.00     0.002 A 
ATOM     22  C   UNL A   1      33.042  16.344  25.292  1.00  0.00     0.041 A 
ATOM     23  C   UNL A   1      34.416  16.249  25.088  1.00  0.00     0.020 A 
ATOM     24  Cl  UNL A   1      32.167  14.976  25.863  1.00  0.00    -0.084 Cl
ENDBRANCH  17  18
ENDBRANCH  15  17
ENDBRANCH   9  15
ENDBRANCH   5   6
ENDBRANCH   4   5
ENDBRANCH   2   4
ENDBRANCH   1   2
BRANCH   1  25
ATOM     25  C   UNL A   1      37.704  20.683  24.976  1.00  0.00     0.274 C 
BRANCH  25  26
ATOM     26  C   UNL A   1      38.730  19.561  25.168  1.00  0.00     0.275 C 
BRANCH  26  27
ATOM     27  O   UNL A   1      39.491  19.786  26.371  1.00  0.00    -0.458 OA
BRANCH  27  28
ATOM     28  C   UNL A   1      40.841  19.759  26.246  1.00  0.00     0.338 C 
ATOM     29  O   UNL A   1      41.510  18.895  25.711  1.00  0.00    -0.246 OA
BRANCH  28  30
ATOM     30  C   UNL A   1      41.378  21.068  26.685  1.00  0.00     0.060 A 
ATOM     31  C   UNL A   1      41.298  21.395  28.045  1.00  0.00     0.016 A 
ATOM     32  C   UNL A   1      42.002  21.942  25.789  1.00  0.00     0.016 A 
ATOM     33  C   UNL A   1      41.828  22.603  28.506  1.00  0.00     0.010 A 
ATOM     34  C   UNL A   1      42.526  23.153  26.251  1.00  0.00     0.010 A 
ATOM     35  C   UNL A   1      42.425  23.500  27.609  1.00  0.00    -0.014 A 
BRANCH  35  36
ATOM     36  C   UNL A   1      42.843  24.845  28.070  1.00  0.00     0.031 A 
ATOM     37  C   UNL A   1      41.802  25.912  28.255  1.00  0.00     0.074 A 
ATOM     38  C   UNL A   1      44.134  25.119  28.334  1.00  0.00     0.049 A 
ATOM     39  N   UNL A   1      41.941  27.130  28.713  1.00  0.00    -0.248 NA
ATOM     40  C   UNL A   1      40.425  25.561  27.873  1.00  0.00     0.031 C 
ATOM     41  C   UNL A   1      45.243  24.177  28.209  1.00  0.00     0.029 A 
ATOM     42  N   UNL A   1      44.723  26.282  28.767  1.00  0.00    -0.354 N 
ATOM     43  C   UNL A   1      40.667  27.683  28.696  1.00  0.00     0.074 A 
ATOM     44  C   UNL A   1      39.779  26.686  28.136  1.00  0.00     0.031 C 
ATOM     45  C   UNL A   1      46.381  24.797  28.565  1.00  0.00     0.029 A 
ATOM     46  C   UNL A   1      46.080  26.182  28.933  1.00  0.00     0.049 A 
ATOM     47  H   UNL A   1      44.218  27.109  28.943  1.00  0.00     0.167 HD
ATOM     48  C   UNL A   1      40.266  28.902  29.124  1.00  0.00     0.031 A 
ATOM     49  C   UNL A   1      46.982  27.098  29.340  1.00  0.00     0.031 A 
ATOM     50  C   UNL A   1      41.141  29.909  29.656  1.00  0.00     0.049 A 
ATOM     51  C   UNL A   1      46.528  28.479  29.732  1.00  0.00     0.074 A 
ATOM     52  C   UNL A   1      40.815  31.161  30.146  1.00  0.00     0.029 A 
ATOM     53  N   UNL A   1      42.518  29.786  29.752  1.00  0.00    -0.354 N 
ATOM     54  N   UNL A   1      45.312  28.964  29.774  1.00  0.00    -0.248 NA
ATOM     55  C   UNL A   1      47.570  29.432  30.143  1.00  0.00     0.031 C 
ATOM     56  C   UNL A   1      42.001  31.818  30.486  1.00  0.00     0.029 A 
ATOM     57  C   UNL A   1      43.060  30.955  30.256  1.00  0.00     0.049 A 
ATOM     58  H   UNL A   1      43.034  28.986  29.498  1.00  0.00     0.167 HD
ATOM     59  C   UNL A   1      45.439  30.267  30.242  1.00  0.00     0.074 A 
ATOM     60  C   UNL A   1      46.849  30.499  30.468  1.00  0.00     0.031 C 
ATOM     61  C   UNL A   1      44.465  31.182  30.474  1.00  0.00     0.031 A 
BRANCH  48  62
ATOM     62  C   UNL A   1      38.802  29.217  29.022  1.00  0.00    -0.014 A 
ATOM     63  C   UNL A   1      37.948  29.034  30.120  1.00  0.00     0.009 A 
ATOM     64  C   UNL A   1      38.279  29.735  27.828  1.00  0.00     0.009 A 
ATOM     65  C   UNL A   1      36.588  29.334  30.014  1.00  0.00     0.001 A 
ATOM     66  C   UNL A   1      36.924  30.057  27.733  1.00  0.00     0.001 A 
ATOM     67  C   UNL A   1      36.079  29.848  28.822  1.00  0.00     0.000 A 
ENDBRANCH  48  62
BRANCH  49  68
ATOM     68  C   UNL A   1      48.415  26.722  29.425  1.00  0.00    -0.014 A 
ATOM     69  C   UNL A   1      48.933  26.162  30.601  1.00  0.00     0.009 A 
ATOM     70  C   UNL A   1      49.264  26.897  28.320  1.00  0.00     0.009 A 
ATOM     71  C   UNL A   1      50.277  25.790  30.673  1.00  0.00     0.001 A 
ATOM     72  C   UNL A   1      50.604  26.507  28.390  1.00  0.00     0.001 A 
ATOM     73  C   UNL A   1      51.110  25.957  29.567  1.00  0.00     0.000 A 
ENDBRANCH  49  68
BRANCH  61  74
ATOM     74  C   UNL A   1      44.870  32.524  31.014  1.00  0.00    -0.014 A 
ATOM     75  C   UNL A   1      45.120  33.604  30.156  1.00  0.00     0.009 A 
ATOM     76  C   UNL A   1      44.890  32.737  32.402  1.00  0.00     0.009 A 
ATOM     77  C   UNL A   1      45.389  34.872  30.678  1.00  0.00     0.001 A 
ATOM     78  C   UNL A   1      45.138  34.009  32.920  1.00  0.00     0.001 A 
ATOM     79  C   UNL A   1      45.388  35.075  32.059  1.00  0.00     0.000 A 
ENDBRANCH  61  74
ENDBRANCH  35  36
ENDBRANCH  28  30
ENDBRANCH  27  28
ENDBRANCH  26  27
ENDBRANCH  25  26
ENDBRANCH   1  25
TORSDOF 16
ENDMDL
MODEL 2
REMARK VINA RESULT:     -10.8      0.302      5.820
REMARK SMILES O=C(COc1nc(NCc2cccc(Cl)c2)nc2c1CCC2)OCCOC(=O)c1ccc(-c2c3nc(c(-c4ccccc4)c4ccc([nH]4)c(-c4ccccc4)c4nc(c(-c5ccccc5)c5ccc2[nH]5)C=C4)C=C3)cc1
REMARK SMILES IDX 23 1 2 2 1 3 3 4 4 5 5 6 6 7 19 8 7 9 18 10 20 11 17 12
REMARK SMILES IDX 22 13 21 14 8 15 9 17 10 18 11 19 16 20 12 21 14 22 13 23
REMARK SMILES IDX 15 24 24 25 25 26 26 27 27 28 28 29 29 30 30 31 76 32 31 33
REMARK SMILES IDX 75 34 32 35 33 36 34 37 69 38 35 39 74 40 68 41 70 42 36 43
REMARK SMILES IDX 73 44 67 45 66 46 37 48 59 49 44 50 58 51 45 52 48 53 57 54
REMARK SMILES IDX 71 55 46 56 47 57 56 59 72 60 49 61 38 62 39 63 43 64 40 65
REMARK SMILES IDX 42 66 41 67 60 68 61 69 65 70 62 71 64 72 63 73 50 74 51 75
REMARK SMILES IDX 55 76 52 77 54 78 53 79
REMARK H PARENT 8 16 70 47 48 58
REMARK Flexibility Score: inf
ROOT
ATOM      1  O   UNL A   1      38.236  21.834  25.334  1.00  0.00    -0.460 OA
ENDROOT
BRANCH   1   2
ATOM      2  C   UNL A   1      37.478  22.910  25.659  1.00  0.00     0.344 C 
ATOM      3  O   UNL A   1      38.012  23.995  25.888  1.00  0.00    -0.248 OA
BRANCH   2   4
ATOM      4  C   UNL A   1      35.969  22.725  25.785  1.00  0.00     0.353 C 
BRANCH   4   5
ATOM      5  O   UNL A   1      35.196  23.879  26.070  1.00  0.00    -0.465 OA
BRANCH   5   6
ATOM      6  C   UNL A   1      33.873  23.529  26.021  1.00  0.00     0.222 A 
ATOM      7  N   UNL A   1      33.590  22.228  25.876  1.00  0.00    -0.177 NA
ATOM      8  C   UNL A   1      32.926  24.500  26.057  1.00  0.00     0.036 A 
ATOM      9  C   UNL A   1      32.297  21.895  25.730  1.00  0.00     0.226 A 
ATOM     10  C   UNL A   1      31.635  24.063  25.911  1.00  0.00     0.053 A 
ATOM     11  C   UNL A   1      33.027  25.979  26.080  1.00  0.00     0.043 C 
ATOM     12  N   UNL A   1      31.284  22.781  25.746  1.00  0.00    -0.218 NA
ATOM     13  C   UNL A   1      30.691  25.228  25.820  1.00  0.00     0.057 C 
ATOM     14  C   UNL A   1      31.569  26.364  26.372  1.00  0.00     0.011 C 
BRANCH   9  15
ATOM     15  N   UNL A   1      32.065  20.573  25.497  1.00  0.00    -0.350 N 
ATOM     16  H   UNL A   1      31.642  20.043  26.210  1.00  0.00     0.164 HD
BRANCH  15  17
ATOM     17  C   UNL A   1      32.403  19.910  24.274  1.00  0.00     0.152 C 
BRANCH  17  18
ATOM     18  C   UNL A   1      33.090  18.597  24.565  1.00  0.00    -0.027 A 
ATOM     19  C   UNL A   1      34.462  18.430  24.326  1.00  0.00     0.005 A 
ATOM     20  C   UNL A   1      32.360  17.525  25.105  1.00  0.00     0.026 A 
ATOM     21  C   UNL A   1      35.096  17.225  24.639  1.00  0.00     0.002 A 
ATOM     22  C   UNL A   1      32.998  16.325  25.415  1.00  0.00     0.041 A 
ATOM     23  C   UNL A   1      34.364  16.173  25.188  1.00  0.00     0.020 A 
ATOM     24  Cl  UNL A   1      32.095  15.027  26.094  1.00  0.00    -0.084 Cl
ENDBRANCH  17  18
ENDBRANCH  15  17
ENDBRANCH   9  15
ENDBRANCH   5   6
ENDBRANCH   4   5
ENDBRANCH   2   4
ENDBRANCH   1   2
BRANCH   1  25
ATOM     25  C   UNL A   1      37.698  20.561  24.916  1.00  0.00     0.274 C 
BRANCH  25  26
ATOM     26  C   UNL A   1      38.751  19.454  25.039  1.00  0.00     0.275 C 
BRANCH  26  27
ATOM     27  O   UNL A   1      39.513  19.628  26.250  1.00  0.00    -0.458 OA
BRANCH  27  28
ATOM     28  C   UNL A   1      40.859  19.723  26.109  1.00  0.00     0.338 C 
ATOM     29  O   UNL A   1      41.590  18.953  25.515  1.00  0.00    -0.246 OA
BRANCH  28  30
ATOM     30  C   UNL A   1      41.290  21.045  26.622  1.00  0.00     0.060 A 
ATOM     31  C   UNL A   1      41.187  21.288  27.998  1.00  0.00     0.016 A 
ATOM     32  C   UNL A   1      41.840  22.014  25.777  1.00  0.00     0.016 A 
ATOM     33  C   UNL A   1      41.620  22.507  28.526  1.00  0.00     0.010 A 
ATOM     34  C   UNL A   1      42.267  23.236  26.307  1.00  0.00     0.010 A 
ATOM     35  C   UNL A   1      42.141  23.497  27.682  1.00  0.00    -0.014 A 
BRANCH  35  36
ATOM     36  C   UNL A   1      42.451  24.844  28.218  1.00  0.00     0.031 A 
ATOM     37  C   UNL A   1      43.871  25.183  28.569  1.00  0.00     0.074 A 
ATOM     38  C   UNL A   1      41.484  25.765  28.385  1.00  0.00     0.049 A 
ATOM     39  N   UNL A   1      44.370  26.319  28.986  1.00  0.00    -0.248 NA
ATOM     40  C   UNL A   1      44.859  24.100  28.433  1.00  0.00     0.031 C 
ATOM     41  C   UNL A   1      40.069  25.575  28.075  1.00  0.00     0.029 A 
ATOM     42  N   UNL A   1      41.558  27.053  28.857  1.00  0.00    -0.354 N 
ATOM     43  C   UNL A   1      45.732  26.095  29.140  1.00  0.00     0.074 A 
ATOM     44  C   UNL A   1      45.972  24.703  28.821  1.00  0.00     0.031 C 
ATOM     45  C   UNL A   1      39.407  26.710  28.360  1.00  0.00     0.029 A 
ATOM     46  C   UNL A   1      40.350  27.701  28.880  1.00  0.00     0.049 A 
ATOM     47  H   UNL A   1      42.400  27.471  29.151  1.00  0.00     0.167 HD
ATOM     48  C   UNL A   1      46.701  26.969  29.496  1.00  0.00     0.031 A 
ATOM     49  C   UNL A   1      40.035  28.952  29.269  1.00  0.00     0.031 A 
ATOM     50  C   UNL A   1      46.471  28.345  29.841  1.00  0.00     0.049 A 
ATOM     51  C   UNL A   1      41.116  29.887  29.745  1.00  0.00     0.074 A 
ATOM     52  C   UNL A   1      47.400  29.313  30.182  1.00  0.00     0.029 A 
ATOM     53  N   UNL A   1      45.223  28.943  29.907  1.00  0.00    -0.354 N 
ATOM     54  N   UNL A   1      42.408  29.681  29.821  1.00  0.00    -0.248 NA
ATOM     55  C   UNL A   1      40.695  31.228  30.177  1.00  0.00     0.031 C 
ATOM     56  C   UNL A   1      46.708  30.483  30.508  1.00  0.00     0.029 A 
ATOM     57  C   UNL A   1      45.354  30.257  30.321  1.00  0.00     0.049 A 
ATOM     58  H   UNL A   1      44.371  28.500  29.692  1.00  0.00     0.167 HD
ATOM     59  C   UNL A   1      42.956  30.872  30.280  1.00  0.00     0.074 A 
ATOM     60  C   UNL A   1      41.859  31.797  30.469  1.00  0.00     0.031 C 
ATOM     61  C   UNL A   1      44.258  31.171  30.512  1.00  0.00     0.031 A 
BRANCH  48  62
ATOM     62  C   UNL A   1      48.109  26.453  29.540  1.00  0.00    -0.014 A 
ATOM     63  C   UNL A   1      48.629  25.878  30.710  1.00  0.00     0.009 A 
ATOM     64  C   UNL A   1      48.912  26.509  28.391  1.00  0.00     0.009 A 
ATOM     65  C   UNL A   1      49.940  25.398  30.738  1.00  0.00     0.001 A 
ATOM     66  C   UNL A   1      50.214  26.006  28.415  1.00  0.00     0.001 A 
ATOM     67  C   UNL A   1      50.729  25.460  29.590  1.00  0.00     0.000 A 
ENDBRANCH  48  62
BRANCH  49  68
ATOM     68  C   UNL A   1      38.624  29.405  29.197  1.00  0.00    -0.014 A 
ATOM     69  C   UNL A   1      37.770  29.244  30.297  1.00  0.00     0.009 A 
ATOM     70  C   UNL A   1      38.133  30.024  28.036  1.00  0.00     0.009 A 
ATOM     71  C   UNL A   1      36.448  29.689  30.235  1.00  0.00     0.001 A 
ATOM     72  C   UNL A   1      36.815  30.484  27.984  1.00  0.00     0.001 A 
ATOM     73  C   UNL A   1      35.973  30.313  29.082  1.00  0.00     0.000 A 
ENDBRANCH  49  68
BRANCH  61  74
ATOM     74  C   UNL A   1      44.593  32.558  30.983  1.00  0.00    -0.014 A 
ATOM     75  C   UNL A   1      44.802  33.602  30.070  1.00  0.00     0.009 A 
ATOM     76  C   UNL A   1      44.588  32.845  32.358  1.00  0.00     0.009 A 
ATOM     77  C   UNL A   1      45.005  34.907  30.526  1.00  0.00     0.001 A 
ATOM     78  C   UNL A   1      44.771  34.153  32.809  1.00  0.00     0.001 A 
ATOM     79  C   UNL A   1      44.980  35.183  31.894  1.00  0.00     0.000 A 
ENDBRANCH  61  74
ENDBRANCH  35  36
ENDBRANCH  28  30
ENDBRANCH  27  28
ENDBRANCH  26  27
ENDBRANCH  25  26
ENDBRANCH   1  25
TORSDOF 16
ENDMDL
MODEL 3
REMARK VINA RESULT:     -10.7      6.918     13.059
REMARK SMILES O=C(COc1nc(NCc2cccc(Cl)c2)nc2c1CCC2)OCCOC(=O)c1ccc(-c2c3nc(c(-c4ccccc4)c4ccc([nH]4)c(-c4ccccc4)c4nc(c(-c5ccccc5)c5ccc2[nH]5)C=C4)C=C3)cc1
REMARK SMILES IDX 23 1 2 2 1 3 3 4 4 5 5 6 6 7 19 8 7 9 18 10 20 11 17 12
REMARK SMILES IDX 22 13 21 14 8 15 9 17 10 18 11 19 16 20 12 21 14 22 13 23
REMARK SMILES IDX 15 24 24 25 25 26 26 27 27 28 28 29 29 30 30 31 76 32 31 33
REMARK SMILES IDX 75 34 32 35 33 36 34 37 69 38 35 39 74 40 68 41 70 42 36 43
REMARK SMILES IDX 73 44 67 45 66 46 37 48 59 49 44 50 58 51 45 52 48 53 57 54
REMARK SMILES IDX 71 55 46 56 47 57 56 59 72 60 49 61 38 62 39 63 43 64 40 65
REMARK SMILES IDX 42 66 41 67 60 68 61 69 65 70 62 71 64 72 63 73 50 74 51 75
REMARK SMILES IDX 55 76 52 77 54 78 53 79
REMARK H PARENT 8 16 70 47 48 58
REMARK Flexibility Score: inf
ROOT
ATOM      1  O   UNL A   1      33.675  35.058  32.593  1.00  0.00    -0.460 OA
ENDROOT
BRANCH   1   2
ATOM      2  C   UNL A   1      34.908  35.012  33.155  1.00  0.00     0.344 C 
ATOM      3  O   UNL A   1      35.820  35.701  32.701  1.00  0.00    -0.248 OA
BRANCH   2   4
ATOM      4  C   UNL A   1      35.141  34.050  34.316  1.00  0.00     0.353 C 
BRANCH   4   5
ATOM      5  O   UNL A   1      35.620  32.754  33.997  1.00  0.00    -0.465 OA
BRANCH   5   6
ATOM      6  C   UNL A   1      36.897  32.641  34.477  1.00  0.00     0.222 A 
ATOM      7  N   UNL A   1      37.318  33.591  35.324  1.00  0.00    -0.177 NA
ATOM      8  C   UNL A   1      37.688  31.631  34.036  1.00  0.00     0.036 A 
ATOM      9  C   UNL A   1      38.600  33.535  35.719  1.00  0.00     0.226 A 
ATOM     10  C   UNL A   1      38.977  31.652  34.501  1.00  0.00     0.053 A 
ATOM     11  C   UNL A   1      37.466  30.574  33.020  1.00  0.00     0.043 C 
ATOM     12  N   UNL A   1      39.466  32.579  35.335  1.00  0.00    -0.218 NA
ATOM     13  C   UNL A   1      39.795  30.581  33.837  1.00  0.00     0.057 C 
ATOM     14  C   UNL A   1      38.689  29.677  33.264  1.00  0.00     0.011 C 
BRANCH   9  15
ATOM     15  N   UNL A   1      39.006  34.568  36.507  1.00  0.00    -0.350 N 
ATOM     16  H   UNL A   1      39.478  35.320  36.082  1.00  0.00     0.164 HD
BRANCH  15  17
ATOM     17  C   UNL A   1      38.785  34.624  37.921  1.00  0.00     0.152 C 
BRANCH  17  18
ATOM     18  C   UNL A   1      39.717  35.630  38.556  1.00  0.00    -0.027 A 
ATOM     19  C   UNL A   1      41.099  35.401  38.613  1.00  0.00     0.005 A 
ATOM     20  C   UNL A   1      39.205  36.829  39.079  1.00  0.00     0.026 A 
ATOM     21  C   UNL A   1      41.956  36.358  39.163  1.00  0.00     0.002 A 
ATOM     22  C   UNL A   1      40.065  37.780  39.627  1.00  0.00     0.041 A 
ATOM     23  C   UNL A   1      41.438  37.551  39.667  1.00  0.00     0.020 A 
ATOM     24  Cl  UNL A   1      39.426  39.253  40.248  1.00  0.00    -0.084 Cl
ENDBRANCH  17  18
ENDBRANCH  15  17
ENDBRANCH   9  15
ENDBRANCH   5   6
ENDBRANCH   4   5
ENDBRANCH   2   4
ENDBRANCH   1   2
BRANCH   1  25
ATOM     25  C   UNL A   1      33.126  36.222  31.938  1.00  0.00     0.274 C 
BRANCH  25  26
ATOM     26  C   UNL A   1      33.201  36.080  30.414  1.00  0.00     0.275 C 
BRANCH  26  27
ATOM     27  O   UNL A   1      32.575  34.849  30.001  1.00  0.00    -0.458 OA
BRANCH  27  28
ATOM     28  C   UNL A   1      33.078  34.260  28.887  1.00  0.00     0.338 C 
ATOM     29  O   UNL A   1      32.619  34.306  27.762  1.00  0.00    -0.246 OA
BRANCH  28  30
ATOM     30  C   UNL A   1      34.415  33.709  29.214  1.00  0.00     0.060 A 
ATOM     31  C   UNL A   1      35.511  34.134  28.452  1.00  0.00     0.016 A 
ATOM     32  C   UNL A   1      34.604  32.831  30.285  1.00  0.00     0.016 A 
ATOM     33  C   UNL A   1      36.794  33.669  28.753  1.00  0.00     0.010 A 
ATOM     34  C   UNL A   1      35.887  32.361  30.581  1.00  0.00     0.010 A 
ATOM     35  C   UNL A   1      36.987  32.763  29.804  1.00  0.00    -0.014 A 
BRANCH  35  36
ATOM     36  C   UNL A   1      38.319  32.149  30.021  1.00  0.00     0.031 A 
ATOM     37  C   UNL A   1      39.343  32.890  30.833  1.00  0.00     0.074 A 
ATOM     38  C   UNL A   1      38.619  30.940  29.512  1.00  0.00     0.049 A 
ATOM     39  N   UNL A   1      40.539  32.508  31.200  1.00  0.00    -0.248 NA
ATOM     40  C   UNL A   1      38.969  34.238  31.290  1.00  0.00     0.031 C 
ATOM     41  C   UNL A   1      37.719  30.108  28.716  1.00  0.00     0.029 A 
ATOM     42  N   UNL A   1      39.775  30.204  29.597  1.00  0.00    -0.354 N 
ATOM     43  C   UNL A   1      41.053  33.557  31.951  1.00  0.00     0.074 A 
ATOM     44  C   UNL A   1      40.059  34.610  31.944  1.00  0.00     0.031 C 
ATOM     45  C   UNL A   1      38.355  28.969  28.391  1.00  0.00     0.029 A 
ATOM     46  C   UNL A   1      39.709  28.998  28.947  1.00  0.00     0.049 A 
ATOM     47  H   UNL A   1      40.576  30.512  30.080  1.00  0.00     0.167 HD
ATOM     48  C   UNL A   1      42.235  33.634  32.604  1.00  0.00     0.031 A 
ATOM     49  C   UNL A   1      40.630  28.023  28.817  1.00  0.00     0.031 A 
ATOM     50  C   UNL A   1      43.240  32.607  32.596  1.00  0.00     0.049 A 
ATOM     51  C   UNL A   1      41.974  28.163  29.480  1.00  0.00     0.074 A 
ATOM     52  C   UNL A   1      44.455  32.587  33.259  1.00  0.00     0.029 A 
ATOM     53  N   UNL A   1      43.154  31.426  31.876  1.00  0.00    -0.354 N 
ATOM     54  N   UNL A   1      42.419  29.132  30.242  1.00  0.00    -0.248 NA
ATOM     55  C   UNL A   1      42.937  27.070  29.275  1.00  0.00     0.031 C 
ATOM     56  C   UNL A   1      45.129  31.418  32.895  1.00  0.00     0.029 A 
ATOM     57  C   UNL A   1      44.312  30.688  32.047  1.00  0.00     0.049 A 
ATOM     58  H   UNL A   1      42.385  31.154  31.325  1.00  0.00     0.167 HD
ATOM     59  C   UNL A   1      43.699  28.753  30.629  1.00  0.00     0.074 A 
ATOM     60  C   UNL A   1      43.962  27.468  30.018  1.00  0.00     0.031 C 
ATOM     61  C   UNL A   1      44.571  29.412  31.432  1.00  0.00     0.031 A 
BRANCH  48  62
ATOM     62  C   UNL A   1      42.510  34.889  33.380  1.00  0.00    -0.014 A 
ATOM     63  C   UNL A   1      43.206  35.959  32.795  1.00  0.00     0.009 A 
ATOM     64  C   UNL A   1      42.039  35.017  34.695  1.00  0.00     0.009 A 
ATOM     65  C   UNL A   1      43.452  37.123  33.526  1.00  0.00     0.001 A 
ATOM     66  C   UNL A   1      42.266  36.191  35.414  1.00  0.00     0.001 A 
ATOM     67  C   UNL A   1      42.980  37.239  34.833  1.00  0.00     0.000 A 
ENDBRANCH  48  62
BRANCH  49  68
ATOM     68  C   UNL A   1      40.294  26.803  28.041  1.00  0.00    -0.014 A 
ATOM     69  C   UNL A   1      40.734  26.661  26.717  1.00  0.00     0.009 A 
ATOM     70  C   UNL A   1      39.556  25.764  28.630  1.00  0.00     0.009 A 
ATOM     71  C   UNL A   1      40.435  25.504  25.994  1.00  0.00     0.001 A 
ATOM     72  C   UNL A   1      39.275  24.600  27.910  1.00  0.00     0.001 A 
ATOM     73  C   UNL A   1      39.711  24.473  26.592  1.00  0.00     0.000 A 
ENDBRANCH  49  68
BRANCH  61  74
ATOM     74  C   UNL A   1      45.895  28.764  31.722  1.00  0.00    -0.014 A 
ATOM     75  C   UNL A   1      46.040  27.853  32.777  1.00  0.00     0.009 A 
ATOM     76  C   UNL A   1      46.980  28.986  30.858  1.00  0.00     0.009 A 
ATOM     77  C   UNL A   1      47.249  27.178  32.965  1.00  0.00     0.001 A 
ATOM     78  C   UNL A   1      48.180  28.295  31.036  1.00  0.00     0.001 A 
ATOM     79  C   UNL A   1      48.314  27.393  32.090  1.00  0.00     0.000 A 
ENDBRANCH  61  74
ENDBRANCH  35  36
ENDBRANCH  28  30
ENDBRANCH  27  28
ENDBRANCH  26  27
ENDBRANCH  25  26
ENDBRANCH   1  25
TORSDOF 16
ENDMDL
