MODEL 1
REMARK VINA RESULT:     -11.3      0.000      0.000
REMARK SMILES C[C@H](NC(=O)c1ccn(CC(=O)OCCOC(=O)c2ccc(-c3c4nc(c(-c5ccccc5)c5ccc([nH]5)c(-c5ccccc5)c5nc(c(-c6ccccc6)c6ccc3[nH]6)C=C5)C=C4)cc2)n1)c1ccccc1
REMARK SMILES IDX 14 1 13 2 11 3 12 4 10 5 9 6 6 7 7 8 67 9 8 10 4 11 3 12
REMARK SMILES IDX 5 14 2 15 1 16 68 17 69 18 73 19 70 20 72 21 71 22 15 23
REMARK SMILES IDX 16 24 17 25 18 26 19 27 20 28 66 29 21 30 65 31 22 32 23 33
REMARK SMILES IDX 24 34 59 35 25 36 64 37 58 38 60 39 26 40 63 41 57 42 56 43
REMARK SMILES IDX 27 45 49 46 34 47 48 48 35 49 38 50 47 51 61 52 36 53 37 54
REMARK SMILES IDX 46 56 62 57 39 58 28 59 29 60 33 61 30 62 32 63 31 64 50 65
REMARK SMILES IDX 51 66 55 67 52 68 54 69 53 70 40 71 41 72 45 73 42 74 44 75
REMARK SMILES IDX 43 76
REMARK H PARENT 3 13 60 44 38 55
REMARK Flexibility Score: inf
ROOT
ATOM      1  C   UNL A   1      42.670  19.348  26.393  1.00  0.00     0.274 C 
ENDROOT
BRANCH   1   2
ATOM      2  O   UNL A   1      41.777  20.288  25.760  1.00  0.00    -0.461 OA
BRANCH   2   3
ATOM      3  C   UNL A   1      40.453  20.148  26.040  1.00  0.00     0.327 C 
ATOM      4  O   UNL A   1      39.755  19.230  25.612  1.00  0.00    -0.250 OA
BRANCH   3   5
ATOM      5  C   UNL A   1      39.874  21.272  26.848  1.00  0.00     0.266 C 
BRANCH   5   6
ATOM      6  N   UNL A   1      38.955  22.149  26.142  1.00  0.00    -0.261 N 
ATOM      7  C   UNL A   1      37.367  22.659  24.815  1.00  0.00     0.150 A 
ATOM      8  C   UNL A   1      37.522  23.752  25.706  1.00  0.00     0.056 A 
ATOM      9  N   UNL A   1      38.238  21.672  25.104  1.00  0.00    -0.167 NA
ATOM     10  C   UNL A   1      38.513  23.370  26.574  1.00  0.00     0.110 A 
BRANCH   7  11
ATOM     11  C   UNL A   1      36.372  22.539  23.744  1.00  0.00     0.272 C 
ATOM     12  N   UNL A   1      35.299  21.702  23.939  1.00  0.00    -0.344 N 
ATOM     13  H   UNL A   1      34.767  21.485  23.139  1.00  0.00     0.164 HD
ATOM     14  O   UNL A   1      36.479  23.128  22.668  1.00  0.00    -0.267 OA
BRANCH  12  15
ATOM     15  C   UNL A   1      34.852  21.098  25.187  1.00  0.00     0.109 C 
ATOM     16  C   UNL A   1      33.823  21.987  25.891  1.00  0.00     0.036 C 
BRANCH  15  17
ATOM     17  C   UNL A   1      34.273  19.711  24.958  1.00  0.00    -0.026 A 
ATOM     18  C   UNL A   1      32.912  19.429  25.165  1.00  0.00     0.006 A 
ATOM     19  C   UNL A   1      35.124  18.657  24.584  1.00  0.00     0.006 A 
ATOM     20  C   UNL A   1      32.418  18.133  24.996  1.00  0.00     0.000 A 
ATOM     21  C   UNL A   1      34.630  17.361  24.425  1.00  0.00     0.000 A 
ATOM     22  C   UNL A   1      33.277  17.100  24.631  1.00  0.00     0.000 A 
ENDBRANCH  15  17
ENDBRANCH  12  15
ENDBRANCH   7  11
ENDBRANCH   5   6
ENDBRANCH   3   5
ENDBRANCH   2   3
ENDBRANCH   1   2
BRANCH   1  23
ATOM     23  C   UNL A   1      43.546  18.596  25.396  1.00  0.00     0.275 C 
BRANCH  23  24
ATOM     24  O   UNL A   1      43.665  19.268  24.139  1.00  0.00    -0.458 OA
BRANCH  24  25
ATOM     25  C   UNL A   1      44.919  19.692  23.872  1.00  0.00     0.338 C 
ATOM     26  O   UNL A   1      45.853  19.006  23.498  1.00  0.00    -0.246 OA
BRANCH  25  27
ATOM     27  C   UNL A   1      45.116  21.075  24.309  1.00  0.00     0.060 A 
ATOM     28  C   UNL A   1      45.983  21.273  25.390  1.00  0.00     0.016 A 
ATOM     29  C   UNL A   1      44.250  22.082  23.867  1.00  0.00     0.016 A 
ATOM     30  C   UNL A   1      45.869  22.428  26.131  1.00  0.00     0.010 A 
ATOM     31  C   UNL A   1      44.134  23.235  24.614  1.00  0.00     0.010 A 
ATOM     32  C   UNL A   1      44.894  23.364  25.776  1.00  0.00    -0.014 A 
BRANCH  32  33
ATOM     33  C   UNL A   1      44.741  24.519  26.636  1.00  0.00     0.031 A 
ATOM     34  C   UNL A   1      45.872  25.474  26.588  1.00  0.00     0.074 A 
ATOM     35  C   UNL A   1      43.621  24.770  27.336  1.00  0.00     0.049 A 
ATOM     36  N   UNL A   1      46.644  25.841  27.555  1.00  0.00    -0.248 NA
ATOM     37  C   UNL A   1      46.247  26.008  25.270  1.00  0.00     0.031 C 
ATOM     38  C   UNL A   1      42.330  24.083  27.255  1.00  0.00     0.029 A 
ATOM     39  N   UNL A   1      43.377  25.800  28.191  1.00  0.00    -0.354 N 
ATOM     40  C   UNL A   1      47.510  26.782  27.008  1.00  0.00     0.074 A 
ATOM     41  C   UNL A   1      47.310  26.747  25.581  1.00  0.00     0.031 C 
ATOM     42  C   UNL A   1      41.386  24.859  27.833  1.00  0.00     0.029 A 
ATOM     43  C   UNL A   1      42.030  26.017  28.432  1.00  0.00     0.049 A 
ATOM     44  H   UNL A   1      44.090  26.340  28.600  1.00  0.00     0.167 HD
ATOM     45  C   UNL A   1      48.172  27.684  27.780  1.00  0.00     0.031 A 
ATOM     46  C   UNL A   1      41.487  27.117  29.007  1.00  0.00     0.031 A 
ATOM     47  C   UNL A   1      48.224  27.292  29.161  1.00  0.00     0.049 A 
ATOM     48  C   UNL A   1      42.560  27.827  29.741  1.00  0.00     0.074 A 
ATOM     49  C   UNL A   1      48.729  26.206  29.847  1.00  0.00     0.029 A 
ATOM     50  N   UNL A   1      47.371  27.923  30.035  1.00  0.00    -0.354 N 
ATOM     51  N   UNL A   1      43.119  27.370  30.824  1.00  0.00    -0.248 NA
ATOM     52  C   UNL A   1      43.307  28.866  29.048  1.00  0.00     0.031 C 
ATOM     53  C   UNL A   1      47.800  25.971  30.903  1.00  0.00     0.029 A 
ATOM     54  C   UNL A   1      46.810  26.951  30.821  1.00  0.00     0.049 A 
ATOM     55  H   UNL A   1      47.197  28.891  30.087  1.00  0.00     0.167 HD
ATOM     56  C   UNL A   1      44.453  27.732  30.715  1.00  0.00     0.074 A 
ATOM     57  C   UNL A   1      44.484  28.750  29.669  1.00  0.00     0.031 C 
ATOM     58  C   UNL A   1      45.439  26.973  31.280  1.00  0.00     0.031 A 
BRANCH  45  59
ATOM     59  C   UNL A   1      48.420  29.101  27.334  1.00  0.00    -0.014 A 
ATOM     60  C   UNL A   1      49.729  29.610  27.378  1.00  0.00     0.009 A 
ATOM     61  C   UNL A   1      47.381  30.034  27.145  1.00  0.00     0.009 A 
ATOM     62  C   UNL A   1      49.974  30.986  27.304  1.00  0.00     0.001 A 
ATOM     63  C   UNL A   1      47.626  31.403  27.025  1.00  0.00     0.001 A 
ATOM     64  C   UNL A   1      48.922  31.881  27.133  1.00  0.00     0.000 A 
ENDBRANCH  45  59
BRANCH  46  65
ATOM     65  C   UNL A   1      40.174  27.736  28.740  1.00  0.00    -0.014 A 
ATOM     66  C   UNL A   1      39.183  27.767  29.733  1.00  0.00     0.009 A 
ATOM     67  C   UNL A   1      39.981  28.530  27.594  1.00  0.00     0.009 A 
ATOM     68  C   UNL A   1      38.059  28.593  29.599  1.00  0.00     0.001 A 
ATOM     69  C   UNL A   1      38.855  29.348  27.457  1.00  0.00     0.001 A 
ATOM     70  C   UNL A   1      37.903  29.391  28.468  1.00  0.00     0.000 A 
ENDBRANCH  46  65
BRANCH  58  71
ATOM     71  C   UNL A   1      45.029  25.876  32.231  1.00  0.00    -0.014 A 
ATOM     72  C   UNL A   1      44.613  24.605  31.796  1.00  0.00     0.009 A 
ATOM     73  C   UNL A   1      45.211  26.078  33.607  1.00  0.00     0.009 A 
ATOM     74  C   UNL A   1      44.348  23.582  32.711  1.00  0.00     0.001 A 
ATOM     75  C   UNL A   1      44.970  25.049  34.521  1.00  0.00     0.001 A 
ATOM     76  C   UNL A   1      44.532  23.804  34.074  1.00  0.00     0.000 A 
ENDBRANCH  58  71
ENDBRANCH  32  33
ENDBRANCH  25  27
ENDBRANCH  24  25
ENDBRANCH  23  24
ENDBRANCH   1  23
TORSDOF 15
ENDMDL
MODEL 2
REMARK VINA RESULT:     -10.9      3.858      6.162
REMARK SMILES C[C@H](NC(=O)c1ccn(CC(=O)OCCOC(=O)c2ccc(-c3c4nc(c(-c5ccccc5)c5ccc([nH]5)c(-c5ccccc5)c5nc(c(-c6ccccc6)c6ccc3[nH]6)C=C5)C=C4)cc2)n1)c1ccccc1
REMARK SMILES IDX 14 1 13 2 11 3 12 4 10 5 9 6 6 7 7 8 67 9 8 10 4 11 3 12
REMARK SMILES IDX 5 14 2 15 1 16 68 17 69 18 73 19 70 20 72 21 71 22 15 23
REMARK SMILES IDX 16 24 17 25 18 26 19 27 20 28 66 29 21 30 65 31 22 32 23 33
REMARK SMILES IDX 24 34 59 35 25 36 64 37 58 38 60 39 26 40 63 41 57 42 56 43
REMARK SMILES IDX 27 45 49 46 34 47 48 48 35 49 38 50 47 51 61 52 36 53 37 54
REMARK SMILES IDX 46 56 62 57 39 58 28 59 29 60 33 61 30 62 32 63 31 64 50 65
REMARK SMILES IDX 51 66 55 67 52 68 54 69 53 70 40 71 41 72 45 73 42 74 44 75
REMARK SMILES IDX 43 76
REMARK H PARENT 3 13 60 44 38 55
REMARK Flexibility Score: inf
ROOT
ATOM      1  C   UNL A   1      37.879  20.967  25.061  1.00  0.00     0.274 C 
ENDROOT
BRANCH   1   2
ATOM      2  O   UNL A   1      37.485  22.328  24.789  1.00  0.00    -0.461 OA
BRANCH   2   3
ATOM      3  C   UNL A   1      36.548  22.503  23.817  1.00  0.00     0.327 C 
ATOM      4  O   UNL A   1      36.787  23.004  22.719  1.00  0.00    -0.250 OA
BRANCH   3   5
ATOM      5  C   UNL A   1      35.156  22.122  24.229  1.00  0.00     0.266 C 
BRANCH   5   6
ATOM      6  N   UNL A   1      34.359  23.185  24.817  1.00  0.00    -0.261 N 
ATOM      7  C   UNL A   1      32.762  24.041  25.940  1.00  0.00     0.150 A 
ATOM      8  C   UNL A   1      33.785  25.022  25.870  1.00  0.00     0.056 A 
ATOM      9  N   UNL A   1      33.133  22.910  25.308  1.00  0.00    -0.167 NA
ATOM     10  C   UNL A   1      34.812  24.422  25.187  1.00  0.00     0.110 A 
BRANCH   7  11
ATOM     11  C   UNL A   1      31.480  24.163  26.642  1.00  0.00     0.272 C 
ATOM     12  N   UNL A   1      30.675  25.238  26.349  1.00  0.00    -0.344 N 
ATOM     13  H   UNL A   1      29.930  25.405  26.973  1.00  0.00     0.164 HD
ATOM     14  O   UNL A   1      31.116  23.364  27.505  1.00  0.00    -0.267 OA
BRANCH  12  15
ATOM     15  C   UNL A   1      30.788  26.160  25.228  1.00  0.00     0.109 C 
ATOM     16  C   UNL A   1      29.467  26.255  24.459  1.00  0.00     0.036 C 
BRANCH  15  17
ATOM     17  C   UNL A   1      31.225  27.543  25.685  1.00  0.00    -0.026 A 
ATOM     18  C   UNL A   1      31.496  27.829  27.034  1.00  0.00     0.006 A 
ATOM     19  C   UNL A   1      31.308  28.589  24.751  1.00  0.00     0.006 A 
ATOM     20  C   UNL A   1      31.846  29.122  27.433  1.00  0.00     0.000 A 
ATOM     21  C   UNL A   1      31.649  29.881  25.154  1.00  0.00     0.000 A 
ATOM     22  C   UNL A   1      31.919  30.147  26.494  1.00  0.00     0.000 A 
ENDBRANCH  15  17
ENDBRANCH  12  15
ENDBRANCH   7  11
ENDBRANCH   5   6
ENDBRANCH   3   5
ENDBRANCH   2   3
ENDBRANCH   1   2
BRANCH   1  23
ATOM     23  C   UNL A   1      39.187  20.873  25.841  1.00  0.00     0.275 C 
BRANCH  23  24
ATOM     24  O   UNL A   1      39.909  22.108  25.871  1.00  0.00    -0.458 OA
BRANCH  24  25
ATOM     25  C   UNL A   1      40.373  22.429  27.098  1.00  0.00     0.338 C 
ATOM     26  O   UNL A   1      40.404  21.704  28.076  1.00  0.00    -0.246 OA
BRANCH  25  27
ATOM     27  C   UNL A   1      40.640  23.865  27.205  1.00  0.00     0.060 A 
ATOM     28  C   UNL A   1      41.789  24.236  27.913  1.00  0.00     0.016 A 
ATOM     29  C   UNL A   1      39.641  24.791  26.886  1.00  0.00     0.016 A 
ATOM     30  C   UNL A   1      41.863  25.507  28.441  1.00  0.00     0.010 A 
ATOM     31  C   UNL A   1      39.715  26.061  27.419  1.00  0.00     0.010 A 
ATOM     32  C   UNL A   1      40.790  26.381  28.248  1.00  0.00    -0.014 A 
BRANCH  32  33
ATOM     33  C   UNL A   1      40.863  27.673  28.898  1.00  0.00     0.031 A 
ATOM     34  C   UNL A   1      41.845  28.606  28.300  1.00  0.00     0.074 A 
ATOM     35  C   UNL A   1      40.034  28.043  29.889  1.00  0.00     0.049 A 
ATOM     36  N   UNL A   1      42.875  29.145  28.864  1.00  0.00    -0.248 NA
ATOM     37  C   UNL A   1      41.714  28.893  26.865  1.00  0.00     0.031 C 
ATOM     38  C   UNL A   1      38.840  27.350  30.378  1.00  0.00     0.029 A 
ATOM     39  N   UNL A   1      40.028  29.211  30.589  1.00  0.00    -0.354 N 
ATOM     40  C   UNL A   1      43.439  29.973  27.900  1.00  0.00     0.074 A 
ATOM     41  C   UNL A   1      42.769  29.678  26.658  1.00  0.00     0.031 C 
ATOM     42  C   UNL A   1      38.100  28.216  31.107  1.00  0.00     0.029 A 
ATOM     43  C   UNL A   1      38.833  29.465  31.240  1.00  0.00     0.049 A 
ATOM     44  H   UNL A   1      40.801  29.818  30.628  1.00  0.00     0.167 HD
ATOM     45  C   UNL A   1      44.264  31.002  28.230  1.00  0.00     0.031 A 
ATOM     46  C   UNL A   1      38.447  30.650  31.772  1.00  0.00     0.031 A 
ATOM     47  C   UNL A   1      44.808  30.867  29.553  1.00  0.00     0.049 A 
ATOM     48  C   UNL A   1      39.656  31.484  31.958  1.00  0.00     0.074 A 
ATOM     49  C   UNL A   1      45.586  29.925  30.195  1.00  0.00     0.029 A 
ATOM     50  N   UNL A   1      44.264  31.644  30.548  1.00  0.00    -0.354 N 
ATOM     51  N   UNL A   1      40.579  31.232  32.841  1.00  0.00    -0.248 NA
ATOM     52  C   UNL A   1      40.053  32.382  30.884  1.00  0.00     0.031 C 
ATOM     53  C   UNL A   1      45.088  29.883  31.531  1.00  0.00     0.029 A 
ATOM     54  C   UNL A   1      44.068  30.829  31.632  1.00  0.00     0.049 A 
ATOM     55  H   UNL A   1      44.055  32.605  30.492  1.00  0.00     0.167 HD
ATOM     56  C   UNL A   1      41.769  31.572  32.218  1.00  0.00     0.074 A 
ATOM     57  C   UNL A   1      41.377  32.383  31.068  1.00  0.00     0.031 C 
ATOM     58  C   UNL A   1      42.936  30.931  32.526  1.00  0.00     0.031 A 
BRANCH  45  59
ATOM     59  C   UNL A   1      44.252  32.314  27.492  1.00  0.00    -0.014 A 
ATOM     60  C   UNL A   1      43.705  33.445  28.123  1.00  0.00     0.009 A 
ATOM     61  C   UNL A   1      44.495  32.415  26.108  1.00  0.00     0.009 A 
ATOM     62  C   UNL A   1      43.360  34.587  27.391  1.00  0.00     0.001 A 
ATOM     63  C   UNL A   1      44.195  33.569  25.384  1.00  0.00     0.001 A 
ATOM     64  C   UNL A   1      43.600  34.646  26.022  1.00  0.00     0.000 A 
ENDBRANCH  45  59
BRANCH  46  65
ATOM     65  C   UNL A   1      37.083  31.206  31.875  1.00  0.00    -0.014 A 
ATOM     66  C   UNL A   1      36.627  31.762  33.080  1.00  0.00     0.009 A 
ATOM     67  C   UNL A   1      36.316  31.429  30.717  1.00  0.00     0.009 A 
ATOM     68  C   UNL A   1      35.466  32.545  33.115  1.00  0.00     0.001 A 
ATOM     69  C   UNL A   1      35.152  32.203  30.753  1.00  0.00     0.001 A 
ATOM     70  C   UNL A   1      34.738  32.775  31.949  1.00  0.00     0.000 A 
ENDBRANCH  46  65
BRANCH  58  71
ATOM     71  C   UNL A   1      42.947  30.024  33.732  1.00  0.00    -0.014 A 
ATOM     72  C   UNL A   1      43.342  30.458  35.010  1.00  0.00     0.009 A 
ATOM     73  C   UNL A   1      42.400  28.738  33.609  1.00  0.00     0.009 A 
ATOM     74  C   UNL A   1      43.232  29.618  36.121  1.00  0.00     0.001 A 
ATOM     75  C   UNL A   1      42.267  27.906  34.724  1.00  0.00     0.001 A 
ATOM     76  C   UNL A   1      42.689  28.343  35.978  1.00  0.00     0.000 A 
ENDBRANCH  58  71
ENDBRANCH  32  33
ENDBRANCH  25  27
ENDBRANCH  24  25
ENDBRANCH  23  24
ENDBRANCH   1  23
TORSDOF 15
ENDMDL
MODEL 3
REMARK VINA RESULT:     -10.8      1.574      2.042
REMARK SMILES C[C@H](NC(=O)c1ccn(CC(=O)OCCOC(=O)c2ccc(-c3c4nc(c(-c5ccccc5)c5ccc([nH]5)c(-c5ccccc5)c5nc(c(-c6ccccc6)c6ccc3[nH]6)C=C5)C=C4)cc2)n1)c1ccccc1
REMARK SMILES IDX 14 1 13 2 11 3 12 4 10 5 9 6 6 7 7 8 67 9 8 10 4 11 3 12
REMARK SMILES IDX 5 14 2 15 1 16 68 17 69 18 73 19 70 20 72 21 71 22 15 23
REMARK SMILES IDX 16 24 17 25 18 26 19 27 20 28 66 29 21 30 65 31 22 32 23 33
REMARK SMILES IDX 24 34 59 35 25 36 64 37 58 38 60 39 26 40 63 41 57 42 56 43
REMARK SMILES IDX 27 45 49 46 34 47 48 48 35 49 38 50 47 51 61 52 36 53 37 54
REMARK SMILES IDX 46 56 62 57 39 58 28 59 29 60 33 61 30 62 32 63 31 64 50 65
REMARK SMILES IDX 51 66 55 67 52 68 54 69 53 70 40 71 41 72 45 73 42 74 44 75
REMARK SMILES IDX 43 76
REMARK H PARENT 3 13 60 44 38 55
REMARK Flexibility Score: inf
ROOT
ATOM      1  C   UNL A   1      41.346  20.046  26.472  1.00  0.00     0.274 C 
ENDROOT
BRANCH   1   2
ATOM      2  O   UNL A   1      40.905  21.252  25.815  1.00  0.00    -0.461 OA
BRANCH   2   3
ATOM      3  C   UNL A   1      39.744  21.798  26.270  1.00  0.00     0.327 C 
ATOM      4  O   UNL A   1      39.685  22.613  27.190  1.00  0.00    -0.250 OA
BRANCH   3   5
ATOM      5  C   UNL A   1      38.509  21.249  25.617  1.00  0.00     0.266 C 
BRANCH   5   6
ATOM      6  N   UNL A   1      37.483  22.223  25.288  1.00  0.00    -0.261 N 
ATOM      7  C   UNL A   1      35.735  22.976  24.328  1.00  0.00     0.150 A 
ATOM      8  C   UNL A   1      35.949  23.782  25.476  1.00  0.00     0.056 A 
ATOM      9  N   UNL A   1      36.670  22.011  24.232  1.00  0.00    -0.167 NA
ATOM     10  C   UNL A   1      37.047  23.239  26.095  1.00  0.00     0.110 A 
BRANCH   7  11
ATOM     11  C   UNL A   1      34.630  23.095  23.371  1.00  0.00     0.272 C 
ATOM     12  N   UNL A   1      33.564  22.236  23.494  1.00  0.00    -0.344 N 
ATOM     13  H   UNL A   1      32.944  22.200  22.728  1.00  0.00     0.164 HD
ATOM     14  O   UNL A   1      34.635  23.908  22.446  1.00  0.00    -0.267 OA
BRANCH  12  15
ATOM     15  C   UNL A   1      33.238  21.371  24.620  1.00  0.00     0.109 C 
ATOM     16  C   UNL A   1      31.817  21.638  25.125  1.00  0.00     0.036 C 
BRANCH  15  17
ATOM     17  C   UNL A   1      33.395  19.902  24.258  1.00  0.00    -0.026 A 
ATOM     18  C   UNL A   1      34.506  19.149  24.672  1.00  0.00     0.006 A 
ATOM     19  C   UNL A   1      32.438  19.284  23.436  1.00  0.00     0.006 A 
ATOM     20  C   UNL A   1      34.650  17.815  24.281  1.00  0.00     0.000 A 
ATOM     21  C   UNL A   1      32.588  17.954  23.039  1.00  0.00     0.000 A 
ATOM     22  C   UNL A   1      33.693  17.220  23.462  1.00  0.00     0.000 A 
ENDBRANCH  15  17
ENDBRANCH  12  15
ENDBRANCH   7  11
ENDBRANCH   5   6
ENDBRANCH   3   5
ENDBRANCH   2   3
ENDBRANCH   1   2
BRANCH   1  23
ATOM     23  C   UNL A   1      42.742  19.610  26.037  1.00  0.00     0.275 C 
BRANCH  23  24
ATOM     24  O   UNL A   1      43.220  20.326  24.894  1.00  0.00    -0.458 OA
BRANCH  24  25
ATOM     25  C   UNL A   1      44.490  20.764  25.028  1.00  0.00     0.338 C 
ATOM     26  O   UNL A   1      45.491  20.076  25.117  1.00  0.00    -0.246 OA
BRANCH  25  27
ATOM     27  C   UNL A   1      44.529  22.204  25.291  1.00  0.00     0.060 A 
ATOM     28  C   UNL A   1      45.390  22.631  26.309  1.00  0.00     0.016 A 
ATOM     29  C   UNL A   1      43.539  23.042  24.765  1.00  0.00     0.016 A 
ATOM     30  C   UNL A   1      45.154  23.847  26.913  1.00  0.00     0.010 A 
ATOM     31  C   UNL A   1      43.302  24.256  25.374  1.00  0.00     0.010 A 
ATOM     32  C   UNL A   1      44.066  24.613  26.485  1.00  0.00    -0.014 A 
BRANCH  32  33
ATOM     33  C   UNL A   1      43.794  25.838  27.207  1.00  0.00     0.031 A 
ATOM     34  C   UNL A   1      44.757  26.932  26.944  1.00  0.00     0.074 A 
ATOM     35  C   UNL A   1      42.699  26.015  27.967  1.00  0.00     0.049 A 
ATOM     36  N   UNL A   1      45.527  27.534  27.789  1.00  0.00    -0.248 NA
ATOM     37  C   UNL A   1      44.954  27.334  25.544  1.00  0.00     0.031 C 
ATOM     38  C   UNL A   1      41.528  25.143  28.083  1.00  0.00     0.029 A 
ATOM     39  N   UNL A   1      42.356  27.104  28.708  1.00  0.00    -0.354 N 
ATOM     40  C   UNL A   1      46.196  28.508  27.058  1.00  0.00     0.074 A 
ATOM     41  C   UNL A   1      45.908  28.254  25.668  1.00  0.00     0.031 C 
ATOM     42  C   UNL A   1      40.516  25.844  28.643  1.00  0.00     0.029 A 
ATOM     43  C   UNL A   1      41.012  27.153  29.037  1.00  0.00     0.049 A 
ATOM     44  H   UNL A   1      43.003  27.792  28.984  1.00  0.00     0.167 HD
ATOM     45  C   UNL A   1      46.761  29.593  27.652  1.00  0.00     0.031 A 
ATOM     46  C   UNL A   1      40.345  28.230  29.519  1.00  0.00     0.031 A 
ATOM     47  C   UNL A   1      46.967  29.401  29.061  1.00  0.00     0.049 A 
ATOM     48  C   UNL A   1      41.342  29.179  30.064  1.00  0.00     0.074 A 
ATOM     49  C   UNL A   1      47.680  28.501  29.828  1.00  0.00     0.029 A 
ATOM     50  N   UNL A   1      46.088  30.012  29.923  1.00  0.00    -0.354 N 
ATOM     51  N   UNL A   1      42.037  28.957  31.142  1.00  0.00    -0.248 NA
ATOM     52  C   UNL A   1      41.869  30.214  29.187  1.00  0.00     0.031 C 
ATOM     53  C   UNL A   1      46.873  28.277  30.981  1.00  0.00     0.029 A 
ATOM     54  C   UNL A   1      45.739  29.083  30.868  1.00  0.00     0.049 A 
ATOM     55  H   UNL A   1      45.770  30.942  29.872  1.00  0.00     0.167 HD
ATOM     56  C   UNL A   1      43.288  29.492  30.873  1.00  0.00     0.074 A 
ATOM     57  C   UNL A   1      43.090  30.354  29.712  1.00  0.00     0.031 C 
ATOM     58  C   UNL A   1      44.416  28.967  31.438  1.00  0.00     0.031 A 
BRANCH  45  59
ATOM     59  C   UNL A   1      46.755  30.957  27.017  1.00  0.00    -0.014 A 
ATOM     60  C   UNL A   1      47.945  31.705  26.998  1.00  0.00     0.009 A 
ATOM     61  C   UNL A   1      45.567  31.644  26.695  1.00  0.00     0.009 A 
ATOM     62  C   UNL A   1      47.932  33.081  26.736  1.00  0.00     0.001 A 
ATOM     63  C   UNL A   1      45.557  33.006  26.389  1.00  0.00     0.001 A 
ATOM     64  C   UNL A   1      46.738  33.730  26.438  1.00  0.00     0.000 A 
ENDBRANCH  45  59
BRANCH  46  65
ATOM     65  C   UNL A   1      38.936  28.609  29.293  1.00  0.00    -0.014 A 
ATOM     66  C   UNL A   1      38.046  28.724  30.372  1.00  0.00     0.009 A 
ATOM     67  C   UNL A   1      38.526  29.116  28.047  1.00  0.00     0.009 A 
ATOM     68  C   UNL A   1      36.805  29.356  30.214  1.00  0.00     0.001 A 
ATOM     69  C   UNL A   1      37.285  29.740  27.887  1.00  0.00     0.001 A 
ATOM     70  C   UNL A   1      36.432  29.874  28.976  1.00  0.00     0.000 A 
ENDBRANCH  46  65
BRANCH  58  71
ATOM     71  C   UNL A   1      44.247  27.959  32.549  1.00  0.00    -0.014 A 
ATOM     72  C   UNL A   1      44.083  26.582  32.311  1.00  0.00     0.009 A 
ATOM     73  C   UNL A   1      44.409  28.388  33.874  1.00  0.00     0.009 A 
ATOM     74  C   UNL A   1      44.041  25.670  33.369  1.00  0.00     0.001 A 
ATOM     75  C   UNL A   1      44.391  27.473  34.931  1.00  0.00     0.001 A 
ATOM     76  C   UNL A   1      44.200  26.116  34.678  1.00  0.00     0.000 A 
ENDBRANCH  58  71
ENDBRANCH  32  33
ENDBRANCH  25  27
ENDBRANCH  24  25
ENDBRANCH  23  24
ENDBRANCH   1  23
TORSDOF 15
ENDMDL
