MODEL 1
REMARK VINA RESULT:     -11.1      0.000      0.000
REMARK SMILES C[C@H](Oc1ccnc2c(F)cc(F)cc12)C(=O)OCCOC(=O)c1ccc(-c2c3nc(c(-c4ccccc4)c4ccc([nH]4)c(-c4ccccc4)c4nc(c(-c5ccccc5)c5ccc2[nH]5)C=C4)C=C3)cc1
REMARK SMILES IDX 19 1 18 2 16 3 17 4 2 5 1 6 3 7 4 8 5 9 15 10 6 11 8 12
REMARK SMILES IDX 14 13 7 14 9 15 12 16 10 17 11 18 13 19 20 20 21 21 22 22
REMARK SMILES IDX 23 23 24 24 25 25 71 26 26 27 70 28 27 29 28 30 29 31 64 32
REMARK SMILES IDX 30 33 69 34 63 35 65 36 31 37 68 38 62 39 61 40 32 42 54 43
REMARK SMILES IDX 39 44 53 45 40 46 43 47 52 48 66 49 41 50 42 51 51 53 67 54
REMARK SMILES IDX 44 55 33 56 34 57 38 58 35 59 37 60 36 61 55 62 56 63 60 64
REMARK SMILES IDX 57 65 59 66 58 67 45 68 46 69 50 70 47 71 49 72 48 73
REMARK H PARENT 65 41 43 52
REMARK Flexibility Score: inf
ROOT
ATOM      1  C   UNL A   1      47.371  26.139  27.751  1.00  0.00     0.274 C 
ENDROOT
BRANCH   1   2
ATOM      2  O   UNL A   1      46.165  25.492  27.298  1.00  0.00    -0.459 OA
BRANCH   2   3
ATOM      3  C   UNL A   1      46.344  24.508  26.376  1.00  0.00     0.347 C 
ATOM      4  O   UNL A   1      47.285  23.718  26.375  1.00  0.00    -0.248 OA
BRANCH   3   5
ATOM      5  C   UNL A   1      45.245  24.472  25.305  1.00  0.00     0.279 C 
ATOM      6  C   UNL A   1      44.692  25.894  25.197  1.00  0.00     0.066 C 
BRANCH   5   7
ATOM      7  O   UNL A   1      44.121  23.629  25.524  1.00  0.00    -0.478 OA
BRANCH   7   8
ATOM      8  C   UNL A   1      44.171  22.302  25.179  1.00  0.00     0.131 A 
ATOM      9  C   UNL A   1      44.982  21.774  24.185  1.00  0.00     0.067 A 
ATOM     10  C   UNL A   1      43.335  21.437  25.920  1.00  0.00     0.048 A 
ATOM     11  C   UNL A   1      44.979  20.406  23.993  1.00  0.00     0.115 A 
ATOM     12  C   UNL A   1      43.406  20.050  25.654  1.00  0.00     0.110 A 
ATOM     13  C   UNL A   1      42.433  21.907  26.901  1.00  0.00     0.053 A 
ATOM     14  N   UNL A   1      44.220  19.551  24.702  1.00  0.00    -0.253 NA
ATOM     15  C   UNL A   1      42.598  19.198  26.410  1.00  0.00     0.152 A 
ATOM     16  C   UNL A   1      41.635  21.021  27.610  1.00  0.00     0.127 A 
ATOM     17  F   UNL A   1      42.655  17.871  26.207  1.00  0.00    -0.204 F 
ATOM     18  C   UNL A   1      41.716  19.662  27.381  1.00  0.00     0.080 A 
ATOM     19  F   UNL A   1      40.776  21.490  28.523  1.00  0.00    -0.207 F 
ENDBRANCH   7   8
ENDBRANCH   5   7
ENDBRANCH   3   5
ENDBRANCH   2   3
ENDBRANCH   1   2
BRANCH   1  20
ATOM     20  C   UNL A   1      47.258  26.561  29.215  1.00  0.00     0.275 C 
BRANCH  20  21
ATOM     21  O   UNL A   1      45.875  26.599  29.614  1.00  0.00    -0.458 OA
BRANCH  21  22
ATOM     22  C   UNL A   1      45.256  27.788  29.441  1.00  0.00     0.338 C 
ATOM     23  O   UNL A   1      45.754  28.895  29.562  1.00  0.00    -0.246 OA
BRANCH  22  24
ATOM     24  C   UNL A   1      43.842  27.605  29.034  1.00  0.00     0.060 A 
ATOM     25  C   UNL A   1      43.362  27.989  27.776  1.00  0.00     0.016 A 
ATOM     26  C   UNL A   1      42.950  27.124  29.999  1.00  0.00     0.016 A 
ATOM     27  C   UNL A   1      41.991  27.935  27.504  1.00  0.00     0.010 A 
ATOM     28  C   UNL A   1      41.591  27.010  29.703  1.00  0.00     0.010 A 
ATOM     29  C   UNL A   1      41.097  27.426  28.459  1.00  0.00    -0.014 A 
BRANCH  29  30
ATOM     30  C   UNL A   1      39.656  27.243  28.159  1.00  0.00     0.031 A 
ATOM     31  C   UNL A   1      39.149  25.973  27.535  1.00  0.00     0.074 A 
ATOM     32  C   UNL A   1      38.807  28.267  28.375  1.00  0.00     0.049 A 
ATOM     33  N   UNL A   1      37.963  25.718  27.040  1.00  0.00    -0.248 NA
ATOM     34  C   UNL A   1      40.090  24.847  27.453  1.00  0.00     0.031 C 
ATOM     35  C   UNL A   1      39.165  29.548  28.988  1.00  0.00     0.029 A 
ATOM     36  N   UNL A   1      37.473  28.397  28.082  1.00  0.00    -0.354 N 
ATOM     37  C   UNL A   1      38.020  24.413  26.571  1.00  0.00     0.074 A 
ATOM     38  C   UNL A   1      39.360  23.927  26.834  1.00  0.00     0.031 C 
ATOM     39  C   UNL A   1      38.075  30.329  29.034  1.00  0.00     0.029 A 
ATOM     40  C   UNL A   1      36.963  29.631  28.399  1.00  0.00     0.049 A 
ATOM     41  H   UNL A   1      36.935  27.676  27.683  1.00  0.00     0.167 HD
ATOM     42  C   UNL A   1      37.045  23.686  25.977  1.00  0.00     0.031 A 
ATOM     43  C   UNL A   1      35.749  30.165  28.172  1.00  0.00     0.031 A 
ATOM     44  C   UNL A   1      35.713  24.164  25.716  1.00  0.00     0.049 A 
ATOM     45  C   UNL A   1      34.710  29.369  27.444  1.00  0.00     0.074 A 
ATOM     46  C   UNL A   1      34.656  23.484  25.133  1.00  0.00     0.029 A 
ATOM     47  N   UNL A   1      35.254  25.434  26.018  1.00  0.00    -0.354 N 
ATOM     48  N   UNL A   1      34.788  28.144  26.984  1.00  0.00    -0.248 NA
ATOM     49  C   UNL A   1      33.424  30.032  27.187  1.00  0.00     0.031 C 
ATOM     50  C   UNL A   1      33.566  24.356  25.051  1.00  0.00     0.029 A 
ATOM     51  C   UNL A   1      33.935  25.565  25.617  1.00  0.00     0.049 A 
ATOM     52  H   UNL A   1      35.785  26.139  26.454  1.00  0.00     0.167 HD
ATOM     53  C   UNL A   1      33.560  27.886  26.393  1.00  0.00     0.074 A 
ATOM     54  C   UNL A   1      32.752  29.076  26.557  1.00  0.00     0.031 C 
ATOM     55  C   UNL A   1      33.145  26.757  25.773  1.00  0.00     0.031 A 
BRANCH  42  56
ATOM     56  C   UNL A   1      37.373  22.287  25.547  1.00  0.00    -0.014 A 
ATOM     57  C   UNL A   1      38.683  21.796  25.633  1.00  0.00     0.009 A 
ATOM     58  C   UNL A   1      36.342  21.419  25.152  1.00  0.00     0.009 A 
ATOM     59  C   UNL A   1      38.957  20.462  25.325  1.00  0.00     0.001 A 
ATOM     60  C   UNL A   1      36.616  20.082  24.860  1.00  0.00     0.001 A 
ATOM     61  C   UNL A   1      37.924  19.606  24.946  1.00  0.00     0.000 A 
ENDBRANCH  42  56
BRANCH  43  62
ATOM     62  C   UNL A   1      35.475  31.548  28.629  1.00  0.00    -0.014 A 
ATOM     63  C   UNL A   1      35.532  32.612  27.719  1.00  0.00     0.009 A 
ATOM     64  C   UNL A   1      35.090  31.797  29.955  1.00  0.00     0.009 A 
ATOM     65  C   UNL A   1      35.203  33.906  28.131  1.00  0.00     0.001 A 
ATOM     66  C   UNL A   1      34.745  33.089  30.357  1.00  0.00     0.001 A 
ATOM     67  C   UNL A   1      34.803  34.141  29.446  1.00  0.00     0.000 A 
ENDBRANCH  43  62
BRANCH  55  68
ATOM     68  C   UNL A   1      31.748  26.740  25.228  1.00  0.00    -0.014 A 
ATOM     69  C   UNL A   1      31.424  27.445  24.059  1.00  0.00     0.009 A 
ATOM     70  C   UNL A   1      30.766  25.953  25.849  1.00  0.00     0.009 A 
ATOM     71  C   UNL A   1      30.136  27.368  23.528  1.00  0.00     0.001 A 
ATOM     72  C   UNL A   1      29.485  25.865  25.305  1.00  0.00     0.001 A 
ATOM     73  C   UNL A   1      29.170  26.574  24.147  1.00  0.00     0.000 A 
ENDBRANCH  55  68
ENDBRANCH  29  30
ENDBRANCH  22  24
ENDBRANCH  21  22
ENDBRANCH  20  21
ENDBRANCH   1  20
TORSDOF 13
ENDMDL
MODEL 2
REMARK VINA RESULT:     -11.0      5.524     13.699
REMARK SMILES C[C@H](Oc1ccnc2c(F)cc(F)cc12)C(=O)OCCOC(=O)c1ccc(-c2c3nc(c(-c4ccccc4)c4ccc([nH]4)c(-c4ccccc4)c4nc(c(-c5ccccc5)c5ccc2[nH]5)C=C4)C=C3)cc1
REMARK SMILES IDX 19 1 18 2 16 3 17 4 2 5 1 6 3 7 4 8 5 9 15 10 6 11 8 12
REMARK SMILES IDX 14 13 7 14 9 15 12 16 10 17 11 18 13 19 20 20 21 21 22 22
REMARK SMILES IDX 23 23 24 24 25 25 71 26 26 27 70 28 27 29 28 30 29 31 64 32
REMARK SMILES IDX 30 33 69 34 63 35 65 36 31 37 68 38 62 39 61 40 32 42 54 43
REMARK SMILES IDX 39 44 53 45 40 46 43 47 52 48 66 49 41 50 42 51 51 53 67 54
REMARK SMILES IDX 44 55 33 56 34 57 38 58 35 59 37 60 36 61 55 62 56 63 60 64
REMARK SMILES IDX 57 65 59 66 58 67 45 68 46 69 50 70 47 71 49 72 48 73
REMARK H PARENT 65 41 43 52
REMARK Flexibility Score: inf
ROOT
ATOM      1  C   UNL A   1      34.303  34.245  28.327  1.00  0.00     0.274 C 
ENDROOT
BRANCH   1   2
ATOM      2  O   UNL A   1      33.502  34.120  29.520  1.00  0.00    -0.459 OA
BRANCH   2   3
ATOM      3  C   UNL A   1      33.049  35.292  30.041  1.00  0.00     0.347 C 
ATOM      4  O   UNL A   1      32.414  36.135  29.412  1.00  0.00    -0.248 OA
BRANCH   3   5
ATOM      5  C   UNL A   1      33.416  35.480  31.521  1.00  0.00     0.279 C 
ATOM      6  C   UNL A   1      32.759  36.784  31.972  1.00  0.00     0.066 C 
BRANCH   5   7
ATOM      7  O   UNL A   1      34.791  35.593  31.862  1.00  0.00    -0.478 OA
BRANCH   7   8
ATOM      8  C   UNL A   1      35.319  34.839  32.879  1.00  0.00     0.131 A 
ATOM      9  C   UNL A   1      34.922  34.913  34.206  1.00  0.00     0.067 A 
ATOM     10  C   UNL A   1      36.326  33.918  32.511  1.00  0.00     0.048 A 
ATOM     11  C   UNL A   1      35.494  34.042  35.113  1.00  0.00     0.115 A 
ATOM     12  C   UNL A   1      36.847  33.064  33.510  1.00  0.00     0.110 A 
ATOM     13  C   UNL A   1      36.829  33.830  31.194  1.00  0.00     0.053 A 
ATOM     14  N   UNL A   1      36.430  33.132  34.790  1.00  0.00    -0.253 NA
ATOM     15  C   UNL A   1      37.821  32.137  33.133  1.00  0.00     0.152 A 
ATOM     16  C   UNL A   1      37.814  32.906  30.874  1.00  0.00     0.127 A 
ATOM     17  F   UNL A   1      38.324  31.289  34.046  1.00  0.00    -0.204 F 
ATOM     18  C   UNL A   1      38.311  32.046  31.833  1.00  0.00     0.080 A 
ATOM     19  F   UNL A   1      38.289  32.851  29.624  1.00  0.00    -0.207 F 
ENDBRANCH   7   8
ENDBRANCH   5   7
ENDBRANCH   3   5
ENDBRANCH   2   3
ENDBRANCH   1   2
BRANCH   1  20
ATOM     20  C   UNL A   1      35.165  33.004  28.105  1.00  0.00     0.275 C 
BRANCH  20  21
ATOM     21  O   UNL A   1      34.599  31.878  28.799  1.00  0.00    -0.458 OA
BRANCH  21  22
ATOM     22  C   UNL A   1      34.817  30.674  28.223  1.00  0.00     0.338 C 
ATOM     23  O   UNL A   1      34.010  30.008  27.597  1.00  0.00    -0.246 OA
BRANCH  22  24
ATOM     24  C   UNL A   1      36.221  30.235  28.407  1.00  0.00     0.060 A 
ATOM     25  C   UNL A   1      37.169  30.286  27.378  1.00  0.00     0.016 A 
ATOM     26  C   UNL A   1      36.560  29.653  29.634  1.00  0.00     0.016 A 
ATOM     27  C   UNL A   1      38.433  29.716  27.563  1.00  0.00     0.010 A 
ATOM     28  C   UNL A   1      37.841  29.143  29.838  1.00  0.00     0.010 A 
ATOM     29  C   UNL A   1      38.786  29.158  28.803  1.00  0.00    -0.014 A 
BRANCH  29  30
ATOM     30  C   UNL A   1      40.156  28.655  29.069  1.00  0.00     0.031 A 
ATOM     31  C   UNL A   1      41.226  29.564  29.604  1.00  0.00     0.074 A 
ATOM     32  C   UNL A   1      40.460  27.382  28.747  1.00  0.00     0.049 A 
ATOM     33  N   UNL A   1      42.511  29.341  29.720  1.00  0.00    -0.248 NA
ATOM     34  C   UNL A   1      40.802  30.894  30.067  1.00  0.00     0.031 C 
ATOM     35  C   UNL A   1      39.513  26.390  28.234  1.00  0.00     0.029 A 
ATOM     36  N   UNL A   1      41.658  26.715  28.783  1.00  0.00    -0.354 N 
ATOM     37  C   UNL A   1      43.053  30.505  30.248  1.00  0.00     0.074 A 
ATOM     38  C   UNL A   1      41.959  31.438  30.426  1.00  0.00     0.031 C 
ATOM     39  C   UNL A   1      40.165  25.238  28.013  1.00  0.00     0.029 A 
ATOM     40  C   UNL A   1      41.581  25.430  28.308  1.00  0.00     0.049 A 
ATOM     41  H   UNL A   1      42.491  27.119  29.118  1.00  0.00     0.167 HD
ATOM     42  C   UNL A   1      44.344  30.770  30.556  1.00  0.00     0.031 A 
ATOM     43  C   UNL A   1      42.542  24.514  28.092  1.00  0.00     0.031 A 
ATOM     44  C   UNL A   1      45.433  29.846  30.383  1.00  0.00     0.049 A 
ATOM     45  C   UNL A   1      43.973  24.857  28.368  1.00  0.00     0.074 A 
ATOM     46  C   UNL A   1      46.772  30.030  30.688  1.00  0.00     0.029 A 
ATOM     47  N   UNL A   1      45.313  28.570  29.861  1.00  0.00    -0.354 N 
ATOM     48  N   UNL A   1      44.472  25.971  28.844  1.00  0.00    -0.248 NA
ATOM     49  C   UNL A   1      44.975  23.825  28.063  1.00  0.00     0.031 C 
ATOM     50  C   UNL A   1      47.468  28.876  30.317  1.00  0.00     0.029 A 
ATOM     51  C   UNL A   1      46.556  27.962  29.817  1.00  0.00     0.049 A 
ATOM     52  H   UNL A   1      44.470  28.156  29.564  1.00  0.00     0.167 HD
ATOM     53  C   UNL A   1      45.844  25.773  28.905  1.00  0.00     0.074 A 
ATOM     54  C   UNL A   1      46.100  24.432  28.424  1.00  0.00     0.031 C 
ATOM     55  C   UNL A   1      46.802  26.632  29.325  1.00  0.00     0.031 A 
BRANCH  42  56
ATOM     56  C   UNL A   1      44.671  32.126  31.108  1.00  0.00    -0.014 A 
ATOM     57  C   UNL A   1      44.692  32.355  32.491  1.00  0.00     0.009 A 
ATOM     58  C   UNL A   1      45.064  33.157  30.238  1.00  0.00     0.009 A 
ATOM     59  C   UNL A   1      45.096  33.593  32.994  1.00  0.00     0.001 A 
ATOM     60  C   UNL A   1      45.482  34.388  30.744  1.00  0.00     0.001 A 
ATOM     61  C   UNL A   1      45.497  34.605  32.122  1.00  0.00     0.000 A 
ENDBRANCH  42  56
BRANCH  43  62
ATOM     62  C   UNL A   1      42.161  23.184  27.557  1.00  0.00    -0.014 A 
ATOM     63  C   UNL A   1      41.600  22.221  28.406  1.00  0.00     0.009 A 
ATOM     64  C   UNL A   1      42.293  22.902  26.188  1.00  0.00     0.009 A 
ATOM     65  C   UNL A   1      41.173  20.995  27.891  1.00  0.00     0.001 A 
ATOM     66  C   UNL A   1      41.848  21.682  25.676  1.00  0.00     0.001 A 
ATOM     67  C   UNL A   1      41.291  20.731  26.527  1.00  0.00     0.000 A 
ENDBRANCH  43  62
BRANCH  55  68
ATOM     68  C   UNL A   1      48.222  26.152  29.299  1.00  0.00    -0.014 A 
ATOM     69  C   UNL A   1      48.998  26.269  28.136  1.00  0.00     0.009 A 
ATOM     70  C   UNL A   1      48.810  25.649  30.469  1.00  0.00     0.009 A 
ATOM     71  C   UNL A   1      50.338  25.878  28.144  1.00  0.00     0.001 A 
ATOM     72  C   UNL A   1      50.154  25.275  30.478  1.00  0.00     0.001 A 
ATOM     73  C   UNL A   1      50.916  25.388  29.315  1.00  0.00     0.000 A 
ENDBRANCH  55  68
ENDBRANCH  29  30
ENDBRANCH  22  24
ENDBRANCH  21  22
ENDBRANCH  20  21
ENDBRANCH   1  20
TORSDOF 13
ENDMDL
MODEL 3
REMARK VINA RESULT:     -10.8      5.822     11.417
REMARK SMILES C[C@H](Oc1ccnc2c(F)cc(F)cc12)C(=O)OCCOC(=O)c1ccc(-c2c3nc(c(-c4ccccc4)c4ccc([nH]4)c(-c4ccccc4)c4nc(c(-c5ccccc5)c5ccc2[nH]5)C=C4)C=C3)cc1
REMARK SMILES IDX 19 1 18 2 16 3 17 4 2 5 1 6 3 7 4 8 5 9 15 10 6 11 8 12
REMARK SMILES IDX 14 13 7 14 9 15 12 16 10 17 11 18 13 19 20 20 21 21 22 22
REMARK SMILES IDX 23 23 24 24 25 25 71 26 26 27 70 28 27 29 28 30 29 31 64 32
REMARK SMILES IDX 30 33 69 34 63 35 65 36 31 37 68 38 62 39 61 40 32 42 54 43
REMARK SMILES IDX 39 44 53 45 40 46 43 47 52 48 66 49 41 50 42 51 51 53 67 54
REMARK SMILES IDX 44 55 33 56 34 57 38 58 35 59 37 60 36 61 55 62 56 63 60 64
REMARK SMILES IDX 57 65 59 66 58 67 45 68 46 69 50 70 47 71 49 72 48 73
REMARK H PARENT 65 41 43 52
REMARK Flexibility Score: inf
ROOT
ATOM      1  C   UNL A   1      31.842  31.966  26.759  1.00  0.00     0.274 C 
ENDROOT
BRANCH   1   2
ATOM      2  O   UNL A   1      32.365  30.624  26.691  1.00  0.00    -0.459 OA
BRANCH   2   3
ATOM      3  C   UNL A   1      31.743  29.802  25.804  1.00  0.00     0.347 C 
ATOM      4  O   UNL A   1      31.030  30.186  24.880  1.00  0.00    -0.248 OA
BRANCH   3   5
ATOM      5  C   UNL A   1      32.008  28.313  26.069  1.00  0.00     0.279 C 
ATOM      6  C   UNL A   1      31.953  28.121  27.585  1.00  0.00     0.066 C 
BRANCH   5   7
ATOM      7  O   UNL A   1      33.251  27.768  25.647  1.00  0.00    -0.478 OA
BRANCH   7   8
ATOM      8  C   UNL A   1      33.343  27.078  24.465  1.00  0.00     0.131 A 
ATOM      9  C   UNL A   1      33.084  27.618  23.213  1.00  0.00     0.067 A 
ATOM     10  C   UNL A   1      33.747  25.728  24.564  1.00  0.00     0.048 A 
ATOM     11  C   UNL A   1      33.285  26.824  22.101  1.00  0.00     0.115 A 
ATOM     12  C   UNL A   1      33.930  24.997  23.368  1.00  0.00     0.110 A 
ATOM     13  C   UNL A   1      33.964  25.089  25.805  1.00  0.00     0.053 A 
ATOM     14  N   UNL A   1      33.700  25.546  22.158  1.00  0.00    -0.253 NA
ATOM     15  C   UNL A   1      34.358  23.672  23.471  1.00  0.00     0.152 A 
ATOM     16  C   UNL A   1      34.367  23.762  25.856  1.00  0.00     0.127 A 
ATOM     17  F   UNL A   1      34.569  22.949  22.358  1.00  0.00    -0.204 F 
ATOM     18  C   UNL A   1      34.578  23.045  24.694  1.00  0.00     0.080 A 
ATOM     19  F   UNL A   1      34.551  23.172  27.043  1.00  0.00    -0.207 F 
ENDBRANCH   7   8
ENDBRANCH   5   7
ENDBRANCH   3   5
ENDBRANCH   2   3
ENDBRANCH   1   2
BRANCH   1  20
ATOM     20  C   UNL A   1      32.679  32.842  27.690  1.00  0.00     0.275 C 
BRANCH  20  21
ATOM     21  O   UNL A   1      32.251  34.213  27.599  1.00  0.00    -0.458 OA
BRANCH  21  22
ATOM     22  C   UNL A   1      32.744  35.037  28.550  1.00  0.00     0.338 C 
ATOM     23  O   UNL A   1      32.235  36.068  28.957  1.00  0.00    -0.246 OA
BRANCH  22  24
ATOM     24  C   UNL A   1      34.017  34.519  29.105  1.00  0.00     0.060 A 
ATOM     25  C   UNL A   1      35.243  34.664  28.444  1.00  0.00     0.016 A 
ATOM     26  C   UNL A   1      33.950  33.769  30.284  1.00  0.00     0.016 A 
ATOM     27  C   UNL A   1      36.384  34.023  28.938  1.00  0.00     0.010 A 
ATOM     28  C   UNL A   1      35.102  33.184  30.810  1.00  0.00     0.010 A 
ATOM     29  C   UNL A   1      36.326  33.294  30.136  1.00  0.00    -0.014 A 
BRANCH  29  30
ATOM     30  C   UNL A   1      37.541  32.704  30.749  1.00  0.00     0.031 A 
ATOM     31  C   UNL A   1      38.220  31.512  30.133  1.00  0.00     0.074 A 
ATOM     32  C   UNL A   1      37.990  33.197  31.920  1.00  0.00     0.049 A 
ATOM     33  N   UNL A   1      39.171  30.762  30.629  1.00  0.00    -0.248 NA
ATOM     34  C   UNL A   1      37.773  31.109  28.791  1.00  0.00     0.031 C 
ATOM     35  C   UNL A   1      37.434  34.359  32.617  1.00  0.00     0.029 A 
ATOM     36  N   UNL A   1      39.003  32.768  32.739  1.00  0.00    -0.354 N 
ATOM     37  C   UNL A   1      39.425  29.788  29.673  1.00  0.00     0.074 A 
ATOM     38  C   UNL A   1      38.522  30.036  28.568  1.00  0.00     0.031 C 
ATOM     39  C   UNL A   1      38.120  34.555  33.754  1.00  0.00     0.029 A 
ATOM     40  C   UNL A   1      39.118  33.500  33.894  1.00  0.00     0.049 A 
ATOM     41  H   UNL A   1      39.591  32.009  32.519  1.00  0.00     0.167 HD
ATOM     42  C   UNL A   1      40.327  28.780  29.714  1.00  0.00     0.031 A 
ATOM     43  C   UNL A   1      39.906  33.325  34.971  1.00  0.00     0.031 A 
ATOM     44  C   UNL A   1      41.227  28.531  30.810  1.00  0.00     0.049 A 
ATOM     45  C   UNL A   1      40.843  32.158  35.026  1.00  0.00     0.074 A 
ATOM     46  C   UNL A   1      42.188  27.539  30.923  1.00  0.00     0.029 A 
ATOM     47  N   UNL A   1      41.279  29.274  31.976  1.00  0.00    -0.354 N 
ATOM     48  N   UNL A   1      41.052  31.231  34.124  1.00  0.00    -0.248 NA
ATOM     49  C   UNL A   1      41.638  32.002  36.252  1.00  0.00     0.031 C 
ATOM     50  C   UNL A   1      42.797  27.662  32.176  1.00  0.00     0.029 A 
ATOM     51  C   UNL A   1      42.241  28.753  32.823  1.00  0.00     0.049 A 
ATOM     52  H   UNL A   1      40.715  30.058  32.174  1.00  0.00     0.167 HD
ATOM     53  C   UNL A   1      42.010  30.387  34.668  1.00  0.00     0.074 A 
ATOM     54  C   UNL A   1      42.345  30.914  35.974  1.00  0.00     0.031 C 
ATOM     55  C   UNL A   1      42.559  29.276  34.125  1.00  0.00     0.031 A 
BRANCH  42  56
ATOM     56  C   UNL A   1      40.391  27.845  28.543  1.00  0.00    -0.014 A 
ATOM     57  C   UNL A   1      41.256  28.097  27.468  1.00  0.00     0.009 A 
ATOM     58  C   UNL A   1      39.657  26.648  28.564  1.00  0.00     0.009 A 
ATOM     59  C   UNL A   1      41.381  27.168  26.433  1.00  0.00     0.001 A 
ATOM     60  C   UNL A   1      39.796  25.715  27.536  1.00  0.00     0.001 A 
ATOM     61  C   UNL A   1      40.657  25.977  26.471  1.00  0.00     0.000 A 
ENDBRANCH  42  56
BRANCH  43  62
ATOM     62  C   UNL A   1      39.810  34.287  36.095  1.00  0.00    -0.014 A 
ATOM     63  C   UNL A   1      39.002  33.993  37.202  1.00  0.00     0.009 A 
ATOM     64  C   UNL A   1      40.577  35.462  36.096  1.00  0.00     0.009 A 
ATOM     65  C   UNL A   1      38.966  34.862  38.294  1.00  0.00     0.001 A 
ATOM     66  C   UNL A   1      40.551  36.318  37.198  1.00  0.00     0.001 A 
ATOM     67  C   UNL A   1      39.745  36.018  38.294  1.00  0.00     0.000 A 
ENDBRANCH  43  62
BRANCH  55  68
ATOM     68  C   UNL A   1      43.593  28.550  34.932  1.00  0.00    -0.014 A 
ATOM     69  C   UNL A   1      43.221  27.555  35.849  1.00  0.00     0.009 A 
ATOM     70  C   UNL A   1      44.955  28.812  34.719  1.00  0.00     0.009 A 
ATOM     71  C   UNL A   1      44.198  26.843  36.546  1.00  0.00     0.001 A 
ATOM     72  C   UNL A   1      45.928  28.086  35.405  1.00  0.00     0.001 A 
ATOM     73  C   UNL A   1      45.549  27.103  36.319  1.00  0.00     0.000 A 
ENDBRANCH  55  68
ENDBRANCH  29  30
ENDBRANCH  22  24
ENDBRANCH  21  22
ENDBRANCH  20  21
ENDBRANCH   1  20
TORSDOF 13
ENDMDL
