MODEL 1
REMARK VINA RESULT:     -10.1      0.000      0.000
REMARK SMILES CC(C)[C@H](NC(=O)CCNC(=O)c1ccoc1)C(=O)OCCOC(=O)c1ccc(-c2c3nc(c(-c4ccccc4)c4ccc([nH]4)c(-c4ccccc4)c4nc(c(-c5ccccc5)c5ccc2[nH]5)C=C4)C=C3)cc1
REMARK SMILES IDX 20 1 18 2 19 3 4 4 2 5 1 6 3 7 5 8 6 9 7 11 8 12 9 13 10 14
REMARK SMILES IDX 11 15 12 17 13 18 14 19 17 20 15 21 16 22 21 23 22 24 23 25
REMARK SMILES IDX 24 26 25 27 26 28 27 29 73 30 28 31 72 32 29 33 30 34 31 35
REMARK SMILES IDX 66 36 32 37 71 38 65 39 67 40 33 41 70 42 64 43 63 44 34 46
REMARK SMILES IDX 56 47 41 48 55 49 42 50 45 51 54 52 68 53 43 54 44 55 53 57
REMARK SMILES IDX 69 58 46 59 35 60 36 61 40 62 37 63 39 64 38 65 57 66 58 67
REMARK SMILES IDX 62 68 59 69 61 70 60 71 47 72 48 73 52 74 49 75 51 76 50 77
REMARK H PARENT 5 10 10 16 67 45 45 56
REMARK Flexibility Score: inf
ROOT
ATOM      1  O   UNL A   1      32.275  30.309  25.666  1.00  0.00    -0.461 OA
ENDROOT
BRANCH   1   2
ATOM      2  C   UNL A   1      33.103  29.222  25.738  1.00  0.00     0.329 C 
ATOM      3  O   UNL A   1      34.204  29.230  26.276  1.00  0.00    -0.250 OA
BRANCH   2   4
ATOM      4  C   UNL A   1      32.465  27.945  25.121  1.00  0.00     0.194 C 
BRANCH   4   5
ATOM      5  C   UNL A   1      32.308  26.737  26.077  1.00  0.00     0.017 C 
ATOM      6  C   UNL A   1      30.954  26.022  25.997  1.00  0.00     0.010 C 
ATOM      7  C   UNL A   1      33.405  25.697  25.795  1.00  0.00     0.010 C 
ENDBRANCH   4   5
BRANCH   4   8
ATOM      8  N   UNL A   1      32.973  27.677  23.755  1.00  0.00    -0.342 N 
ATOM      9  C   UNL A   1      32.457  27.190  22.603  1.00  0.00     0.222 C 
ATOM     10  H   UNL A   1      33.925  27.912  23.664  1.00  0.00     0.164 HD
ATOM     11  O   UNL A   1      33.249  26.832  21.727  1.00  0.00    -0.275 OA
BRANCH   9  12
ATOM     12  C   UNL A   1      30.976  27.107  22.349  1.00  0.00     0.121 C 
BRANCH  12  13
ATOM     13  C   UNL A   1      30.223  28.396  22.655  1.00  0.00     0.126 C 
BRANCH  13  14
ATOM     14  N   UNL A   1      28.805  28.229  22.919  1.00  0.00    -0.351 N 
ATOM     15  C   UNL A   1      27.745  29.094  22.869  1.00  0.00     0.254 C 
ATOM     16  H   UNL A   1      28.556  27.314  23.185  1.00  0.00     0.163 HD
ATOM     17  O   UNL A   1      26.647  28.699  23.255  1.00  0.00    -0.269 OA
BRANCH  15  18
ATOM     18  C   UNL A   1      27.924  30.446  22.404  1.00  0.00     0.077 A 
ATOM     19  C   UNL A   1      28.144  31.651  23.125  1.00  0.00     0.056 A 
ATOM     20  C   UNL A   1      28.047  30.790  21.072  1.00  0.00     0.208 A 
ATOM     21  C   UNL A   1      28.360  32.633  22.188  1.00  0.00     0.195 A 
ATOM     22  O   UNL A   1      28.287  32.118  20.934  1.00  0.00    -0.472 OA
ENDBRANCH  15  18
ENDBRANCH  13  14
ENDBRANCH  12  13
ENDBRANCH   9  12
ENDBRANCH   4   8
ENDBRANCH   2   4
ENDBRANCH   1   2
BRANCH   1  23
ATOM     23  C   UNL A   1      31.781  30.826  26.922  1.00  0.00     0.274 C 
BRANCH  23  24
ATOM     24  C   UNL A   1      31.746  32.358  26.935  1.00  0.00     0.275 C 
BRANCH  24  25
ATOM     25  O   UNL A   1      33.065  32.924  27.020  1.00  0.00    -0.458 OA
BRANCH  25  26
ATOM     26  C   UNL A   1      33.254  33.758  28.068  1.00  0.00     0.338 C 
ATOM     27  O   UNL A   1      32.478  34.588  28.509  1.00  0.00    -0.246 OA
BRANCH  26  28
ATOM     28  C   UNL A   1      34.482  33.380  28.779  1.00  0.00     0.060 A 
ATOM     29  C   UNL A   1      35.688  33.754  28.184  1.00  0.00     0.016 A 
ATOM     30  C   UNL A   1      34.478  32.625  29.950  1.00  0.00     0.016 A 
ATOM     31  C   UNL A   1      36.899  33.374  28.724  1.00  0.00     0.010 A 
ATOM     32  C   UNL A   1      35.702  32.235  30.502  1.00  0.00     0.010 A 
ATOM     33  C   UNL A   1      36.912  32.596  29.879  1.00  0.00    -0.014 A 
BRANCH  33  34
ATOM     34  C   UNL A   1      38.208  32.078  30.349  1.00  0.00     0.031 A 
ATOM     35  C   UNL A   1      38.740  30.814  29.747  1.00  0.00     0.074 A 
ATOM     36  C   UNL A   1      38.926  32.785  31.238  1.00  0.00     0.049 A 
ATOM     37  N   UNL A   1      39.803  30.129  30.072  1.00  0.00    -0.248 NA
ATOM     38  C   UNL A   1      37.970  30.246  28.627  1.00  0.00     0.031 C 
ATOM     39  C   UNL A   1      38.545  34.084  31.795  1.00  0.00     0.029 A 
ATOM     40  N   UNL A   1      40.135  32.511  31.820  1.00  0.00    -0.354 N 
ATOM     41  C   UNL A   1      39.810  29.029  29.224  1.00  0.00     0.074 A 
ATOM     42  C   UNL A   1      38.643  29.132  28.377  1.00  0.00     0.031 C 
ATOM     43  C   UNL A   1      39.504  34.495  32.640  1.00  0.00     0.029 A 
ATOM     44  C   UNL A   1      40.526  33.459  32.731  1.00  0.00     0.049 A 
ATOM     45  H   UNL A   1      40.670  31.712  31.607  1.00  0.00     0.167 HD
ATOM     46  C   UNL A   1      40.711  28.021  29.170  1.00  0.00     0.031 A 
ATOM     47  C   UNL A   1      41.574  33.464  33.575  1.00  0.00     0.031 A 
ATOM     48  C   UNL A   1      41.864  27.942  30.025  1.00  0.00     0.049 A 
ATOM     49  C   UNL A   1      42.506  32.285  33.563  1.00  0.00     0.074 A 
ATOM     50  C   UNL A   1      42.837  26.961  30.075  1.00  0.00     0.029 A 
ATOM     51  N   UNL A   1      42.198  28.890  30.982  1.00  0.00    -0.354 N 
ATOM     52  N   UNL A   1      42.486  31.223  32.792  1.00  0.00    -0.248 NA
ATOM     53  C   UNL A   1      43.600  32.301  34.541  1.00  0.00     0.031 C 
ATOM     54  C   UNL A   1      43.730  27.289  31.101  1.00  0.00     0.029 A 
ATOM     55  C   UNL A   1      43.349  28.506  31.646  1.00  0.00     0.049 A 
ATOM     56  H   UNL A   1      41.690  29.714  31.162  1.00  0.00     0.167 HD
ATOM     57  C   UNL A   1      43.577  30.455  33.175  1.00  0.00     0.074 A 
ATOM     58  C   UNL A   1      44.247  31.184  34.235  1.00  0.00     0.031 C 
ATOM     59  C   UNL A   1      43.991  29.256  32.696  1.00  0.00     0.031 A 
BRANCH  46  60
ATOM     60  C   UNL A   1      40.438  26.904  28.203  1.00  0.00    -0.014 A 
ATOM     61  C   UNL A   1      40.968  26.905  26.903  1.00  0.00     0.009 A 
ATOM     62  C   UNL A   1      39.631  25.828  28.606  1.00  0.00     0.009 A 
ATOM     63  C   UNL A   1      40.664  25.870  26.016  1.00  0.00     0.001 A 
ATOM     64  C   UNL A   1      39.354  24.780  27.726  1.00  0.00     0.001 A 
ATOM     65  C   UNL A   1      39.862  24.807  26.429  1.00  0.00     0.000 A 
ENDBRANCH  46  60
BRANCH  47  66
ATOM     66  C   UNL A   1      41.762  34.589  34.527  1.00  0.00    -0.014 A 
ATOM     67  C   UNL A   1      42.528  35.709  34.172  1.00  0.00     0.009 A 
ATOM     68  C   UNL A   1      41.175  34.546  35.802  1.00  0.00     0.009 A 
ATOM     69  C   UNL A   1      42.719  36.752  35.082  1.00  0.00     0.001 A 
ATOM     70  C   UNL A   1      41.342  35.604  36.699  1.00  0.00     0.001 A 
ATOM     71  C   UNL A   1      42.121  36.701  36.342  1.00  0.00     0.000 A 
ENDBRANCH  47  66
BRANCH  59  72
ATOM     72  C   UNL A   1      45.247  28.686  33.289  1.00  0.00    -0.014 A 
ATOM     73  C   UNL A   1      46.511  29.004  32.770  1.00  0.00     0.009 A 
ATOM     74  C   UNL A   1      45.160  27.847  34.411  1.00  0.00     0.009 A 
ATOM     75  C   UNL A   1      47.663  28.464  33.343  1.00  0.00     0.001 A 
ATOM     76  C   UNL A   1      46.315  27.334  35.001  1.00  0.00     0.001 A 
ATOM     77  C   UNL A   1      47.564  27.634  34.461  1.00  0.00     0.000 A 
ENDBRANCH  59  72
ENDBRANCH  33  34
ENDBRANCH  26  28
ENDBRANCH  25  26
ENDBRANCH  24  25
ENDBRANCH  23  24
ENDBRANCH   1  23
TORSDOF 17
ENDMDL
MODEL 2
REMARK VINA RESULT:     -10.0      4.142      8.751
REMARK SMILES CC(C)[C@H](NC(=O)CCNC(=O)c1ccoc1)C(=O)OCCOC(=O)c1ccc(-c2c3nc(c(-c4ccccc4)c4ccc([nH]4)c(-c4ccccc4)c4nc(c(-c5ccccc5)c5ccc2[nH]5)C=C4)C=C3)cc1
REMARK SMILES IDX 20 1 18 2 19 3 4 4 2 5 1 6 3 7 5 8 6 9 7 11 8 12 9 13 10 14
REMARK SMILES IDX 11 15 12 17 13 18 14 19 17 20 15 21 16 22 21 23 22 24 23 25
REMARK SMILES IDX 24 26 25 27 26 28 27 29 73 30 28 31 72 32 29 33 30 34 31 35
REMARK SMILES IDX 66 36 32 37 71 38 65 39 67 40 33 41 70 42 64 43 63 44 34 46
REMARK SMILES IDX 56 47 41 48 55 49 42 50 45 51 54 52 68 53 43 54 44 55 53 57
REMARK SMILES IDX 69 58 46 59 35 60 36 61 40 62 37 63 39 64 38 65 57 66 58 67
REMARK SMILES IDX 62 68 59 69 61 70 60 71 47 72 48 73 52 74 49 75 51 76 50 77
REMARK H PARENT 5 10 10 16 67 45 45 56
REMARK Flexibility Score: inf
ROOT
ATOM      1  O   UNL A   1      36.866  21.006  24.667  1.00  0.00    -0.461 OA
ENDROOT
BRANCH   1   2
ATOM      2  C   UNL A   1      36.362  22.124  24.061  1.00  0.00     0.329 C 
ATOM      3  O   UNL A   1      36.919  22.723  23.148  1.00  0.00    -0.250 OA
BRANCH   2   4
ATOM      4  C   UNL A   1      34.962  22.521  24.611  1.00  0.00     0.194 C 
BRANCH   4   5
ATOM      5  C   UNL A   1      34.960  23.484  25.824  1.00  0.00     0.017 C 
ATOM      6  C   UNL A   1      34.507  22.855  27.147  1.00  0.00     0.010 C 
ATOM      7  C   UNL A   1      36.367  24.065  26.038  1.00  0.00     0.010 C 
ENDBRANCH   4   5
BRANCH   4   8
ATOM      8  N   UNL A   1      34.036  21.366  24.651  1.00  0.00    -0.342 N 
ATOM      9  C   UNL A   1      32.767  21.121  24.250  1.00  0.00     0.222 C 
ATOM     10  H   UNL A   1      34.447  20.578  25.077  1.00  0.00     0.164 HD
ATOM     11  O   UNL A   1      32.205  20.120  24.704  1.00  0.00    -0.275 OA
BRANCH   9  12
ATOM     12  C   UNL A   1      32.048  21.996  23.258  1.00  0.00     0.121 C 
BRANCH  12  13
ATOM     13  C   UNL A   1      31.213  23.099  23.899  1.00  0.00     0.126 C 
BRANCH  13  14
ATOM     14  N   UNL A   1      31.023  22.969  25.333  1.00  0.00    -0.351 N 
ATOM     15  C   UNL A   1      31.076  23.873  26.360  1.00  0.00     0.254 C 
ATOM     16  H   UNL A   1      30.816  22.051  25.623  1.00  0.00     0.163 HD
ATOM     17  O   UNL A   1      30.979  23.456  27.512  1.00  0.00    -0.269 OA
BRANCH  15  18
ATOM     18  C   UNL A   1      31.275  25.275  26.093  1.00  0.00     0.077 A 
ATOM     19  C   UNL A   1      32.463  26.055  26.076  1.00  0.00     0.056 A 
ATOM     20  C   UNL A   1      30.276  26.120  25.651  1.00  0.00     0.208 A 
ATOM     21  C   UNL A   1      32.099  27.310  25.651  1.00  0.00     0.195 A 
ATOM     22  O   UNL A   1      30.766  27.362  25.405  1.00  0.00    -0.472 OA
ENDBRANCH  15  18
ENDBRANCH  13  14
ENDBRANCH  12  13
ENDBRANCH   9  12
ENDBRANCH   4   8
ENDBRANCH   2   4
ENDBRANCH   1   2
BRANCH   1  23
ATOM     23  C   UNL A   1      38.152  21.146  25.311  1.00  0.00     0.274 C 
BRANCH  23  24
ATOM     24  C   UNL A   1      38.964  19.849  25.254  1.00  0.00     0.275 C 
BRANCH  24  25
ATOM     25  O   UNL A   1      39.803  19.690  26.412  1.00  0.00    -0.458 OA
BRANCH  25  26
ATOM     26  C   UNL A   1      41.131  19.723  26.156  1.00  0.00     0.338 C 
ATOM     27  O   UNL A   1      41.791  18.905  25.539  1.00  0.00    -0.246 OA
BRANCH  26  28
ATOM     28  C   UNL A   1      41.671  21.032  26.546  1.00  0.00     0.060 A 
ATOM     29  C   UNL A   1      41.576  21.368  27.897  1.00  0.00     0.016 A 
ATOM     30  C   UNL A   1      42.192  21.941  25.628  1.00  0.00     0.016 A 
ATOM     31  C   UNL A   1      41.975  22.607  28.354  1.00  0.00     0.010 A 
ATOM     32  C   UNL A   1      42.598  23.198  26.084  1.00  0.00     0.010 A 
ATOM     33  C   UNL A   1      42.473  23.536  27.445  1.00  0.00    -0.014 A 
BRANCH  33  34
ATOM     34  C   UNL A   1      42.749  24.900  27.931  1.00  0.00     0.031 A 
ATOM     35  C   UNL A   1      44.168  25.294  28.203  1.00  0.00     0.074 A 
ATOM     36  C   UNL A   1      41.745  25.786  28.037  1.00  0.00     0.049 A 
ATOM     37  N   UNL A   1      44.632  26.399  28.722  1.00  0.00    -0.248 NA
ATOM     38  C   UNL A   1      45.204  24.311  27.842  1.00  0.00     0.031 C 
ATOM     39  C   UNL A   1      40.347  25.530  27.684  1.00  0.00     0.029 A 
ATOM     40  N   UNL A   1      41.751  27.087  28.464  1.00  0.00    -0.354 N 
ATOM     41  C   UNL A   1      46.009  26.230  28.785  1.00  0.00     0.074 A 
ATOM     42  C   UNL A   1      46.305  24.915  28.262  1.00  0.00     0.031 C 
ATOM     43  C   UNL A   1      39.629  26.643  27.910  1.00  0.00     0.029 A 
ATOM     44  C   UNL A   1      40.504  27.659  28.483  1.00  0.00     0.049 A 
ATOM     45  H   UNL A   1      42.569  27.565  28.731  1.00  0.00     0.167 HD
ATOM     46  C   UNL A   1      46.937  27.097  29.251  1.00  0.00     0.031 A 
ATOM     47  C   UNL A   1      40.112  28.856  28.954  1.00  0.00     0.031 A 
ATOM     48  C   UNL A   1      46.616  28.400  29.767  1.00  0.00     0.049 A 
ATOM     49  C   UNL A   1      41.149  29.763  29.555  1.00  0.00     0.074 A 
ATOM     50  C   UNL A   1      47.468  29.360  30.281  1.00  0.00     0.029 A 
ATOM     51  N   UNL A   1      45.333  28.925  29.830  1.00  0.00    -0.354 N 
ATOM     52  N   UNL A   1      42.445  29.582  29.657  1.00  0.00    -0.248 NA
ATOM     53  C   UNL A   1      40.670  31.033  30.112  1.00  0.00     0.031 C 
ATOM     54  C   UNL A   1      46.692  30.444  30.706  1.00  0.00     0.029 A 
ATOM     55  C   UNL A   1      45.365  30.186  30.397  1.00  0.00     0.049 A 
ATOM     56  H   UNL A   1      44.519  28.467  29.517  1.00  0.00     0.167 HD
ATOM     57  C   UNL A   1      42.940  30.726  30.267  1.00  0.00     0.074 A 
ATOM     58  C   UNL A   1      41.806  31.600  30.495  1.00  0.00     0.031 C 
ATOM     59  C   UNL A   1      44.217  31.030  30.610  1.00  0.00     0.031 A 
BRANCH  46  60
ATOM     60  C   UNL A   1      48.365  26.630  29.279  1.00  0.00    -0.014 A 
ATOM     61  C   UNL A   1      48.894  25.934  30.377  1.00  0.00     0.009 A 
ATOM     62  C   UNL A   1      49.197  26.897  28.180  1.00  0.00     0.009 A 
ATOM     63  C   UNL A   1      50.236  25.548  30.388  1.00  0.00     0.001 A 
ATOM     64  C   UNL A   1      50.530  26.483  28.182  1.00  0.00     0.001 A 
ATOM     65  C   UNL A   1      51.052  25.818  29.289  1.00  0.00     0.000 A 
ENDBRANCH  46  60
BRANCH  47  66
ATOM     66  C   UNL A   1      38.676  29.238  28.922  1.00  0.00    -0.014 A 
ATOM     67  C   UNL A   1      38.109  29.807  27.773  1.00  0.00     0.009 A 
ATOM     68  C   UNL A   1      37.862  29.034  30.049  1.00  0.00     0.009 A 
ATOM     69  C   UNL A   1      36.764  30.185  27.760  1.00  0.00     0.001 A 
ATOM     70  C   UNL A   1      36.510  29.383  30.023  1.00  0.00     0.001 A 
ATOM     71  C   UNL A   1      35.965  29.967  28.882  1.00  0.00     0.000 A 
ENDBRANCH  47  66
BRANCH  59  72
ATOM     72  C   UNL A   1      44.451  32.379  31.227  1.00  0.00    -0.014 A 
ATOM     73  C   UNL A   1      44.459  32.556  32.618  1.00  0.00     0.009 A 
ATOM     74  C   UNL A   1      44.705  33.482  30.396  1.00  0.00     0.009 A 
ATOM     75  C   UNL A   1      44.683  33.821  33.166  1.00  0.00     0.001 A 
ATOM     76  C   UNL A   1      44.960  34.738  30.946  1.00  0.00     0.001 A 
ATOM     77  C   UNL A   1      44.938  34.908  32.329  1.00  0.00     0.000 A 
ENDBRANCH  59  72
ENDBRANCH  33  34
ENDBRANCH  26  28
ENDBRANCH  25  26
ENDBRANCH  24  25
ENDBRANCH  23  24
ENDBRANCH   1  23
TORSDOF 17
ENDMDL
MODEL 3
REMARK VINA RESULT:     -10.0      4.145      8.732
REMARK SMILES CC(C)[C@H](NC(=O)CCNC(=O)c1ccoc1)C(=O)OCCOC(=O)c1ccc(-c2c3nc(c(-c4ccccc4)c4ccc([nH]4)c(-c4ccccc4)c4nc(c(-c5ccccc5)c5ccc2[nH]5)C=C4)C=C3)cc1
REMARK SMILES IDX 20 1 18 2 19 3 4 4 2 5 1 6 3 7 5 8 6 9 7 11 8 12 9 13 10 14
REMARK SMILES IDX 11 15 12 17 13 18 14 19 17 20 15 21 16 22 21 23 22 24 23 25
REMARK SMILES IDX 24 26 25 27 26 28 27 29 73 30 28 31 72 32 29 33 30 34 31 35
REMARK SMILES IDX 66 36 32 37 71 38 65 39 67 40 33 41 70 42 64 43 63 44 34 46
REMARK SMILES IDX 56 47 41 48 55 49 42 50 45 51 54 52 68 53 43 54 44 55 53 57
REMARK SMILES IDX 69 58 46 59 35 60 36 61 40 62 37 63 39 64 38 65 57 66 58 67
REMARK SMILES IDX 62 68 59 69 61 70 60 71 47 72 48 73 52 74 49 75 51 76 50 77
REMARK H PARENT 5 10 10 16 67 45 45 56
REMARK Flexibility Score: inf
ROOT
ATOM      1  O   UNL A   1      36.847  20.867  24.891  1.00  0.00    -0.461 OA
ENDROOT
BRANCH   1   2
ATOM      2  C   UNL A   1      36.334  21.946  24.226  1.00  0.00     0.329 C 
ATOM      3  O   UNL A   1      36.858  22.465  23.247  1.00  0.00    -0.250 OA
BRANCH   2   4
ATOM      4  C   UNL A   1      34.967  22.409  24.806  1.00  0.00     0.194 C 
BRANCH   4   5
ATOM      5  C   UNL A   1      35.036  23.411  25.985  1.00  0.00     0.017 C 
ATOM      6  C   UNL A   1      34.684  24.859  25.624  1.00  0.00     0.010 C 
ATOM      7  C   UNL A   1      34.089  22.964  27.111  1.00  0.00     0.010 C 
ENDBRANCH   4   5
BRANCH   4   8
ATOM      8  N   UNL A   1      34.004  21.288  24.915  1.00  0.00    -0.342 N 
ATOM      9  C   UNL A   1      32.741  21.045  24.494  1.00  0.00     0.222 C 
ATOM     10  H   UNL A   1      34.377  20.530  25.421  1.00  0.00     0.164 HD
ATOM     11  O   UNL A   1      32.134  20.104  25.014  1.00  0.00    -0.275 OA
BRANCH   9  12
ATOM     12  C   UNL A   1      32.080  21.850  23.408  1.00  0.00     0.121 C 
BRANCH  12  13
ATOM     13  C   UNL A   1      31.465  23.157  23.894  1.00  0.00     0.126 C 
BRANCH  13  14
ATOM     14  N   UNL A   1      30.866  23.097  25.216  1.00  0.00    -0.351 N 
ATOM     15  C   UNL A   1      30.502  24.067  26.112  1.00  0.00     0.254 C 
ATOM     16  H   UNL A   1      30.687  22.181  25.528  1.00  0.00     0.163 HD
ATOM     17  O   UNL A   1      30.110  23.718  27.223  1.00  0.00    -0.269 OA
BRANCH  15  18
ATOM     18  C   UNL A   1      30.611  25.462  25.768  1.00  0.00     0.077 A 
ATOM     19  C   UNL A   1      31.561  26.442  26.164  1.00  0.00     0.056 A 
ATOM     20  C   UNL A   1      29.818  26.082  24.822  1.00  0.00     0.208 A 
ATOM     21  C   UNL A   1      31.265  27.581  25.454  1.00  0.00     0.195 A 
ATOM     22  O   UNL A   1      30.195  27.373  24.646  1.00  0.00    -0.472 OA
ENDBRANCH  15  18
ENDBRANCH  13  14
ENDBRANCH  12  13
ENDBRANCH   9  12
ENDBRANCH   4   8
ENDBRANCH   2   4
ENDBRANCH   1   2
BRANCH   1  23
ATOM     23  C   UNL A   1      38.214  20.982  25.348  1.00  0.00     0.274 C 
BRANCH  23  24
ATOM     24  C   UNL A   1      39.017  19.707  25.075  1.00  0.00     0.275 C 
BRANCH  24  25
ATOM     25  O   UNL A   1      39.909  19.393  26.157  1.00  0.00    -0.458 OA
BRANCH  25  26
ATOM     26  C   UNL A   1      41.187  19.799  25.973  1.00  0.00     0.338 C 
ATOM     27  O   UNL A   1      42.028  19.303  25.244  1.00  0.00    -0.246 OA
BRANCH  26  28
ATOM     28  C   UNL A   1      41.385  21.100  26.626  1.00  0.00     0.060 A 
ATOM     29  C   UNL A   1      41.792  22.153  25.807  1.00  0.00     0.016 A 
ATOM     30  C   UNL A   1      41.252  21.285  28.000  1.00  0.00     0.016 A 
ATOM     31  C   UNL A   1      42.088  23.393  26.333  1.00  0.00     0.010 A 
ATOM     32  C   UNL A   1      41.552  22.539  28.541  1.00  0.00     0.010 A 
ATOM     33  C   UNL A   1      41.987  23.588  27.708  1.00  0.00    -0.014 A 
BRANCH  33  34
ATOM     34  C   UNL A   1      42.453  24.871  28.262  1.00  0.00     0.031 A 
ATOM     35  C   UNL A   1      41.449  25.953  28.518  1.00  0.00     0.074 A 
ATOM     36  C   UNL A   1      43.744  25.019  28.607  1.00  0.00     0.049 A 
ATOM     37  N   UNL A   1      41.645  27.184  28.908  1.00  0.00    -0.248 NA
ATOM     38  C   UNL A   1      40.035  25.600  28.306  1.00  0.00     0.031 C 
ATOM     39  C   UNL A   1      44.773  23.983  28.503  1.00  0.00     0.029 A 
ATOM     40  N   UNL A   1      44.405  26.100  29.125  1.00  0.00    -0.354 N 
ATOM     41  C   UNL A   1      40.383  27.764  28.951  1.00  0.00     0.074 A 
ATOM     42  C   UNL A   1      39.432  26.756  28.541  1.00  0.00     0.031 C 
ATOM     43  C   UNL A   1      45.939  24.481  28.946  1.00  0.00     0.029 A 
ATOM     44  C   UNL A   1      45.748  25.883  29.298  1.00  0.00     0.049 A 
ATOM     45  H   UNL A   1      43.960  26.949  29.351  1.00  0.00     0.167 HD
ATOM     46  C   UNL A   1      40.058  29.031  29.296  1.00  0.00     0.031 A 
ATOM     47  C   UNL A   1      46.721  26.740  29.658  1.00  0.00     0.031 A 
ATOM     48  C   UNL A   1      41.025  30.016  29.701  1.00  0.00     0.049 A 
ATOM     49  C   UNL A   1      46.346  28.168  29.942  1.00  0.00     0.074 A 
ATOM     50  C   UNL A   1      40.817  31.336  30.057  1.00  0.00     0.029 A 
ATOM     51  N   UNL A   1      42.388  29.780  29.805  1.00  0.00    -0.354 N 
ATOM     52  N   UNL A   1      45.158  28.727  29.938  1.00  0.00    -0.248 NA
ATOM     53  C   UNL A   1      47.444  29.084  30.272  1.00  0.00     0.031 C 
ATOM     54  C   UNL A   1      42.063  31.913  30.323  1.00  0.00     0.029 A 
ATOM     55  C   UNL A   1      43.039  30.936  30.196  1.00  0.00     0.049 A 
ATOM     56  H   UNL A   1      42.828  28.917  29.626  1.00  0.00     0.167 HD
ATOM     57  C   UNL A   1      45.363  30.054  30.288  1.00  0.00     0.074 A 
ATOM     58  C   UNL A   1      46.788  30.210  30.515  1.00  0.00     0.031 C 
ATOM     59  C   UNL A   1      44.458  31.057  30.413  1.00  0.00     0.031 A 
BRANCH  46  60
ATOM     60  C   UNL A   1      38.613  29.427  29.182  1.00  0.00    -0.014 A 
ATOM     61  C   UNL A   1      38.085  29.965  27.998  1.00  0.00     0.009 A 
ATOM     62  C   UNL A   1      37.765  29.259  30.288  1.00  0.00     0.009 A 
ATOM     63  C   UNL A   1      36.747  30.359  27.937  1.00  0.00     0.001 A 
ATOM     64  C   UNL A   1      36.420  29.626  30.214  1.00  0.00     0.001 A 
ATOM     65  C   UNL A   1      35.915  30.186  29.043  1.00  0.00     0.000 A 
ENDBRANCH  46  60
BRANCH  47  66
ATOM     66  C   UNL A   1      48.134  26.285  29.719  1.00  0.00    -0.014 A 
ATOM     67  C   UNL A   1      48.960  26.355  28.587  1.00  0.00     0.009 A 
ATOM     68  C   UNL A   1      48.665  25.775  30.915  1.00  0.00     0.009 A 
ATOM     69  C   UNL A   1      50.280  25.903  28.647  1.00  0.00     0.001 A 
ATOM     70  C   UNL A   1      49.995  25.352  30.980  1.00  0.00     0.001 A 
ATOM     71  C   UNL A   1      50.798  25.407  29.844  1.00  0.00     0.000 A 
ENDBRANCH  47  66
BRANCH  59  72
ATOM     72  C   UNL A   1      44.983  32.394  30.853  1.00  0.00    -0.014 A 
ATOM     73  C   UNL A   1      45.104  32.721  32.211  1.00  0.00     0.009 A 
ATOM     74  C   UNL A   1      45.400  33.322  29.886  1.00  0.00     0.009 A 
ATOM     75  C   UNL A   1      45.599  33.970  32.593  1.00  0.00     0.001 A 
ATOM     76  C   UNL A   1      45.924  34.556  30.270  1.00  0.00     0.001 A 
ATOM     77  C   UNL A   1      46.013  34.883  31.622  1.00  0.00     0.000 A 
ENDBRANCH  59  72
ENDBRANCH  33  34
ENDBRANCH  26  28
ENDBRANCH  25  26
ENDBRANCH  24  25
ENDBRANCH  23  24
ENDBRANCH   1  23
TORSDOF 17
ENDMDL
