MODEL 1
REMARK VINA RESULT:     -11.9      0.000      0.000
REMARK SMILES O=C1NC(=S)S/C1=C\c1ccc(OCc2cn(-c3ccc(C(=O)OCCOC(=O)c4ccc(-c5c6nc(c(-c7ccccc7)c7ccc([nH]7)c(-c7ccccc7)c7nc(c(-c8ccccc8)c8ccc5[nH]8)C=C7)C=C6)cc4)cc3)nn2)cc1
REMARK SMILES IDX 24 1 22 2 23 3 21 4 18 5 19 6 79 7 20 8 78 9 17 10 15 11
REMARK SMILES IDX 16 12 81 13 80 14 14 15 13 16 12 17 9 18 10 19 83 20 11 21
REMARK SMILES IDX 82 22 8 23 1 24 2 25 3 26 7 27 4 28 6 30 5 31 25 32 26 33
REMARK SMILES IDX 27 34 28 35 29 36 30 37 31 38 77 39 32 40 76 41 33 42 34 43
REMARK SMILES IDX 35 44 70 45 36 46 75 47 69 48 71 49 37 50 74 51 68 52 67 53
REMARK SMILES IDX 38 55 60 56 45 57 59 58 46 59 49 60 58 61 72 62 47 63 48 64
REMARK SMILES IDX 57 66 73 67 50 68 39 69 40 70 44 71 41 72 43 73 42 74 61 75
REMARK SMILES IDX 62 76 66 77 63 78 65 79 64 80 51 81 52 82 56 83 53 84 55 85
REMARK SMILES IDX 54 86
REMARK H PARENT 3 29 71 54 49 65
REMARK Flexibility Score: inf
ROOT
ATOM      1  O   UNL A   1      47.498  25.911  26.020  1.00  0.00    -0.458 OA
ENDROOT
BRANCH   1   2
ATOM      2  C   UNL A   1      47.293  25.247  24.856  1.00  0.00     0.338 C 
ATOM      3  O   UNL A   1      48.002  25.292  23.859  1.00  0.00    -0.246 OA
BRANCH   2   4
ATOM      4  C   UNL A   1      46.125  24.347  24.975  1.00  0.00     0.060 A 
ATOM      5  C   UNL A   1      43.873  22.746  25.355  1.00  0.00     0.066 A 
ATOM      6  C   UNL A   1      43.725  24.129  25.177  1.00  0.00     0.029 A 
ATOM      7  C   UNL A   1      45.140  22.155  25.267  1.00  0.00     0.029 A 
ATOM      8  C   UNL A   1      44.853  24.929  25.014  1.00  0.00     0.018 A 
ATOM      9  C   UNL A   1      46.264  22.957  25.057  1.00  0.00     0.018 A 
BRANCH   5  10
ATOM     10  N   UNL A   1      42.737  21.980  25.703  1.00  0.00    -0.220 N 
ATOM     11  C   UNL A   1      40.704  21.279  26.081  1.00  0.00     0.120 A 
ATOM     12  C   UNL A   1      41.474  22.422  26.033  1.00  0.00     0.144 A 
ATOM     13  N   UNL A   1      41.508  20.202  25.825  1.00  0.00    -0.131 NA
ATOM     14  N   UNL A   1      42.735  20.634  25.599  1.00  0.00    -0.062 NA
BRANCH  11  15
ATOM     15  C   UNL A   1      39.230  21.102  26.241  1.00  0.00     0.289 C 
BRANCH  15  16
ATOM     16  O   UNL A   1      38.463  21.210  25.031  1.00  0.00    -0.487 OA
BRANCH  16  17
ATOM     17  C   UNL A   1      37.524  22.201  24.950  1.00  0.00     0.119 A 
ATOM     18  C   UNL A   1      35.502  24.136  25.168  1.00  0.00    -0.024 A 
ATOM     19  C   UNL A   1      36.501  24.054  26.140  1.00  0.00     0.012 A 
ATOM     20  C   UNL A   1      35.575  23.312  24.043  1.00  0.00     0.012 A 
ATOM     21  C   UNL A   1      37.505  23.087  26.030  1.00  0.00     0.047 A 
ATOM     22  C   UNL A   1      36.597  22.367  23.924  1.00  0.00     0.047 A 
BRANCH  18  23
ATOM     23  C   UNL A   1      34.374  25.058  25.324  1.00  0.00     0.029 C 
ATOM     24  O   UNL A   1      32.087  26.850  25.513  1.00  0.00    -0.268 OA
ATOM     25  C   UNL A   1      32.032  25.672  25.829  1.00  0.00     0.263 C 
ATOM     26  N   UNL A   1      30.908  25.040  26.283  1.00  0.00    -0.307 N 
ATOM     27  C   UNL A   1      33.159  24.706  25.766  1.00  0.00     0.080 C 
ATOM     28  C   UNL A   1      30.998  23.718  26.597  1.00  0.00     0.145 C 
ATOM     29  H   UNL A   1      30.058  25.527  26.380  1.00  0.00     0.171 HD
ATOM     30  S   UNL A   1      32.627  23.155  26.313  1.00  0.00    -0.055 SA
ATOM     31  S   UNL A   1      29.725  22.823  27.161  1.00  0.00    -0.052 S 
ENDBRANCH  18  23
ENDBRANCH  16  17
ENDBRANCH  15  16
ENDBRANCH  11  15
ENDBRANCH   5  10
ENDBRANCH   2   4
ENDBRANCH   1   2
BRANCH   1  32
ATOM     32  C   UNL A   1      48.261  25.196  27.003  1.00  0.00     0.275 C 
BRANCH  32  33
ATOM     33  C   UNL A   1      47.493  25.077  28.311  1.00  0.00     0.275 C 
BRANCH  33  34
ATOM     34  O   UNL A   1      46.252  25.783  28.280  1.00  0.00    -0.458 OA
BRANCH  34  35
ATOM     35  C   UNL A   1      45.196  25.091  28.765  1.00  0.00     0.338 C 
ATOM     36  O   UNL A   1      45.034  23.883  28.765  1.00  0.00    -0.246 OA
BRANCH  35  37
ATOM     37  C   UNL A   1      44.109  26.031  29.059  1.00  0.00     0.060 A 
ATOM     38  C   UNL A   1      43.228  26.368  28.028  1.00  0.00     0.016 A 
ATOM     39  C   UNL A   1      44.150  26.755  30.259  1.00  0.00     0.016 A 
ATOM     40  C   UNL A   1      42.456  27.508  28.163  1.00  0.00     0.010 A 
ATOM     41  C   UNL A   1      43.402  27.902  30.381  1.00  0.00     0.010 A 
ATOM     42  C   UNL A   1      42.597  28.293  29.313  1.00  0.00    -0.014 A 
BRANCH  42  43
ATOM     43  C   UNL A   1      41.741  29.452  29.475  1.00  0.00     0.031 A 
ATOM     44  C   UNL A   1      42.473  30.731  29.317  1.00  0.00     0.074 A 
ATOM     45  C   UNL A   1      40.401  29.375  29.575  1.00  0.00     0.049 A 
ATOM     46  N   UNL A   1      42.660  31.645  30.208  1.00  0.00    -0.248 NA
ATOM     47  C   UNL A   1      43.215  30.949  28.062  1.00  0.00     0.031 C 
ATOM     48  C   UNL A   1      39.558  28.186  29.428  1.00  0.00     0.029 A 
ATOM     49  N   UNL A   1      39.492  30.382  29.703  1.00  0.00    -0.354 N 
ATOM     50  C   UNL A   1      43.379  32.649  29.568  1.00  0.00     0.074 A 
ATOM     51  C   UNL A   1      43.850  32.089  28.328  1.00  0.00     0.031 C 
ATOM     52  C   UNL A   1      38.275  28.572  29.239  1.00  0.00     0.029 A 
ATOM     53  C   UNL A   1      38.192  30.018  29.377  1.00  0.00     0.049 A 
ATOM     54  H   UNL A   1      39.736  31.288  30.001  1.00  0.00     0.167 HD
ATOM     55  C   UNL A   1      43.283  33.944  29.970  1.00  0.00     0.031 A 
ATOM     56  C   UNL A   1      37.145  30.855  29.168  1.00  0.00     0.031 A 
ATOM     57  C   UNL A   1      42.739  34.046  31.301  1.00  0.00     0.049 A 
ATOM     58  C   UNL A   1      37.493  32.170  29.751  1.00  0.00     0.074 A 
ATOM     59  C   UNL A   1      43.102  33.568  32.544  1.00  0.00     0.029 A 
ATOM     60  N   UNL A   1      41.418  34.411  31.402  1.00  0.00    -0.354 N 
ATOM     61  N   UNL A   1      37.575  32.393  31.030  1.00  0.00    -0.248 NA
ATOM     62  C   UNL A   1      38.160  33.145  28.904  1.00  0.00     0.031 C 
ATOM     63  C   UNL A   1      41.872  33.250  33.191  1.00  0.00     0.029 A 
ATOM     64  C   UNL A   1      40.826  33.611  32.341  1.00  0.00     0.049 A 
ATOM     65  H   UNL A   1      40.974  35.124  30.887  1.00  0.00     0.167 HD
ATOM     66  C   UNL A   1      38.666  33.239  31.165  1.00  0.00     0.074 A 
ATOM     67  C   UNL A   1      38.907  33.764  29.823  1.00  0.00     0.031 C 
ATOM     68  C   UNL A   1      39.441  33.203  32.289  1.00  0.00     0.031 A 
BRANCH  55  69
ATOM     69  C   UNL A   1      43.223  35.095  28.993  1.00  0.00    -0.014 A 
ATOM     70  C   UNL A   1      41.961  35.524  28.544  1.00  0.00     0.009 A 
ATOM     71  C   UNL A   1      44.339  35.560  28.269  1.00  0.00     0.009 A 
ATOM     72  C   UNL A   1      41.823  36.286  27.378  1.00  0.00     0.001 A 
ATOM     73  C   UNL A   1      44.207  36.359  27.131  1.00  0.00     0.001 A 
ATOM     74  C   UNL A   1      42.945  36.692  26.666  1.00  0.00     0.000 A 
ENDBRANCH  55  69
BRANCH  56  75
ATOM     75  C   UNL A   1      35.965  30.695  28.291  1.00  0.00    -0.014 A 
ATOM     76  C   UNL A   1      35.670  29.448  27.712  1.00  0.00     0.009 A 
ATOM     77  C   UNL A   1      34.970  31.688  28.243  1.00  0.00     0.009 A 
ATOM     78  C   UNL A   1      34.410  29.191  27.154  1.00  0.00     0.001 A 
ATOM     79  C   UNL A   1      33.715  31.433  27.680  1.00  0.00     0.001 A 
ATOM     80  C   UNL A   1      33.429  30.178  27.152  1.00  0.00     0.000 A 
ENDBRANCH  56  75
BRANCH  68  81
ATOM     81  C   UNL A   1      38.910  32.467  33.493  1.00  0.00    -0.014 A 
ATOM     82  C   UNL A   1      39.081  31.086  33.701  1.00  0.00     0.009 A 
ATOM     83  C   UNL A   1      38.325  33.226  34.517  1.00  0.00     0.009 A 
ATOM     84  C   UNL A   1      38.640  30.482  34.884  1.00  0.00     0.001 A 
ATOM     85  C   UNL A   1      37.910  32.629  35.708  1.00  0.00     0.001 A 
ATOM     86  C   UNL A   1      38.060  31.255  35.887  1.00  0.00     0.000 A 
ENDBRANCH  68  81
ENDBRANCH  42  43
ENDBRANCH  35  37
ENDBRANCH  34  35
ENDBRANCH  33  34
ENDBRANCH  32  33
ENDBRANCH   1  32
TORSDOF 16
ENDMDL
MODEL 2
REMARK VINA RESULT:     -11.5      3.704      6.250
REMARK SMILES O=C1NC(=S)S/C1=C\c1ccc(OCc2cn(-c3ccc(C(=O)OCCOC(=O)c4ccc(-c5c6nc(c(-c7ccccc7)c7ccc([nH]7)c(-c7ccccc7)c7nc(c(-c8ccccc8)c8ccc5[nH]8)C=C7)C=C6)cc4)cc3)nn2)cc1
REMARK SMILES IDX 24 1 22 2 23 3 21 4 18 5 19 6 79 7 20 8 78 9 17 10 15 11
REMARK SMILES IDX 16 12 81 13 80 14 14 15 13 16 12 17 9 18 10 19 83 20 11 21
REMARK SMILES IDX 82 22 8 23 1 24 2 25 3 26 7 27 4 28 6 30 5 31 25 32 26 33
REMARK SMILES IDX 27 34 28 35 29 36 30 37 31 38 77 39 32 40 76 41 33 42 34 43
REMARK SMILES IDX 35 44 70 45 36 46 75 47 69 48 71 49 37 50 74 51 68 52 67 53
REMARK SMILES IDX 38 55 60 56 45 57 59 58 46 59 49 60 58 61 72 62 47 63 48 64
REMARK SMILES IDX 57 66 73 67 50 68 39 69 40 70 44 71 41 72 43 73 42 74 61 75
REMARK SMILES IDX 62 76 66 77 63 78 65 79 64 80 51 81 52 82 56 83 53 84 55 85
REMARK SMILES IDX 54 86
REMARK H PARENT 3 29 71 54 49 65
REMARK Flexibility Score: inf
ROOT
ATOM      1  O   UNL A   1      43.276  19.693  26.459  1.00  0.00    -0.458 OA
ENDROOT
BRANCH   1   2
ATOM      2  C   UNL A   1      42.115  19.390  27.088  1.00  0.00     0.338 C 
ATOM      3  O   UNL A   1      41.971  18.592  28.004  1.00  0.00    -0.246 OA
BRANCH   2   4
ATOM      4  C   UNL A   1      41.018  20.246  26.584  1.00  0.00     0.060 A 
ATOM      5  C   UNL A   1      38.933  21.929  25.810  1.00  0.00     0.066 A 
ATOM      6  C   UNL A   1      40.107  22.474  26.351  1.00  0.00     0.029 A 
ATOM      7  C   UNL A   1      38.834  20.549  25.586  1.00  0.00     0.029 A 
ATOM      8  C   UNL A   1      41.135  21.630  26.761  1.00  0.00     0.018 A 
ATOM      9  C   UNL A   1      39.887  19.711  25.957  1.00  0.00     0.018 A 
BRANCH   5  10
ATOM     10  N   UNL A   1      37.833  22.784  25.574  1.00  0.00    -0.220 N 
ATOM     11  C   UNL A   1      35.956  23.660  24.881  1.00  0.00     0.120 A 
ATOM     12  C   UNL A   1      36.938  22.758  24.526  1.00  0.00     0.144 A 
ATOM     13  N   UNL A   1      36.295  24.220  26.084  1.00  0.00    -0.131 NA
ATOM     14  N   UNL A   1      37.430  23.686  26.494  1.00  0.00    -0.062 NA
BRANCH  11  15
ATOM     15  C   UNL A   1      34.646  23.977  24.240  1.00  0.00     0.289 C 
BRANCH  15  16
ATOM     16  O   UNL A   1      34.409  25.370  23.983  1.00  0.00    -0.487 OA
BRANCH  16  17
ATOM     17  C   UNL A   1      33.127  25.766  23.714  1.00  0.00     0.119 A 
ATOM     18  C   UNL A   1      30.516  26.779  23.518  1.00  0.00    -0.024 A 
ATOM     19  C   UNL A   1      31.583  27.639  23.784  1.00  0.00     0.012 A 
ATOM     20  C   UNL A   1      30.775  25.431  23.257  1.00  0.00     0.012 A 
ATOM     21  C   UNL A   1      32.882  27.131  23.884  1.00  0.00     0.047 A 
ATOM     22  C   UNL A   1      32.078  24.934  23.330  1.00  0.00     0.047 A 
BRANCH  18  23
ATOM     23  C   UNL A   1      29.135  27.266  23.528  1.00  0.00     0.029 C 
ATOM     24  O   UNL A   1      26.422  28.318  23.647  1.00  0.00    -0.268 OA
ATOM     25  C   UNL A   1      27.319  28.873  23.033  1.00  0.00     0.263 C 
ATOM     26  N   UNL A   1      27.184  30.049  22.351  1.00  0.00    -0.307 N 
ATOM     27  C   UNL A   1      28.721  28.389  22.923  1.00  0.00     0.080 C 
ATOM     28  C   UNL A   1      28.277  30.550  21.711  1.00  0.00     0.145 C 
ATOM     29  H   UNL A   1      26.321  30.522  22.323  1.00  0.00     0.171 HD
ATOM     30  S   UNL A   1      29.640  29.486  21.954  1.00  0.00    -0.055 SA
ATOM     31  S   UNL A   1      28.263  31.960  20.843  1.00  0.00    -0.052 S 
ENDBRANCH  18  23
ENDBRANCH  16  17
ENDBRANCH  15  16
ENDBRANCH  11  15
ENDBRANCH   5  10
ENDBRANCH   2   4
ENDBRANCH   1   2
BRANCH   1  32
ATOM     32  C   UNL A   1      43.656  18.790  25.410  1.00  0.00     0.275 C 
BRANCH  32  33
ATOM     33  C   UNL A   1      45.144  18.896  25.109  1.00  0.00     0.275 C 
BRANCH  33  34
ATOM     34  O   UNL A   1      45.608  20.247  25.128  1.00  0.00    -0.458 OA
BRANCH  34  35
ATOM     35  C   UNL A   1      44.993  21.068  24.246  1.00  0.00     0.338 C 
ATOM     36  O   UNL A   1      44.714  20.835  23.083  1.00  0.00    -0.246 OA
BRANCH  35  37
ATOM     37  C   UNL A   1      44.946  22.420  24.812  1.00  0.00     0.060 A 
ATOM     38  C   UNL A   1      45.765  22.709  25.906  1.00  0.00     0.016 A 
ATOM     39  C   UNL A   1      43.907  23.278  24.423  1.00  0.00     0.016 A 
ATOM     40  C   UNL A   1      45.470  23.817  26.681  1.00  0.00     0.010 A 
ATOM     41  C   UNL A   1      43.599  24.364  25.208  1.00  0.00     0.010 A 
ATOM     42  C   UNL A   1      44.354  24.596  26.355  1.00  0.00    -0.014 A 
BRANCH  42  43
ATOM     43  C   UNL A   1      44.087  25.790  27.134  1.00  0.00     0.031 A 
ATOM     44  C   UNL A   1      45.022  26.897  26.825  1.00  0.00     0.074 A 
ATOM     45  C   UNL A   1      43.001  25.935  27.917  1.00  0.00     0.049 A 
ATOM     46  N   UNL A   1      45.880  27.446  27.617  1.00  0.00    -0.248 NA
ATOM     47  C   UNL A   1      45.118  27.344  25.423  1.00  0.00     0.031 C 
ATOM     48  C   UNL A   1      41.861  25.025  28.047  1.00  0.00     0.029 A 
ATOM     49  N   UNL A   1      42.628  27.006  28.672  1.00  0.00    -0.354 N 
ATOM     50  C   UNL A   1      46.492  28.445  26.867  1.00  0.00     0.074 A 
ATOM     51  C   UNL A   1      46.127  28.211  25.494  1.00  0.00     0.031 C 
ATOM     52  C   UNL A   1      40.834  25.681  28.636  1.00  0.00     0.029 A 
ATOM     53  C   UNL A   1      41.286  27.005  29.032  1.00  0.00     0.049 A 
ATOM     54  H   UNL A   1      43.253  27.717  28.939  1.00  0.00     0.167 HD
ATOM     55  C   UNL A   1      47.008  29.552  27.466  1.00  0.00     0.031 A 
ATOM     56  C   UNL A   1      40.587  28.045  29.551  1.00  0.00     0.031 A 
ATOM     57  C   UNL A   1      47.211  29.345  28.877  1.00  0.00     0.049 A 
ATOM     58  C   UNL A   1      41.561  29.033  30.067  1.00  0.00     0.074 A 
ATOM     59  C   UNL A   1      47.939  28.453  29.639  1.00  0.00     0.029 A 
ATOM     60  N   UNL A   1      46.281  29.900  29.723  1.00  0.00    -0.354 N 
ATOM     61  N   UNL A   1      42.295  28.839  31.124  1.00  0.00    -0.248 NA
ATOM     62  C   UNL A   1      42.025  30.078  29.169  1.00  0.00     0.031 C 
ATOM     63  C   UNL A   1      47.125  28.187  30.778  1.00  0.00     0.029 A 
ATOM     64  C   UNL A   1      45.978  28.977  30.686  1.00  0.00     0.049 A 
ATOM     65  H   UNL A   1      45.899  30.804  29.649  1.00  0.00     0.167 HD
ATOM     66  C   UNL A   1      43.526  29.386  30.796  1.00  0.00     0.074 A 
ATOM     67  C   UNL A   1      43.265  30.239  29.639  1.00  0.00     0.031 C 
ATOM     68  C   UNL A   1      44.680  28.868  31.312  1.00  0.00     0.031 A 
BRANCH  55  69
ATOM     69  C   UNL A   1      46.867  30.935  26.875  1.00  0.00    -0.014 A 
ATOM     70  C   UNL A   1      47.973  31.802  26.934  1.00  0.00     0.009 A 
ATOM     71  C   UNL A   1      45.627  31.521  26.553  1.00  0.00     0.009 A 
ATOM     72  C   UNL A   1      47.824  33.185  26.782  1.00  0.00     0.001 A 
ATOM     73  C   UNL A   1      45.482  32.896  26.355  1.00  0.00     0.001 A 
ATOM     74  C   UNL A   1      46.576  33.732  26.506  1.00  0.00     0.000 A 
ENDBRANCH  55  69
BRANCH  56  75
ATOM     75  C   UNL A   1      39.151  28.380  29.423  1.00  0.00    -0.014 A 
ATOM     76  C   UNL A   1      38.357  28.566  30.567  1.00  0.00     0.009 A 
ATOM     77  C   UNL A   1      38.622  28.794  28.188  1.00  0.00     0.009 A 
ATOM     78  C   UNL A   1      37.104  29.188  30.484  1.00  0.00     0.001 A 
ATOM     79  C   UNL A   1      37.368  29.409  28.103  1.00  0.00     0.001 A 
ATOM     80  C   UNL A   1      36.617  29.623  29.255  1.00  0.00     0.000 A 
ENDBRANCH  56  75
BRANCH  68  81
ATOM     81  C   UNL A   1      44.569  27.912  32.474  1.00  0.00    -0.014 A 
ATOM     82  C   UNL A   1      44.114  26.588  32.354  1.00  0.00     0.009 A 
ATOM     83  C   UNL A   1      45.068  28.334  33.715  1.00  0.00     0.009 A 
ATOM     84  C   UNL A   1      44.122  25.727  33.457  1.00  0.00     0.001 A 
ATOM     85  C   UNL A   1      45.101  27.468  34.808  1.00  0.00     0.001 A 
ATOM     86  C   UNL A   1      44.619  26.166  34.681  1.00  0.00     0.000 A 
ENDBRANCH  68  81
ENDBRANCH  42  43
ENDBRANCH  35  37
ENDBRANCH  34  35
ENDBRANCH  33  34
ENDBRANCH  32  33
ENDBRANCH   1  32
TORSDOF 16
ENDMDL
MODEL 3
REMARK VINA RESULT:     -11.5      3.967      9.514
REMARK SMILES O=C1NC(=S)S/C1=C\c1ccc(OCc2cn(-c3ccc(C(=O)OCCOC(=O)c4ccc(-c5c6nc(c(-c7ccccc7)c7ccc([nH]7)c(-c7ccccc7)c7nc(c(-c8ccccc8)c8ccc5[nH]8)C=C7)C=C6)cc4)cc3)nn2)cc1
REMARK SMILES IDX 24 1 22 2 23 3 21 4 18 5 19 6 79 7 20 8 78 9 17 10 15 11
REMARK SMILES IDX 16 12 81 13 80 14 14 15 13 16 12 17 9 18 10 19 83 20 11 21
REMARK SMILES IDX 82 22 8 23 1 24 2 25 3 26 7 27 4 28 6 30 5 31 25 32 26 33
REMARK SMILES IDX 27 34 28 35 29 36 30 37 31 38 77 39 32 40 76 41 33 42 34 43
REMARK SMILES IDX 35 44 70 45 36 46 75 47 69 48 71 49 37 50 74 51 68 52 67 53
REMARK SMILES IDX 38 55 60 56 45 57 59 58 46 59 49 60 58 61 72 62 47 63 48 64
REMARK SMILES IDX 57 66 73 67 50 68 39 69 40 70 44 71 41 72 43 73 42 74 61 75
REMARK SMILES IDX 62 76 66 77 63 78 65 79 64 80 51 81 52 82 56 83 53 84 55 85
REMARK SMILES IDX 54 86
REMARK H PARENT 3 29 71 54 49 65
REMARK Flexibility Score: inf
ROOT
ATOM      1  O   UNL A   1      38.520  33.493  31.028  1.00  0.00    -0.458 OA
ENDROOT
BRANCH   1   2
ATOM      2  C   UNL A   1      38.384  33.740  29.703  1.00  0.00     0.338 C 
ATOM      3  O   UNL A   1      39.139  34.404  29.005  1.00  0.00    -0.246 OA
BRANCH   2   4
ATOM      4  C   UNL A   1      37.227  32.996  29.157  1.00  0.00     0.060 A 
ATOM      5  C   UNL A   1      35.161  31.525  27.998  1.00  0.00     0.066 A 
ATOM      6  C   UNL A   1      36.289  30.865  28.504  1.00  0.00     0.029 A 
ATOM      7  C   UNL A   1      35.031  32.913  28.140  1.00  0.00     0.029 A 
ATOM      8  C   UNL A   1      37.331  31.604  29.058  1.00  0.00     0.018 A 
ATOM      9  C   UNL A   1      36.059  33.644  28.739  1.00  0.00     0.018 A 
BRANCH   5  10
ATOM     10  N   UNL A   1      34.203  30.777  27.275  1.00  0.00    -0.220 N 
ATOM     11  C   UNL A   1      33.065  29.180  26.315  1.00  0.00     0.120 A 
ATOM     12  C   UNL A   1      34.339  29.525  26.716  1.00  0.00     0.144 A 
ATOM     13  N   UNL A   1      32.223  30.220  26.600  1.00  0.00    -0.131 NA
ATOM     14  N   UNL A   1      32.919  31.182  27.179  1.00  0.00    -0.062 NA
BRANCH  11  15
ATOM     15  C   UNL A   1      32.527  27.896  25.776  1.00  0.00     0.289 C 
BRANCH  15  16
ATOM     16  O   UNL A   1      33.125  27.445  24.551  1.00  0.00    -0.487 OA
BRANCH  16  17
ATOM     17  C   UNL A   1      33.590  26.159  24.497  1.00  0.00     0.119 A 
ATOM     18  C   UNL A   1      34.838  23.648  24.636  1.00  0.00    -0.024 A 
ATOM     19  C   UNL A   1      34.519  24.337  25.807  1.00  0.00     0.012 A 
ATOM     20  C   UNL A   1      34.444  24.176  23.404  1.00  0.00     0.012 A 
ATOM     21  C   UNL A   1      33.900  25.589  25.734  1.00  0.00     0.047 A 
ATOM     22  C   UNL A   1      33.801  25.414  23.339  1.00  0.00     0.047 A 
BRANCH  18  23
ATOM     23  C   UNL A   1      35.593  22.394  24.682  1.00  0.00     0.029 C 
ATOM     24  O   UNL A   1      37.077  19.899  24.907  1.00  0.00    -0.268 OA
ATOM     25  C   UNL A   1      35.858  19.940  24.857  1.00  0.00     0.263 C 
ATOM     26  N   UNL A   1      35.038  18.848  24.921  1.00  0.00    -0.307 N 
ATOM     27  C   UNL A   1      35.039  21.174  24.733  1.00  0.00     0.080 C 
ATOM     28  C   UNL A   1      33.694  19.049  24.852  1.00  0.00     0.145 C 
ATOM     29  H   UNL A   1      35.410  17.941  25.014  1.00  0.00     0.171 HD
ATOM     30  S   UNL A   1      33.362  20.757  24.693  1.00  0.00    -0.055 SA
ATOM     31  S   UNL A   1      32.581  17.825  24.912  1.00  0.00    -0.052 S 
ENDBRANCH  18  23
ENDBRANCH  16  17
ENDBRANCH  15  16
ENDBRANCH  11  15
ENDBRANCH   5  10
ENDBRANCH   2   4
ENDBRANCH   1   2
BRANCH   1  32
ATOM     32  C   UNL A   1      38.142  34.576  31.891  1.00  0.00     0.275 C 
BRANCH  32  33
ATOM     33  C   UNL A   1      36.881  34.237  32.674  1.00  0.00     0.275 C 
BRANCH  33  34
ATOM     34  O   UNL A   1      36.634  32.831  32.725  1.00  0.00    -0.458 OA
BRANCH  34  35
ATOM     35  C   UNL A   1      36.987  32.237  33.888  1.00  0.00     0.338 C 
ATOM     36  O   UNL A   1      36.746  32.618  35.021  1.00  0.00    -0.246 OA
BRANCH  35  37
ATOM     37  C   UNL A   1      37.965  31.181  33.603  1.00  0.00     0.060 A 
ATOM     38  C   UNL A   1      39.322  31.515  33.614  1.00  0.00     0.016 A 
ATOM     39  C   UNL A   1      37.510  29.966  33.073  1.00  0.00     0.016 A 
ATOM     40  C   UNL A   1      40.218  30.666  32.989  1.00  0.00     0.010 A 
ATOM     41  C   UNL A   1      38.397  29.136  32.430  1.00  0.00     0.010 A 
ATOM     42  C   UNL A   1      39.735  29.516  32.354  1.00  0.00    -0.014 A 
BRANCH  42  43
ATOM     43  C   UNL A   1      40.686  28.600  31.754  1.00  0.00     0.031 A 
ATOM     44  C   UNL A   1      41.639  28.038  32.740  1.00  0.00     0.074 A 
ATOM     45  C   UNL A   1      40.598  28.170  30.482  1.00  0.00     0.049 A 
ATOM     46  N   UNL A   1      42.918  28.202  32.779  1.00  0.00    -0.248 NA
ATOM     47  C   UNL A   1      41.083  27.334  33.910  1.00  0.00     0.031 C 
ATOM     48  C   UNL A   1      39.520  28.421  29.523  1.00  0.00     0.029 A 
ATOM     49  N   UNL A   1      41.406  27.299  29.815  1.00  0.00    -0.354 N 
ATOM     50  C   UNL A   1      43.356  27.458  33.869  1.00  0.00     0.074 A 
ATOM     51  C   UNL A   1      42.183  27.111  34.627  1.00  0.00     0.031 C 
ATOM     52  C   UNL A   1      39.621  27.539  28.501  1.00  0.00     0.029 A 
ATOM     53  C   UNL A   1      40.833  26.754  28.673  1.00  0.00     0.049 A 
ATOM     54  H   UNL A   1      42.317  27.075  30.117  1.00  0.00     0.167 HD
ATOM     55  C   UNL A   1      44.614  26.941  33.903  1.00  0.00     0.031 A 
ATOM     56  C   UNL A   1      41.290  25.690  27.966  1.00  0.00     0.031 A 
ATOM     57  C   UNL A   1      45.480  27.591  32.952  1.00  0.00     0.049 A 
ATOM     58  C   UNL A   1      42.704  25.469  28.345  1.00  0.00     0.074 A 
ATOM     59  C   UNL A   1      45.897  28.890  32.739  1.00  0.00     0.029 A 
ATOM     60  N   UNL A   1      45.740  26.909  31.788  1.00  0.00    -0.354 N 
ATOM     61  N   UNL A   1      43.675  26.266  28.007  1.00  0.00    -0.248 NA
ATOM     62  C   UNL A   1      42.989  24.576  29.456  1.00  0.00     0.031 C 
ATOM     63  C   UNL A   1      45.966  29.028  31.323  1.00  0.00     0.029 A 
ATOM     64  C   UNL A   1      45.655  27.795  30.749  1.00  0.00     0.049 A 
ATOM     65  H   UNL A   1      45.952  25.951  31.714  1.00  0.00     0.167 HD
ATOM     66  C   UNL A   1      44.493  26.310  29.125  1.00  0.00     0.074 A 
ATOM     67  C   UNL A   1      44.091  25.161  29.933  1.00  0.00     0.031 C 
ATOM     68  C   UNL A   1      45.211  27.433  29.422  1.00  0.00     0.031 A 
BRANCH  55  69
ATOM     69  C   UNL A   1      44.908  25.558  34.436  1.00  0.00    -0.014 A 
ATOM     70  C   UNL A   1      43.988  24.529  34.163  1.00  0.00     0.009 A 
ATOM     71  C   UNL A   1      45.866  25.296  35.435  1.00  0.00     0.009 A 
ATOM     72  C   UNL A   1      43.966  23.352  34.921  1.00  0.00     0.001 A 
ATOM     73  C   UNL A   1      45.876  24.103  36.162  1.00  0.00     0.001 A 
ATOM     74  C   UNL A   1      44.902  23.146  35.928  1.00  0.00     0.000 A 
ENDBRANCH  55  69
BRANCH  56  75
ATOM     75  C   UNL A   1      40.545  24.689  27.172  1.00  0.00    -0.014 A 
ATOM     76  C   UNL A   1      41.090  23.416  26.935  1.00  0.00     0.009 A 
ATOM     77  C   UNL A   1      39.181  24.878  26.883  1.00  0.00     0.009 A 
ATOM     78  C   UNL A   1      40.291  22.362  26.475  1.00  0.00     0.001 A 
ATOM     79  C   UNL A   1      38.384  23.827  26.418  1.00  0.00     0.001 A 
ATOM     80  C   UNL A   1      38.935  22.563  26.231  1.00  0.00     0.000 A 
ENDBRANCH  56  75
BRANCH  68  81
ATOM     81  C   UNL A   1      45.342  28.492  28.355  1.00  0.00    -0.014 A 
ATOM     82  C   UNL A   1      44.525  29.634  28.285  1.00  0.00     0.009 A 
ATOM     83  C   UNL A   1      46.421  28.390  27.464  1.00  0.00     0.009 A 
ATOM     84  C   UNL A   1      44.760  30.622  27.322  1.00  0.00     0.001 A 
ATOM     85  C   UNL A   1      46.671  29.387  26.521  1.00  0.00     0.001 A 
ATOM     86  C   UNL A   1      45.835  30.499  26.445  1.00  0.00     0.000 A 
ENDBRANCH  68  81
ENDBRANCH  42  43
ENDBRANCH  35  37
ENDBRANCH  34  35
ENDBRANCH  33  34
ENDBRANCH  32  33
ENDBRANCH   1  32
TORSDOF 16
ENDMDL
