MODEL 1
REMARK VINA RESULT:     -10.3      0.000      0.000
REMARK SMILES CC(C)C[C@H](CNC(=O)c1ccc(O)cc1O)C(=O)OCCOC(=O)c1ccc(-c2c3nc(c(-c4ccccc4)c4ccc([nH]4)c(-c4ccccc4)c4nc(c(-c5ccccc5)c5ccc2[nH]5)C=C4)C=C3)cc1
REMARK SMILES IDX 21 1 20 2 18 3 19 4 5 5 4 6 2 7 1 8 3 9 6 10 7 11 8 12 9 14
REMARK SMILES IDX 10 15 11 16 16 17 12 18 15 19 13 20 17 21 14 23 22 25 23 26
REMARK SMILES IDX 24 27 25 28 26 29 27 30 73 31 28 32 72 33 29 34 30 35 31 36
REMARK SMILES IDX 66 37 32 38 71 39 65 40 67 41 33 42 70 43 64 44 63 45 34 47
REMARK SMILES IDX 56 48 41 49 55 50 42 51 45 52 54 53 68 54 43 55 44 56 53 58
REMARK SMILES IDX 69 59 46 60 35 61 36 62 40 63 37 64 39 65 38 66 57 67 58 68
REMARK SMILES IDX 62 69 59 70 61 71 60 72 47 73 48 74 52 75 49 76 51 77 50 78
REMARK H PARENT 7 13 17 22 14 24 67 46 45 57
REMARK Flexibility Score: inf
ROOT
ATOM      1  C   UNL A   1      31.811  30.336  26.057  1.00  0.00     0.274 C 
ENDROOT
BRANCH   1   2
ATOM      2  O   UNL A   1      31.458  29.158  25.300  1.00  0.00    -0.462 OA
BRANCH   2   3
ATOM      3  C   UNL A   1      31.982  29.111  24.050  1.00  0.00     0.310 C 
ATOM      4  O   UNL A   1      33.185  29.132  23.811  1.00  0.00    -0.252 OA
BRANCH   3   5
ATOM      5  C   UNL A   1      30.946  28.995  22.946  1.00  0.00     0.118 C 
BRANCH   5   6
ATOM      6  C   UNL A   1      29.689  29.873  23.078  1.00  0.00     0.020 C 
BRANCH   6   7
ATOM      7  C   UNL A   1      28.448  29.509  22.243  1.00  0.00    -0.017 C 
ATOM      8  C   UNL A   1      27.203  29.205  23.075  1.00  0.00     0.007 C 
ATOM      9  C   UNL A   1      28.130  30.675  21.297  1.00  0.00     0.007 C 
ENDBRANCH   6   7
ENDBRANCH   5   6
BRANCH   5  10
ATOM     10  C   UNL A   1      30.632  27.527  22.595  1.00  0.00     0.131 C 
BRANCH  10  11
ATOM     11  N   UNL A   1      31.739  26.809  21.973  1.00  0.00    -0.351 N 
ATOM     12  C   UNL A   1      32.605  25.923  22.566  1.00  0.00     0.255 C 
ATOM     13  H   UNL A   1      31.884  26.980  21.015  1.00  0.00     0.163 HD
ATOM     14  O   UNL A   1      33.692  25.659  22.060  1.00  0.00    -0.269 OA
BRANCH  12  15
ATOM     15  C   UNL A   1      32.266  25.329  23.874  1.00  0.00     0.081 A 
ATOM     16  C   UNL A   1      32.925  25.760  25.033  1.00  0.00     0.021 A 
ATOM     17  C   UNL A   1      31.282  24.340  23.953  1.00  0.00     0.132 A 
ATOM     18  C   UNL A   1      32.649  25.147  26.257  1.00  0.00     0.047 A 
ATOM     19  C   UNL A   1      31.018  23.716  25.170  1.00  0.00     0.093 A 
ATOM     20  C   UNL A   1      31.709  24.119  26.309  1.00  0.00     0.119 A 
BRANCH  17  21
ATOM     21  O   UNL A   1      30.550  23.937  22.869  1.00  0.00    -0.507 OA
ATOM     22  H   UNL A   1      29.680  24.263  22.744  1.00  0.00     0.293 HD
ENDBRANCH  17  21
BRANCH  20  23
ATOM     23  O   UNL A   1      31.431  23.476  27.480  1.00  0.00    -0.508 OA
ATOM     24  H   UNL A   1      32.117  23.315  28.099  1.00  0.00     0.293 HD
ENDBRANCH  20  23
ENDBRANCH  12  15
ENDBRANCH  10  11
ENDBRANCH   5  10
ENDBRANCH   3   5
ENDBRANCH   2   3
ENDBRANCH   1   2
BRANCH   1  25
ATOM     25  C   UNL A   1      32.753  30.037  27.233  1.00  0.00     0.275 C 
BRANCH  25  26
ATOM     26  O   UNL A   1      34.099  30.496  26.999  1.00  0.00    -0.458 OA
BRANCH  26  27
ATOM     27  C   UNL A   1      34.745  30.976  28.087  1.00  0.00     0.338 C 
ATOM     28  O   UNL A   1      34.320  31.780  28.899  1.00  0.00    -0.246 OA
BRANCH  27  29
ATOM     29  C   UNL A   1      36.031  30.284  28.275  1.00  0.00     0.060 A 
ATOM     30  C   UNL A   1      36.291  29.718  29.527  1.00  0.00     0.016 A 
ATOM     31  C   UNL A   1      37.016  30.292  27.287  1.00  0.00     0.016 A 
ATOM     32  C   UNL A   1      37.532  29.150  29.801  1.00  0.00     0.010 A 
ATOM     33  C   UNL A   1      38.269  29.733  27.566  1.00  0.00     0.010 A 
ATOM     34  C   UNL A   1      38.536  29.170  28.828  1.00  0.00    -0.014 A 
BRANCH  34  35
ATOM     35  C   UNL A   1      39.889  28.666  29.160  1.00  0.00     0.031 A 
ATOM     36  C   UNL A   1      40.850  29.551  29.899  1.00  0.00     0.074 A 
ATOM     37  C   UNL A   1      40.248  27.415  28.821  1.00  0.00     0.049 A 
ATOM     38  N   UNL A   1      42.107  29.340  30.195  1.00  0.00    -0.248 NA
ATOM     39  C   UNL A   1      40.326  30.842  30.369  1.00  0.00     0.031 C 
ATOM     40  C   UNL A   1      39.382  26.437  28.164  1.00  0.00     0.029 A 
ATOM     41  N   UNL A   1      41.442  26.759  28.980  1.00  0.00    -0.354 N 
ATOM     42  C   UNL A   1      42.533  30.482  30.863  1.00  0.00     0.074 A 
ATOM     43  C   UNL A   1      41.400  31.382  30.926  1.00  0.00     0.031 C 
ATOM     44  C   UNL A   1      40.080  25.306  27.962  1.00  0.00     0.029 A 
ATOM     45  C   UNL A   1      41.449  25.500  28.432  1.00  0.00     0.049 A 
ATOM     46  H   UNL A   1      42.218  27.153  29.440  1.00  0.00     0.167 HD
ATOM     47  C   UNL A   1      43.758  30.757  31.370  1.00  0.00     0.031 A 
ATOM     48  C   UNL A   1      42.456  24.618  28.290  1.00  0.00     0.031 A 
ATOM     49  C   UNL A   1      44.882  29.864  31.303  1.00  0.00     0.049 A 
ATOM     50  C   UNL A   1      43.828  24.976  28.791  1.00  0.00     0.074 A 
ATOM     51  C   UNL A   1      46.164  30.051  31.792  1.00  0.00     0.029 A 
ATOM     52  N   UNL A   1      44.859  28.613  30.706  1.00  0.00    -0.354 N 
ATOM     53  N   UNL A   1      44.223  26.064  29.408  1.00  0.00    -0.248 NA
ATOM     54  C   UNL A   1      44.893  23.988  28.569  1.00  0.00     0.031 C 
ATOM     55  C   UNL A   1      46.930  28.930  31.450  1.00  0.00     0.029 A 
ATOM     56  C   UNL A   1      46.111  28.027  30.789  1.00  0.00     0.049 A 
ATOM     57  H   UNL A   1      44.070  28.202  30.284  1.00  0.00     0.167 HD
ATOM     58  C   UNL A   1      45.576  25.886  29.660  1.00  0.00     0.074 A 
ATOM     59  C   UNL A   1      45.932  24.580  29.143  1.00  0.00     0.031 C 
ATOM     60  C   UNL A   1      46.447  26.729  30.265  1.00  0.00     0.031 A 
BRANCH  47  61
ATOM     61  C   UNL A   1      43.954  32.108  31.993  1.00  0.00    -0.014 A 
ATOM     62  C   UNL A   1      44.363  33.214  31.231  1.00  0.00     0.009 A 
ATOM     63  C   UNL A   1      43.709  32.279  33.364  1.00  0.00     0.009 A 
ATOM     64  C   UNL A   1      44.554  34.456  31.838  1.00  0.00     0.001 A 
ATOM     65  C   UNL A   1      43.878  33.528  33.964  1.00  0.00     0.001 A 
ATOM     66  C   UNL A   1      44.310  34.613  33.203  1.00  0.00     0.000 A 
ENDBRANCH  47  61
BRANCH  48  67
ATOM     67  C   UNL A   1      42.216  23.330  27.592  1.00  0.00    -0.014 A 
ATOM     68  C   UNL A   1      42.544  23.174  26.238  1.00  0.00     0.009 A 
ATOM     69  C   UNL A   1      41.656  22.244  28.286  1.00  0.00     0.009 A 
ATOM     70  C   UNL A   1      42.303  21.959  25.589  1.00  0.00     0.001 A 
ATOM     71  C   UNL A   1      41.441  21.025  27.642  1.00  0.00     0.001 A 
ATOM     72  C   UNL A   1      41.759  20.886  26.292  1.00  0.00     0.000 A 
ENDBRANCH  48  67
BRANCH  60  73
ATOM     73  C   UNL A   1      47.864  26.255  30.423  1.00  0.00    -0.014 A 
ATOM     74  C   UNL A   1      48.791  26.388  29.379  1.00  0.00     0.009 A 
ATOM     75  C   UNL A   1      48.284  25.712  31.646  1.00  0.00     0.009 A 
ATOM     76  C   UNL A   1      50.110  25.963  29.552  1.00  0.00     0.001 A 
ATOM     77  C   UNL A   1      49.608  25.309  31.823  1.00  0.00     0.001 A 
ATOM     78  C   UNL A   1      50.517  25.428  30.773  1.00  0.00     0.000 A 
ENDBRANCH  60  73
ENDBRANCH  34  35
ENDBRANCH  27  29
ENDBRANCH  26  27
ENDBRANCH  25  26
ENDBRANCH   1  25
TORSDOF 18
ENDMDL
MODEL 2
REMARK VINA RESULT:     -10.2      3.014      7.694
REMARK SMILES CC(C)C[C@H](CNC(=O)c1ccc(O)cc1O)C(=O)OCCOC(=O)c1ccc(-c2c3nc(c(-c4ccccc4)c4ccc([nH]4)c(-c4ccccc4)c4nc(c(-c5ccccc5)c5ccc2[nH]5)C=C4)C=C3)cc1
REMARK SMILES IDX 21 1 20 2 18 3 19 4 5 5 4 6 2 7 1 8 3 9 6 10 7 11 8 12 9 14
REMARK SMILES IDX 10 15 11 16 16 17 12 18 15 19 13 20 17 21 14 23 22 25 23 26
REMARK SMILES IDX 24 27 25 28 26 29 27 30 73 31 28 32 72 33 29 34 30 35 31 36
REMARK SMILES IDX 66 37 32 38 71 39 65 40 67 41 33 42 70 43 64 44 63 45 34 47
REMARK SMILES IDX 56 48 41 49 55 50 42 51 45 52 54 53 68 54 43 55 44 56 53 58
REMARK SMILES IDX 69 59 46 60 35 61 36 62 40 63 37 64 39 65 38 66 57 67 58 68
REMARK SMILES IDX 62 69 59 70 61 71 60 72 47 73 48 74 52 75 49 76 51 77 50 78
REMARK H PARENT 7 13 17 22 14 24 67 46 45 57
REMARK Flexibility Score: inf
ROOT
ATOM      1  C   UNL A   1      37.858  20.138  24.901  1.00  0.00     0.274 C 
ENDROOT
BRANCH   1   2
ATOM      2  O   UNL A   1      36.757  20.817  25.542  1.00  0.00    -0.462 OA
BRANCH   2   3
ATOM      3  C   UNL A   1      36.368  21.965  24.932  1.00  0.00     0.310 C 
ATOM      4  O   UNL A   1      36.963  22.472  23.987  1.00  0.00    -0.252 OA
BRANCH   3   5
ATOM      5  C   UNL A   1      35.095  22.569  25.498  1.00  0.00     0.118 C 
BRANCH   5   6
ATOM      6  C   UNL A   1      35.112  24.080  25.786  1.00  0.00     0.020 C 
BRANCH   6   7
ATOM      7  C   UNL A   1      33.977  24.949  25.216  1.00  0.00    -0.017 C 
ATOM      8  C   UNL A   1      33.887  26.344  25.833  1.00  0.00     0.007 C 
ATOM      9  C   UNL A   1      34.184  25.099  23.702  1.00  0.00     0.007 C 
ENDBRANCH   6   7
ENDBRANCH   5   6
BRANCH   5  10
ATOM     10  C   UNL A   1      34.519  21.731  26.657  1.00  0.00     0.131 C 
BRANCH  10  11
ATOM     11  N   UNL A   1      33.975  20.440  26.251  1.00  0.00    -0.351 N 
ATOM     12  C   UNL A   1      32.824  20.199  25.540  1.00  0.00     0.255 C 
ATOM     13  H   UNL A   1      34.493  19.647  26.518  1.00  0.00     0.163 HD
ATOM     14  O   UNL A   1      32.281  19.098  25.563  1.00  0.00    -0.269 OA
BRANCH  12  15
ATOM     15  C   UNL A   1      32.179  21.296  24.794  1.00  0.00     0.081 A 
ATOM     16  C   UNL A   1      32.359  21.406  23.409  1.00  0.00     0.021 A 
ATOM     17  C   UNL A   1      31.383  22.224  25.473  1.00  0.00     0.132 A 
ATOM     18  C   UNL A   1      31.803  22.485  22.720  1.00  0.00     0.047 A 
ATOM     19  C   UNL A   1      30.843  23.309  24.790  1.00  0.00     0.093 A 
ATOM     20  C   UNL A   1      31.063  23.435  23.422  1.00  0.00     0.119 A 
BRANCH  17  21
ATOM     21  O   UNL A   1      31.107  22.121  26.810  1.00  0.00    -0.507 OA
ATOM     22  H   UNL A   1      30.402  21.578  27.102  1.00  0.00     0.293 HD
ENDBRANCH  17  21
BRANCH  20  23
ATOM     23  O   UNL A   1      30.527  24.518  22.789  1.00  0.00    -0.508 OA
ATOM     24  H   UNL A   1      31.083  25.112  22.324  1.00  0.00     0.293 HD
ENDBRANCH  20  23
ENDBRANCH  12  15
ENDBRANCH  10  11
ENDBRANCH   5  10
ENDBRANCH   3   5
ENDBRANCH   2   3
ENDBRANCH   1   2
BRANCH   1  25
ATOM     25  C   UNL A   1      39.211  20.418  25.571  1.00  0.00     0.275 C 
BRANCH  25  26
ATOM     26  O   UNL A   1      40.021  19.234  25.709  1.00  0.00    -0.458 OA
BRANCH  26  27
ATOM     27  C   UNL A   1      41.326  19.455  25.992  1.00  0.00     0.338 C 
ATOM     28  O   UNL A   1      42.269  18.726  25.731  1.00  0.00    -0.246 OA
BRANCH  27  29
ATOM     29  C   UNL A   1      41.515  20.802  26.554  1.00  0.00     0.060 A 
ATOM     30  C   UNL A   1      42.001  21.802  25.705  1.00  0.00     0.016 A 
ATOM     31  C   UNL A   1      41.335  21.058  27.913  1.00  0.00     0.016 A 
ATOM     32  C   UNL A   1      42.307  23.065  26.205  1.00  0.00     0.010 A 
ATOM     33  C   UNL A   1      41.654  22.325  28.419  1.00  0.00     0.010 A 
ATOM     34  C   UNL A   1      42.153  23.329  27.569  1.00  0.00    -0.014 A 
BRANCH  34  35
ATOM     35  C   UNL A   1      42.583  24.637  28.116  1.00  0.00     0.031 A 
ATOM     36  C   UNL A   1      41.562  25.710  28.365  1.00  0.00     0.074 A 
ATOM     37  C   UNL A   1      43.877  24.856  28.412  1.00  0.00     0.049 A 
ATOM     38  N   UNL A   1      41.741  26.949  28.740  1.00  0.00    -0.248 NA
ATOM     39  C   UNL A   1      40.154  25.335  28.164  1.00  0.00     0.031 C 
ATOM     40  C   UNL A   1      44.951  23.872  28.281  1.00  0.00     0.029 A 
ATOM     41  N   UNL A   1      44.504  25.984  28.875  1.00  0.00    -0.354 N 
ATOM     42  C   UNL A   1      40.472  27.513  28.797  1.00  0.00     0.074 A 
ATOM     43  C   UNL A   1      39.533  26.479  28.415  1.00  0.00     0.031 C 
ATOM     44  C   UNL A   1      46.110  24.445  28.644  1.00  0.00     0.029 A 
ATOM     45  C   UNL A   1      45.865  25.845  28.986  1.00  0.00     0.049 A 
ATOM     46  H   UNL A   1      44.025  26.813  29.106  1.00  0.00     0.167 HD
ATOM     47  C   UNL A   1      40.123  28.778  29.130  1.00  0.00     0.031 A 
ATOM     48  C   UNL A   1      46.812  26.752  29.288  1.00  0.00     0.031 A 
ATOM     49  C   UNL A   1      41.057  29.804  29.506  1.00  0.00     0.049 A 
ATOM     50  C   UNL A   1      46.409  28.171  29.579  1.00  0.00     0.074 A 
ATOM     51  C   UNL A   1      40.800  31.116  29.866  1.00  0.00     0.029 A 
ATOM     52  N   UNL A   1      42.431  29.633  29.568  1.00  0.00    -0.354 N 
ATOM     53  N   UNL A   1      45.207  28.696  29.616  1.00  0.00    -0.248 NA
ATOM     54  C   UNL A   1      47.491  29.123  29.862  1.00  0.00     0.031 C 
ATOM     55  C   UNL A   1      42.024  31.753  30.102  1.00  0.00     0.029 A 
ATOM     56  C   UNL A   1      43.038  30.823  29.934  1.00  0.00     0.049 A 
ATOM     57  H   UNL A   1      42.905  28.792  29.380  1.00  0.00     0.167 HD
ATOM     58  C   UNL A   1      45.388  30.034  29.939  1.00  0.00     0.074 A 
ATOM     59  C   UNL A   1      46.814  30.238  30.103  1.00  0.00     0.031 C 
ATOM     60  C   UNL A   1      44.458  31.007  30.087  1.00  0.00     0.031 A 
BRANCH  47  61
ATOM     61  C   UNL A   1      38.667  29.132  29.046  1.00  0.00    -0.014 A 
ATOM     62  C   UNL A   1      37.824  29.034  30.163  1.00  0.00     0.009 A 
ATOM     63  C   UNL A   1      38.136  29.587  27.829  1.00  0.00     0.009 A 
ATOM     64  C   UNL A   1      36.469  29.356  30.054  1.00  0.00     0.001 A 
ATOM     65  C   UNL A   1      36.787  29.929  27.729  1.00  0.00     0.001 A 
ATOM     66  C   UNL A   1      35.952  29.803  28.838  1.00  0.00     0.000 A 
ENDBRANCH  47  61
BRANCH  48  67
ATOM     67  C   UNL A   1      48.243  26.358  29.276  1.00  0.00    -0.014 A 
ATOM     68  C   UNL A   1      48.870  25.894  30.442  1.00  0.00     0.009 A 
ATOM     69  C   UNL A   1      48.990  26.441  28.089  1.00  0.00     0.009 A 
ATOM     70  C   UNL A   1      50.221  25.535  30.421  1.00  0.00     0.001 A 
ATOM     71  C   UNL A   1      50.331  26.058  28.066  1.00  0.00     0.001 A 
ATOM     72  C   UNL A   1      50.947  25.611  29.234  1.00  0.00     0.000 A 
ENDBRANCH  48  67
BRANCH  60  73
ATOM     73  C   UNL A   1      44.949  32.375  30.467  1.00  0.00    -0.014 A 
ATOM     74  C   UNL A   1      45.168  32.718  31.810  1.00  0.00     0.009 A 
ATOM     75  C   UNL A   1      45.240  33.313  29.466  1.00  0.00     0.009 A 
ATOM     76  C   UNL A   1      45.647  33.986  32.143  1.00  0.00     0.001 A 
ATOM     77  C   UNL A   1      45.739  34.572  29.801  1.00  0.00     0.001 A 
ATOM     78  C   UNL A   1      45.936  34.909  31.139  1.00  0.00     0.000 A 
ENDBRANCH  60  73
ENDBRANCH  34  35
ENDBRANCH  27  29
ENDBRANCH  26  27
ENDBRANCH  25  26
ENDBRANCH   1  25
TORSDOF 18
ENDMDL
MODEL 3
REMARK VINA RESULT:     -10.1      2.509      7.292
REMARK SMILES CC(C)C[C@H](CNC(=O)c1ccc(O)cc1O)C(=O)OCCOC(=O)c1ccc(-c2c3nc(c(-c4ccccc4)c4ccc([nH]4)c(-c4ccccc4)c4nc(c(-c5ccccc5)c5ccc2[nH]5)C=C4)C=C3)cc1
REMARK SMILES IDX 21 1 20 2 18 3 19 4 5 5 4 6 2 7 1 8 3 9 6 10 7 11 8 12 9 14
REMARK SMILES IDX 10 15 11 16 16 17 12 18 15 19 13 20 17 21 14 23 22 25 23 26
REMARK SMILES IDX 24 27 25 28 26 29 27 30 73 31 28 32 72 33 29 34 30 35 31 36
REMARK SMILES IDX 66 37 32 38 71 39 65 40 67 41 33 42 70 43 64 44 63 45 34 47
REMARK SMILES IDX 56 48 41 49 55 50 42 51 45 52 54 53 68 54 43 55 44 56 53 58
REMARK SMILES IDX 69 59 46 60 35 61 36 62 40 63 37 64 39 65 38 66 57 67 58 68
REMARK SMILES IDX 62 69 59 70 61 71 60 72 47 73 48 74 52 75 49 76 51 77 50 78
REMARK H PARENT 7 13 17 22 14 24 67 46 45 57
REMARK Flexibility Score: inf
ROOT
ATOM      1  C   UNL A   1      32.568  31.103  27.163  1.00  0.00     0.274 C 
ENDROOT
BRANCH   1   2
ATOM      2  O   UNL A   1      31.741  30.201  26.395  1.00  0.00    -0.462 OA
BRANCH   2   3
ATOM      3  C   UNL A   1      31.911  28.888  26.692  1.00  0.00     0.310 C 
ATOM      4  O   UNL A   1      31.577  28.379  27.757  1.00  0.00    -0.252 OA
BRANCH   3   5
ATOM      5  C   UNL A   1      32.526  28.072  25.569  1.00  0.00     0.118 C 
BRANCH   5   6
ATOM      6  C   UNL A   1      33.622  27.065  25.963  1.00  0.00     0.020 C 
BRANCH   6   7
ATOM      7  C   UNL A   1      33.497  25.614  25.466  1.00  0.00    -0.017 C 
ATOM      8  C   UNL A   1      34.821  24.852  25.423  1.00  0.00     0.007 C 
ATOM      9  C   UNL A   1      32.530  24.858  26.388  1.00  0.00     0.007 C 
ENDBRANCH   6   7
ENDBRANCH   5   6
BRANCH   5  10
ATOM     10  C   UNL A   1      32.905  28.944  24.356  1.00  0.00     0.131 C 
BRANCH  10  11
ATOM     11  N   UNL A   1      31.769  29.371  23.546  1.00  0.00    -0.351 N 
ATOM     12  C   UNL A   1      31.047  28.622  22.649  1.00  0.00     0.255 C 
ATOM     13  H   UNL A   1      31.484  30.307  23.656  1.00  0.00     0.163 HD
ATOM     14  O   UNL A   1      30.364  29.155  21.779  1.00  0.00    -0.269 OA
BRANCH  12  15
ATOM     15  C   UNL A   1      31.149  27.150  22.673  1.00  0.00     0.081 A 
ATOM     16  C   UNL A   1      30.187  26.390  23.352  1.00  0.00     0.021 A 
ATOM     17  C   UNL A   1      32.205  26.516  22.012  1.00  0.00     0.132 A 
ATOM     18  C   UNL A   1      30.326  25.003  23.430  1.00  0.00     0.047 A 
ATOM     19  C   UNL A   1      32.354  25.135  22.104  1.00  0.00     0.093 A 
ATOM     20  C   UNL A   1      31.419  24.391  22.818  1.00  0.00     0.119 A 
BRANCH  17  21
ATOM     21  O   UNL A   1      33.127  27.200  21.268  1.00  0.00    -0.507 OA
ATOM     22  H   UNL A   1      33.053  28.129  21.170  1.00  0.00     0.293 HD
ENDBRANCH  17  21
BRANCH  20  23
ATOM     23  O   UNL A   1      31.605  23.042  22.894  1.00  0.00    -0.508 OA
ATOM     24  H   UNL A   1      30.873  22.463  22.806  1.00  0.00     0.293 HD
ENDBRANCH  20  23
ENDBRANCH  12  15
ENDBRANCH  10  11
ENDBRANCH   5  10
ENDBRANCH   3   5
ENDBRANCH   2   3
ENDBRANCH   1   2
BRANCH   1  25
ATOM     25  C   UNL A   1      32.187  32.578  26.974  1.00  0.00     0.275 C 
BRANCH  25  26
ATOM     26  O   UNL A   1      32.056  33.286  28.223  1.00  0.00    -0.458 OA
BRANCH  26  27
ATOM     27  C   UNL A   1      33.010  34.215  28.464  1.00  0.00     0.338 C 
ATOM     28  O   UNL A   1      32.852  35.419  28.576  1.00  0.00    -0.246 OA
BRANCH  27  29
ATOM     29  C   UNL A   1      34.307  33.571  28.729  1.00  0.00     0.060 A 
ATOM     30  C   UNL A   1      34.430  32.805  29.893  1.00  0.00     0.016 A 
ATOM     31  C   UNL A   1      35.418  33.807  27.919  1.00  0.00     0.016 A 
ATOM     32  C   UNL A   1      35.662  32.265  30.255  1.00  0.00     0.010 A 
ATOM     33  C   UNL A   1      36.660  33.275  28.290  1.00  0.00     0.010 A 
ATOM     34  C   UNL A   1      36.789  32.512  29.465  1.00  0.00    -0.014 A 
BRANCH  34  35
ATOM     35  C   UNL A   1      38.117  32.030  29.911  1.00  0.00     0.031 A 
ATOM     36  C   UNL A   1      38.637  30.715  29.407  1.00  0.00     0.074 A 
ATOM     37  C   UNL A   1      38.864  32.776  30.744  1.00  0.00     0.049 A 
ATOM     38  N   UNL A   1      39.721  30.069  29.750  1.00  0.00    -0.248 NA
ATOM     39  C   UNL A   1      37.829  30.041  28.379  1.00  0.00     0.031 C 
ATOM     40  C   UNL A   1      38.500  34.100  31.249  1.00  0.00     0.029 A 
ATOM     41  N   UNL A   1      40.082  32.517  31.319  1.00  0.00    -0.354 N 
ATOM     42  C   UNL A   1      39.715  28.899  29.001  1.00  0.00     0.074 A 
ATOM     43  C   UNL A   1      38.518  28.925  28.187  1.00  0.00     0.031 C 
ATOM     44  C   UNL A   1      39.471  34.533  32.070  1.00  0.00     0.029 A 
ATOM     45  C   UNL A   1      40.496  33.498  32.185  1.00  0.00     0.049 A 
ATOM     46  H   UNL A   1      40.608  31.706  31.129  1.00  0.00     0.167 HD
ATOM     47  C   UNL A   1      40.621  27.893  28.997  1.00  0.00     0.031 A 
ATOM     48  C   UNL A   1      41.561  33.541  33.007  1.00  0.00     0.031 A 
ATOM     49  C   UNL A   1      41.807  27.868  29.809  1.00  0.00     0.049 A 
ATOM     50  C   UNL A   1      42.512  32.378  33.045  1.00  0.00     0.074 A 
ATOM     51  C   UNL A   1      42.789  26.894  29.873  1.00  0.00     0.029 A 
ATOM     52  N   UNL A   1      42.171  28.864  30.702  1.00  0.00    -0.354 N 
ATOM     53  N   UNL A   1      42.490  31.270  32.343  1.00  0.00    -0.248 NA
ATOM     54  C   UNL A   1      43.631  32.467  33.993  1.00  0.00     0.031 C 
ATOM     55  C   UNL A   1      43.726  27.280  30.839  1.00  0.00     0.029 A 
ATOM     56  C   UNL A   1      43.349  28.516  31.342  1.00  0.00     0.049 A 
ATOM     57  H   UNL A   1      41.668  29.694  30.859  1.00  0.00     0.167 HD
ATOM     58  C   UNL A   1      43.596  30.539  32.754  1.00  0.00     0.074 A 
ATOM     59  C   UNL A   1      44.277  31.334  33.755  1.00  0.00     0.031 C 
ATOM     60  C   UNL A   1      44.010  29.317  32.339  1.00  0.00     0.031 A 
BRANCH  47  61
ATOM     61  C   UNL A   1      40.327  26.709  28.124  1.00  0.00    -0.014 A 
ATOM     62  C   UNL A   1      39.529  25.646  28.574  1.00  0.00     0.009 A 
ATOM     63  C   UNL A   1      40.845  26.666  26.820  1.00  0.00     0.009 A 
ATOM     64  C   UNL A   1      39.284  24.548  27.747  1.00  0.00     0.001 A 
ATOM     65  C   UNL A   1      40.580  25.579  25.987  1.00  0.00     0.001 A 
ATOM     66  C   UNL A   1      39.808  24.516  26.454  1.00  0.00     0.000 A 
ENDBRANCH  47  61
BRANCH  48  67
ATOM     67  C   UNL A   1      41.752  34.707  33.906  1.00  0.00    -0.014 A 
ATOM     68  C   UNL A   1      41.182  34.728  35.188  1.00  0.00     0.009 A 
ATOM     69  C   UNL A   1      42.514  35.809  33.483  1.00  0.00     0.009 A 
ATOM     70  C   UNL A   1      41.361  35.836  36.021  1.00  0.00     0.001 A 
ATOM     71  C   UNL A   1      42.711  36.902  34.327  1.00  0.00     0.001 A 
ATOM     72  C   UNL A   1      42.129  36.917  35.594  1.00  0.00     0.000 A 
ENDBRANCH  48  67
BRANCH  60  73
ATOM     73  C   UNL A   1      45.271  28.776  32.950  1.00  0.00    -0.014 A 
ATOM     74  C   UNL A   1      45.230  27.960  34.090  1.00  0.00     0.009 A 
ATOM     75  C   UNL A   1      46.508  29.050  32.349  1.00  0.00     0.009 A 
ATOM     76  C   UNL A   1      46.410  27.447  34.630  1.00  0.00     0.001 A 
ATOM     77  C   UNL A   1      47.684  28.518  32.879  1.00  0.00     0.001 A 
ATOM     78  C   UNL A   1      47.634  27.723  34.023  1.00  0.00     0.000 A 
ENDBRANCH  60  73
ENDBRANCH  34  35
ENDBRANCH  27  29
ENDBRANCH  26  27
ENDBRANCH  25  26
ENDBRANCH   1  25
TORSDOF 18
ENDMDL
