MODEL 1
REMARK VINA RESULT:     -12.1      0.000      0.000
REMARK SMILES Cc1nccn1CCC[NH+]1CCC2(CC1)[C@@H](C(=O)OCCOC(=O)c1ccc(-c3c4nc(c(-c5ccccc5)c5ccc([nH]5)c(-c5ccccc5)c5nc(c(-c6ccccc6)c6ccc3[nH]6)C=C5)C=C4)cc1)CC(=O)N2C
REMARK SMILES IDX 20 1 19 2 17 3 18 4 16 5 10 6 11 7 15 8 12 10 14 11 13 12
REMARK SMILES IDX 76 13 73 14 74 15 77 16 75 17 9 18 8 19 7 20 6 21 1 22 2 23
REMARK SMILES IDX 3 24 4 25 5 26 21 27 22 28 23 29 24 30 25 31 26 32 72 33
REMARK SMILES IDX 27 34 71 35 28 36 29 37 30 38 65 39 31 40 70 41 64 42 66 43
REMARK SMILES IDX 32 44 69 45 63 46 62 47 33 49 55 50 40 51 54 52 41 53 44 54
REMARK SMILES IDX 53 55 67 56 42 57 43 58 52 60 68 61 45 62 34 63 35 64 39 65
REMARK SMILES IDX 36 66 38 67 37 68 56 69 57 70 61 71 58 72 60 73 59 74 46 75
REMARK SMILES IDX 47 76 51 77 48 78 50 79 49 80
REMARK H PARENT 10 9 66 48 44 59
REMARK Flexibility Score: inf
ROOT
ATOM      1  C   UNL A   1      37.253  22.235  24.438  1.00  0.00     0.274 C 
ENDROOT
BRANCH   1   2
ATOM      2  O   UNL A   1      35.810  22.146  24.376  1.00  0.00    -0.462 OA
BRANCH   2   3
ATOM      3  C   UNL A   1      35.091  22.869  23.487  1.00  0.00     0.311 C 
ATOM      4  O   UNL A   1      35.601  23.729  22.776  1.00  0.00    -0.252 OA
BRANCH   3   5
ATOM      5  C   UNL A   1      33.575  22.613  23.545  1.00  0.00     0.134 C 
ATOM      6  N   UNL A   1      31.667  26.268  24.446  1.00  0.00    -0.335 N 
ATOM      7  C   UNL A   1      30.773  25.304  23.850  1.00  0.00     0.264 C 
ATOM      8  C   UNL A   1      32.321  25.785  25.637  1.00  0.00     0.264 C 
ATOM      9  H   UNL A   1      31.071  26.995  24.840  1.00  0.00     0.348 HD
ATOM     10  C   UNL A   1      31.496  24.042  23.412  1.00  0.00     0.091 C 
ATOM     11  C   UNL A   1      33.111  24.497  25.412  1.00  0.00     0.091 C 
ATOM     12  C   UNL A   1      32.529  23.443  24.420  1.00  0.00     0.067 C 
ATOM     13  N   UNL A   1      31.846  22.375  25.192  1.00  0.00    -0.339 N 
ATOM     14  C   UNL A   1      33.326  21.131  23.863  1.00  0.00     0.118 C 
ATOM     15  C   UNL A   1      32.229  21.090  24.874  1.00  0.00     0.223 C 
ATOM     16  C   UNL A   1      30.790  22.590  26.161  1.00  0.00     0.147 C 
ATOM     17  O   UNL A   1      31.756  20.062  25.334  1.00  0.00    -0.275 OA
BRANCH   6  18
ATOM     18  C   UNL A   1      32.222  27.340  23.638  1.00  0.00     0.264 C 
BRANCH  18  19
ATOM     19  C   UNL A   1      31.725  28.790  23.739  1.00  0.00     0.083 C 
BRANCH  19  20
ATOM     20  C   UNL A   1      30.599  29.268  22.830  1.00  0.00     0.129 C 
BRANCH  20  21
ATOM     21  N   UNL A   1      29.193  29.240  23.145  1.00  0.00    -0.335 N 
ATOM     22  C   UNL A   1      28.826  31.788  23.208  1.00  0.00     0.087 C 
ATOM     23  C   UNL A   1      28.379  30.366  23.213  1.00  0.00     0.105 A 
ATOM     24  N   UNL A   1      27.109  30.012  23.236  1.00  0.00    -0.242 NA
ATOM     25  C   UNL A   1      27.095  28.649  23.185  1.00  0.00     0.131 A 
ATOM     26  C   UNL A   1      28.374  28.150  23.150  1.00  0.00     0.107 A 
ENDBRANCH  20  21
ENDBRANCH  19  20
ENDBRANCH  18  19
ENDBRANCH   6  18
ENDBRANCH   3   5
ENDBRANCH   2   3
ENDBRANCH   1   2
BRANCH   1  27
ATOM     27  C   UNL A   1      37.826  21.037  25.174  1.00  0.00     0.275 C 
BRANCH  27  28
ATOM     28  O   UNL A   1      39.065  21.439  25.733  1.00  0.00    -0.458 OA
BRANCH  28  29
ATOM     29  C   UNL A   1      39.978  20.452  25.836  1.00  0.00     0.338 C 
ATOM     30  O   UNL A   1      39.824  19.272  25.588  1.00  0.00    -0.246 OA
BRANCH  29  31
ATOM     31  C   UNL A   1      41.199  20.985  26.423  1.00  0.00     0.060 A 
ATOM     32  C   UNL A   1      41.293  20.857  27.812  1.00  0.00     0.016 A 
ATOM     33  C   UNL A   1      41.853  21.978  25.691  1.00  0.00     0.016 A 
ATOM     34  C   UNL A   1      41.772  21.929  28.507  1.00  0.00     0.010 A 
ATOM     35  C   UNL A   1      42.256  23.077  26.383  1.00  0.00     0.010 A 
ATOM     36  C   UNL A   1      42.113  23.061  27.769  1.00  0.00    -0.014 A 
BRANCH  36  37
ATOM     37  C   UNL A   1      42.348  24.276  28.491  1.00  0.00     0.031 A 
ATOM     38  C   UNL A   1      41.346  25.306  28.179  1.00  0.00     0.074 A 
ATOM     39  C   UNL A   1      43.295  24.335  29.439  1.00  0.00     0.049 A 
ATOM     40  N   UNL A   1      41.514  26.417  27.548  1.00  0.00    -0.248 NA
ATOM     41  C   UNL A   1      39.939  24.936  28.414  1.00  0.00     0.031 C 
ATOM     42  C   UNL A   1      44.065  23.234  30.030  1.00  0.00     0.029 A 
ATOM     43  N   UNL A   1      43.645  25.400  30.192  1.00  0.00    -0.354 N 
ATOM     44  C   UNL A   1      40.240  26.965  27.462  1.00  0.00     0.074 A 
ATOM     45  C   UNL A   1      39.312  25.909  27.763  1.00  0.00     0.031 C 
ATOM     46  C   UNL A   1      44.582  23.652  31.209  1.00  0.00     0.029 A 
ATOM     47  C   UNL A   1      44.276  25.065  31.376  1.00  0.00     0.049 A 
ATOM     48  H   UNL A   1      43.468  26.330  29.923  1.00  0.00     0.167 HD
ATOM     49  C   UNL A   1      40.038  28.308  27.469  1.00  0.00     0.031 A 
ATOM     50  C   UNL A   1      44.400  25.882  32.449  1.00  0.00     0.031 A 
ATOM     51  C   UNL A   1      41.243  29.033  27.172  1.00  0.00     0.049 A 
ATOM     52  C   UNL A   1      44.094  27.266  31.998  1.00  0.00     0.074 A 
ATOM     53  C   UNL A   1      42.084  29.103  26.080  1.00  0.00     0.029 A 
ATOM     54  N   UNL A   1      41.958  29.519  28.241  1.00  0.00    -0.354 N 
ATOM     55  N   UNL A   1      44.833  27.936  31.160  1.00  0.00    -0.248 NA
ATOM     56  C   UNL A   1      42.720  27.736  32.116  1.00  0.00     0.031 C 
ATOM     57  C   UNL A   1      43.395  29.216  26.627  1.00  0.00     0.029 A 
ATOM     58  C   UNL A   1      43.286  29.252  28.020  1.00  0.00     0.049 A 
ATOM     59  H   UNL A   1      41.583  29.978  29.027  1.00  0.00     0.167 HD
ATOM     60  C   UNL A   1      43.937  28.632  30.355  1.00  0.00     0.074 A 
ATOM     61  C   UNL A   1      42.661  28.554  31.060  1.00  0.00     0.031 C 
ATOM     62  C   UNL A   1      44.248  28.953  29.062  1.00  0.00     0.031 A 
BRANCH  49  63
ATOM     63  C   UNL A   1      38.848  28.929  28.152  1.00  0.00    -0.014 A 
ATOM     64  C   UNL A   1      38.700  28.760  29.534  1.00  0.00     0.009 A 
ATOM     65  C   UNL A   1      37.743  29.469  27.458  1.00  0.00     0.009 A 
ATOM     66  C   UNL A   1      37.496  29.080  30.176  1.00  0.00     0.001 A 
ATOM     67  C   UNL A   1      36.562  29.836  28.099  1.00  0.00     0.001 A 
ATOM     68  C   UNL A   1      36.430  29.618  29.460  1.00  0.00     0.000 A 
ENDBRANCH  49  63
BRANCH  50  69
ATOM     69  C   UNL A   1      44.381  25.485  33.872  1.00  0.00    -0.014 A 
ATOM     70  C   UNL A   1      45.296  26.033  34.780  1.00  0.00     0.009 A 
ATOM     71  C   UNL A   1      43.298  24.748  34.393  1.00  0.00     0.009 A 
ATOM     72  C   UNL A   1      45.121  25.868  36.161  1.00  0.00     0.001 A 
ATOM     73  C   UNL A   1      43.126  24.580  35.770  1.00  0.00     0.001 A 
ATOM     74  C   UNL A   1      44.032  25.153  36.655  1.00  0.00     0.000 A 
ENDBRANCH  50  69
BRANCH  62  75
ATOM     75  C   UNL A   1      45.672  28.724  28.611  1.00  0.00    -0.014 A 
ATOM     76  C   UNL A   1      46.096  27.529  28.001  1.00  0.00     0.009 A 
ATOM     77  C   UNL A   1      46.570  29.800  28.654  1.00  0.00     0.009 A 
ATOM     78  C   UNL A   1      47.389  27.407  27.479  1.00  0.00     0.001 A 
ATOM     79  C   UNL A   1      47.853  29.685  28.114  1.00  0.00     0.001 A 
ATOM     80  C   UNL A   1      48.264  28.488  27.531  1.00  0.00     0.000 A 
ENDBRANCH  62  75
ENDBRANCH  36  37
ENDBRANCH  29  31
ENDBRANCH  28  29
ENDBRANCH  27  28
ENDBRANCH   1  27
TORSDOF 15
ENDMDL
MODEL 2
REMARK VINA RESULT:     -12.1      1.939      4.771
REMARK SMILES Cc1nccn1CCC[NH+]1CCC2(CC1)[C@@H](C(=O)OCCOC(=O)c1ccc(-c3c4nc(c(-c5ccccc5)c5ccc([nH]5)c(-c5ccccc5)c5nc(c(-c6ccccc6)c6ccc3[nH]6)C=C5)C=C4)cc1)CC(=O)N2C
REMARK SMILES IDX 20 1 19 2 17 3 18 4 16 5 10 6 11 7 15 8 12 10 14 11 13 12
REMARK SMILES IDX 76 13 73 14 74 15 77 16 75 17 9 18 8 19 7 20 6 21 1 22 2 23
REMARK SMILES IDX 3 24 4 25 5 26 21 27 22 28 23 29 24 30 25 31 26 32 72 33
REMARK SMILES IDX 27 34 71 35 28 36 29 37 30 38 65 39 31 40 70 41 64 42 66 43
REMARK SMILES IDX 32 44 69 45 63 46 62 47 33 49 55 50 40 51 54 52 41 53 44 54
REMARK SMILES IDX 53 55 67 56 42 57 43 58 52 60 68 61 45 62 34 63 35 64 39 65
REMARK SMILES IDX 36 66 38 67 37 68 56 69 57 70 61 71 58 72 60 73 59 74 46 75
REMARK SMILES IDX 47 76 51 77 48 78 50 79 49 80
REMARK H PARENT 10 9 66 48 44 59
REMARK Flexibility Score: inf
ROOT
ATOM      1  C   UNL A   1      36.505  21.612  25.850  1.00  0.00     0.274 C 
ENDROOT
BRANCH   1   2
ATOM      2  O   UNL A   1      35.713  22.554  25.088  1.00  0.00    -0.462 OA
BRANCH   2   3
ATOM      3  C   UNL A   1      35.682  23.870  25.398  1.00  0.00     0.311 C 
ATOM      4  O   UNL A   1      36.666  24.467  25.824  1.00  0.00    -0.252 OA
BRANCH   3   5
ATOM      5  C   UNL A   1      34.286  24.509  25.298  1.00  0.00     0.134 C 
ATOM      6  N   UNL A   1      32.007  22.244  22.562  1.00  0.00    -0.335 N 
ATOM      7  C   UNL A   1      31.188  23.047  23.439  1.00  0.00     0.264 C 
ATOM      8  C   UNL A   1      32.982  23.009  21.825  1.00  0.00     0.264 C 
ATOM      9  H   UNL A   1      31.393  21.943  21.806  1.00  0.00     0.348 HD
ATOM     10  C   UNL A   1      32.009  23.757  24.501  1.00  0.00     0.091 C 
ATOM     11  C   UNL A   1      33.918  23.817  22.722  1.00  0.00     0.091 C 
ATOM     12  C   UNL A   1      33.328  24.445  24.023  1.00  0.00     0.067 C 
ATOM     13  N   UNL A   1      33.032  25.879  23.779  1.00  0.00    -0.339 N 
ATOM     14  C   UNL A   1      34.379  25.990  25.696  1.00  0.00     0.118 C 
ATOM     15  C   UNL A   1      33.557  26.749  24.709  1.00  0.00     0.223 C 
ATOM     16  C   UNL A   1      32.195  26.389  22.711  1.00  0.00     0.147 C 
ATOM     17  O   UNL A   1      33.387  27.958  24.742  1.00  0.00    -0.275 OA
BRANCH   6  18
ATOM     18  C   UNL A   1      32.171  20.825  22.821  1.00  0.00     0.264 C 
BRANCH  18  19
ATOM     19  C   UNL A   1      32.407  20.265  24.232  1.00  0.00     0.083 C 
BRANCH  19  20
ATOM     20  C   UNL A   1      33.410  19.137  24.440  1.00  0.00     0.129 C 
BRANCH  20  21
ATOM     21  N   UNL A   1      33.084  17.761  24.719  1.00  0.00    -0.335 N 
ATOM     22  C   UNL A   1      34.294  16.727  22.694  1.00  0.00     0.087 C 
ATOM     23  C   UNL A   1      33.566  16.675  23.994  1.00  0.00     0.105 A 
ATOM     24  N   UNL A   1      33.334  15.552  24.644  1.00  0.00    -0.242 NA
ATOM     25  C   UNL A   1      32.696  15.906  25.796  1.00  0.00     0.131 A 
ATOM     26  C   UNL A   1      32.512  17.265  25.854  1.00  0.00     0.107 A 
ENDBRANCH  20  21
ENDBRANCH  19  20
ENDBRANCH  18  19
ENDBRANCH   6  18
ENDBRANCH   3   5
ENDBRANCH   2   3
ENDBRANCH   1   2
BRANCH   1  27
ATOM     27  C   UNL A   1      37.710  21.162  25.044  1.00  0.00     0.275 C 
BRANCH  27  28
ATOM     28  O   UNL A   1      38.863  21.440  25.820  1.00  0.00    -0.458 OA
BRANCH  28  29
ATOM     29  C   UNL A   1      39.782  20.453  25.830  1.00  0.00     0.338 C 
ATOM     30  O   UNL A   1      39.623  19.290  25.516  1.00  0.00    -0.246 OA
BRANCH  29  31
ATOM     31  C   UNL A   1      41.022  20.955  26.405  1.00  0.00     0.060 A 
ATOM     32  C   UNL A   1      41.124  20.830  27.794  1.00  0.00     0.016 A 
ATOM     33  C   UNL A   1      41.697  21.927  25.663  1.00  0.00     0.016 A 
ATOM     34  C   UNL A   1      41.637  21.893  28.480  1.00  0.00     0.010 A 
ATOM     35  C   UNL A   1      42.135  23.017  26.346  1.00  0.00     0.010 A 
ATOM     36  C   UNL A   1      42.003  23.012  27.734  1.00  0.00    -0.014 A 
BRANCH  36  37
ATOM     37  C   UNL A   1      42.277  24.223  28.448  1.00  0.00     0.031 A 
ATOM     38  C   UNL A   1      41.280  25.266  28.167  1.00  0.00     0.074 A 
ATOM     39  C   UNL A   1      43.253  24.268  29.367  1.00  0.00     0.049 A 
ATOM     40  N   UNL A   1      41.444  26.376  27.531  1.00  0.00    -0.248 NA
ATOM     41  C   UNL A   1      39.875  24.916  28.445  1.00  0.00     0.031 C 
ATOM     42  C   UNL A   1      44.025  23.156  29.934  1.00  0.00     0.029 A 
ATOM     43  N   UNL A   1      43.640  25.328  30.109  1.00  0.00    -0.354 N 
ATOM     44  C   UNL A   1      40.176  26.941  27.484  1.00  0.00     0.074 A 
ATOM     45  C   UNL A   1      39.242  25.898  27.814  1.00  0.00     0.031 C 
ATOM     46  C   UNL A   1      44.584  23.567  31.096  1.00  0.00     0.029 A 
ATOM     47  C   UNL A   1      44.303  24.984  31.273  1.00  0.00     0.049 A 
ATOM     48  H   UNL A   1      43.468  26.260  29.845  1.00  0.00     0.167 HD
ATOM     49  C   UNL A   1      39.992  28.286  27.498  1.00  0.00     0.031 A 
ATOM     50  C   UNL A   1      44.471  25.798  32.342  1.00  0.00     0.031 A 
ATOM     51  C   UNL A   1      41.197  28.995  27.163  1.00  0.00     0.049 A 
ATOM     52  C   UNL A   1      44.171  27.187  31.899  1.00  0.00     0.074 A 
ATOM     53  C   UNL A   1      42.006  29.053  26.046  1.00  0.00     0.029 A 
ATOM     54  N   UNL A   1      41.952  29.471  28.210  1.00  0.00    -0.354 N 
ATOM     55  N   UNL A   1      44.893  27.847  31.039  1.00  0.00    -0.248 NA
ATOM     56  C   UNL A   1      42.807  27.677  32.060  1.00  0.00     0.031 C 
ATOM     57  C   UNL A   1      43.335  29.148  26.553  1.00  0.00     0.029 A 
ATOM     58  C   UNL A   1      43.269  29.186  27.949  1.00  0.00     0.049 A 
ATOM     59  H   UNL A   1      41.608  29.934  29.007  1.00  0.00     0.167 HD
ATOM     60  C   UNL A   1      43.982  28.556  30.262  1.00  0.00     0.074 A 
ATOM     61  C   UNL A   1      42.728  28.495  31.006  1.00  0.00     0.031 C 
ATOM     62  C   UNL A   1      44.257  28.873  28.961  1.00  0.00     0.031 A 
BRANCH  49  63
ATOM     63  C   UNL A   1      38.833  28.924  28.216  1.00  0.00    -0.014 A 
ATOM     64  C   UNL A   1      38.670  28.677  29.585  1.00  0.00     0.009 A 
ATOM     65  C   UNL A   1      37.760  29.562  27.556  1.00  0.00     0.009 A 
ATOM     66  C   UNL A   1      37.481  29.017  30.244  1.00  0.00     0.001 A 
ATOM     67  C   UNL A   1      36.596  29.949  28.217  1.00  0.00     0.001 A 
ATOM     68  C   UNL A   1      36.447  29.653  29.562  1.00  0.00     0.000 A 
ENDBRANCH  49  63
BRANCH  50  69
ATOM     69  C   UNL A   1      44.490  25.402  33.765  1.00  0.00    -0.014 A 
ATOM     70  C   UNL A   1      43.383  24.772  34.347  1.00  0.00     0.009 A 
ATOM     71  C   UNL A   1      45.695  25.422  34.495  1.00  0.00     0.009 A 
ATOM     72  C   UNL A   1      43.485  24.163  35.605  1.00  0.00     0.001 A 
ATOM     73  C   UNL A   1      45.797  24.818  35.751  1.00  0.00     0.001 A 
ATOM     74  C   UNL A   1      44.693  24.176  36.301  1.00  0.00     0.000 A 
ENDBRANCH  50  69
BRANCH  62  75
ATOM     75  C   UNL A   1      45.664  28.624  28.466  1.00  0.00    -0.014 A 
ATOM     76  C   UNL A   1      46.704  29.560  28.621  1.00  0.00     0.009 A 
ATOM     77  C   UNL A   1      45.988  27.350  27.979  1.00  0.00     0.009 A 
ATOM     78  C   UNL A   1      48.019  29.239  28.269  1.00  0.00     0.001 A 
ATOM     79  C   UNL A   1      47.305  27.022  27.648  1.00  0.00     0.001 A 
ATOM     80  C   UNL A   1      48.319  27.967  27.788  1.00  0.00     0.000 A 
ENDBRANCH  62  75
ENDBRANCH  36  37
ENDBRANCH  29  31
ENDBRANCH  28  29
ENDBRANCH  27  28
ENDBRANCH   1  27
TORSDOF 15
ENDMDL
MODEL 3
REMARK VINA RESULT:     -11.8      4.150      9.075
REMARK SMILES Cc1nccn1CCC[NH+]1CCC2(CC1)[C@@H](C(=O)OCCOC(=O)c1ccc(-c3c4nc(c(-c5ccccc5)c5ccc([nH]5)c(-c5ccccc5)c5nc(c(-c6ccccc6)c6ccc3[nH]6)C=C5)C=C4)cc1)CC(=O)N2C
REMARK SMILES IDX 20 1 19 2 17 3 18 4 16 5 10 6 11 7 15 8 12 10 14 11 13 12
REMARK SMILES IDX 76 13 73 14 74 15 77 16 75 17 9 18 8 19 7 20 6 21 1 22 2 23
REMARK SMILES IDX 3 24 4 25 5 26 21 27 22 28 23 29 24 30 25 31 26 32 72 33
REMARK SMILES IDX 27 34 71 35 28 36 29 37 30 38 65 39 31 40 70 41 64 42 66 43
REMARK SMILES IDX 32 44 69 45 63 46 62 47 33 49 55 50 40 51 54 52 41 53 44 54
REMARK SMILES IDX 53 55 67 56 42 57 43 58 52 60 68 61 45 62 34 63 35 64 39 65
REMARK SMILES IDX 36 66 38 67 37 68 56 69 57 70 61 71 58 72 60 73 59 74 46 75
REMARK SMILES IDX 47 76 51 77 48 78 50 79 49 80
REMARK H PARENT 10 9 66 48 44 59
REMARK Flexibility Score: inf
ROOT
ATOM      1  C   UNL A   1      32.414  29.121  27.214  1.00  0.00     0.274 C 
ENDROOT
BRANCH   1   2
ATOM      2  O   UNL A   1      32.063  28.324  26.058  1.00  0.00    -0.462 OA
BRANCH   2   3
ATOM      3  C   UNL A   1      31.397  27.153  26.179  1.00  0.00     0.311 C 
ATOM      4  O   UNL A   1      31.384  26.510  27.224  1.00  0.00    -0.252 OA
BRANCH   3   5
ATOM      5  C   UNL A   1      30.779  26.640  24.866  1.00  0.00     0.134 C 
ATOM      6  N   UNL A   1      32.577  22.937  23.935  1.00  0.00    -0.335 N 
ATOM      7  C   UNL A   1      31.317  23.132  23.258  1.00  0.00     0.264 C 
ATOM      8  C   UNL A   1      33.532  23.988  23.684  1.00  0.00     0.264 C 
ATOM      9  H   UNL A   1      33.029  22.155  23.464  1.00  0.00     0.348 HD
ATOM     10  C   UNL A   1      30.618  24.406  23.698  1.00  0.00     0.091 C 
ATOM     11  C   UNL A   1      33.014  25.376  24.056  1.00  0.00     0.091 C 
ATOM     12  C   UNL A   1      31.505  25.687  23.812  1.00  0.00     0.067 C 
ATOM     13  N   UNL A   1      31.366  26.452  22.547  1.00  0.00    -0.339 N 
ATOM     14  C   UNL A   1      30.232  27.833  24.067  1.00  0.00     0.118 C 
ATOM     15  C   UNL A   1      30.630  27.613  22.646  1.00  0.00     0.223 C 
ATOM     16  C   UNL A   1      31.869  26.029  21.256  1.00  0.00     0.147 C 
ATOM     17  O   UNL A   1      30.336  28.360  21.726  1.00  0.00    -0.275 OA
BRANCH   6  18
ATOM     18  C   UNL A   1      32.644  22.097  25.117  1.00  0.00     0.264 C 
BRANCH  18  19
ATOM     19  C   UNL A   1      33.336  20.726  25.116  1.00  0.00     0.083 C 
BRANCH  19  20
ATOM     20  C   UNL A   1      32.514  19.463  24.889  1.00  0.00     0.129 C 
BRANCH  20  21
ATOM     21  N   UNL A   1      33.025  18.197  24.427  1.00  0.00    -0.335 N 
ATOM     22  C   UNL A   1      32.257  18.414  21.978  1.00  0.00     0.087 C 
ATOM     23  C   UNL A   1      32.999  17.774  23.101  1.00  0.00     0.105 A 
ATOM     24  N   UNL A   1      33.780  16.724  22.941  1.00  0.00    -0.242 NA
ATOM     25  C   UNL A   1      34.314  16.459  24.167  1.00  0.00     0.131 A 
ATOM     26  C   UNL A   1      33.845  17.345  25.105  1.00  0.00     0.107 A 
ENDBRANCH  20  21
ENDBRANCH  19  20
ENDBRANCH  18  19
ENDBRANCH   6  18
ENDBRANCH   3   5
ENDBRANCH   2   3
ENDBRANCH   1   2
BRANCH   1  27
ATOM     27  C   UNL A   1      32.366  30.598  26.872  1.00  0.00     0.275 C 
BRANCH  27  28
ATOM     28  O   UNL A   1      33.275  31.261  27.734  1.00  0.00    -0.458 OA
BRANCH  28  29
ATOM     29  C   UNL A   1      33.032  32.578  27.898  1.00  0.00     0.338 C 
ATOM     30  O   UNL A   1      32.118  33.226  27.428  1.00  0.00    -0.246 OA
BRANCH  29  31
ATOM     31  C   UNL A   1      34.124  33.179  28.648  1.00  0.00     0.060 A 
ATOM     32  C   UNL A   1      35.120  33.778  27.869  1.00  0.00     0.016 A 
ATOM     33  C   UNL A   1      34.346  32.670  29.930  1.00  0.00     0.016 A 
ATOM     34  C   UNL A   1      36.416  33.563  28.239  1.00  0.00     0.010 A 
ATOM     35  C   UNL A   1      35.635  32.387  30.257  1.00  0.00     0.010 A 
ATOM     36  C   UNL A   1      36.631  32.755  29.355  1.00  0.00    -0.014 A 
BRANCH  36  37
ATOM     37  C   UNL A   1      37.966  32.293  29.589  1.00  0.00     0.031 A 
ATOM     38  C   UNL A   1      38.109  30.856  29.316  1.00  0.00     0.074 A 
ATOM     39  C   UNL A   1      38.950  33.161  29.870  1.00  0.00     0.049 A 
ATOM     40  N   UNL A   1      38.331  29.902  30.154  1.00  0.00    -0.248 NA
ATOM     41  C   UNL A   1      37.738  30.412  27.960  1.00  0.00     0.031 C 
ATOM     42  C   UNL A   1      38.923  34.626  29.795  1.00  0.00     0.029 A 
ATOM     43  N   UNL A   1      40.246  32.885  30.128  1.00  0.00    -0.354 N 
ATOM     44  C   UNL A   1      38.295  28.746  29.384  1.00  0.00     0.074 A 
ATOM     45  C   UNL A   1      37.675  29.097  28.135  1.00  0.00     0.031 C 
ATOM     46  C   UNL A   1      40.197  35.080  29.744  1.00  0.00     0.029 A 
ATOM     47  C   UNL A   1      41.100  33.949  29.905  1.00  0.00     0.049 A 
ATOM     48  H   UNL A   1      40.555  32.007  30.448  1.00  0.00     0.167 HD
ATOM     49  C   UNL A   1      39.057  27.663  29.684  1.00  0.00     0.031 A 
ATOM     50  C   UNL A   1      42.440  33.849  29.736  1.00  0.00     0.031 A 
ATOM     51  C   UNL A   1      39.546  27.710  31.035  1.00  0.00     0.049 A 
ATOM     52  C   UNL A   1      42.851  32.498  30.204  1.00  0.00     0.074 A 
ATOM     53  C   UNL A   1      38.950  27.713  32.279  1.00  0.00     0.029 A 
ATOM     54  N   UNL A   1      40.824  28.185  31.220  1.00  0.00    -0.354 N 
ATOM     55  N   UNL A   1      42.785  32.108  31.445  1.00  0.00    -0.248 NA
ATOM     56  C   UNL A   1      42.902  31.421  29.223  1.00  0.00     0.031 C 
ATOM     57  C   UNL A   1      39.744  28.593  33.071  1.00  0.00     0.029 A 
ATOM     58  C   UNL A   1      40.807  29.048  32.286  1.00  0.00     0.049 A 
ATOM     59  H   UNL A   1      41.612  27.946  30.681  1.00  0.00     0.167 HD
ATOM     60  C   UNL A   1      42.375  30.780  31.391  1.00  0.00     0.074 A 
ATOM     61  C   UNL A   1      42.569  30.384  29.999  1.00  0.00     0.031 C 
ATOM     62  C   UNL A   1      41.651  30.220  32.407  1.00  0.00     0.031 A 
BRANCH  49  63
ATOM     63  C   UNL A   1      39.673  26.802  28.613  1.00  0.00    -0.014 A 
ATOM     64  C   UNL A   1      40.545  27.394  27.690  1.00  0.00     0.009 A 
ATOM     65  C   UNL A   1      39.247  25.487  28.327  1.00  0.00     0.009 A 
ATOM     66  C   UNL A   1      40.935  26.717  26.528  1.00  0.00     0.001 A 
ATOM     67  C   UNL A   1      39.673  24.789  27.199  1.00  0.00     0.001 A 
ATOM     68  C   UNL A   1      40.501  25.416  26.283  1.00  0.00     0.000 A 
ENDBRANCH  49  63
BRANCH  50  69
ATOM     69  C   UNL A   1      43.288  34.680  28.857  1.00  0.00    -0.014 A 
ATOM     70  C   UNL A   1      43.795  35.907  29.303  1.00  0.00     0.009 A 
ATOM     71  C   UNL A   1      43.805  34.152  27.657  1.00  0.00     0.009 A 
ATOM     72  C   UNL A   1      44.800  36.570  28.586  1.00  0.00     0.001 A 
ATOM     73  C   UNL A   1      44.804  34.815  26.939  1.00  0.00     0.001 A 
ATOM     74  C   UNL A   1      45.312  36.019  27.413  1.00  0.00     0.000 A 
ENDBRANCH  50  69
BRANCH  62  75
ATOM     75  C   UNL A   1      41.502  31.022  33.680  1.00  0.00    -0.014 A 
ATOM     76  C   UNL A   1      40.556  32.054  33.825  1.00  0.00     0.009 A 
ATOM     77  C   UNL A   1      42.221  30.619  34.813  1.00  0.00     0.009 A 
ATOM     78  C   UNL A   1      40.361  32.681  35.060  1.00  0.00     0.001 A 
ATOM     79  C   UNL A   1      42.011  31.231  36.051  1.00  0.00     0.001 A 
ATOM     80  C   UNL A   1      41.085  32.265  36.174  1.00  0.00     0.000 A 
ENDBRANCH  62  75
ENDBRANCH  36  37
ENDBRANCH  29  31
ENDBRANCH  28  29
ENDBRANCH  27  28
ENDBRANCH   1  27
TORSDOF 15
ENDMDL
