MODEL 1
REMARK VINA RESULT:      -9.5      0.000      0.000
REMARK SMILES CC1(C)CC[N@@H+]([C@H](CC(=O)OCCOC(=O)c2ccc(-c3c4nc(c(-c5ccccc5)c5ccc([nH]5)c(-c5ccccc5)c5nc(c(-c6ccccc6)c6ccc3[nH]6)C=C5)C=C4)cc2)C(F)(F)F)C1
REMARK SMILES IDX 12 1 11 2 9 3 10 4 8 5 7 6 6 7 1 8 2 9 3 10 4 11 69 12 5 13
REMARK SMILES IDX 65 15 66 16 67 17 68 18 13 19 14 20 15 21 16 22 17 23 18 24
REMARK SMILES IDX 64 25 19 26 63 27 20 28 21 29 22 30 57 31 23 32 62 33 56 34
REMARK SMILES IDX 58 35 24 36 61 37 55 38 54 39 25 41 47 42 32 43 46 44 33 45
REMARK SMILES IDX 36 46 45 47 59 48 34 49 35 50 44 52 60 53 37 54 26 55 27 56
REMARK SMILES IDX 31 57 28 58 30 59 29 60 48 61 49 62 53 63 50 64 52 65 51 66
REMARK SMILES IDX 38 67 39 68 43 69 40 70 42 71 41 72
REMARK H PARENT 6 14 58 40 36 51
REMARK Flexibility Score: inf
ROOT
ATOM      1  C   UNL A   1      33.331  35.059  28.424  1.00  0.00     0.274 C 
ENDROOT
BRANCH   1   2
ATOM      2  O   UNL A   1      34.546  34.294  28.591  1.00  0.00    -0.462 OA
BRANCH   2   3
ATOM      3  C   UNL A   1      34.402  33.004  28.970  1.00  0.00     0.312 C 
ATOM      4  O   UNL A   1      34.256  32.642  30.133  1.00  0.00    -0.252 OA
BRANCH   3   5
ATOM      5  C   UNL A   1      34.665  32.017  27.854  1.00  0.00     0.197 C 
BRANCH   5   6
ATOM      6  C   UNL A   1      34.454  30.498  28.025  1.00  0.00     0.302 C 
BRANCH   6   7
ATOM      7  N   UNL A   1      33.165  29.940  27.555  1.00  0.00    -0.324 N 
ATOM      8  C   UNL A   1      33.447  29.158  24.469  1.00  0.00     0.017 C 
ATOM      9  C   UNL A   1      32.267  29.338  25.424  1.00  0.00     0.019 C 
ATOM     10  C   UNL A   1      31.000  29.517  24.584  1.00  0.00     0.017 C 
ATOM     11  C   UNL A   1      32.138  28.145  26.378  1.00  0.00     0.073 C 
ATOM     12  C   UNL A   1      32.519  30.512  26.379  1.00  0.00     0.269 C 
ATOM     13  C   UNL A   1      33.006  28.495  27.581  1.00  0.00     0.263 C 
ATOM     14  H   UNL A   1      32.634  30.317  28.341  1.00  0.00     0.348 HD
ENDBRANCH   6   7
BRANCH   6  15
ATOM     15  C   UNL A   1      35.719  29.684  27.632  1.00  0.00     0.441 C 
ATOM     16  F   UNL A   1      36.721  30.514  27.254  1.00  0.00    -0.165 F 
ATOM     17  F   UNL A   1      36.179  28.974  28.691  1.00  0.00    -0.165 F 
ATOM     18  F   UNL A   1      35.509  28.807  26.630  1.00  0.00    -0.165 F 
ENDBRANCH   6  15
ENDBRANCH   5   6
ENDBRANCH   3   5
ENDBRANCH   2   3
ENDBRANCH   1   2
BRANCH   1  19
ATOM     19  C   UNL A   1      32.990  35.919  29.639  1.00  0.00     0.275 C 
BRANCH  19  20
ATOM     20  O   UNL A   1      32.427  35.110  30.693  1.00  0.00    -0.458 OA
BRANCH  20  21
ATOM     21  C   UNL A   1      32.482  35.662  31.919  1.00  0.00     0.338 C 
ATOM     22  O   UNL A   1      31.719  36.503  32.384  1.00  0.00    -0.246 OA
BRANCH  21  23
ATOM     23  C   UNL A   1      33.621  35.169  32.705  1.00  0.00     0.060 A 
ATOM     24  C   UNL A   1      34.824  35.868  32.717  1.00  0.00     0.016 A 
ATOM     25  C   UNL A   1      33.561  33.861  33.196  1.00  0.00     0.016 A 
ATOM     26  C   UNL A   1      35.997  35.195  33.077  1.00  0.00     0.010 A 
ATOM     27  C   UNL A   1      34.725  33.218  33.625  1.00  0.00     0.010 A 
ATOM     28  C   UNL A   1      35.968  33.852  33.499  1.00  0.00    -0.014 A 
BRANCH  28  29
ATOM     29  C   UNL A   1      37.238  33.104  33.730  1.00  0.00     0.031 A 
ATOM     30  C   UNL A   1      37.968  33.186  35.053  1.00  0.00     0.074 A 
ATOM     31  C   UNL A   1      37.715  32.277  32.781  1.00  0.00     0.049 A 
ATOM     32  N   UNL A   1      39.123  32.661  35.390  1.00  0.00    -0.248 NA
ATOM     33  C   UNL A   1      37.328  33.953  36.134  1.00  0.00     0.031 C 
ATOM     34  C   UNL A   1      37.100  32.048  31.473  1.00  0.00     0.029 A 
ATOM     35  N   UNL A   1      38.800  31.436  32.791  1.00  0.00    -0.354 N 
ATOM     36  C   UNL A   1      39.369  33.076  36.694  1.00  0.00     0.074 A 
ATOM     37  C   UNL A   1      38.240  33.885  37.097  1.00  0.00     0.031 C 
ATOM     38  C   UNL A   1      37.757  31.059  30.850  1.00  0.00     0.029 A 
ATOM     39  C   UNL A   1      38.888  30.644  31.675  1.00  0.00     0.049 A 
ATOM     40  H   UNL A   1      39.452  31.404  33.529  1.00  0.00     0.167 HD
ATOM     41  C   UNL A   1      40.441  32.814  37.483  1.00  0.00     0.031 A 
ATOM     42  C   UNL A   1      39.780  29.696  31.335  1.00  0.00     0.031 A 
ATOM     43  C   UNL A   1      41.549  31.971  37.117  1.00  0.00     0.049 A 
ATOM     44  C   UNL A   1      40.957  29.425  32.220  1.00  0.00     0.074 A 
ATOM     45  C   UNL A   1      42.695  31.687  37.844  1.00  0.00     0.029 A 
ATOM     46  N   UNL A   1      41.639  31.254  35.938  1.00  0.00    -0.354 N 
ATOM     47  N   UNL A   1      41.236  29.931  33.394  1.00  0.00    -0.248 NA
ATOM     48  C   UNL A   1      41.962  28.482  31.709  1.00  0.00     0.031 C 
ATOM     49  C   UNL A   1      43.485  30.807  37.096  1.00  0.00     0.029 A 
ATOM     50  C   UNL A   1      42.818  30.526  35.916  1.00  0.00     0.049 A 
ATOM     51  H   UNL A   1      40.966  31.258  35.220  1.00  0.00     0.167 HD
ATOM     52  C   UNL A   1      42.468  29.399  33.747  1.00  0.00     0.074 A 
ATOM     53  C   UNL A   1      42.859  28.494  32.685  1.00  0.00     0.031 C 
ATOM     54  C   UNL A   1      43.217  29.659  34.844  1.00  0.00     0.031 A 
BRANCH  41  55
ATOM     55  C   UNL A   1      40.494  33.474  38.830  1.00  0.00    -0.014 A 
ATOM     56  C   UNL A   1      39.931  32.867  39.960  1.00  0.00     0.009 A 
ATOM     57  C   UNL A   1      41.197  34.681  38.979  1.00  0.00     0.009 A 
ATOM     58  C   UNL A   1      40.065  33.461  41.218  1.00  0.00     0.001 A 
ATOM     59  C   UNL A   1      41.341  35.264  40.239  1.00  0.00     0.001 A 
ATOM     60  C   UNL A   1      40.772  34.655  41.357  1.00  0.00     0.000 A 
ENDBRANCH  41  55
BRANCH  42  61
ATOM     61  C   UNL A   1      39.605  28.959  30.061  1.00  0.00    -0.014 A 
ATOM     62  C   UNL A   1      39.962  29.559  28.846  1.00  0.00     0.009 A 
ATOM     63  C   UNL A   1      39.121  27.641  30.062  1.00  0.00     0.009 A 
ATOM     64  C   UNL A   1      39.839  28.850  27.651  1.00  0.00     0.001 A 
ATOM     65  C   UNL A   1      39.020  26.929  28.867  1.00  0.00     0.001 A 
ATOM     66  C   UNL A   1      39.377  27.534  27.663  1.00  0.00     0.000 A 
ENDBRANCH  42  61
BRANCH  54  67
ATOM     67  C   UNL A   1      44.554  28.986  34.921  1.00  0.00    -0.014 A 
ATOM     68  C   UNL A   1      45.692  29.616  34.394  1.00  0.00     0.009 A 
ATOM     69  C   UNL A   1      44.683  27.727  35.523  1.00  0.00     0.009 A 
ATOM     70  C   UNL A   1      46.934  28.981  34.444  1.00  0.00     0.001 A 
ATOM     71  C   UNL A   1      45.929  27.101  35.582  1.00  0.00     0.001 A 
ATOM     72  C   UNL A   1      47.052  27.725  35.036  1.00  0.00     0.000 A 
ENDBRANCH  54  67
ENDBRANCH  28  29
ENDBRANCH  21  23
ENDBRANCH  20  21
ENDBRANCH  19  20
ENDBRANCH   1  19
TORSDOF 14
ENDMDL
MODEL 2
REMARK VINA RESULT:      -9.4      0.608      6.245
REMARK SMILES CC1(C)CC[N@@H+]([C@H](CC(=O)OCCOC(=O)c2ccc(-c3c4nc(c(-c5ccccc5)c5ccc([nH]5)c(-c5ccccc5)c5nc(c(-c6ccccc6)c6ccc3[nH]6)C=C5)C=C4)cc2)C(F)(F)F)C1
REMARK SMILES IDX 12 1 11 2 9 3 10 4 8 5 7 6 6 7 1 8 2 9 3 10 4 11 69 12 5 13
REMARK SMILES IDX 65 15 66 16 67 17 68 18 13 19 14 20 15 21 16 22 17 23 18 24
REMARK SMILES IDX 64 25 19 26 63 27 20 28 21 29 22 30 57 31 23 32 62 33 56 34
REMARK SMILES IDX 58 35 24 36 61 37 55 38 54 39 25 41 47 42 32 43 46 44 33 45
REMARK SMILES IDX 36 46 45 47 59 48 34 49 35 50 44 52 60 53 37 54 26 55 27 56
REMARK SMILES IDX 31 57 28 58 30 59 29 60 48 61 49 62 53 63 50 64 52 65 51 66
REMARK SMILES IDX 38 67 39 68 43 69 40 70 42 71 41 72
REMARK H PARENT 6 14 58 40 36 51
REMARK Flexibility Score: inf
ROOT
ATOM      1  C   UNL A   1      33.356  34.833  28.492  1.00  0.00     0.274 C 
ENDROOT
BRANCH   1   2
ATOM      2  O   UNL A   1      34.655  34.219  28.649  1.00  0.00    -0.462 OA
BRANCH   2   3
ATOM      3  C   UNL A   1      34.671  32.927  29.047  1.00  0.00     0.312 C 
ATOM      4  O   UNL A   1      34.361  32.552  30.174  1.00  0.00    -0.252 OA
BRANCH   3   5
ATOM      5  C   UNL A   1      35.322  31.997  28.048  1.00  0.00     0.197 C 
BRANCH   5   6
ATOM      6  C   UNL A   1      34.774  30.586  27.749  1.00  0.00     0.302 C 
BRANCH   6   7
ATOM      7  N   UNL A   1      33.811  30.461  26.631  1.00  0.00    -0.324 N 
ATOM      8  C   UNL A   1      31.661  28.214  27.374  1.00  0.00     0.017 C 
ATOM      9  C   UNL A   1      32.055  28.935  26.083  1.00  0.00     0.019 C 
ATOM     10  C   UNL A   1      31.530  28.114  24.903  1.00  0.00     0.017 C 
ATOM     11  C   UNL A   1      31.503  30.365  26.056  1.00  0.00     0.073 C 
ATOM     12  C   UNL A   1      33.572  29.154  26.030  1.00  0.00     0.269 C 
ATOM     13  C   UNL A   1      32.575  31.224  26.718  1.00  0.00     0.263 C 
ATOM     14  H   UNL A   1      34.415  30.938  25.963  1.00  0.00     0.348 HD
ENDBRANCH   6   7
BRANCH   6  15
ATOM     15  C   UNL A   1      35.888  29.503  27.798  1.00  0.00     0.441 C 
ATOM     16  F   UNL A   1      35.464  28.357  27.211  1.00  0.00    -0.165 F 
ATOM     17  F   UNL A   1      36.982  29.912  27.109  1.00  0.00    -0.165 F 
ATOM     18  F   UNL A   1      36.297  29.202  29.046  1.00  0.00    -0.165 F 
ENDBRANCH   6  15
ENDBRANCH   5   6
ENDBRANCH   3   5
ENDBRANCH   2   3
ENDBRANCH   1   2
BRANCH   1  19
ATOM     19  C   UNL A   1      32.987  35.763  29.645  1.00  0.00     0.275 C 
BRANCH  19  20
ATOM     20  O   UNL A   1      32.621  35.002  30.815  1.00  0.00    -0.458 OA
BRANCH  20  21
ATOM     21  C   UNL A   1      32.757  35.659  31.981  1.00  0.00     0.338 C 
ATOM     22  O   UNL A   1      32.091  36.613  32.374  1.00  0.00    -0.246 OA
BRANCH  21  23
ATOM     23  C   UNL A   1      33.861  35.132  32.795  1.00  0.00     0.060 A 
ATOM     24  C   UNL A   1      35.079  35.802  32.850  1.00  0.00     0.016 A 
ATOM     25  C   UNL A   1      33.755  33.821  33.270  1.00  0.00     0.016 A 
ATOM     26  C   UNL A   1      36.224  35.099  33.237  1.00  0.00     0.010 A 
ATOM     27  C   UNL A   1      34.891  33.146  33.727  1.00  0.00     0.010 A 
ATOM     28  C   UNL A   1      36.152  33.753  33.644  1.00  0.00    -0.014 A 
BRANCH  28  29
ATOM     29  C   UNL A   1      37.397  32.973  33.905  1.00  0.00     0.031 A 
ATOM     30  C   UNL A   1      37.982  32.055  32.854  1.00  0.00     0.074 A 
ATOM     31  C   UNL A   1      38.065  33.138  35.062  1.00  0.00     0.049 A 
ATOM     32  N   UNL A   1      39.013  31.248  32.948  1.00  0.00    -0.248 NA
ATOM     33  C   UNL A   1      37.332  32.034  31.534  1.00  0.00     0.031 C 
ATOM     34  C   UNL A   1      37.660  34.024  36.154  1.00  0.00     0.029 A 
ATOM     35  N   UNL A   1      39.255  32.603  35.491  1.00  0.00    -0.354 N 
ATOM     36  C   UNL A   1      39.101  30.590  31.727  1.00  0.00     0.074 A 
ATOM     37  C   UNL A   1      38.029  31.099  30.898  1.00  0.00     0.031 C 
ATOM     38  C   UNL A   1      38.630  34.049  37.078  1.00  0.00     0.029 A 
ATOM     39  C   UNL A   1      39.685  33.117  36.688  1.00  0.00     0.049 A 
ATOM     40  H   UNL A   1      39.752  31.917  34.988  1.00  0.00     0.167 HD
ATOM     41  C   UNL A   1      39.988  29.644  31.331  1.00  0.00     0.031 A 
ATOM     42  C   UNL A   1      40.794  32.866  37.408  1.00  0.00     0.031 A 
ATOM     43  C   UNL A   1      41.090  29.162  32.122  1.00  0.00     0.049 A 
ATOM     44  C   UNL A   1      41.758  31.815  36.952  1.00  0.00     0.074 A 
ATOM     45  C   UNL A   1      42.011  28.174  31.809  1.00  0.00     0.029 A 
ATOM     46  N   UNL A   1      41.439  29.650  33.368  1.00  0.00    -0.354 N 
ATOM     47  N   UNL A   1      41.746  31.110  35.849  1.00  0.00    -0.248 NA
ATOM     48  C   UNL A   1      42.864  31.497  37.866  1.00  0.00     0.031 C 
ATOM     49  C   UNL A   1      42.910  28.056  32.875  1.00  0.00     0.029 A 
ATOM     50  C   UNL A   1      42.562  28.987  33.838  1.00  0.00     0.049 A 
ATOM     51  H   UNL A   1      40.962  30.363  33.850  1.00  0.00     0.167 HD
ATOM     52  C   UNL A   1      42.819  30.238  35.952  1.00  0.00     0.074 A 
ATOM     53  C   UNL A   1      43.489  30.534  37.202  1.00  0.00     0.031 C 
ATOM     54  C   UNL A   1      43.199  29.261  35.095  1.00  0.00     0.031 A 
BRANCH  41  55
ATOM     55  C   UNL A   1      39.792  29.028  29.976  1.00  0.00    -0.014 A 
ATOM     56  C   UNL A   1      40.329  29.618  28.824  1.00  0.00     0.009 A 
ATOM     57  C   UNL A   1      39.137  27.790  29.869  1.00  0.00     0.009 A 
ATOM     58  C   UNL A   1      40.205  28.984  27.585  1.00  0.00     0.001 A 
ATOM     59  C   UNL A   1      39.027  27.153  28.632  1.00  0.00     0.001 A 
ATOM     60  C   UNL A   1      39.559  27.751  27.491  1.00  0.00     0.000 A 
ENDBRANCH  41  55
BRANCH  42  61
ATOM     61  C   UNL A   1      41.023  33.609  38.668  1.00  0.00    -0.014 A 
ATOM     62  C   UNL A   1      40.481  33.138  39.872  1.00  0.00     0.009 A 
ATOM     63  C   UNL A   1      41.818  34.766  38.678  1.00  0.00     0.009 A 
ATOM     64  C   UNL A   1      40.734  33.813  41.067  1.00  0.00     0.001 A 
ATOM     65  C   UNL A   1      42.085  35.425  39.878  1.00  0.00     0.001 A 
ATOM     66  C   UNL A   1      41.542  34.950  41.070  1.00  0.00     0.000 A 
ENDBRANCH  42  61
BRANCH  54  67
ATOM     67  C   UNL A   1      44.366  28.418  35.509  1.00  0.00    -0.014 A 
ATOM     68  C   UNL A   1      44.160  27.241  36.245  1.00  0.00     0.009 A 
ATOM     69  C   UNL A   1      45.672  28.791  35.162  1.00  0.00     0.009 A 
ATOM     70  C   UNL A   1      45.247  26.466  36.652  1.00  0.00     0.001 A 
ATOM     71  C   UNL A   1      46.756  28.006  35.561  1.00  0.00     0.001 A 
ATOM     72  C   UNL A   1      46.544  26.849  36.311  1.00  0.00     0.000 A 
ENDBRANCH  54  67
ENDBRANCH  28  29
ENDBRANCH  21  23
ENDBRANCH  20  21
ENDBRANCH  19  20
ENDBRANCH   1  19
TORSDOF 14
ENDMDL
MODEL 3
REMARK VINA RESULT:      -9.3      6.109      9.830
REMARK SMILES CC1(C)CC[N@@H+]([C@H](CC(=O)OCCOC(=O)c2ccc(-c3c4nc(c(-c5ccccc5)c5ccc([nH]5)c(-c5ccccc5)c5nc(c(-c6ccccc6)c6ccc3[nH]6)C=C5)C=C4)cc2)C(F)(F)F)C1
REMARK SMILES IDX 12 1 11 2 9 3 10 4 8 5 7 6 6 7 1 8 2 9 3 10 4 11 69 12 5 13
REMARK SMILES IDX 65 15 66 16 67 17 68 18 13 19 14 20 15 21 16 22 17 23 18 24
REMARK SMILES IDX 64 25 19 26 63 27 20 28 21 29 22 30 57 31 23 32 62 33 56 34
REMARK SMILES IDX 58 35 24 36 61 37 55 38 54 39 25 41 47 42 32 43 46 44 33 45
REMARK SMILES IDX 36 46 45 47 59 48 34 49 35 50 44 52 60 53 37 54 26 55 27 56
REMARK SMILES IDX 31 57 28 58 30 59 29 60 48 61 49 62 53 63 50 64 52 65 51 66
REMARK SMILES IDX 38 67 39 68 43 69 40 70 42 71 41 72
REMARK H PARENT 6 14 58 40 36 51
REMARK Flexibility Score: inf
ROOT
ATOM      1  C   UNL A   1      35.535  20.967  25.328  1.00  0.00     0.274 C 
ENDROOT
BRANCH   1   2
ATOM      2  O   UNL A   1      34.397  20.333  24.704  1.00  0.00    -0.462 OA
BRANCH   2   3
ATOM      3  C   UNL A   1      33.177  20.811  25.039  1.00  0.00     0.312 C 
ATOM      4  O   UNL A   1      32.125  20.215  24.831  1.00  0.00    -0.252 OA
BRANCH   3   5
ATOM      5  C   UNL A   1      33.201  22.253  25.494  1.00  0.00     0.197 C 
BRANCH   5   6
ATOM      6  C   UNL A   1      32.841  23.424  24.556  1.00  0.00     0.302 C 
BRANCH   6   7
ATOM      7  N   UNL A   1      31.969  24.486  25.108  1.00  0.00    -0.324 N 
ATOM      8  C   UNL A   1      33.614  27.226  25.191  1.00  0.00     0.017 C 
ATOM      9  C   UNL A   1      32.308  26.741  25.822  1.00  0.00     0.019 C 
ATOM     10  C   UNL A   1      31.972  27.673  26.989  1.00  0.00     0.017 C 
ATOM     11  C   UNL A   1      31.172  26.707  24.793  1.00  0.00     0.073 C 
ATOM     12  C   UNL A   1      32.427  25.273  26.248  1.00  0.00     0.269 C 
ATOM     13  C   UNL A   1      31.240  25.319  24.165  1.00  0.00     0.263 C 
ATOM     14  H   UNL A   1      31.301  23.828  25.510  1.00  0.00     0.348 HD
ENDBRANCH   6   7
BRANCH   6  15
ATOM     15  C   UNL A   1      34.069  23.921  23.743  1.00  0.00     0.441 C 
ATOM     16  F   UNL A   1      34.555  22.929  22.959  1.00  0.00    -0.165 F 
ATOM     17  F   UNL A   1      33.716  24.935  22.914  1.00  0.00    -0.165 F 
ATOM     18  F   UNL A   1      35.080  24.373  24.511  1.00  0.00    -0.165 F 
ENDBRANCH   6  15
ENDBRANCH   5   6
ENDBRANCH   3   5
ENDBRANCH   2   3
ENDBRANCH   1   2
BRANCH   1  19
ATOM     19  C   UNL A   1      36.863  20.302  24.974  1.00  0.00     0.275 C 
BRANCH  19  20
ATOM     20  O   UNL A   1      37.912  21.286  24.861  1.00  0.00    -0.458 OA
BRANCH  20  21
ATOM     21  C   UNL A   1      38.928  21.130  25.729  1.00  0.00     0.338 C 
ATOM     22  O   UNL A   1      39.560  20.101  25.949  1.00  0.00    -0.246 OA
BRANCH  21  23
ATOM     23  C   UNL A   1      39.227  22.364  26.469  1.00  0.00     0.060 A 
ATOM     24  C   UNL A   1      38.593  23.557  26.137  1.00  0.00     0.016 A 
ATOM     25  C   UNL A   1      40.348  22.370  27.305  1.00  0.00     0.016 A 
ATOM     26  C   UNL A   1      39.182  24.767  26.516  1.00  0.00     0.010 A 
ATOM     27  C   UNL A   1      40.890  23.582  27.743  1.00  0.00     0.010 A 
ATOM     28  C   UNL A   1      40.358  24.797  27.291  1.00  0.00    -0.014 A 
BRANCH  28  29
ATOM     29  C   UNL A   1      41.058  26.087  27.556  1.00  0.00     0.031 A 
ATOM     30  C   UNL A   1      40.512  27.086  28.553  1.00  0.00     0.074 A 
ATOM     31  C   UNL A   1      42.238  26.347  26.962  1.00  0.00     0.049 A 
ATOM     32  N   UNL A   1      40.957  28.287  28.842  1.00  0.00    -0.248 NA
ATOM     33  C   UNL A   1      39.319  26.695  29.321  1.00  0.00     0.031 C 
ATOM     34  C   UNL A   1      42.922  25.464  26.017  1.00  0.00     0.029 A 
ATOM     35  N   UNL A   1      43.096  27.409  27.106  1.00  0.00    -0.354 N 
ATOM     36  C   UNL A   1      40.073  28.810  29.779  1.00  0.00     0.074 A 
ATOM     37  C   UNL A   1      39.072  27.794  30.024  1.00  0.00     0.031 C 
ATOM     38  C   UNL A   1      44.133  25.971  25.745  1.00  0.00     0.029 A 
ATOM     39  C   UNL A   1      44.277  27.254  26.427  1.00  0.00     0.049 A 
ATOM     40  H   UNL A   1      42.884  28.206  27.646  1.00  0.00     0.167 HD
ATOM     41  C   UNL A   1      40.087  30.027  30.377  1.00  0.00     0.031 A 
ATOM     42  C   UNL A   1      45.357  28.052  26.342  1.00  0.00     0.031 A 
ATOM     43  C   UNL A   1      41.101  31.031  30.183  1.00  0.00     0.049 A 
ATOM     44  C   UNL A   1      45.350  29.393  27.008  1.00  0.00     0.074 A 
ATOM     45  C   UNL A   1      41.167  32.307  30.721  1.00  0.00     0.029 A 
ATOM     46  N   UNL A   1      42.240  30.863  29.416  1.00  0.00    -0.354 N 
ATOM     47  N   UNL A   1      44.438  29.920  27.786  1.00  0.00    -0.248 NA
ATOM     48  C   UNL A   1      46.504  30.264  26.747  1.00  0.00     0.031 C 
ATOM     49  C   UNL A   1      42.342  32.917  30.266  1.00  0.00     0.029 A 
ATOM     50  C   UNL A   1      43.016  32.010  29.466  1.00  0.00     0.049 A 
ATOM     51  H   UNL A   1      42.466  30.051  28.910  1.00  0.00     0.167 HD
ATOM     52  C   UNL A   1      44.889  31.199  28.076  1.00  0.00     0.074 A 
ATOM     53  C   UNL A   1      46.178  31.352  27.432  1.00  0.00     0.031 C 
ATOM     54  C   UNL A   1      44.275  32.168  28.795  1.00  0.00     0.031 A 
BRANCH  41  55
ATOM     55  C   UNL A   1      38.945  30.370  31.289  1.00  0.00    -0.014 A 
ATOM     56  C   UNL A   1      39.052  30.220  32.678  1.00  0.00     0.009 A 
ATOM     57  C   UNL A   1      37.778  30.937  30.750  1.00  0.00     0.009 A 
ATOM     58  C   UNL A   1      38.006  30.623  33.512  1.00  0.00     0.001 A 
ATOM     59  C   UNL A   1      36.741  31.351  31.587  1.00  0.00     0.001 A 
ATOM     60  C   UNL A   1      36.855  31.192  32.968  1.00  0.00     0.000 A 
ENDBRANCH  41  55
BRANCH  42  61
ATOM     61  C   UNL A   1      46.528  27.606  25.552  1.00  0.00    -0.014 A 
ATOM     62  C   UNL A   1      47.513  26.803  26.144  1.00  0.00     0.009 A 
ATOM     63  C   UNL A   1      46.643  27.946  24.195  1.00  0.00     0.009 A 
ATOM     64  C   UNL A   1      48.593  26.346  25.388  1.00  0.00     0.001 A 
ATOM     65  C   UNL A   1      47.713  27.469  23.438  1.00  0.00     0.001 A 
ATOM     66  C   UNL A   1      48.688  26.672  24.035  1.00  0.00     0.000 A 
ENDBRANCH  42  61
BRANCH  54  67
ATOM     67  C   UNL A   1      44.975  33.490  28.879  1.00  0.00    -0.014 A 
ATOM     68  C   UNL A   1      44.637  34.525  27.993  1.00  0.00     0.009 A 
ATOM     69  C   UNL A   1      45.968  33.710  29.844  1.00  0.00     0.009 A 
ATOM     70  C   UNL A   1      45.304  35.749  28.054  1.00  0.00     0.001 A 
ATOM     71  C   UNL A   1      46.624  34.940  29.909  1.00  0.00     0.001 A 
ATOM     72  C   UNL A   1      46.297  35.956  29.010  1.00  0.00     0.000 A 
ENDBRANCH  54  67
ENDBRANCH  28  29
ENDBRANCH  21  23
ENDBRANCH  20  21
ENDBRANCH  19  20
ENDBRANCH   1  19
TORSDOF 14
ENDMDL
