MODEL 1
REMARK VINA RESULT:     -11.4      0.000      0.000
REMARK SMILES CC1=Nc2ncnn2[C@H](c2ccc(F)cc2)[C@@H]1C(=O)OCCOC(=O)c1ccc(-c2c3nc(c(-c4ccccc4)c4ccc([nH]4)c(-c4ccccc4)c4nc(c(-c5ccccc5)c5ccc2[nH]5)C=C4)C=C3)cc1
REMARK SMILES IDX 22 1 21 2 20 3 18 4 19 5 17 6 1 7 2 8 3 9 4 10 9 11 5 12
REMARK SMILES IDX 8 13 6 14 7 15 10 16 11 17 16 18 12 19 15 20 13 21 14 22
REMARK SMILES IDX 23 23 24 24 25 25 26 26 27 27 73 28 28 29 72 30 29 31 30 32
REMARK SMILES IDX 31 33 66 34 32 35 71 36 65 37 67 38 33 39 70 40 64 41 63 42
REMARK SMILES IDX 34 44 56 45 41 46 55 47 42 48 45 49 54 50 68 51 43 52 44 53
REMARK SMILES IDX 53 55 69 56 46 57 35 58 36 59 40 60 37 61 39 62 38 63 57 64
REMARK SMILES IDX 58 65 62 66 59 67 61 68 60 69 47 70 48 71 52 72 49 73 51 74
REMARK SMILES IDX 50 75
REMARK H PARENT 67 43 45 54
REMARK Flexibility Score: inf
ROOT
ATOM      1  C   UNL A   1      38.123  33.471  34.221  1.00  0.00     0.275 C 
ENDROOT
BRANCH   1   2
ATOM      2  C   UNL A   1      36.679  32.995  34.329  1.00  0.00     0.274 C 
BRANCH   2   3
ATOM      3  O   UNL A   1      36.092  32.466  33.116  1.00  0.00    -0.461 OA
BRANCH   3   4
ATOM      4  C   UNL A   1      34.944  33.049  32.628  1.00  0.00     0.317 C 
ATOM      5  O   UNL A   1      33.842  32.558  32.645  1.00  0.00    -0.251 OA
BRANCH   4   6
ATOM      6  C   UNL A   1      35.284  34.361  31.958  1.00  0.00     0.173 C 
ATOM      7  C   UNL A   1      34.290  35.807  33.909  1.00  0.00     0.063 C 
ATOM      8  C   UNL A   1      34.291  35.412  32.449  1.00  0.00     0.036 C 
ATOM      9  N   UNL A   1      33.399  35.999  31.722  1.00  0.00    -0.220 NA
ATOM     10  C   UNL A   1      33.361  35.737  30.405  1.00  0.00     0.248 A 
ATOM     11  C   UNL A   1      35.420  34.256  30.395  1.00  0.00     0.161 C 
ATOM     12  N   UNL A   1      32.554  36.267  29.511  1.00  0.00    -0.198 NA
ATOM     13  N   UNL A   1      34.266  34.928  29.755  1.00  0.00    -0.221 N 
ATOM     14  C   UNL A   1      33.072  35.864  28.325  1.00  0.00     0.248 A 
ATOM     15  N   UNL A   1      34.167  35.114  28.416  1.00  0.00    -0.157 NA
BRANCH  11  16
ATOM     16  C   UNL A   1      35.793  32.902  29.695  1.00  0.00    -0.022 A 
ATOM     17  C   UNL A   1      37.135  32.479  29.591  1.00  0.00     0.009 A 
ATOM     18  C   UNL A   1      34.862  32.007  29.143  1.00  0.00     0.009 A 
ATOM     19  C   UNL A   1      37.528  31.403  28.781  1.00  0.00     0.039 A 
ATOM     20  C   UNL A   1      35.235  30.956  28.293  1.00  0.00     0.039 A 
ATOM     21  C   UNL A   1      36.573  30.685  28.091  1.00  0.00     0.123 A 
ATOM     22  F   UNL A   1      36.938  29.700  27.261  1.00  0.00    -0.207 F 
ENDBRANCH  11  16
ENDBRANCH   4   6
ENDBRANCH   3   4
ENDBRANCH   2   3
ENDBRANCH   1   2
BRANCH   1  23
ATOM     23  O   UNL A   1      38.580  33.388  32.878  1.00  0.00    -0.458 OA
BRANCH  23  24
ATOM     24  C   UNL A   1      39.888  33.070  32.775  1.00  0.00     0.338 C 
ATOM     25  O   UNL A   1      40.810  33.591  33.387  1.00  0.00    -0.246 OA
BRANCH  24  26
ATOM     26  C   UNL A   1      40.076  31.997  31.796  1.00  0.00     0.060 A 
ATOM     27  C   UNL A   1      39.356  30.817  32.006  1.00  0.00     0.016 A 
ATOM     28  C   UNL A   1      41.088  32.088  30.834  1.00  0.00     0.016 A 
ATOM     29  C   UNL A   1      39.802  29.658  31.417  1.00  0.00     0.010 A 
ATOM     30  C   UNL A   1      41.540  30.928  30.248  1.00  0.00     0.010 A 
ATOM     31  C   UNL A   1      40.953  29.720  30.632  1.00  0.00    -0.014 A 
BRANCH  31  32
ATOM     32  C   UNL A   1      41.610  28.469  30.316  1.00  0.00     0.031 A 
ATOM     33  C   UNL A   1      42.503  27.921  31.356  1.00  0.00     0.074 A 
ATOM     34  C   UNL A   1      41.293  27.810  29.185  1.00  0.00     0.049 A 
ATOM     35  N   UNL A   1      43.737  27.561  31.236  1.00  0.00    -0.248 NA
ATOM     36  C   UNL A   1      41.962  27.816  32.719  1.00  0.00     0.031 C 
ATOM     37  C   UNL A   1      40.202  28.121  28.253  1.00  0.00     0.029 A 
ATOM     38  N   UNL A   1      41.782  26.632  28.712  1.00  0.00    -0.354 N 
ATOM     39  C   UNL A   1      44.085  27.023  32.470  1.00  0.00     0.074 A 
ATOM     40  C   UNL A   1      43.009  27.326  33.378  1.00  0.00     0.031 C 
ATOM     41  C   UNL A   1      39.955  27.034  27.490  1.00  0.00     0.029 A 
ATOM     42  C   UNL A   1      40.935  26.009  27.807  1.00  0.00     0.049 A 
ATOM     43  H   UNL A   1      42.651  26.260  28.983  1.00  0.00     0.167 HD
ATOM     44  C   UNL A   1      45.112  26.143  32.604  1.00  0.00     0.031 A 
ATOM     45  C   UNL A   1      40.974  24.708  27.430  1.00  0.00     0.031 A 
ATOM     46  C   UNL A   1      46.055  26.225  31.522  1.00  0.00     0.049 A 
ATOM     47  C   UNL A   1      42.295  24.158  27.815  1.00  0.00     0.074 A 
ATOM     48  C   UNL A   1      46.824  27.238  30.981  1.00  0.00     0.029 A 
ATOM     49  N   UNL A   1      46.068  25.212  30.595  1.00  0.00    -0.354 N 
ATOM     50  N   UNL A   1      43.414  24.463  27.227  1.00  0.00    -0.248 NA
ATOM     51  C   UNL A   1      42.428  23.543  29.128  1.00  0.00     0.031 C 
ATOM     52  C   UNL A   1      46.859  26.972  29.581  1.00  0.00     0.029 A 
ATOM     53  C   UNL A   1      46.137  25.800  29.357  1.00  0.00     0.049 A 
ATOM     54  H   UNL A   1      46.035  24.246  30.782  1.00  0.00     0.167 HD
ATOM     55  C   UNL A   1      44.355  24.482  28.246  1.00  0.00     0.074 A 
ATOM     56  C   UNL A   1      43.719  23.788  29.362  1.00  0.00     0.031 C 
ATOM     57  C   UNL A   1      45.443  25.306  28.189  1.00  0.00     0.031 A 
BRANCH  44  58
ATOM     58  C   UNL A   1      45.019  24.949  33.519  1.00  0.00    -0.014 A 
ATOM     59  C   UNL A   1      44.216  23.861  33.144  1.00  0.00     0.009 A 
ATOM     60  C   UNL A   1      45.472  24.973  34.855  1.00  0.00     0.009 A 
ATOM     61  C   UNL A   1      43.842  22.882  34.074  1.00  0.00     0.001 A 
ATOM     62  C   UNL A   1      45.144  23.973  35.770  1.00  0.00     0.001 A 
ATOM     63  C   UNL A   1      44.305  22.940  35.386  1.00  0.00     0.000 A 
ENDBRANCH  44  58
BRANCH  45  64
ATOM     64  C   UNL A   1      39.856  23.842  27.002  1.00  0.00    -0.014 A 
ATOM     65  C   UNL A   1      38.618  24.404  26.655  1.00  0.00     0.009 A 
ATOM     66  C   UNL A   1      40.064  22.484  26.699  1.00  0.00     0.009 A 
ATOM     67  C   UNL A   1      37.641  23.644  26.000  1.00  0.00     0.001 A 
ATOM     68  C   UNL A   1      39.084  21.720  26.059  1.00  0.00     0.001 A 
ATOM     69  C   UNL A   1      37.877  22.305  25.694  1.00  0.00     0.000 A 
ENDBRANCH  45  64
BRANCH  57  70
ATOM     70  C   UNL A   1      45.750  25.991  26.879  1.00  0.00    -0.014 A 
ATOM     71  C   UNL A   1      45.141  27.197  26.488  1.00  0.00     0.009 A 
ATOM     72  C   UNL A   1      46.783  25.480  26.077  1.00  0.00     0.009 A 
ATOM     73  C   UNL A   1      45.521  27.846  25.309  1.00  0.00     0.001 A 
ATOM     74  C   UNL A   1      47.179  26.142  24.912  1.00  0.00     0.001 A 
ATOM     75  C   UNL A   1      46.541  27.318  24.523  1.00  0.00     0.000 A 
ENDBRANCH  57  70
ENDBRANCH  31  32
ENDBRANCH  24  26
ENDBRANCH  23  24
ENDBRANCH   1  23
TORSDOF 12
ENDMDL
MODEL 2
REMARK VINA RESULT:     -11.2      5.502     10.568
REMARK SMILES CC1=Nc2ncnn2[C@H](c2ccc(F)cc2)[C@@H]1C(=O)OCCOC(=O)c1ccc(-c2c3nc(c(-c4ccccc4)c4ccc([nH]4)c(-c4ccccc4)c4nc(c(-c5ccccc5)c5ccc2[nH]5)C=C4)C=C3)cc1
REMARK SMILES IDX 22 1 21 2 20 3 18 4 19 5 17 6 1 7 2 8 3 9 4 10 9 11 5 12
REMARK SMILES IDX 8 13 6 14 7 15 10 16 11 17 16 18 12 19 15 20 13 21 14 22
REMARK SMILES IDX 23 23 24 24 25 25 26 26 27 27 73 28 28 29 72 30 29 31 30 32
REMARK SMILES IDX 31 33 66 34 32 35 71 36 65 37 67 38 33 39 70 40 64 41 63 42
REMARK SMILES IDX 34 44 56 45 41 46 55 47 42 48 45 49 54 50 68 51 43 52 44 53
REMARK SMILES IDX 53 55 69 56 46 57 35 58 36 59 40 60 37 61 39 62 38 63 57 64
REMARK SMILES IDX 58 65 62 66 59 67 61 68 60 69 47 70 48 71 52 72 49 73 51 74
REMARK SMILES IDX 50 75
REMARK H PARENT 67 43 45 54
REMARK Flexibility Score: inf
ROOT
ATOM      1  C   UNL A   1      38.364  21.709  25.391  1.00  0.00     0.275 C 
ENDROOT
BRANCH   1   2
ATOM      2  C   UNL A   1      37.308  22.122  24.372  1.00  0.00     0.274 C 
BRANCH   2   3
ATOM      3  O   UNL A   1      36.057  21.396  24.422  1.00  0.00    -0.461 OA
BRANCH   3   4
ATOM      4  C   UNL A   1      35.160  21.693  25.423  1.00  0.00     0.317 C 
ATOM      5  O   UNL A   1      35.188  21.256  26.548  1.00  0.00    -0.251 OA
BRANCH   4   6
ATOM      6  C   UNL A   1      34.054  22.566  24.875  1.00  0.00     0.173 C 
ATOM      7  C   UNL A   1      35.190  24.793  25.673  1.00  0.00     0.063 C 
ATOM      8  C   UNL A   1      34.010  23.847  25.705  1.00  0.00     0.036 C 
ATOM      9  N   UNL A   1      33.042  24.204  26.483  1.00  0.00    -0.220 NA
ATOM     10  C   UNL A   1      31.938  23.441  26.536  1.00  0.00     0.248 A 
ATOM     11  C   UNL A   1      32.675  21.823  24.728  1.00  0.00     0.161 C 
ATOM     12  N   UNL A   1      30.847  23.668  27.237  1.00  0.00    -0.198 NA
ATOM     13  N   UNL A   1      31.734  22.327  25.754  1.00  0.00    -0.221 N 
ATOM     14  C   UNL A   1      29.962  22.757  26.764  1.00  0.00     0.248 A 
ATOM     15  N   UNL A   1      30.427  21.969  25.799  1.00  0.00    -0.157 NA
BRANCH  11  16
ATOM     16  C   UNL A   1      32.600  20.266  24.553  1.00  0.00    -0.022 A 
ATOM     17  C   UNL A   1      32.709  19.400  25.663  1.00  0.00     0.009 A 
ATOM     18  C   UNL A   1      32.408  19.609  23.327  1.00  0.00     0.009 A 
ATOM     19  C   UNL A   1      32.879  18.014  25.527  1.00  0.00     0.039 A 
ATOM     20  C   UNL A   1      32.619  18.232  23.164  1.00  0.00     0.039 A 
ATOM     21  C   UNL A   1      32.890  17.449  24.268  1.00  0.00     0.123 A 
ATOM     22  F   UNL A   1      33.118  16.139  24.119  1.00  0.00    -0.207 F 
ENDBRANCH  11  16
ENDBRANCH   4   6
ENDBRANCH   3   4
ENDBRANCH   2   3
ENDBRANCH   1   2
BRANCH   1  23
ATOM     23  O   UNL A   1      38.546  22.727  26.366  1.00  0.00    -0.458 OA
BRANCH  23  24
ATOM     24  C   UNL A   1      39.722  22.634  27.023  1.00  0.00     0.338 C 
ATOM     25  O   UNL A   1      40.197  21.622  27.520  1.00  0.00    -0.246 OA
BRANCH  24  26
ATOM     26  C   UNL A   1      40.375  23.944  27.086  1.00  0.00     0.060 A 
ATOM     27  C   UNL A   1      41.439  24.076  27.983  1.00  0.00     0.016 A 
ATOM     28  C   UNL A   1      39.810  25.047  26.436  1.00  0.00     0.016 A 
ATOM     29  C   UNL A   1      41.789  25.334  28.410  1.00  0.00     0.010 A 
ATOM     30  C   UNL A   1      40.156  26.307  26.866  1.00  0.00     0.010 A 
ATOM     31  C   UNL A   1      41.066  26.421  27.920  1.00  0.00    -0.014 A 
BRANCH  31  32
ATOM     32  C   UNL A   1      41.194  27.678  28.626  1.00  0.00     0.031 A 
ATOM     33  C   UNL A   1      42.229  28.604  28.126  1.00  0.00     0.074 A 
ATOM     34  C   UNL A   1      40.310  28.001  29.590  1.00  0.00     0.049 A 
ATOM     35  N   UNL A   1      43.182  29.167  28.790  1.00  0.00    -0.248 NA
ATOM     36  C   UNL A   1      42.233  28.892  26.684  1.00  0.00     0.031 C 
ATOM     37  C   UNL A   1      39.076  27.287  29.938  1.00  0.00     0.029 A 
ATOM     38  N   UNL A   1      40.250  29.122  30.359  1.00  0.00    -0.354 N 
ATOM     39  C   UNL A   1      43.810  30.017  27.887  1.00  0.00     0.074 A 
ATOM     40  C   UNL A   1      43.278  29.710  26.584  1.00  0.00     0.031 C 
ATOM     41  C   UNL A   1      38.279  28.112  30.650  1.00  0.00     0.029 A 
ATOM     42  C   UNL A   1      38.991  29.355  30.894  1.00  0.00     0.049 A 
ATOM     43  H   UNL A   1      41.023  29.709  30.521  1.00  0.00     0.167 HD
ATOM     44  C   UNL A   1      44.535  31.091  28.298  1.00  0.00     0.031 A 
ATOM     45  C   UNL A   1      38.536  30.525  31.403  1.00  0.00     0.031 A 
ATOM     46  C   UNL A   1      44.987  30.964  29.657  1.00  0.00     0.049 A 
ATOM     47  C   UNL A   1      39.704  31.395  31.671  1.00  0.00     0.074 A 
ATOM     48  C   UNL A   1      45.737  30.031  30.346  1.00  0.00     0.029 A 
ATOM     49  N   UNL A   1      44.378  31.735  30.617  1.00  0.00    -0.354 N 
ATOM     50  N   UNL A   1      40.557  31.199  32.632  1.00  0.00    -0.248 NA
ATOM     51  C   UNL A   1      40.150  32.293  30.616  1.00  0.00     0.031 C 
ATOM     52  C   UNL A   1      45.172  29.990  31.654  1.00  0.00     0.029 A 
ATOM     53  C   UNL A   1      44.132  30.919  31.692  1.00  0.00     0.049 A 
ATOM     54  H   UNL A   1      44.159  32.693  30.548  1.00  0.00     0.167 HD
ATOM     55  C   UNL A   1      41.780  31.587  32.105  1.00  0.00     0.074 A 
ATOM     56  C   UNL A   1      41.449  32.365  30.915  1.00  0.00     0.031 C 
ATOM     57  C   UNL A   1      42.945  31.002  32.514  1.00  0.00     0.031 A 
BRANCH  44  58
ATOM     58  C   UNL A   1      44.475  32.411  27.575  1.00  0.00    -0.014 A 
ATOM     59  C   UNL A   1      43.800  33.488  28.170  1.00  0.00     0.009 A 
ATOM     60  C   UNL A   1      44.821  32.554  26.215  1.00  0.00     0.009 A 
ATOM     61  C   UNL A   1      43.441  34.619  27.426  1.00  0.00     0.001 A 
ATOM     62  C   UNL A   1      44.511  33.700  25.484  1.00  0.00     0.001 A 
ATOM     63  C   UNL A   1      43.796  34.724  26.084  1.00  0.00     0.000 A 
ENDBRANCH  44  58
BRANCH  45  64
ATOM     64  C   UNL A   1      37.150  31.039  31.424  1.00  0.00    -0.014 A 
ATOM     65  C   UNL A   1      36.591  31.518  32.619  1.00  0.00     0.009 A 
ATOM     66  C   UNL A   1      36.450  31.289  30.230  1.00  0.00     0.009 A 
ATOM     67  C   UNL A   1      35.395  32.247  32.612  1.00  0.00     0.001 A 
ATOM     68  C   UNL A   1      35.248  32.003  30.223  1.00  0.00     0.001 A 
ATOM     69  C   UNL A   1      34.730  32.497  31.415  1.00  0.00     0.000 A 
ENDBRANCH  45  64
BRANCH  57  70
ATOM     70  C   UNL A   1      42.909  30.125  33.741  1.00  0.00    -0.014 A 
ATOM     71  C   UNL A   1      43.179  30.610  35.034  1.00  0.00     0.009 A 
ATOM     72  C   UNL A   1      42.453  28.803  33.612  1.00  0.00     0.009 A 
ATOM     73  C   UNL A   1      43.044  29.785  36.155  1.00  0.00     0.001 A 
ATOM     74  C   UNL A   1      42.295  27.987  34.735  1.00  0.00     0.001 A 
ATOM     75  C   UNL A   1      42.600  28.474  36.004  1.00  0.00     0.000 A 
ENDBRANCH  57  70
ENDBRANCH  31  32
ENDBRANCH  24  26
ENDBRANCH  23  24
ENDBRANCH   1  23
TORSDOF 12
ENDMDL
MODEL 3
REMARK VINA RESULT:     -11.0      4.736      6.584
REMARK SMILES CC1=Nc2ncnn2[C@H](c2ccc(F)cc2)[C@@H]1C(=O)OCCOC(=O)c1ccc(-c2c3nc(c(-c4ccccc4)c4ccc([nH]4)c(-c4ccccc4)c4nc(c(-c5ccccc5)c5ccc2[nH]5)C=C4)C=C3)cc1
REMARK SMILES IDX 22 1 21 2 20 3 18 4 19 5 17 6 1 7 2 8 3 9 4 10 9 11 5 12
REMARK SMILES IDX 8 13 6 14 7 15 10 16 11 17 16 18 12 19 15 20 13 21 14 22
REMARK SMILES IDX 23 23 24 24 25 25 26 26 27 27 73 28 28 29 72 30 29 31 30 32
REMARK SMILES IDX 31 33 66 34 32 35 71 36 65 37 67 38 33 39 70 40 64 41 63 42
REMARK SMILES IDX 34 44 56 45 41 46 55 47 42 48 45 49 54 50 68 51 43 52 44 53
REMARK SMILES IDX 53 55 69 56 46 57 35 58 36 59 40 60 37 61 39 62 38 63 57 64
REMARK SMILES IDX 58 65 62 66 59 67 61 68 60 69 47 70 48 71 52 72 49 73 51 74
REMARK SMILES IDX 50 75
REMARK H PARENT 67 43 45 54
REMARK Flexibility Score: inf
ROOT
ATOM      1  C   UNL A   1      34.052  29.050  27.415  1.00  0.00     0.275 C 
ENDROOT
BRANCH   1   2
ATOM      2  C   UNL A   1      33.255  29.069  26.115  1.00  0.00     0.274 C 
BRANCH   2   3
ATOM      3  O   UNL A   1      32.960  27.777  25.532  1.00  0.00    -0.461 OA
BRANCH   3   4
ATOM      4  C   UNL A   1      31.850  27.091  25.972  1.00  0.00     0.317 C 
ATOM      5  O   UNL A   1      31.202  27.357  26.954  1.00  0.00    -0.251 OA
BRANCH   4   6
ATOM      6  C   UNL A   1      31.624  25.875  25.103  1.00  0.00     0.173 C 
ATOM      7  C   UNL A   1      33.626  24.544  26.152  1.00  0.00     0.063 C 
ATOM      8  C   UNL A   1      32.960  25.156  24.940  1.00  0.00     0.036 C 
ATOM      9  N   UNL A   1      33.619  25.037  23.835  1.00  0.00    -0.220 NA
ATOM     10  C   UNL A   1      33.077  25.515  22.702  1.00  0.00     0.248 A 
ATOM     11  C   UNL A   1      30.872  26.191  23.757  1.00  0.00     0.161 C 
ATOM     12  N   UNL A   1      33.582  25.450  21.489  1.00  0.00    -0.198 NA
ATOM     13  N   UNL A   1      31.818  26.068  22.625  1.00  0.00    -0.221 N 
ATOM     14  C   UNL A   1      32.561  25.847  20.690  1.00  0.00     0.248 A 
ATOM     15  N   UNL A   1      31.436  26.156  21.328  1.00  0.00    -0.157 NA
BRANCH  11  16
ATOM     16  C   UNL A   1      29.927  27.436  23.621  1.00  0.00    -0.022 A 
ATOM     17  C   UNL A   1      28.524  27.291  23.606  1.00  0.00     0.009 A 
ATOM     18  C   UNL A   1      30.370  28.765  23.523  1.00  0.00     0.009 A 
ATOM     19  C   UNL A   1      27.658  28.338  23.257  1.00  0.00     0.039 A 
ATOM     20  C   UNL A   1      29.528  29.816  23.130  1.00  0.00     0.039 A 
ATOM     21  C   UNL A   1      28.178  29.583  22.965  1.00  0.00     0.123 A 
ATOM     22  F   UNL A   1      27.372  30.574  22.565  1.00  0.00    -0.207 F 
ENDBRANCH  11  16
ENDBRANCH   4   6
ENDBRANCH   3   4
ENDBRANCH   2   3
ENDBRANCH   1   2
BRANCH   1  23
ATOM     23  O   UNL A   1      35.375  29.520  27.198  1.00  0.00    -0.458 OA
BRANCH  23  24
ATOM     24  C   UNL A   1      35.719  30.545  28.006  1.00  0.00     0.338 C 
ATOM     25  O   UNL A   1      35.179  31.642  28.054  1.00  0.00    -0.246 OA
BRANCH  24  26
ATOM     26  C   UNL A   1      36.869  30.178  28.835  1.00  0.00     0.060 A 
ATOM     27  C   UNL A   1      38.114  30.683  28.446  1.00  0.00     0.016 A 
ATOM     28  C   UNL A   1      36.742  29.199  29.826  1.00  0.00     0.016 A 
ATOM     29  C   UNL A   1      39.250  30.045  28.882  1.00  0.00     0.010 A 
ATOM     30  C   UNL A   1      37.878  28.556  30.260  1.00  0.00     0.010 A 
ATOM     31  C   UNL A   1      39.103  28.924  29.699  1.00  0.00    -0.014 A 
BRANCH  31  32
ATOM     32  C   UNL A   1      40.255  28.062  29.859  1.00  0.00     0.031 A 
ATOM     33  C   UNL A   1      40.955  28.144  31.156  1.00  0.00     0.074 A 
ATOM     34  C   UNL A   1      40.555  27.157  28.908  1.00  0.00     0.049 A 
ATOM     35  N   UNL A   1      42.211  28.354  31.372  1.00  0.00    -0.248 NA
ATOM     36  C   UNL A   1      40.135  28.032  32.371  1.00  0.00     0.031 C 
ATOM     37  C   UNL A   1      39.743  26.796  27.740  1.00  0.00     0.029 A 
ATOM     38  N   UNL A   1      41.577  26.259  28.869  1.00  0.00    -0.354 N 
ATOM     39  C   UNL A   1      42.374  28.234  32.747  1.00  0.00     0.074 A 
ATOM     40  C   UNL A   1      41.055  28.172  33.322  1.00  0.00     0.031 C 
ATOM     41  C   UNL A   1      40.166  25.605  27.264  1.00  0.00     0.029 A 
ATOM     42  C   UNL A   1      41.333  25.187  28.022  1.00  0.00     0.049 A 
ATOM     43  H   UNL A   1      42.406  26.361  29.388  1.00  0.00     0.167 HD
ATOM     44  C   UNL A   1      43.578  27.937  33.303  1.00  0.00     0.031 A 
ATOM     45  C   UNL A   1      41.981  23.997  28.022  1.00  0.00     0.031 A 
ATOM     46  C   UNL A   1      44.680  28.252  32.435  1.00  0.00     0.049 A 
ATOM     47  C   UNL A   1      43.242  24.160  28.782  1.00  0.00     0.074 A 
ATOM     48  C   UNL A   1      45.114  29.398  31.796  1.00  0.00     0.029 A 
ATOM     49  N   UNL A   1      45.349  27.214  31.833  1.00  0.00    -0.354 N 
ATOM     50  N   UNL A   1      44.272  24.830  28.354  1.00  0.00    -0.248 NA
ATOM     51  C   UNL A   1      43.225  23.891  30.212  1.00  0.00     0.031 C 
ATOM     52  C   UNL A   1      45.646  28.952  30.551  1.00  0.00     0.029 A 
ATOM     53  C   UNL A   1      45.533  27.562  30.519  1.00  0.00     0.049 A 
ATOM     54  H   UNL A   1      45.642  26.378  32.263  1.00  0.00     0.167 HD
ATOM     55  C   UNL A   1      44.800  25.430  29.488  1.00  0.00     0.074 A 
ATOM     56  C   UNL A   1      44.195  24.717  30.609  1.00  0.00     0.031 C 
ATOM     57  C   UNL A   1      45.449  26.630  29.417  1.00  0.00     0.031 A 
BRANCH  44  58
ATOM     58  C   UNL A   1      43.701  26.991  34.470  1.00  0.00    -0.014 A 
ATOM     59  C   UNL A   1      43.460  25.623  34.270  1.00  0.00     0.009 A 
ATOM     60  C   UNL A   1      43.775  27.434  35.807  1.00  0.00     0.009 A 
ATOM     61  C   UNL A   1      43.248  24.759  35.353  1.00  0.00     0.001 A 
ATOM     62  C   UNL A   1      43.616  26.568  36.888  1.00  0.00     0.001 A 
ATOM     63  C   UNL A   1      43.325  25.233  36.660  1.00  0.00     0.000 A 
ENDBRANCH  44  58
BRANCH  45  64
ATOM     64  C   UNL A   1      41.459  22.668  27.640  1.00  0.00    -0.014 A 
ATOM     65  C   UNL A   1      40.215  22.553  27.002  1.00  0.00     0.009 A 
ATOM     66  C   UNL A   1      42.281  21.527  27.680  1.00  0.00     0.009 A 
ATOM     67  C   UNL A   1      39.825  21.351  26.398  1.00  0.00     0.001 A 
ATOM     68  C   UNL A   1      41.886  20.321  27.092  1.00  0.00     0.001 A 
ATOM     69  C   UNL A   1      40.664  20.239  26.435  1.00  0.00     0.000 A 
ENDBRANCH  45  64
BRANCH  57  70
ATOM     70  C   UNL A   1      45.824  27.157  28.053  1.00  0.00    -0.014 A 
ATOM     71  C   UNL A   1      44.935  27.893  27.249  1.00  0.00     0.009 A 
ATOM     72  C   UNL A   1      47.154  27.028  27.623  1.00  0.00     0.009 A 
ATOM     73  C   UNL A   1      45.351  28.441  26.032  1.00  0.00     0.001 A 
ATOM     74  C   UNL A   1      47.576  27.597  26.418  1.00  0.00     0.001 A 
ATOM     75  C   UNL A   1      46.673  28.294  25.619  1.00  0.00     0.000 A 
ENDBRANCH  57  70
ENDBRANCH  31  32
ENDBRANCH  24  26
ENDBRANCH  23  24
ENDBRANCH   1  23
TORSDOF 12
ENDMDL
