MODEL 1
REMARK VINA RESULT:     -11.0      0.000      0.000
REMARK SMILES O=C(OCCOC(=O)[C@@H]1C=C[C@@H](NS(=O)(=O)c2ccc(F)c(F)c2F)C1)c1ccc(-c2c3nc(c(-c4ccccc4)c4ccc([nH]4)c(-c4ccccc4)c4nc(c(-c5ccccc5)c5ccc2[nH]5)C=C4)C=C3)cc1
REMARK SMILES IDX 5 1 4 2 3 3 2 4 1 5 27 6 28 7 74 8 29 9 73 10 30 11 31 12
REMARK SMILES IDX 32 13 67 14 33 15 72 16 66 17 68 18 34 19 71 20 65 21 64 22
REMARK SMILES IDX 35 24 57 25 42 26 56 27 43 28 46 29 55 30 69 31 44 32 45 33
REMARK SMILES IDX 54 35 70 36 47 37 36 38 37 39 41 40 38 41 40 42 39 43 58 44
REMARK SMILES IDX 59 45 63 46 60 47 62 48 61 49 48 50 49 51 53 52 50 53 52 54
REMARK SMILES IDX 51 55 6 56 7 57 8 58 9 59 10 60 26 61 11 62 12 63 13 64
REMARK SMILES IDX 14 66 15 67 16 68 17 69 18 70 24 71 19 72 22 73 25 74 20 75
REMARK SMILES IDX 23 76 21 77
REMARK H PARENT 68 23 46 34 13 65
REMARK Flexibility Score: inf
ROOT
ATOM      1  C   UNL A   1      33.848  35.776  32.521  1.00  0.00     0.274 C 
ENDROOT
BRANCH   1   2
ATOM      2  C   UNL A   1      35.084  34.951  33.066  1.00  0.00     0.275 C 
BRANCH   2   3
ATOM      3  O   UNL A   1      34.824  33.571  33.138  1.00  0.00    -0.458 OA
BRANCH   3   4
ATOM      4  C   UNL A   1      35.788  32.778  33.625  1.00  0.00     0.338 C 
ATOM      5  O   UNL A   1      36.250  33.034  34.737  1.00  0.00    -0.246 OA
BRANCH   4   6
ATOM      6  C   UNL A   1      36.406  31.655  32.805  1.00  0.00     0.060 A 
ATOM      7  C   UNL A   1      36.204  31.219  31.450  1.00  0.00     0.016 A 
ATOM      8  C   UNL A   1      37.545  31.242  33.412  1.00  0.00     0.016 A 
ATOM      9  C   UNL A   1      37.217  30.704  30.619  1.00  0.00     0.010 A 
ATOM     10  C   UNL A   1      38.534  30.779  32.582  1.00  0.00     0.010 A 
ATOM     11  C   UNL A   1      38.448  30.534  31.158  1.00  0.00    -0.014 A 
BRANCH  11  12
ATOM     12  C   UNL A   1      39.567  29.848  30.419  1.00  0.00     0.031 A 
ATOM     13  C   UNL A   1      40.564  30.832  29.978  1.00  0.00     0.074 A 
ATOM     14  C   UNL A   1      39.786  28.575  30.047  1.00  0.00     0.049 A 
ATOM     15  N   UNL A   1      42.042  30.786  29.236  1.00  0.00    -0.248 NA
ATOM     16  C   UNL A   1      40.149  32.629  30.718  1.00  0.00     0.031 C 
ATOM     17  C   UNL A   1      38.907  27.443  30.290  1.00  0.00     0.029 A 
ATOM     18  N   UNL A   1      40.784  28.063  29.235  1.00  0.00    -0.354 N 
ATOM     19  C   UNL A   1      42.864  32.475  29.344  1.00  0.00     0.074 A 
ATOM     20  C   UNL A   1      41.330  33.538  30.359  1.00  0.00     0.031 C 
ATOM     21  C   UNL A   1      39.307  26.415  29.517  1.00  0.00     0.029 A 
ATOM     22  C   UNL A   1      40.514  26.795  28.778  1.00  0.00     0.049 A 
ATOM     23  H   UNL A   1      41.605  28.558  29.009  1.00  0.00     0.167 HD
ATOM     24  C   UNL A   1      44.204  32.577  28.899  1.00  0.00     0.031 A 
ATOM     25  C   UNL A   1      41.143  26.036  27.854  1.00  0.00     0.031 A 
ATOM     26  C   UNL A   1      44.924  31.496  28.223  1.00  0.00     0.049 A 
ATOM     27  C   UNL A   1      42.472  26.447  27.266  1.00  0.00     0.074 A 
ATOM     28  C   UNL A   1      46.217  31.588  27.716  1.00  0.00     0.029 A 
ATOM     29  N   UNL A   1      44.471  30.221  27.889  1.00  0.00    -0.354 N 
ATOM     30  N   UNL A   1      43.134  27.570  27.395  1.00  0.00    -0.248 NA
ATOM     31  C   UNL A   1      43.179  25.426  26.471  1.00  0.00     0.031 C 
ATOM     32  C   UNL A   1      46.474  30.472  26.935  1.00  0.00     0.029 A 
ATOM     33  C   UNL A   1      45.440  29.573  27.121  1.00  0.00     0.049 A 
ATOM     34  H   UNL A   1      43.604  29.837  28.153  1.00  0.00     0.167 HD
ATOM     35  C   UNL A   1      44.351  27.373  26.749  1.00  0.00     0.074 A 
ATOM     36  C   UNL A   1      44.338  26.022  26.230  1.00  0.00     0.031 C 
ATOM     37  C   UNL A   1      45.400  28.220  26.619  1.00  0.00     0.031 A 
BRANCH  24  38
ATOM     38  C   UNL A   1      45.050  33.854  28.922  1.00  0.00    -0.014 A 
ATOM     39  C   UNL A   1      45.057  34.827  27.906  1.00  0.00     0.009 A 
ATOM     40  C   UNL A   1      45.950  34.004  29.992  1.00  0.00     0.009 A 
ATOM     41  C   UNL A   1      46.185  35.648  27.763  1.00  0.00     0.001 A 
ATOM     42  C   UNL A   1      47.021  34.889  29.893  1.00  0.00     0.001 A 
ATOM     43  C   UNL A   1      47.189  35.638  28.731  1.00  0.00     0.000 A 
ENDBRANCH  24  38
BRANCH  25  44
ATOM     44  C   UNL A   1      40.534  24.732  27.482  1.00  0.00    -0.014 A 
ATOM     45  C   UNL A   1      39.451  24.679  26.593  1.00  0.00     0.009 A 
ATOM     46  C   UNL A   1      41.070  23.532  27.979  1.00  0.00     0.009 A 
ATOM     47  C   UNL A   1      38.915  23.451  26.207  1.00  0.00     0.001 A 
ATOM     48  C   UNL A   1      40.548  22.304  27.568  1.00  0.00     0.001 A 
ATOM     49  C   UNL A   1      39.472  22.264  26.683  1.00  0.00     0.000 A 
ENDBRANCH  25  44
BRANCH  37  50
ATOM     50  C   UNL A   1      46.662  27.699  25.955  1.00  0.00    -0.014 A 
ATOM     51  C   UNL A   1      47.696  27.086  26.677  1.00  0.00     0.009 A 
ATOM     52  C   UNL A   1      46.753  27.727  24.549  1.00  0.00     0.009 A 
ATOM     53  C   UNL A   1      48.800  26.539  26.012  1.00  0.00     0.001 A 
ATOM     54  C   UNL A   1      47.833  27.142  23.886  1.00  0.00     0.001 A 
ATOM     55  C   UNL A   1      48.862  26.556  24.618  1.00  0.00     0.000 A 
ENDBRANCH  37  50
ENDBRANCH  11  12
ENDBRANCH   4   6
ENDBRANCH   3   4
ENDBRANCH   2   3
ENDBRANCH   1   2
BRANCH   1  56
ATOM     56  O   UNL A   1      33.079  35.302  31.278  1.00  0.00    -0.462 OA
BRANCH  56  57
ATOM     57  C   UNL A   1      33.639  35.233  30.021  1.00  0.00     0.312 C 
ATOM     58  O   UNL A   1      33.506  36.185  29.251  1.00  0.00    -0.252 OA
BRANCH  57  59
ATOM     59  C   UNL A   1      34.448  33.843  29.520  1.00  0.00     0.123 C 
ATOM     60  C   UNL A   1      35.779  33.724  28.783  1.00  0.00    -0.015 C 
ATOM     61  C   UNL A   1      33.778  32.495  28.982  1.00  0.00     0.043 C 
ATOM     62  C   UNL A   1      35.899  32.626  27.978  1.00  0.00    -0.011 C 
ATOM     63  C   UNL A   1      34.554  32.093  27.662  1.00  0.00     0.093 C 
BRANCH  63  64
ATOM     64  N   UNL A   1      34.107  30.911  26.792  1.00  0.00    -0.204 NA
ATOM     65  H   UNL A   1      34.487  31.117  25.869  1.00  0.00     0.142 HD
BRANCH  64  66
ATOM     66  S   UNL A   1      34.429  29.112  27.029  1.00  0.00     0.244 S 
ATOM     67  O   UNL A   1      35.793  28.999  27.488  1.00  0.00    -0.207 OA
ATOM     68  O   UNL A   1      33.358  28.778  27.959  1.00  0.00    -0.207 OA
BRANCH  66  69
ATOM     69  C   UNL A   1      34.029  27.686  25.470  1.00  0.00     0.121 A 
ATOM     70  C   UNL A   1      33.919  28.567  23.934  1.00  0.00     0.028 A 
ATOM     71  C   UNL A   1      33.477  25.646  25.383  1.00  0.00     0.181 A 
ATOM     72  C   UNL A   1      33.528  27.625  22.525  1.00  0.00     0.044 A 
ATOM     73  C   UNL A   1      33.083  24.921  23.877  1.00  0.00     0.195 A 
ATOM     74  F   UNL A   1      33.433  24.677  26.367  1.00  0.00    -0.202 F 
ATOM     75  C   UNL A   1      33.175  25.890  22.518  1.00  0.00     0.161 A 
ATOM     76  F   UNL A   1      33.010  23.584  23.799  1.00  0.00    -0.200 F 
ATOM     77  F   UNL A   1      33.252  25.249  21.338  1.00  0.00    -0.204 F 
ENDBRANCH  66  69
ENDBRANCH  64  66
ENDBRANCH  63  64
ENDBRANCH  57  59
ENDBRANCH  56  57
ENDBRANCH   1  56
TORSDOF 14
ENDMDL
MODEL 2
REMARK VINA RESULT:     -11.0      1.641      2.237
REMARK SMILES O=C(OCCOC(=O)[C@@H]1C=C[C@@H](NS(=O)(=O)c2ccc(F)c(F)c2F)C1)c1ccc(-c2c3nc(c(-c4ccccc4)c4ccc([nH]4)c(-c4ccccc4)c4nc(c(-c5ccccc5)c5ccc2[nH]5)C=C4)C=C3)cc1
REMARK SMILES IDX 5 1 4 2 3 3 2 4 1 5 27 6 28 7 74 8 29 9 73 10 30 11 31 12
REMARK SMILES IDX 32 13 67 14 33 15 72 16 66 17 68 18 34 19 71 20 65 21 64 22
REMARK SMILES IDX 35 24 57 25 42 26 56 27 43 28 46 29 55 30 69 31 44 32 45 33
REMARK SMILES IDX 54 35 70 36 47 37 36 38 37 39 41 40 38 41 40 42 39 43 58 44
REMARK SMILES IDX 59 45 63 46 60 47 62 48 61 49 48 50 49 51 53 52 50 53 52 54
REMARK SMILES IDX 51 55 6 56 7 57 8 58 9 59 10 60 26 61 11 62 12 63 13 64
REMARK SMILES IDX 14 66 15 67 16 68 17 69 18 70 24 71 19 72 22 73 25 74 20 75
REMARK SMILES IDX 23 76 21 77
REMARK H PARENT 68 23 46 34 13 65
REMARK Flexibility Score: inf
ROOT
ATOM      1  C   UNL A   1      34.129  34.345  30.252  1.00  0.00     0.274 C 
ENDROOT
BRANCH   1   2
ATOM      2  C   UNL A   1      35.349  33.855  31.134  1.00  0.00     0.275 C 
BRANCH   2   3
ATOM      3  O   UNL A   1      34.959  33.470  32.429  1.00  0.00    -0.458 OA
BRANCH   3   4
ATOM      4  C   UNL A   1      35.749  32.614  33.092  1.00  0.00     0.338 C 
ATOM      5  O   UNL A   1      36.025  32.861  34.266  1.00  0.00    -0.246 OA
BRANCH   4   6
ATOM      6  C   UNL A   1      36.408  31.424  32.410  1.00  0.00     0.060 A 
ATOM      7  C   UNL A   1      36.163  30.768  31.154  1.00  0.00     0.016 A 
ATOM      8  C   UNL A   1      37.611  31.194  32.990  1.00  0.00     0.016 A 
ATOM      9  C   UNL A   1      37.163  30.203  30.342  1.00  0.00     0.010 A 
ATOM     10  C   UNL A   1      38.583  30.679  32.172  1.00  0.00     0.010 A 
ATOM     11  C   UNL A   1      38.434  30.208  30.812  1.00  0.00    -0.014 A 
BRANCH  11  12
ATOM     12  C   UNL A   1      39.559  29.496  30.108  1.00  0.00     0.031 A 
ATOM     13  C   UNL A   1      40.576  30.462  29.669  1.00  0.00     0.074 A 
ATOM     14  C   UNL A   1      39.772  28.214  29.763  1.00  0.00     0.049 A 
ATOM     15  N   UNL A   1      42.069  30.386  28.958  1.00  0.00    -0.248 NA
ATOM     16  C   UNL A   1      40.167  32.276  30.368  1.00  0.00     0.031 C 
ATOM     17  C   UNL A   1      38.876  27.097  30.008  1.00  0.00     0.029 A 
ATOM     18  N   UNL A   1      40.781  27.677  28.981  1.00  0.00    -0.354 N 
ATOM     19  C   UNL A   1      42.907  32.068  29.052  1.00  0.00     0.074 A 
ATOM     20  C   UNL A   1      41.365  33.165  30.017  1.00  0.00     0.031 C 
ATOM     21  C   UNL A   1      39.279  26.050  29.263  1.00  0.00     0.029 A 
ATOM     22  C   UNL A   1      40.506  26.404  28.542  1.00  0.00     0.049 A 
ATOM     23  H   UNL A   1      41.611  28.159  28.762  1.00  0.00     0.167 HD
ATOM     24  C   UNL A   1      44.256  32.147  28.632  1.00  0.00     0.031 A 
ATOM     25  C   UNL A   1      41.144  25.621  27.645  1.00  0.00     0.031 A 
ATOM     26  C   UNL A   1      44.978  31.046  27.991  1.00  0.00     0.049 A 
ATOM     27  C   UNL A   1      42.489  26.007  27.076  1.00  0.00     0.074 A 
ATOM     28  C   UNL A   1      46.282  31.114  27.509  1.00  0.00     0.029 A 
ATOM     29  N   UNL A   1      44.518  29.770  27.671  1.00  0.00    -0.354 N 
ATOM     30  N   UNL A   1      43.161  27.125  27.198  1.00  0.00    -0.248 NA
ATOM     31  C   UNL A   1      43.200  24.964  26.314  1.00  0.00     0.031 C 
ATOM     32  C   UNL A   1      46.542  29.982  26.753  1.00  0.00     0.029 A 
ATOM     33  C   UNL A   1      45.494  29.097  26.935  1.00  0.00     0.049 A 
ATOM     34  H   UNL A   1      43.641  29.401  27.925  1.00  0.00     0.167 HD
ATOM     35  C   UNL A   1      44.388  26.903  26.581  1.00  0.00     0.074 A 
ATOM     36  C   UNL A   1      44.371  25.543  26.085  1.00  0.00     0.031 C 
ATOM     37  C   UNL A   1      45.449  27.736  26.457  1.00  0.00     0.031 A 
BRANCH  24  38
ATOM     38  C   UNL A   1      45.116  33.415  28.650  1.00  0.00    -0.014 A 
ATOM     39  C   UNL A   1      45.198  34.339  27.593  1.00  0.00     0.009 A 
ATOM     40  C   UNL A   1      45.950  33.605  29.766  1.00  0.00     0.009 A 
ATOM     41  C   UNL A   1      46.345  35.141  27.483  1.00  0.00     0.001 A 
ATOM     42  C   UNL A   1      47.036  34.474  29.693  1.00  0.00     0.001 A 
ATOM     43  C   UNL A   1      47.286  35.166  28.511  1.00  0.00     0.000 A 
ENDBRANCH  24  38
BRANCH  25  44
ATOM     44  C   UNL A   1      40.528  24.317  27.284  1.00  0.00    -0.014 A 
ATOM     45  C   UNL A   1      39.369  24.270  26.496  1.00  0.00     0.009 A 
ATOM     46  C   UNL A   1      41.130  23.114  27.687  1.00  0.00     0.009 A 
ATOM     47  C   UNL A   1      38.823  23.044  26.117  1.00  0.00     0.001 A 
ATOM     48  C   UNL A   1      40.595  21.889  27.283  1.00  0.00     0.001 A 
ATOM     49  C   UNL A   1      39.443  21.855  26.498  1.00  0.00     0.000 A 
ENDBRANCH  25  44
BRANCH  37  50
ATOM     50  C   UNL A   1      46.718  27.190  25.827  1.00  0.00    -0.014 A 
ATOM     51  C   UNL A   1      47.014  27.351  24.466  1.00  0.00     0.009 A 
ATOM     52  C   UNL A   1      47.691  26.599  26.658  1.00  0.00     0.009 A 
ATOM     53  C   UNL A   1      48.238  26.912  23.947  1.00  0.00     0.001 A 
ATOM     54  C   UNL A   1      48.928  26.202  26.147  1.00  0.00     0.001 A 
ATOM     55  C   UNL A   1      49.198  26.349  24.790  1.00  0.00     0.000 A 
ENDBRANCH  37  50
ENDBRANCH  11  12
ENDBRANCH   4   6
ENDBRANCH   3   4
ENDBRANCH   2   3
ENDBRANCH   1   2
BRANCH   1  56
ATOM     56  O   UNL A   1      33.587  33.469  29.113  1.00  0.00    -0.462 OA
BRANCH  56  57
ATOM     57  C   UNL A   1      34.395  32.785  28.232  1.00  0.00     0.312 C 
ATOM     58  O   UNL A   1      35.236  33.406  27.582  1.00  0.00    -0.252 OA
BRANCH  57  59
ATOM     59  C   UNL A   1      34.200  31.126  28.003  1.00  0.00     0.123 C 
ATOM     60  C   UNL A   1      35.250  30.083  27.633  1.00  0.00    -0.015 C 
ATOM     61  C   UNL A   1      32.930  30.398  27.363  1.00  0.00     0.043 C 
ATOM     62  C   UNL A   1      34.778  29.013  26.925  1.00  0.00    -0.011 C 
ATOM     63  C   UNL A   1      33.483  29.365  26.298  1.00  0.00     0.093 C 
BRANCH  63  64
ATOM     64  N   UNL A   1      32.543  28.565  25.387  1.00  0.00    -0.204 NA
ATOM     65  H   UNL A   1      33.083  28.414  24.535  1.00  0.00     0.142 HD
BRANCH  64  66
ATOM     66  S   UNL A   1      31.724  26.945  25.704  1.00  0.00     0.244 S 
ATOM     67  O   UNL A   1      30.897  27.129  26.873  1.00  0.00    -0.207 OA
ATOM     68  O   UNL A   1      31.068  26.731  24.421  1.00  0.00    -0.207 OA
BRANCH  66  69
ATOM     69  C   UNL A   1      32.859  25.125  25.852  1.00  0.00     0.121 A 
ATOM     70  C   UNL A   1      34.223  25.234  24.723  1.00  0.00     0.028 A 
ATOM     71  C   UNL A   1      32.582  23.232  26.753  1.00  0.00     0.181 A 
ATOM     72  C   UNL A   1      35.252  23.837  24.612  1.00  0.00     0.044 A 
ATOM     73  C   UNL A   1      33.707  21.966  26.471  1.00  0.00     0.195 A 
ATOM     74  F   UNL A   1      31.635  22.790  27.658  1.00  0.00    -0.202 F 
ATOM     75  C   UNL A   1      35.010  22.313  25.482  1.00  0.00     0.161 A 
ATOM     76  F   UNL A   1      33.675  20.880  27.257  1.00  0.00    -0.200 F 
ATOM     77  F   UNL A   1      36.063  21.481  25.576  1.00  0.00    -0.204 F 
ENDBRANCH  66  69
ENDBRANCH  64  66
ENDBRANCH  63  64
ENDBRANCH  57  59
ENDBRANCH  56  57
ENDBRANCH   1  56
TORSDOF 14
ENDMDL
MODEL 3
REMARK VINA RESULT:     -11.0      4.283      6.307
REMARK SMILES O=C(OCCOC(=O)[C@@H]1C=C[C@@H](NS(=O)(=O)c2ccc(F)c(F)c2F)C1)c1ccc(-c2c3nc(c(-c4ccccc4)c4ccc([nH]4)c(-c4ccccc4)c4nc(c(-c5ccccc5)c5ccc2[nH]5)C=C4)C=C3)cc1
REMARK SMILES IDX 5 1 4 2 3 3 2 4 1 5 27 6 28 7 74 8 29 9 73 10 30 11 31 12
REMARK SMILES IDX 32 13 67 14 33 15 72 16 66 17 68 18 34 19 71 20 65 21 64 22
REMARK SMILES IDX 35 24 57 25 42 26 56 27 43 28 46 29 55 30 69 31 44 32 45 33
REMARK SMILES IDX 54 35 70 36 47 37 36 38 37 39 41 40 38 41 40 42 39 43 58 44
REMARK SMILES IDX 59 45 63 46 60 47 62 48 61 49 48 50 49 51 53 52 50 53 52 54
REMARK SMILES IDX 51 55 6 56 7 57 8 58 9 59 10 60 26 61 11 62 12 63 13 64
REMARK SMILES IDX 14 66 15 67 16 68 17 69 18 70 24 71 19 72 22 73 25 74 20 75
REMARK SMILES IDX 23 76 21 77
REMARK H PARENT 68 23 46 34 13 65
REMARK Flexibility Score: inf
ROOT
ATOM      1  C   UNL A   1      34.286  34.876  29.167  1.00  0.00     0.274 C 
ENDROOT
BRANCH   1   2
ATOM      2  C   UNL A   1      35.368  33.740  29.372  1.00  0.00     0.275 C 
BRANCH   2   3
ATOM      3  O   UNL A   1      34.793  32.495  29.684  1.00  0.00    -0.458 OA
BRANCH   3   4
ATOM      4  C   UNL A   1      34.696  31.588  28.703  1.00  0.00     0.338 C 
ATOM      5  O   UNL A   1      33.683  31.589  28.003  1.00  0.00    -0.246 OA
BRANCH   4   6
ATOM      6  C   UNL A   1      35.732  30.491  28.505  1.00  0.00     0.060 A 
ATOM      7  C   UNL A   1      36.614  30.175  27.415  1.00  0.00     0.016 A 
ATOM      8  C   UNL A   1      36.042  29.956  29.711  1.00  0.00     0.016 A 
ATOM      9  C   UNL A   1      37.914  29.657  27.566  1.00  0.00     0.010 A 
ATOM     10  C   UNL A   1      37.325  29.491  29.849  1.00  0.00     0.010 A 
ATOM     11  C   UNL A   1      38.333  29.362  28.819  1.00  0.00    -0.014 A 
BRANCH  11  12
ATOM     12  C   UNL A   1      39.637  28.658  29.092  1.00  0.00     0.031 A 
ATOM     13  C   UNL A   1      40.639  29.617  29.577  1.00  0.00     0.074 A 
ATOM     14  C   UNL A   1      40.058  27.393  28.924  1.00  0.00     0.049 A 
ATOM     15  N   UNL A   1      42.191  29.537  30.147  1.00  0.00    -0.248 NA
ATOM     16  C   UNL A   1      39.815  31.398  29.884  1.00  0.00     0.031 C 
ATOM     17  C   UNL A   1      39.282  26.291  28.381  1.00  0.00     0.029 A 
ATOM     18  N   UNL A   1      41.334  26.873  29.069  1.00  0.00    -0.354 N 
ATOM     19  C   UNL A   1      42.672  31.184  30.919  1.00  0.00     0.074 A 
ATOM     20  C   UNL A   1      40.883  32.270  30.554  1.00  0.00     0.031 C 
ATOM     21  C   UNL A   1      40.120  25.279  28.087  1.00  0.00     0.029 A 
ATOM     22  C   UNL A   1      41.484  25.636  28.487  1.00  0.00     0.049 A 
ATOM     23  H   UNL A   1      42.059  27.341  29.543  1.00  0.00     0.167 HD
ATOM     24  C   UNL A   1      43.912  31.246  31.600  1.00  0.00     0.031 A 
ATOM     25  C   UNL A   1      42.588  24.889  28.272  1.00  0.00     0.031 A 
ATOM     26  C   UNL A   1      44.898  30.164  31.602  1.00  0.00     0.049 A 
ATOM     27  C   UNL A   1      43.925  25.267  28.865  1.00  0.00     0.074 A 
ATOM     28  C   UNL A   1      46.150  30.220  32.206  1.00  0.00     0.029 A 
ATOM     29  N   UNL A   1      44.833  28.924  30.969  1.00  0.00    -0.354 N 
ATOM     30  N   UNL A   1      44.283  26.354  29.501  1.00  0.00    -0.248 NA
ATOM     31  C   UNL A   1      44.989  24.249  28.779  1.00  0.00     0.031 C 
ATOM     32  C   UNL A   1      46.897  29.127  31.795  1.00  0.00     0.029 A 
ATOM     33  C   UNL A   1      46.056  28.266  31.115  1.00  0.00     0.049 A 
ATOM     34  H   UNL A   1      44.048  28.567  30.494  1.00  0.00     0.167 HD
ATOM     35  C   UNL A   1      45.585  26.131  29.938  1.00  0.00     0.074 A 
ATOM     36  C   UNL A   1      45.956  24.804  29.496  1.00  0.00     0.031 C 
ATOM     37  C   UNL A   1      46.395  26.937  30.664  1.00  0.00     0.031 A 
BRANCH  24  38
ATOM     38  C   UNL A   1      44.472  32.484  32.309  1.00  0.00    -0.014 A 
ATOM     39  C   UNL A   1      45.189  33.513  31.672  1.00  0.00     0.009 A 
ATOM     40  C   UNL A   1      44.337  32.535  33.707  1.00  0.00     0.009 A 
ATOM     41  C   UNL A   1      46.072  34.294  32.433  1.00  0.00     0.001 A 
ATOM     42  C   UNL A   1      45.146  33.380  34.462  1.00  0.00     0.001 A 
ATOM     43  C   UNL A   1      46.084  34.187  33.823  1.00  0.00     0.000 A 
ENDBRANCH  24  38
BRANCH  25  44
ATOM     44  C   UNL A   1      42.445  23.628  27.497  1.00  0.00    -0.014 A 
ATOM     45  C   UNL A   1      42.736  23.597  26.126  1.00  0.00     0.009 A 
ATOM     46  C   UNL A   1      42.063  22.440  28.142  1.00  0.00     0.009 A 
ATOM     47  C   UNL A   1      42.651  22.401  25.414  1.00  0.00     0.001 A 
ATOM     48  C   UNL A   1      42.004  21.240  27.431  1.00  0.00     0.001 A 
ATOM     49  C   UNL A   1      42.298  21.221  26.068  1.00  0.00     0.000 A 
ENDBRANCH  25  44
BRANCH  37  50
ATOM     50  C   UNL A   1      47.742  26.391  31.102  1.00  0.00    -0.014 A 
ATOM     51  C   UNL A   1      47.937  25.772  32.345  1.00  0.00     0.009 A 
ATOM     52  C   UNL A   1      48.812  26.399  30.185  1.00  0.00     0.009 A 
ATOM     53  C   UNL A   1      49.174  25.200  32.670  1.00  0.00     0.001 A 
ATOM     54  C   UNL A   1      50.030  25.791  30.493  1.00  0.00     0.001 A 
ATOM     55  C   UNL A   1      50.214  25.200  31.740  1.00  0.00     0.000 A 
ENDBRANCH  37  50
ENDBRANCH  11  12
ENDBRANCH   4   6
ENDBRANCH   3   4
ENDBRANCH   2   3
ENDBRANCH   1   2
BRANCH   1  56
ATOM     56  O   UNL A   1      32.977  34.864  29.971  1.00  0.00    -0.462 OA
BRANCH  56  57
ATOM     57  C   UNL A   1      32.802  35.567  31.143  1.00  0.00     0.312 C 
ATOM     58  O   UNL A   1      32.193  36.636  31.117  1.00  0.00    -0.252 OA
BRANCH  57  59
ATOM     59  C   UNL A   1      33.461  35.000  32.587  1.00  0.00     0.123 C 
ATOM     60  C   UNL A   1      34.336  35.741  33.594  1.00  0.00    -0.015 C 
ATOM     61  C   UNL A   1      34.001  33.523  32.871  1.00  0.00     0.043 C 
ATOM     62  C   UNL A   1      35.209  34.954  34.292  1.00  0.00    -0.011 C 
ATOM     63  C   UNL A   1      35.414  33.678  33.567  1.00  0.00     0.093 C 
BRANCH  63  64
ATOM     64  N   UNL A   1      36.298  32.463  33.878  1.00  0.00    -0.204 NA
ATOM     65  H   UNL A   1      36.535  32.081  32.963  1.00  0.00     0.142 HD
BRANCH  64  66
ATOM     66  S   UNL A   1      37.876  32.391  34.826  1.00  0.00     0.244 S 
ATOM     67  O   UNL A   1      38.390  33.740  34.865  1.00  0.00    -0.207 OA
ATOM     68  O   UNL A   1      37.404  31.797  36.070  1.00  0.00    -0.207 OA
BRANCH  66  69
ATOM     69  C   UNL A   1      39.432  30.998  34.313  1.00  0.00     0.121 A 
ATOM     70  C   UNL A   1      38.731  29.757  33.256  1.00  0.00     0.028 A 
ATOM     71  C   UNL A   1      41.405  30.616  34.969  1.00  0.00     0.181 A 
ATOM     72  C   UNL A   1      39.791  28.470  32.763  1.00  0.00     0.044 A 
ATOM     73  C   UNL A   1      42.262  29.249  34.382  1.00  0.00     0.195 A 
ATOM     74  F   UNL A   1      42.243  31.346  35.792  1.00  0.00    -0.202 F 
ATOM     75  C   UNL A   1      41.474  28.273  33.278  1.00  0.00     0.161 A 
ATOM     76  F   UNL A   1      43.587  29.176  34.584  1.00  0.00    -0.200 F 
ATOM     77  F   UNL A   1      42.254  27.460  32.543  1.00  0.00    -0.204 F 
ENDBRANCH  66  69
ENDBRANCH  64  66
ENDBRANCH  63  64
ENDBRANCH  57  59
ENDBRANCH  56  57
ENDBRANCH   1  56
TORSDOF 14
ENDMDL
