MODEL 1
REMARK VINA RESULT:     -10.4      0.000      0.000
REMARK SMILES C[C@@H](C(=O)OCCOC(=O)c1ccc(-c2c3nc(c(-c4ccccc4)c4ccc([nH]4)c(-c4ccccc4)c4nc(c(-c5ccccc5)c5ccc2[nH]5)C=C4)C=C3)cc1)[C@H](C)[N@H+]1C[C@H]2C[NH2+]C[C@@H]2[C@@H]1C
REMARK SMILES IDX 6 1 5 2 3 3 4 4 2 5 1 6 59 7 60 8 61 9 62 10 68 11 63 13
REMARK SMILES IDX 67 14 69 15 64 16 66 17 65 18 7 21 8 22 9 23 10 24 11 25
REMARK SMILES IDX 12 26 58 27 13 28 57 29 14 30 15 31 16 32 51 33 17 34 56 35
REMARK SMILES IDX 50 36 52 37 18 38 55 39 49 40 48 41 19 43 41 44 26 45 40 46
REMARK SMILES IDX 27 47 30 48 39 49 53 50 28 51 29 52 38 54 54 55 31 56 20 57
REMARK SMILES IDX 21 58 25 59 22 60 24 61 23 62 42 63 43 64 47 65 44 66 46 67
REMARK SMILES IDX 45 68 32 69 33 70 37 71 34 72 36 73 35 74
REMARK H PARENT 61 12 65 19 65 20 52 42 30 53
REMARK Flexibility Score: inf
ROOT
ATOM      1  C   UNL A   1      36.696  22.812  23.474  1.00  0.00     0.274 C 
ENDROOT
BRANCH   1   2
ATOM      2  O   UNL A   1      35.865  23.678  24.282  1.00  0.00    -0.462 OA
BRANCH   2   3
ATOM      3  C   UNL A   1      34.630  23.962  23.793  1.00  0.00     0.314 C 
ATOM      4  O   UNL A   1      34.367  24.081  22.600  1.00  0.00    -0.252 OA
BRANCH   3   5
ATOM      5  C   UNL A   1      33.546  24.084  24.857  1.00  0.00     0.154 C 
ATOM      6  C   UNL A   1      33.765  25.134  25.942  1.00  0.00     0.026 C 
BRANCH   5   7
ATOM      7  C   UNL A   1      33.023  22.694  25.339  1.00  0.00     0.195 C 
ATOM      8  C   UNL A   1      33.546  22.466  26.777  1.00  0.00     0.076 C 
BRANCH   7   9
ATOM      9  N   UNL A   1      33.344  21.491  24.525  1.00  0.00    -0.329 N 
ATOM     10  C   UNL A   1      34.050  20.421  25.301  1.00  0.00     0.272 C 
ATOM     11  C   UNL A   1      32.211  20.821  23.814  1.00  0.00     0.190 C 
ATOM     12  H   UNL A   1      33.945  21.915  23.818  1.00  0.00     0.348 HD
ATOM     13  C   UNL A   1      33.908  19.267  24.345  1.00  0.00     0.114 C 
ATOM     14  C   UNL A   1      32.432  19.337  24.069  1.00  0.00     0.116 C 
ATOM     15  C   UNL A   1      32.175  21.137  22.327  1.00  0.00     0.076 C 
ATOM     16  C   UNL A   1      34.037  17.799  24.644  1.00  0.00     0.270 C 
ATOM     17  C   UNL A   1      32.255  18.194  23.094  1.00  0.00     0.271 C 
ATOM     18  N   UNL A   1      33.275  17.198  23.522  1.00  0.00    -0.345 N 
ATOM     19  H   UNL A   1      32.818  16.341  23.831  1.00  0.00     0.346 HD
ATOM     20  H   UNL A   1      33.897  16.967  22.749  1.00  0.00     0.346 HD
ENDBRANCH   7   9
ENDBRANCH   5   7
ENDBRANCH   3   5
ENDBRANCH   2   3
ENDBRANCH   1   2
BRANCH   1  21
ATOM     21  C   UNL A   1      37.137  21.566  24.255  1.00  0.00     0.275 C 
BRANCH  21  22
ATOM     22  O   UNL A   1      37.502  21.839  25.621  1.00  0.00    -0.458 OA
BRANCH  22  23
ATOM     23  C   UNL A   1      38.808  21.677  25.936  1.00  0.00     0.338 C 
ATOM     24  O   UNL A   1      39.474  20.672  25.823  1.00  0.00    -0.246 OA
BRANCH  23  25
ATOM     25  C   UNL A   1      39.258  22.919  26.599  1.00  0.00     0.060 A 
ATOM     26  C   UNL A   1      40.409  22.861  27.383  1.00  0.00     0.016 A 
ATOM     27  C   UNL A   1      38.574  24.127  26.444  1.00  0.00     0.016 A 
ATOM     28  C   UNL A   1      40.874  24.009  28.025  1.00  0.00     0.010 A 
ATOM     29  C   UNL A   1      39.086  25.297  27.030  1.00  0.00     0.010 A 
ATOM     30  C   UNL A   1      40.260  25.255  27.800  1.00  0.00    -0.014 A 
BRANCH  30  31
ATOM     31  C   UNL A   1      40.981  26.506  28.176  1.00  0.00     0.031 A 
ATOM     32  C   UNL A   1      40.397  27.564  29.063  1.00  0.00     0.074 A 
ATOM     33  C   UNL A   1      42.219  26.690  27.684  1.00  0.00     0.049 A 
ATOM     34  N   UNL A   1      40.775  28.800  29.267  1.00  0.00    -0.248 NA
ATOM     35  C   UNL A   1      39.219  27.172  29.831  1.00  0.00     0.031 C 
ATOM     36  C   UNL A   1      42.944  25.732  26.847  1.00  0.00     0.029 A 
ATOM     37  N   UNL A   1      43.093  27.734  27.835  1.00  0.00    -0.354 N 
ATOM     38  C   UNL A   1      39.826  29.355  30.124  1.00  0.00     0.074 A 
ATOM     39  C   UNL A   1      38.858  28.314  30.402  1.00  0.00     0.031 C 
ATOM     40  C   UNL A   1      44.169  26.211  26.598  1.00  0.00     0.029 A 
ATOM     41  C   UNL A   1      44.275  27.548  27.166  1.00  0.00     0.049 A 
ATOM     42  H   UNL A   1      42.891  28.537  28.368  1.00  0.00     0.167 HD
ATOM     43  C   UNL A   1      39.784  30.610  30.638  1.00  0.00     0.031 A 
ATOM     44  C   UNL A   1      45.316  28.377  26.980  1.00  0.00     0.031 A 
ATOM     45  C   UNL A   1      40.828  31.589  30.453  1.00  0.00     0.049 A 
ATOM     46  C   UNL A   1      45.265  29.752  27.566  1.00  0.00     0.074 A 
ATOM     47  C   UNL A   1      40.908  32.876  30.959  1.00  0.00     0.029 A 
ATOM     48  N   UNL A   1      42.000  31.367  29.746  1.00  0.00    -0.354 N 
ATOM     49  N   UNL A   1      44.308  30.314  28.263  1.00  0.00    -0.248 NA
ATOM     50  C   UNL A   1      46.432  30.609  27.331  1.00  0.00     0.031 C 
ATOM     51  C   UNL A   1      42.122  33.437  30.544  1.00  0.00     0.029 A 
ATOM     52  C   UNL A   1      42.814  32.486  29.814  1.00  0.00     0.049 A 
ATOM     53  H   UNL A   1      42.221  30.535  29.268  1.00  0.00     0.167 HD
ATOM     54  C   UNL A   1      44.755  31.595  28.551  1.00  0.00     0.074 A 
ATOM     55  C   UNL A   1      46.082  31.713  27.978  1.00  0.00     0.031 C 
ATOM     56  C   UNL A   1      44.123  32.586  29.224  1.00  0.00     0.031 A 
BRANCH  43  57
ATOM     57  C   UNL A   1      38.577  31.019  31.443  1.00  0.00    -0.014 A 
ATOM     58  C   UNL A   1      38.540  30.903  32.841  1.00  0.00     0.009 A 
ATOM     59  C   UNL A   1      37.484  31.616  30.789  1.00  0.00     0.009 A 
ATOM     60  C   UNL A   1      37.427  31.349  33.561  1.00  0.00     0.001 A 
ATOM     61  C   UNL A   1      36.386  32.089  31.513  1.00  0.00     0.001 A 
ATOM     62  C   UNL A   1      36.355  31.947  32.899  1.00  0.00     0.000 A 
ENDBRANCH  43  57
BRANCH  44  63
ATOM     63  C   UNL A   1      46.456  27.913  26.155  1.00  0.00    -0.014 A 
ATOM     64  C   UNL A   1      47.484  27.148  26.721  1.00  0.00     0.009 A 
ATOM     65  C   UNL A   1      46.464  28.155  24.771  1.00  0.00     0.009 A 
ATOM     66  C   UNL A   1      48.500  26.631  25.914  1.00  0.00     0.001 A 
ATOM     67  C   UNL A   1      47.461  27.608  23.963  1.00  0.00     0.001 A 
ATOM     68  C   UNL A   1      48.479  26.850  24.536  1.00  0.00     0.000 A 
ENDBRANCH  44  63
BRANCH  56  69
ATOM     69  C   UNL A   1      44.876  33.873  29.385  1.00  0.00    -0.014 A 
ATOM     70  C   UNL A   1      45.726  34.079  30.482  1.00  0.00     0.009 A 
ATOM     71  C   UNL A   1      44.735  34.889  28.427  1.00  0.00     0.009 A 
ATOM     72  C   UNL A   1      46.393  35.295  30.636  1.00  0.00     0.001 A 
ATOM     73  C   UNL A   1      45.421  36.094  28.572  1.00  0.00     0.001 A 
ATOM     74  C   UNL A   1      46.241  36.300  29.682  1.00  0.00     0.000 A 
ENDBRANCH  56  69
ENDBRANCH  30  31
ENDBRANCH  23  25
ENDBRANCH  22  23
ENDBRANCH  21  22
ENDBRANCH   1  21
TORSDOF 13
ENDMDL
MODEL 2
REMARK VINA RESULT:     -10.1      3.970      7.637
REMARK SMILES C[C@@H](C(=O)OCCOC(=O)c1ccc(-c2c3nc(c(-c4ccccc4)c4ccc([nH]4)c(-c4ccccc4)c4nc(c(-c5ccccc5)c5ccc2[nH]5)C=C4)C=C3)cc1)[C@H](C)[N@H+]1C[C@H]2C[NH2+]C[C@@H]2[C@@H]1C
REMARK SMILES IDX 6 1 5 2 3 3 4 4 2 5 1 6 59 7 60 8 61 9 62 10 68 11 63 13
REMARK SMILES IDX 67 14 69 15 64 16 66 17 65 18 7 21 8 22 9 23 10 24 11 25
REMARK SMILES IDX 12 26 58 27 13 28 57 29 14 30 15 31 16 32 51 33 17 34 56 35
REMARK SMILES IDX 50 36 52 37 18 38 55 39 49 40 48 41 19 43 41 44 26 45 40 46
REMARK SMILES IDX 27 47 30 48 39 49 53 50 28 51 29 52 38 54 54 55 31 56 20 57
REMARK SMILES IDX 21 58 25 59 22 60 24 61 23 62 42 63 43 64 47 65 44 66 46 67
REMARK SMILES IDX 45 68 32 69 33 70 37 71 34 72 36 73 35 74
REMARK H PARENT 61 12 65 19 65 20 52 42 30 53
REMARK Flexibility Score: inf
ROOT
ATOM      1  C   UNL A   1      32.221  29.453  27.239  1.00  0.00     0.274 C 
ENDROOT
BRANCH   1   2
ATOM      2  O   UNL A   1      32.931  28.444  26.482  1.00  0.00    -0.462 OA
BRANCH   2   3
ATOM      3  C   UNL A   1      32.306  27.248  26.332  1.00  0.00     0.314 C 
ATOM      4  O   UNL A   1      31.520  26.770  27.144  1.00  0.00    -0.252 OA
BRANCH   3   5
ATOM      5  C   UNL A   1      32.621  26.534  25.023  1.00  0.00     0.154 C 
ATOM      6  C   UNL A   1      34.027  25.958  24.878  1.00  0.00     0.026 C 
BRANCH   5   7
ATOM      7  C   UNL A   1      32.055  27.289  23.779  1.00  0.00     0.195 C 
ATOM      8  C   UNL A   1      33.161  28.238  23.260  1.00  0.00     0.076 C 
BRANCH   7   9
ATOM      9  N   UNL A   1      30.798  28.069  23.931  1.00  0.00    -0.329 N 
ATOM     10  C   UNL A   1      30.976  29.536  23.681  1.00  0.00     0.272 C 
ATOM     11  C   UNL A   1      29.621  27.640  23.113  1.00  0.00     0.190 C 
ATOM     12  H   UNL A   1      30.586  27.867  24.909  1.00  0.00     0.348 HD
ATOM     13  C   UNL A   1      29.536  29.958  23.559  1.00  0.00     0.114 C 
ATOM     14  C   UNL A   1      29.050  28.940  22.566  1.00  0.00     0.116 C 
ATOM     15  C   UNL A   1      28.588  26.868  23.920  1.00  0.00     0.076 C 
ATOM     16  C   UNL A   1      28.991  31.207  22.924  1.00  0.00     0.270 C 
ATOM     17  C   UNL A   1      27.594  29.327  22.428  1.00  0.00     0.271 C 
ATOM     18  N   UNL A   1      27.597  30.802  22.620  1.00  0.00    -0.345 N 
ATOM     19  H   UNL A   1      27.277  31.265  21.769  1.00  0.00     0.346 HD
ATOM     20  H   UNL A   1      26.972  31.067  23.381  1.00  0.00     0.346 HD
ENDBRANCH   7   9
ENDBRANCH   5   7
ENDBRANCH   3   5
ENDBRANCH   2   3
ENDBRANCH   1   2
BRANCH   1  21
ATOM     21  C   UNL A   1      32.870  30.836  27.081  1.00  0.00     0.275 C 
BRANCH  21  22
ATOM     22  O   UNL A   1      34.306  30.817  27.192  1.00  0.00    -0.458 OA
BRANCH  22  23
ATOM     23  C   UNL A   1      34.816  31.089  28.415  1.00  0.00     0.338 C 
ATOM     24  O   UNL A   1      34.413  31.902  29.217  1.00  0.00    -0.246 OA
BRANCH  23  25
ATOM     25  C   UNL A   1      36.068  30.316  28.552  1.00  0.00     0.060 A 
ATOM     26  C   UNL A   1      36.921  30.255  27.451  1.00  0.00     0.016 A 
ATOM     27  C   UNL A   1      36.412  29.673  29.744  1.00  0.00     0.016 A 
ATOM     28  C   UNL A   1      38.117  29.540  27.535  1.00  0.00     0.010 A 
ATOM     29  C   UNL A   1      37.650  29.018  29.849  1.00  0.00     0.010 A 
ATOM     30  C   UNL A   1      38.529  28.973  28.754  1.00  0.00    -0.014 A 
BRANCH  30  31
ATOM     31  C   UNL A   1      39.952  28.554  28.924  1.00  0.00     0.031 A 
ATOM     32  C   UNL A   1      41.033  29.471  29.411  1.00  0.00     0.074 A 
ATOM     33  C   UNL A   1      40.274  27.285  28.616  1.00  0.00     0.049 A 
ATOM     34  N   UNL A   1      42.335  29.344  29.363  1.00  0.00    -0.248 NA
ATOM     35  C   UNL A   1      40.583  30.706  30.044  1.00  0.00     0.031 C 
ATOM     36  C   UNL A   1      39.327  26.258  28.174  1.00  0.00     0.029 A 
ATOM     37  N   UNL A   1      41.481  26.639  28.646  1.00  0.00    -0.354 N 
ATOM     38  C   UNL A   1      42.855  30.527  29.884  1.00  0.00     0.074 A 
ATOM     39  C   UNL A   1      41.723  31.355  30.247  1.00  0.00     0.031 C 
ATOM     40  C   UNL A   1      39.980  25.100  28.022  1.00  0.00     0.029 A 
ATOM     41  C   UNL A   1      41.401  25.328  28.251  1.00  0.00     0.049 A 
ATOM     42  H   UNL A   1      42.321  27.072  28.923  1.00  0.00     0.167 HD
ATOM     43  C   UNL A   1      44.155  30.874  30.058  1.00  0.00     0.031 A 
ATOM     44  C   UNL A   1      42.365  24.416  28.043  1.00  0.00     0.031 A 
ATOM     45  C   UNL A   1      45.264  29.983  29.813  1.00  0.00     0.049 A 
ATOM     46  C   UNL A   1      43.793  24.805  28.254  1.00  0.00     0.074 A 
ATOM     47  C   UNL A   1      46.617  30.214  29.991  1.00  0.00     0.029 A 
ATOM     48  N   UNL A   1      45.138  28.668  29.389  1.00  0.00    -0.354 N 
ATOM     49  N   UNL A   1      44.285  25.964  28.620  1.00  0.00    -0.248 NA
ATOM     50  C   UNL A   1      44.799  23.765  28.012  1.00  0.00     0.031 C 
ATOM     51  C   UNL A   1      47.312  29.044  29.659  1.00  0.00     0.029 A 
ATOM     52  C   UNL A   1      46.387  28.073  29.313  1.00  0.00     0.049 A 
ATOM     53  H   UNL A   1      44.286  28.223  29.175  1.00  0.00     0.167 HD
ATOM     54  C   UNL A   1      45.661  25.795  28.653  1.00  0.00     0.074 A 
ATOM     55  C   UNL A   1      45.921  24.413  28.297  1.00  0.00     0.031 C 
ATOM     56  C   UNL A   1      46.623  26.703  28.944  1.00  0.00     0.031 A 
BRANCH  43  57
ATOM     57  C   UNL A   1      44.472  32.272  30.523  1.00  0.00    -0.014 A 
ATOM     58  C   UNL A   1      44.702  33.322  29.622  1.00  0.00     0.009 A 
ATOM     59  C   UNL A   1      44.450  32.559  31.900  1.00  0.00     0.009 A 
ATOM     60  C   UNL A   1      44.933  34.621  30.089  1.00  0.00     0.001 A 
ATOM     61  C   UNL A   1      44.650  33.863  32.363  1.00  0.00     0.001 A 
ATOM     62  C   UNL A   1      44.900  34.892  31.458  1.00  0.00     0.000 A 
ENDBRANCH  43  57
BRANCH  44  63
ATOM     63  C   UNL A   1      41.977  23.069  27.561  1.00  0.00    -0.014 A 
ATOM     64  C   UNL A   1      41.595  22.069  28.463  1.00  0.00     0.009 A 
ATOM     65  C   UNL A   1      41.895  22.815  26.181  1.00  0.00     0.009 A 
ATOM     66  C   UNL A   1      41.134  20.837  27.992  1.00  0.00     0.001 A 
ATOM     67  C   UNL A   1      41.402  21.597  25.714  1.00  0.00     0.001 A 
ATOM     68  C   UNL A   1      41.026  20.608  26.620  1.00  0.00     0.000 A 
ENDBRANCH  44  63
BRANCH  56  69
ATOM     69  C   UNL A   1      48.041  26.213  28.904  1.00  0.00    -0.014 A 
ATOM     70  C   UNL A   1      48.710  25.848  30.082  1.00  0.00     0.009 A 
ATOM     71  C   UNL A   1      48.711  26.115  27.676  1.00  0.00     0.009 A 
ATOM     72  C   UNL A   1      50.040  25.428  30.033  1.00  0.00     0.001 A 
ATOM     73  C   UNL A   1      50.033  25.672  27.628  1.00  0.00     0.001 A 
ATOM     74  C   UNL A   1      50.699  25.339  28.807  1.00  0.00     0.000 A 
ENDBRANCH  56  69
ENDBRANCH  30  31
ENDBRANCH  23  25
ENDBRANCH  22  23
ENDBRANCH  21  22
ENDBRANCH   1  21
TORSDOF 13
ENDMDL
MODEL 3
REMARK VINA RESULT:     -10.0      2.960      6.742
REMARK SMILES C[C@@H](C(=O)OCCOC(=O)c1ccc(-c2c3nc(c(-c4ccccc4)c4ccc([nH]4)c(-c4ccccc4)c4nc(c(-c5ccccc5)c5ccc2[nH]5)C=C4)C=C3)cc1)[C@H](C)[N@H+]1C[C@H]2C[NH2+]C[C@@H]2[C@@H]1C
REMARK SMILES IDX 6 1 5 2 3 3 4 4 2 5 1 6 59 7 60 8 61 9 62 10 68 11 63 13
REMARK SMILES IDX 67 14 69 15 64 16 66 17 65 18 7 21 8 22 9 23 10 24 11 25
REMARK SMILES IDX 12 26 58 27 13 28 57 29 14 30 15 31 16 32 51 33 17 34 56 35
REMARK SMILES IDX 50 36 52 37 18 38 55 39 49 40 48 41 19 43 41 44 26 45 40 46
REMARK SMILES IDX 27 47 30 48 39 49 53 50 28 51 29 52 38 54 54 55 31 56 20 57
REMARK SMILES IDX 21 58 25 59 22 60 24 61 23 62 42 63 43 64 47 65 44 66 46 67
REMARK SMILES IDX 45 68 32 69 33 70 37 71 34 72 36 73 35 74
REMARK H PARENT 61 12 65 19 65 20 52 42 30 53
REMARK Flexibility Score: inf
ROOT
ATOM      1  C   UNL A   1      32.214  30.148  25.883  1.00  0.00     0.274 C 
ENDROOT
BRANCH   1   2
ATOM      2  O   UNL A   1      32.884  29.537  24.755  1.00  0.00    -0.462 OA
BRANCH   2   3
ATOM      3  C   UNL A   1      32.259  28.477  24.180  1.00  0.00     0.314 C 
ATOM      4  O   UNL A   1      31.077  28.465  23.851  1.00  0.00    -0.252 OA
BRANCH   3   5
ATOM      5  C   UNL A   1      33.164  27.280  23.920  1.00  0.00     0.154 C 
ATOM      6  C   UNL A   1      33.650  27.087  22.486  1.00  0.00     0.026 C 
BRANCH   5   7
ATOM      7  C   UNL A   1      32.681  25.993  24.661  1.00  0.00     0.195 C 
ATOM      8  C   UNL A   1      32.391  26.378  26.132  1.00  0.00     0.076 C 
BRANCH   7   9
ATOM      9  N   UNL A   1      33.560  24.794  24.652  1.00  0.00    -0.329 N 
ATOM     10  C   UNL A   1      33.999  24.370  26.022  1.00  0.00     0.272 C 
ATOM     11  C   UNL A   1      33.039  23.566  23.976  1.00  0.00     0.190 C 
ATOM     12  H   UNL A   1      34.335  25.151  24.092  1.00  0.00     0.348 HD
ATOM     13  C   UNL A   1      34.537  22.998  25.711  1.00  0.00     0.114 C 
ATOM     14  C   UNL A   1      33.380  22.434  24.935  1.00  0.00     0.116 C 
ATOM     15  C   UNL A   1      33.650  23.341  22.601  1.00  0.00     0.076 C 
ATOM     16  C   UNL A   1      34.775  21.862  26.667  1.00  0.00     0.270 C 
ATOM     17  C   UNL A   1      33.894  21.053  24.593  1.00  0.00     0.271 C 
ATOM     18  N   UNL A   1      34.754  20.695  25.752  1.00  0.00    -0.345 N 
ATOM     19  H   UNL A   1      34.371  19.882  26.233  1.00  0.00     0.346 HD
ATOM     20  H   UNL A   1      35.698  20.465  25.442  1.00  0.00     0.346 HD
ENDBRANCH   7   9
ENDBRANCH   5   7
ENDBRANCH   3   5
ENDBRANCH   2   3
ENDBRANCH   1   2
BRANCH   1  21
ATOM     21  C   UNL A   1      33.042  30.017  27.169  1.00  0.00     0.275 C 
BRANCH  21  22
ATOM     22  O   UNL A   1      34.239  30.818  27.171  1.00  0.00    -0.458 OA
BRANCH  22  23
ATOM     23  C   UNL A   1      34.783  31.081  28.382  1.00  0.00     0.338 C 
ATOM     24  O   UNL A   1      34.402  31.887  29.201  1.00  0.00    -0.246 OA
BRANCH  23  25
ATOM     25  C   UNL A   1      36.038  30.307  28.477  1.00  0.00     0.060 A 
ATOM     26  C   UNL A   1      36.845  30.229  27.343  1.00  0.00     0.016 A 
ATOM     27  C   UNL A   1      36.430  29.680  29.663  1.00  0.00     0.016 A 
ATOM     28  C   UNL A   1      38.042  29.512  27.387  1.00  0.00     0.010 A 
ATOM     29  C   UNL A   1      37.671  29.024  29.726  1.00  0.00     0.010 A 
ATOM     30  C   UNL A   1      38.504  28.962  28.596  1.00  0.00    -0.014 A 
BRANCH  30  31
ATOM     31  C   UNL A   1      39.931  28.542  28.713  1.00  0.00     0.031 A 
ATOM     32  C   UNL A   1      41.036  29.469  29.123  1.00  0.00     0.074 A 
ATOM     33  C   UNL A   1      40.236  27.264  28.427  1.00  0.00     0.049 A 
ATOM     34  N   UNL A   1      42.334  29.336  29.019  1.00  0.00    -0.248 NA
ATOM     35  C   UNL A   1      40.618  30.723  29.740  1.00  0.00     0.031 C 
ATOM     36  C   UNL A   1      39.267  26.228  28.059  1.00  0.00     0.029 A 
ATOM     37  N   UNL A   1      41.442  26.614  28.421  1.00  0.00    -0.354 N 
ATOM     38  C   UNL A   1      42.880  30.531  29.482  1.00  0.00     0.074 A 
ATOM     39  C   UNL A   1      41.768  31.373  29.872  1.00  0.00     0.031 C 
ATOM     40  C   UNL A   1      39.909  25.064  27.911  1.00  0.00     0.029 A 
ATOM     41  C   UNL A   1      41.340  25.293  28.068  1.00  0.00     0.049 A 
ATOM     42  H   UNL A   1      42.294  27.051  28.646  1.00  0.00     0.167 HD
ATOM     43  C   UNL A   1      44.188  30.877  29.586  1.00  0.00     0.031 A 
ATOM     44  C   UNL A   1      42.291  24.372  27.842  1.00  0.00     0.031 A 
ATOM     45  C   UNL A   1      45.282  29.975  29.317  1.00  0.00     0.049 A 
ATOM     46  C   UNL A   1      43.728  24.761  27.976  1.00  0.00     0.074 A 
ATOM     47  C   UNL A   1      46.643  30.207  29.425  1.00  0.00     0.029 A 
ATOM     48  N   UNL A   1      45.134  28.650  28.937  1.00  0.00    -0.354 N 
ATOM     49  N   UNL A   1      44.239  25.928  28.286  1.00  0.00    -0.248 NA
ATOM     50  C   UNL A   1      44.720  23.710  27.719  1.00  0.00     0.031 C 
ATOM     51  C   UNL A   1      47.318  29.025  29.096  1.00  0.00     0.029 A 
ATOM     52  C   UNL A   1      46.376  28.048  28.821  1.00  0.00     0.049 A 
ATOM     53  H   UNL A   1      44.272  28.202  28.775  1.00  0.00     0.167 HD
ATOM     54  C   UNL A   1      45.615  25.754  28.261  1.00  0.00     0.074 A 
ATOM     55  C   UNL A   1      45.854  24.362  27.934  1.00  0.00     0.031 C 
ATOM     56  C   UNL A   1      46.592  26.667  28.481  1.00  0.00     0.031 A 
BRANCH  43  57
ATOM     57  C   UNL A   1      44.529  32.287  29.996  1.00  0.00    -0.014 A 
ATOM     58  C   UNL A   1      44.785  32.633  31.331  1.00  0.00     0.009 A 
ATOM     59  C   UNL A   1      44.685  33.273  29.005  1.00  0.00     0.009 A 
ATOM     60  C   UNL A   1      45.159  33.938  31.668  1.00  0.00     0.001 A 
ATOM     61  C   UNL A   1      45.088  34.569  29.340  1.00  0.00     0.001 A 
ATOM     62  C   UNL A   1      45.317  34.903  30.672  1.00  0.00     0.000 A 
ENDBRANCH  43  57
BRANCH  44  63
ATOM     63  C   UNL A   1      41.878  23.013  27.417  1.00  0.00    -0.014 A 
ATOM     64  C   UNL A   1      41.971  22.624  26.075  1.00  0.00     0.009 A 
ATOM     65  C   UNL A   1      41.479  22.068  28.378  1.00  0.00     0.009 A 
ATOM     66  C   UNL A   1      41.676  21.311  25.703  1.00  0.00     0.001 A 
ATOM     67  C   UNL A   1      41.219  20.749  28.008  1.00  0.00     0.001 A 
ATOM     68  C   UNL A   1      41.314  20.373  26.670  1.00  0.00     0.000 A 
ENDBRANCH  44  63
BRANCH  56  69
ATOM     69  C   UNL A   1      48.004  26.170  28.391  1.00  0.00    -0.014 A 
ATOM     70  C   UNL A   1      48.682  26.143  27.162  1.00  0.00     0.009 A 
ATOM     71  C   UNL A   1      48.665  25.727  29.547  1.00  0.00     0.009 A 
ATOM     72  C   UNL A   1      49.984  25.646  27.088  1.00  0.00     0.001 A 
ATOM     73  C   UNL A   1      49.973  25.252  29.473  1.00  0.00     0.001 A 
ATOM     74  C   UNL A   1      50.628  25.202  28.242  1.00  0.00     0.000 A 
ENDBRANCH  56  69
ENDBRANCH  30  31
ENDBRANCH  23  25
ENDBRANCH  22  23
ENDBRANCH  21  22
ENDBRANCH   1  21
TORSDOF 13
ENDMDL
