MODEL 1
REMARK VINA RESULT:     -10.2      0.000      0.000
REMARK SMILES CC1(C)CCN(S(=O)(=O)c2ccc(O)c(C(=O)OCCOC(=O)c3ccc(-c4c5nc(c(-c6ccccc6)c6ccc([nH]6)c(-c6ccccc6)c6nc(c(-c7ccccc7)c7ccc4[nH]7)C=C6)C=C5)cc3)c2)C1
REMARK SMILES IDX 19 1 18 2 16 3 17 4 15 5 10 6 11 7 72 8 12 9 13 10 7 11 8 12
REMARK SMILES IDX 9 13 6 14 1 15 2 16 3 17 4 18 73 19 5 20 14 21 20 23 21 24
REMARK SMILES IDX 22 25 23 26 24 27 25 28 71 29 26 30 70 31 27 32 28 33 29 34
REMARK SMILES IDX 64 35 30 36 69 37 63 38 65 39 31 40 68 41 62 42 61 43 32 45
REMARK SMILES IDX 54 46 39 47 53 48 40 49 43 50 52 51 66 52 41 53 42 54 51 56
REMARK SMILES IDX 67 57 44 58 33 59 34 60 38 61 35 62 37 63 36 64 55 65 56 66
REMARK SMILES IDX 60 67 57 68 59 69 58 70 45 71 46 72 50 73 47 74 49 75 48 76
REMARK H PARENT 14 22 65 44 43 55
REMARK Flexibility Score: inf
ROOT
ATOM      1  C   UNL A   1      33.376  34.151  28.039  1.00  0.00     0.275 C 
ENDROOT
BRANCH   1   2
ATOM      2  O   UNL A   1      32.895  34.215  29.395  1.00  0.00    -0.458 OA
BRANCH   2   3
ATOM      3  C   UNL A   1      32.957  35.418  30.018  1.00  0.00     0.342 C 
ATOM      4  O   UNL A   1      32.334  36.426  29.722  1.00  0.00    -0.246 OA
BRANCH   3   5
ATOM      5  C   UNL A   1      33.777  35.319  31.249  1.00  0.00     0.103 A 
ATOM      6  C   UNL A   1      35.806  34.494  32.290  1.00  0.00     0.083 A 
ATOM      7  C   UNL A   1      35.510  35.214  33.450  1.00  0.00     0.025 A 
ATOM      8  C   UNL A   1      34.931  34.522  31.202  1.00  0.00     0.041 A 
ATOM      9  C   UNL A   1      34.318  35.938  33.531  1.00  0.00     0.048 A 
ATOM     10  C   UNL A   1      33.458  35.998  32.429  1.00  0.00     0.130 A 
BRANCH   6  11
ATOM     11  S   UNL A   1      37.385  33.686  32.120  1.00  0.00     0.243 S 
ATOM     12  O   UNL A   1      38.416  34.693  32.292  1.00  0.00    -0.207 OA
ATOM     13  O   UNL A   1      37.334  32.874  30.927  1.00  0.00    -0.207 OA
BRANCH  11  14
ATOM     14  N   UNL A   1      37.446  32.641  33.458  1.00  0.00    -0.197 NA
ATOM     15  C   UNL A   1      38.207  30.810  35.946  1.00  0.00     0.012 C 
ATOM     16  C   UNL A   1      38.816  30.976  34.547  1.00  0.00    -0.020 C 
ATOM     17  C   UNL A   1      40.247  30.432  34.546  1.00  0.00     0.012 C 
ATOM     18  C   UNL A   1      37.960  30.298  33.475  1.00  0.00     0.024 C 
ATOM     19  C   UNL A   1      38.780  32.443  34.092  1.00  0.00     0.109 C 
ATOM     20  C   UNL A   1      36.843  31.298  33.212  1.00  0.00     0.103 C 
ENDBRANCH  11  14
ENDBRANCH   6  11
BRANCH  10  21
ATOM     21  O   UNL A   1      32.292  36.701  32.528  1.00  0.00    -0.507 OA
ATOM     22  H   UNL A   1      31.552  36.459  32.008  1.00  0.00     0.293 HD
ENDBRANCH  10  21
ENDBRANCH   3   5
ENDBRANCH   2   3
ENDBRANCH   1   2
BRANCH   1  23
ATOM     23  C   UNL A   1      34.679  33.358  27.970  1.00  0.00     0.275 C 
BRANCH  23  24
ATOM     24  O   UNL A   1      34.581  32.207  28.828  1.00  0.00    -0.458 OA
BRANCH  24  25
ATOM     25  C   UNL A   1      34.491  31.014  28.199  1.00  0.00     0.338 C 
ATOM     26  O   UNL A   1      33.561  30.578  27.543  1.00  0.00    -0.246 OA
BRANCH  25  27
ATOM     27  C   UNL A   1      35.753  30.285  28.373  1.00  0.00     0.060 A 
ATOM     28  C   UNL A   1      36.026  29.720  29.614  1.00  0.00     0.016 A 
ATOM     29  C   UNL A   1      36.722  30.284  27.373  1.00  0.00     0.016 A 
ATOM     30  C   UNL A   1      37.304  29.251  29.900  1.00  0.00     0.010 A 
ATOM     31  C   UNL A   1      37.975  29.712  27.631  1.00  0.00     0.010 A 
ATOM     32  C   UNL A   1      38.299  29.229  28.913  1.00  0.00    -0.014 A 
BRANCH  32  33
ATOM     33  C   UNL A   1      39.679  28.756  29.234  1.00  0.00     0.031 A 
ATOM     34  C   UNL A   1      40.612  29.626  30.039  1.00  0.00     0.074 A 
ATOM     35  C   UNL A   1      40.107  27.542  28.831  1.00  0.00     0.049 A 
ATOM     36  N   UNL A   1      41.899  29.489  30.252  1.00  0.00    -0.248 NA
ATOM     37  C   UNL A   1      40.028  30.820  30.671  1.00  0.00     0.031 C 
ATOM     38  C   UNL A   1      39.309  26.555  28.102  1.00  0.00     0.029 A 
ATOM     39  N   UNL A   1      41.324  26.924  28.992  1.00  0.00    -0.354 N 
ATOM     40  C   UNL A   1      42.286  30.609  30.979  1.00  0.00     0.074 A 
ATOM     41  C   UNL A   1      41.101  31.417  31.170  1.00  0.00     0.031 C 
ATOM     42  C   UNL A   1      40.036  25.442  27.927  1.00  0.00     0.029 A 
ATOM     43  C   UNL A   1      41.383  25.668  28.437  1.00  0.00     0.049 A 
ATOM     44  H   UNL A   1      42.083  27.342  29.461  1.00  0.00     0.167 HD
ATOM     45  C   UNL A   1      43.517  30.936  31.445  1.00  0.00     0.031 A 
ATOM     46  C   UNL A   1      42.409  24.806  28.308  1.00  0.00     0.031 A 
ATOM     47  C   UNL A   1      44.684  30.105  31.311  1.00  0.00     0.049 A 
ATOM     48  C   UNL A   1      43.770  25.203  28.802  1.00  0.00     0.074 A 
ATOM     49  C   UNL A   1      45.971  30.347  31.762  1.00  0.00     0.029 A 
ATOM     50  N   UNL A   1      44.701  28.858  30.706  1.00  0.00    -0.354 N 
ATOM     51  N   UNL A   1      44.137  26.298  29.420  1.00  0.00    -0.248 NA
ATOM     52  C   UNL A   1      44.863  24.250  28.561  1.00  0.00     0.031 C 
ATOM     53  C   UNL A   1      46.776  29.263  31.393  1.00  0.00     0.029 A 
ATOM     54  C   UNL A   1      45.978  28.325  30.759  1.00  0.00     0.049 A 
ATOM     55  H   UNL A   1      43.920  28.418  30.298  1.00  0.00     0.167 HD
ATOM     56  C   UNL A   1      45.500  26.163  29.650  1.00  0.00     0.074 A 
ATOM     57  C   UNL A   1      45.889  24.869  29.128  1.00  0.00     0.031 C 
ATOM     58  C   UNL A   1      46.353  27.037  30.237  1.00  0.00     0.031 A 
BRANCH  45  59
ATOM     59  C   UNL A   1      43.678  32.279  32.104  1.00  0.00    -0.014 A 
ATOM     60  C   UNL A   1      43.576  32.438  33.494  1.00  0.00     0.009 A 
ATOM     61  C   UNL A   1      43.981  33.400  31.313  1.00  0.00     0.009 A 
ATOM     62  C   UNL A   1      43.739  33.700  34.074  1.00  0.00     0.001 A 
ATOM     63  C   UNL A   1      44.172  34.653  31.898  1.00  0.00     0.001 A 
ATOM     64  C   UNL A   1      44.042  34.803  33.277  1.00  0.00     0.000 A 
ENDBRANCH  45  59
BRANCH  46  65
ATOM     65  C   UNL A   1      42.199  23.501  27.629  1.00  0.00    -0.014 A 
ATOM     66  C   UNL A   1      42.460  23.357  26.258  1.00  0.00     0.009 A 
ATOM     67  C   UNL A   1      41.742  22.386  28.352  1.00  0.00     0.009 A 
ATOM     68  C   UNL A   1      42.255  22.128  25.625  1.00  0.00     0.001 A 
ATOM     69  C   UNL A   1      41.572  21.152  27.724  1.00  0.00     0.001 A 
ATOM     70  C   UNL A   1      41.821  21.026  26.359  1.00  0.00     0.000 A 
ENDBRANCH  46  65
BRANCH  58  71
ATOM     71  C   UNL A   1      47.784  26.605  30.378  1.00  0.00    -0.014 A 
ATOM     72  C   UNL A   1      48.727  26.874  29.374  1.00  0.00     0.009 A 
ATOM     73  C   UNL A   1      48.199  25.947  31.546  1.00  0.00     0.009 A 
ATOM     74  C   UNL A   1      50.053  26.462  29.526  1.00  0.00     0.001 A 
ATOM     75  C   UNL A   1      49.529  25.558  31.705  1.00  0.00     0.001 A 
ATOM     76  C   UNL A   1      50.453  25.808  30.691  1.00  0.00     0.000 A 
ENDBRANCH  58  71
ENDBRANCH  32  33
ENDBRANCH  25  27
ENDBRANCH  24  25
ENDBRANCH  23  24
ENDBRANCH   1  23
TORSDOF 14
ENDMDL
MODEL 2
REMARK VINA RESULT:     -10.0      0.622      6.042
REMARK SMILES CC1(C)CCN(S(=O)(=O)c2ccc(O)c(C(=O)OCCOC(=O)c3ccc(-c4c5nc(c(-c6ccccc6)c6ccc([nH]6)c(-c6ccccc6)c6nc(c(-c7ccccc7)c7ccc4[nH]7)C=C6)C=C5)cc3)c2)C1
REMARK SMILES IDX 19 1 18 2 16 3 17 4 15 5 10 6 11 7 72 8 12 9 13 10 7 11 8 12
REMARK SMILES IDX 9 13 6 14 1 15 2 16 3 17 4 18 73 19 5 20 14 21 20 23 21 24
REMARK SMILES IDX 22 25 23 26 24 27 25 28 71 29 26 30 70 31 27 32 28 33 29 34
REMARK SMILES IDX 64 35 30 36 69 37 63 38 65 39 31 40 68 41 62 42 61 43 32 45
REMARK SMILES IDX 54 46 39 47 53 48 40 49 43 50 52 51 66 52 41 53 42 54 51 56
REMARK SMILES IDX 67 57 44 58 33 59 34 60 38 61 35 62 37 63 36 64 55 65 56 66
REMARK SMILES IDX 60 67 57 68 59 69 58 70 45 71 46 72 50 73 47 74 49 75 48 76
REMARK H PARENT 14 22 65 44 43 55
REMARK Flexibility Score: inf
ROOT
ATOM      1  C   UNL A   1      33.366  34.148  28.067  1.00  0.00     0.275 C 
ENDROOT
BRANCH   1   2
ATOM      2  O   UNL A   1      32.855  34.253  29.409  1.00  0.00    -0.458 OA
BRANCH   2   3
ATOM      3  C   UNL A   1      32.942  35.466  30.011  1.00  0.00     0.342 C 
ATOM      4  O   UNL A   1      32.330  36.477  29.706  1.00  0.00    -0.246 OA
BRANCH   3   5
ATOM      5  C   UNL A   1      33.777  35.375  31.232  1.00  0.00     0.103 A 
ATOM      6  C   UNL A   1      35.809  34.539  32.260  1.00  0.00     0.083 A 
ATOM      7  C   UNL A   1      35.537  35.281  33.412  1.00  0.00     0.025 A 
ATOM      8  C   UNL A   1      34.920  34.562  31.183  1.00  0.00     0.041 A 
ATOM      9  C   UNL A   1      34.355  36.021  33.497  1.00  0.00     0.048 A 
ATOM     10  C   UNL A   1      33.482  36.075  32.406  1.00  0.00     0.130 A 
BRANCH   6  11
ATOM     11  S   UNL A   1      37.376  33.710  32.082  1.00  0.00     0.243 S 
ATOM     12  O   UNL A   1      38.422  34.702  32.246  1.00  0.00    -0.207 OA
ATOM     13  O   UNL A   1      37.306  32.897  30.890  1.00  0.00    -0.207 OA
BRANCH  11  14
ATOM     14  N   UNL A   1      37.430  32.666  33.421  1.00  0.00    -0.197 NA
ATOM     15  C   UNL A   1      38.179  30.829  35.909  1.00  0.00     0.012 C 
ATOM     16  C   UNL A   1      38.786  30.988  34.507  1.00  0.00    -0.020 C 
ATOM     17  C   UNL A   1      40.210  30.427  34.502  1.00  0.00     0.012 C 
ATOM     18  C   UNL A   1      37.919  30.318  33.439  1.00  0.00     0.024 C 
ATOM     19  C   UNL A   1      38.764  32.454  34.050  1.00  0.00     0.109 C 
ATOM     20  C   UNL A   1      36.812  31.329  33.178  1.00  0.00     0.103 C 
ENDBRANCH  11  14
ENDBRANCH   6  11
BRANCH  10  21
ATOM     21  O   UNL A   1      32.326  36.794  32.510  1.00  0.00    -0.507 OA
ATOM     22  H   UNL A   1      31.576  36.553  32.003  1.00  0.00     0.293 HD
ENDBRANCH  10  21
ENDBRANCH   3   5
ENDBRANCH   2   3
ENDBRANCH   1   2
BRANCH   1  23
ATOM     23  C   UNL A   1      34.621  33.279  28.038  1.00  0.00     0.275 C 
BRANCH  23  24
ATOM     24  O   UNL A   1      34.396  32.093  28.821  1.00  0.00    -0.458 OA
BRANCH  24  25
ATOM     25  C   UNL A   1      34.405  30.928  28.135  1.00  0.00     0.338 C 
ATOM     26  O   UNL A   1      33.534  30.473  27.415  1.00  0.00    -0.246 OA
BRANCH  25  27
ATOM     27  C   UNL A   1      35.698  30.263  28.338  1.00  0.00     0.060 A 
ATOM     28  C   UNL A   1      35.980  29.733  29.592  1.00  0.00     0.016 A 
ATOM     29  C   UNL A   1      36.679  30.292  27.350  1.00  0.00     0.016 A 
ATOM     30  C   UNL A   1      37.276  29.330  29.903  1.00  0.00     0.010 A 
ATOM     31  C   UNL A   1      37.954  29.785  27.635  1.00  0.00     0.010 A 
ATOM     32  C   UNL A   1      38.284  29.340  28.929  1.00  0.00    -0.014 A 
BRANCH  32  33
ATOM     33  C   UNL A   1      39.680  28.939  29.277  1.00  0.00     0.031 A 
ATOM     34  C   UNL A   1      40.235  27.622  28.792  1.00  0.00     0.074 A 
ATOM     35  C   UNL A   1      40.473  29.750  30.007  1.00  0.00     0.049 A 
ATOM     36  N   UNL A   1      41.337  27.005  29.146  1.00  0.00    -0.248 NA
ATOM     37  C   UNL A   1      39.437  26.892  27.795  1.00  0.00     0.031 C 
ATOM     38  C   UNL A   1      40.111  31.081  30.497  1.00  0.00     0.029 A 
ATOM     39  N   UNL A   1      41.760  29.575  30.456  1.00  0.00    -0.354 N 
ATOM     40  C   UNL A   1      41.326  25.791  28.469  1.00  0.00     0.074 A 
ATOM     41  C   UNL A   1      40.110  25.755  27.687  1.00  0.00     0.031 C 
ATOM     42  C   UNL A   1      41.165  31.620  31.128  1.00  0.00     0.029 A 
ATOM     43  C   UNL A   1      42.242  30.639  31.180  1.00  0.00     0.049 A 
ATOM     44  H   UNL A   1      42.288  28.763  30.275  1.00  0.00     0.167 HD
ATOM     45  C   UNL A   1      42.245  24.794  28.498  1.00  0.00     0.031 A 
ATOM     46  C   UNL A   1      43.398  30.800  31.851  1.00  0.00     0.031 A 
ATOM     47  C   UNL A   1      43.487  24.853  29.225  1.00  0.00     0.049 A 
ATOM     48  C   UNL A   1      44.387  29.671  31.896  1.00  0.00     0.074 A 
ATOM     49  C   UNL A   1      44.486  23.898  29.305  1.00  0.00     0.029 A 
ATOM     50  N   UNL A   1      43.911  25.938  29.976  1.00  0.00    -0.354 N 
ATOM     51  N   UNL A   1      44.329  28.500  31.314  1.00  0.00    -0.248 NA
ATOM     52  C   UNL A   1      45.592  29.883  32.710  1.00  0.00     0.031 C 
ATOM     53  C   UNL A   1      45.498  24.389  30.137  1.00  0.00     0.029 A 
ATOM     54  C   UNL A   1      45.151  25.670  30.533  1.00  0.00     0.049 A 
ATOM     55  H   UNL A   1      43.405  26.774  30.097  1.00  0.00     0.167 HD
ATOM     56  C   UNL A   1      45.492  27.837  31.682  1.00  0.00     0.074 A 
ATOM     57  C   UNL A   1      46.249  28.747  32.517  1.00  0.00     0.031 C 
ATOM     58  C   UNL A   1      45.894  26.584  31.361  1.00  0.00     0.031 A 
BRANCH  45  59
ATOM     59  C   UNL A   1      41.922  23.526  27.755  1.00  0.00    -0.014 A 
ATOM     60  C   UNL A   1      41.160  22.502  28.337  1.00  0.00     0.009 A 
ATOM     61  C   UNL A   1      42.357  23.378  26.429  1.00  0.00     0.009 A 
ATOM     62  C   UNL A   1      40.872  21.339  27.615  1.00  0.00     0.001 A 
ATOM     63  C   UNL A   1      42.044  22.230  25.700  1.00  0.00     0.001 A 
ATOM     64  C   UNL A   1      41.309  21.207  26.297  1.00  0.00     0.000 A 
ENDBRANCH  45  59
BRANCH  46  65
ATOM     65  C   UNL A   1      43.657  32.067  32.585  1.00  0.00    -0.014 A 
ATOM     66  C   UNL A   1      43.317  32.190  33.941  1.00  0.00     0.009 A 
ATOM     67  C   UNL A   1      44.255  33.158  31.935  1.00  0.00     0.009 A 
ATOM     68  C   UNL A   1      43.559  33.385  34.624  1.00  0.00     0.001 A 
ATOM     69  C   UNL A   1      44.527  34.338  32.629  1.00  0.00     0.001 A 
ATOM     70  C   UNL A   1      44.171  34.453  33.971  1.00  0.00     0.000 A 
ENDBRANCH  46  65
BRANCH  58  71
ATOM     71  C   UNL A   1      47.229  26.138  31.884  1.00  0.00    -0.014 A 
ATOM     72  C   UNL A   1      47.342  25.473  33.115  1.00  0.00     0.009 A 
ATOM     73  C   UNL A   1      48.384  26.361  31.120  1.00  0.00     0.009 A 
ATOM     74  C   UNL A   1      48.594  25.070  33.584  1.00  0.00     0.001 A 
ATOM     75  C   UNL A   1      49.629  25.935  31.579  1.00  0.00     0.001 A 
ATOM     76  C   UNL A   1      49.735  25.297  32.815  1.00  0.00     0.000 A 
ENDBRANCH  58  71
ENDBRANCH  32  33
ENDBRANCH  25  27
ENDBRANCH  24  25
ENDBRANCH  23  24
ENDBRANCH   1  23
TORSDOF 14
ENDMDL
MODEL 3
REMARK VINA RESULT:     -10.0      3.835      9.157
REMARK SMILES CC1(C)CCN(S(=O)(=O)c2ccc(O)c(C(=O)OCCOC(=O)c3ccc(-c4c5nc(c(-c6ccccc6)c6ccc([nH]6)c(-c6ccccc6)c6nc(c(-c7ccccc7)c7ccc4[nH]7)C=C6)C=C5)cc3)c2)C1
REMARK SMILES IDX 19 1 18 2 16 3 17 4 15 5 10 6 11 7 72 8 12 9 13 10 7 11 8 12
REMARK SMILES IDX 9 13 6 14 1 15 2 16 3 17 4 18 73 19 5 20 14 21 20 23 21 24
REMARK SMILES IDX 22 25 23 26 24 27 25 28 71 29 26 30 70 31 27 32 28 33 29 34
REMARK SMILES IDX 64 35 30 36 69 37 63 38 65 39 31 40 68 41 62 42 61 43 32 45
REMARK SMILES IDX 54 46 39 47 53 48 40 49 43 50 52 51 66 52 41 53 42 54 51 56
REMARK SMILES IDX 67 57 44 58 33 59 34 60 38 61 35 62 37 63 36 64 55 65 56 66
REMARK SMILES IDX 60 67 57 68 59 69 58 70 45 71 46 72 50 73 47 74 49 75 48 76
REMARK H PARENT 14 22 65 44 43 55
REMARK Flexibility Score: inf
ROOT
ATOM      1  C   UNL A   1      31.668  30.620  26.696  1.00  0.00     0.275 C 
ENDROOT
BRANCH   1   2
ATOM      2  O   UNL A   1      32.870  30.269  25.984  1.00  0.00    -0.458 OA
BRANCH   2   3
ATOM      3  C   UNL A   1      33.553  29.182  26.422  1.00  0.00     0.342 C 
ATOM      4  O   UNL A   1      34.119  29.059  27.498  1.00  0.00    -0.246 OA
BRANCH   3   5
ATOM      5  C   UNL A   1      33.387  28.054  25.474  1.00  0.00     0.103 A 
ATOM      6  C   UNL A   1      32.670  25.763  25.131  1.00  0.00     0.083 A 
ATOM      7  C   UNL A   1      32.849  25.908  23.753  1.00  0.00     0.025 A 
ATOM      8  C   UNL A   1      32.963  26.821  25.994  1.00  0.00     0.041 A 
ATOM      9  C   UNL A   1      33.354  27.106  23.242  1.00  0.00     0.048 A 
ATOM     10  C   UNL A   1      33.613  28.180  24.100  1.00  0.00     0.130 A 
BRANCH   6  11
ATOM     11  S   UNL A   1      31.892  24.297  25.781  1.00  0.00     0.243 S 
ATOM     12  O   UNL A   1      30.864  23.890  24.841  1.00  0.00    -0.207 OA
ATOM     13  O   UNL A   1      31.573  24.550  27.166  1.00  0.00    -0.207 OA
BRANCH  11  14
ATOM     14  N   UNL A   1      33.131  23.135  25.737  1.00  0.00    -0.197 NA
ATOM     15  C   UNL A   1      35.834  21.460  25.838  1.00  0.00     0.012 C 
ATOM     16  C   UNL A   1      35.476  22.830  25.244  1.00  0.00    -0.020 C 
ATOM     17  C   UNL A   1      36.756  23.638  25.019  1.00  0.00     0.012 C 
ATOM     18  C   UNL A   1      34.670  22.689  23.951  1.00  0.00     0.024 C 
ATOM     19  C   UNL A   1      34.490  23.590  26.144  1.00  0.00     0.109 C 
ATOM     20  C   UNL A   1      33.250  22.420  24.431  1.00  0.00     0.103 C 
ENDBRANCH  11  14
ENDBRANCH   6  11
BRANCH  10  21
ATOM     21  O   UNL A   1      34.117  29.340  23.586  1.00  0.00    -0.507 OA
ATOM     22  H   UNL A   1      33.962  29.562  22.689  1.00  0.00     0.293 HD
ENDBRANCH  10  21
ENDBRANCH   3   5
ENDBRANCH   2   3
ENDBRANCH   1   2
BRANCH   1  23
ATOM     23  C   UNL A   1      31.594  32.130  26.909  1.00  0.00     0.275 C 
BRANCH  23  24
ATOM     24  O   UNL A   1      32.926  32.663  27.010  1.00  0.00    -0.458 OA
BRANCH  24  25
ATOM     25  C   UNL A   1      33.120  33.575  27.988  1.00  0.00     0.338 C 
ATOM     26  O   UNL A   1      32.372  34.469  28.342  1.00  0.00    -0.246 OA
BRANCH  25  27
ATOM     27  C   UNL A   1      34.405  33.304  28.646  1.00  0.00     0.060 A 
ATOM     28  C   UNL A   1      35.558  33.857  28.101  1.00  0.00     0.016 A 
ATOM     29  C   UNL A   1      34.490  32.396  29.699  1.00  0.00     0.016 A 
ATOM     30  C   UNL A   1      36.809  33.423  28.530  1.00  0.00     0.010 A 
ATOM     31  C   UNL A   1      35.750  32.044  30.201  1.00  0.00     0.010 A 
ATOM     32  C   UNL A   1      36.929  32.517  29.593  1.00  0.00    -0.014 A 
BRANCH  32  33
ATOM     33  C   UNL A   1      38.272  32.028  30.027  1.00  0.00     0.031 A 
ATOM     34  C   UNL A   1      38.841  30.757  29.448  1.00  0.00     0.074 A 
ATOM     35  C   UNL A   1      39.004  32.721  30.924  1.00  0.00     0.049 A 
ATOM     36  N   UNL A   1      39.886  30.064  29.834  1.00  0.00    -0.248 NA
ATOM     37  C   UNL A   1      38.132  30.175  28.298  1.00  0.00     0.031 C 
ATOM     38  C   UNL A   1      38.627  33.999  31.529  1.00  0.00     0.029 A 
ATOM     39  N   UNL A   1      40.235  32.449  31.474  1.00  0.00    -0.354 N 
ATOM     40  C   UNL A   1      39.916  28.937  29.021  1.00  0.00     0.074 A 
ATOM     41  C   UNL A   1      38.786  29.035  28.123  1.00  0.00     0.031 C 
ATOM     42  C   UNL A   1      39.623  34.424  32.320  1.00  0.00     0.029 A 
ATOM     43  C   UNL A   1      40.665  33.405  32.362  1.00  0.00     0.049 A 
ATOM     44  H   UNL A   1      40.758  31.645  31.252  1.00  0.00     0.167 HD
ATOM     45  C   UNL A   1      40.803  27.911  29.023  1.00  0.00     0.031 A 
ATOM     46  C   UNL A   1      41.750  33.446  33.159  1.00  0.00     0.031 A 
ATOM     47  C   UNL A   1      41.964  27.841  29.872  1.00  0.00     0.049 A 
ATOM     48  C   UNL A   1      42.701  32.285  33.169  1.00  0.00     0.074 A 
ATOM     49  C   UNL A   1      42.926  26.848  29.936  1.00  0.00     0.029 A 
ATOM     50  N   UNL A   1      42.335  28.817  30.783  1.00  0.00    -0.354 N 
ATOM     51  N   UNL A   1      42.675  31.191  32.450  1.00  0.00    -0.248 NA
ATOM     52  C   UNL A   1      43.821  32.358  34.117  1.00  0.00     0.031 C 
ATOM     53  C   UNL A   1      43.859  27.203  30.917  1.00  0.00     0.029 A 
ATOM     54  C   UNL A   1      43.504  28.442  31.425  1.00  0.00     0.049 A 
ATOM     55  H   UNL A   1      41.840  29.651  30.952  1.00  0.00     0.167 HD
ATOM     56  C   UNL A   1      43.778  30.449  32.850  1.00  0.00     0.074 A 
ATOM     57  C   UNL A   1      44.467  31.229  33.858  1.00  0.00     0.031 C 
ATOM     58  C   UNL A   1      44.180  29.227  32.424  1.00  0.00     0.031 A 
BRANCH  45  59
ATOM     59  C   UNL A   1      40.527  26.749  28.108  1.00  0.00    -0.014 A 
ATOM     60  C   UNL A   1      41.105  26.658  26.833  1.00  0.00     0.009 A 
ATOM     61  C   UNL A   1      39.701  25.705  28.554  1.00  0.00     0.009 A 
ATOM     62  C   UNL A   1      40.833  25.559  26.011  1.00  0.00     0.001 A 
ATOM     63  C   UNL A   1      39.454  24.596  27.744  1.00  0.00     0.001 A 
ATOM     64  C   UNL A   1      40.013  24.529  26.469  1.00  0.00     0.000 A 
ENDBRANCH  45  59
BRANCH  46  65
ATOM     65  C   UNL A   1      41.962  34.610  34.060  1.00  0.00    -0.014 A 
ATOM     66  C   UNL A   1      41.481  34.592  35.377  1.00  0.00     0.009 A 
ATOM     67  C   UNL A   1      42.657  35.744  33.608  1.00  0.00     0.009 A 
ATOM     68  C   UNL A   1      41.680  35.691  36.218  1.00  0.00     0.001 A 
ATOM     69  C   UNL A   1      42.884  36.825  34.460  1.00  0.00     0.001 A 
ATOM     70  C   UNL A   1      42.389  36.801  35.762  1.00  0.00     0.000 A 
ENDBRANCH  46  65
BRANCH  58  71
ATOM     71  C   UNL A   1      45.443  28.677  33.022  1.00  0.00    -0.014 A 
ATOM     72  C   UNL A   1      45.412  27.861  34.164  1.00  0.00     0.009 A 
ATOM     73  C   UNL A   1      46.677  28.954  32.414  1.00  0.00     0.009 A 
ATOM     74  C   UNL A   1      46.600  27.361  34.704  1.00  0.00     0.001 A 
ATOM     75  C   UNL A   1      47.858  28.434  32.941  1.00  0.00     0.001 A 
ATOM     76  C   UNL A   1      47.820  27.645  34.091  1.00  0.00     0.000 A 
ENDBRANCH  58  71
ENDBRANCH  32  33
ENDBRANCH  25  27
ENDBRANCH  24  25
ENDBRANCH  23  24
ENDBRANCH   1  23
TORSDOF 14
ENDMDL
