MODEL 1
REMARK VINA RESULT:     -11.1      0.000      0.000
REMARK SMILES COc1cc(Cl)c2c(c1)C=C(C(=O)OCCOC(=O)c1ccc(-c3c4nc(c(-c5ccccc5)c5ccc([nH]5)c(-c5ccccc5)c5nc(c(-c6ccccc6)c6ccc3[nH]6)C=C5)C=C4)cc1)[C@@H](C(F)(F)F)O2
REMARK SMILES IDX 16 1 15 2 14 3 12 4 13 5 11 6 3 7 4 8 9 9 5 10 8 11 6 12
REMARK SMILES IDX 7 13 10 14 73 15 68 16 2 17 1 18 69 19 70 20 71 21 72 22
REMARK SMILES IDX 17 23 18 24 19 25 20 26 21 27 67 28 22 29 66 30 23 31 24 32
REMARK SMILES IDX 25 33 60 34 26 35 65 36 59 37 61 38 27 39 64 40 58 41 57 42
REMARK SMILES IDX 28 44 50 45 35 46 49 47 36 48 39 49 48 50 62 51 37 52 38 53
REMARK SMILES IDX 47 55 63 56 40 57 29 58 30 59 34 60 31 61 33 62 32 63 51 64
REMARK SMILES IDX 52 65 56 66 53 67 55 68 54 69 41 70 42 71 46 72 43 73 45 74
REMARK SMILES IDX 44 75
REMARK H PARENT 61 43 39 54
REMARK Flexibility Score: inf
ROOT
ATOM      1  C   UNL A   1      36.101  20.689  25.095  1.00  0.00     0.275 C 
ENDROOT
BRANCH   1   2
ATOM      2  C   UNL A   1      34.771  21.306  24.646  1.00  0.00     0.275 C 
BRANCH   2   3
ATOM      3  O   UNL A   1      34.724  22.723  24.915  1.00  0.00    -0.459 OA
BRANCH   3   4
ATOM      4  C   UNL A   1      34.697  23.541  23.835  1.00  0.00     0.338 C 
ATOM      5  O   UNL A   1      35.292  23.367  22.783  1.00  0.00    -0.246 OA
BRANCH   4   6
ATOM      6  C   UNL A   1      33.738  24.648  24.057  1.00  0.00     0.087 C 
ATOM      7  C   UNL A   1      33.061  29.048  25.884  1.00  0.00     0.121 A 
ATOM      8  C   UNL A   1      31.882  29.189  25.158  1.00  0.00     0.070 A 
ATOM      9  C   UNL A   1      33.767  27.847  25.834  1.00  0.00     0.058 A 
ATOM     10  C   UNL A   1      31.423  28.126  24.372  1.00  0.00     0.087 A 
ATOM     11  C   UNL A   1      33.305  26.778  25.056  1.00  0.00     0.022 A 
ATOM     12  Cl  UNL A   1      29.965  28.352  23.470  1.00  0.00    -0.080 Cl
ATOM     13  C   UNL A   1      32.143  26.923  24.297  1.00  0.00     0.146 A 
ATOM     14  C   UNL A   1      34.083  25.555  24.979  1.00  0.00     0.027 C 
ATOM     15  O   UNL A   1      31.686  25.946  23.456  1.00  0.00    -0.474 OA
ATOM     16  C   UNL A   1      32.481  24.747  23.235  1.00  0.00     0.316 C 
BRANCH   7  17
ATOM     17  O   UNL A   1      33.656  30.057  26.590  1.00  0.00    -0.497 OA
ATOM     18  C   UNL A   1      34.713  29.632  27.444  1.00  0.00     0.278 C 
ENDBRANCH   7  17
BRANCH  16  19
ATOM     19  C   UNL A   1      31.567  23.535  23.484  1.00  0.00     0.430 C 
ATOM     20  F   UNL A   1      31.965  22.458  22.764  1.00  0.00    -0.167 F 
ATOM     21  F   UNL A   1      31.563  23.152  24.782  1.00  0.00    -0.167 F 
ATOM     22  F   UNL A   1      30.282  23.796  23.142  1.00  0.00    -0.167 F 
ENDBRANCH  16  19
ENDBRANCH   4   6
ENDBRANCH   3   4
ENDBRANCH   2   3
ENDBRANCH   1   2
BRANCH   1  23
ATOM     23  O   UNL A   1      36.918  21.645  25.796  1.00  0.00    -0.458 OA
BRANCH  23  24
ATOM     24  C   UNL A   1      38.233  21.329  25.862  1.00  0.00     0.338 C 
ATOM     25  O   UNL A   1      38.771  20.324  25.430  1.00  0.00    -0.246 OA
BRANCH  24  26
ATOM     26  C   UNL A   1      38.993  22.484  26.370  1.00  0.00     0.060 A 
ATOM     27  C   UNL A   1      38.544  23.746  25.981  1.00  0.00     0.016 A 
ATOM     28  C   UNL A   1      40.136  22.357  27.162  1.00  0.00     0.016 A 
ATOM     29  C   UNL A   1      39.192  24.895  26.413  1.00  0.00     0.010 A 
ATOM     30  C   UNL A   1      40.827  23.512  27.552  1.00  0.00     0.010 A 
ATOM     31  C   UNL A   1      40.357  24.783  27.177  1.00  0.00    -0.014 A 
BRANCH  31  32
ATOM     32  C   UNL A   1      41.136  26.004  27.470  1.00  0.00     0.031 A 
ATOM     33  C   UNL A   1      40.555  27.036  28.391  1.00  0.00     0.074 A 
ATOM     34  C   UNL A   1      42.377  26.156  26.977  1.00  0.00     0.049 A 
ATOM     35  N   UNL A   1      41.044  28.198  28.738  1.00  0.00    -0.248 NA
ATOM     36  C   UNL A   1      39.266  26.709  29.022  1.00  0.00     0.031 C 
ATOM     37  C   UNL A   1      43.094  25.167  26.172  1.00  0.00     0.029 A 
ATOM     38  N   UNL A   1      43.257  27.202  27.094  1.00  0.00    -0.354 N 
ATOM     39  C   UNL A   1      40.124  28.739  29.626  1.00  0.00     0.074 A 
ATOM     40  C   UNL A   1      39.049  27.783  29.768  1.00  0.00     0.031 C 
ATOM     41  C   UNL A   1      44.304  25.660  25.859  1.00  0.00     0.029 A 
ATOM     42  C   UNL A   1      44.428  27.010  26.404  1.00  0.00     0.049 A 
ATOM     43  H   UNL A   1      43.067  28.010  27.622  1.00  0.00     0.167 HD
ATOM     44  C   UNL A   1      40.173  29.932  30.260  1.00  0.00     0.031 A 
ATOM     45  C   UNL A   1      45.468  27.844  26.209  1.00  0.00     0.031 A 
ATOM     46  C   UNL A   1      41.224  30.896  30.093  1.00  0.00     0.049 A 
ATOM     47  C   UNL A   1      45.436  29.219  26.815  1.00  0.00     0.074 A 
ATOM     48  C   UNL A   1      41.330  32.158  30.650  1.00  0.00     0.029 A 
ATOM     49  N   UNL A   1      42.349  30.705  29.308  1.00  0.00    -0.354 N 
ATOM     50  N   UNL A   1      44.529  29.751  27.599  1.00  0.00    -0.248 NA
ATOM     51  C   UNL A   1      46.562  30.112  26.504  1.00  0.00     0.031 C 
ATOM     52  C   UNL A   1      42.502  32.748  30.168  1.00  0.00     0.029 A 
ATOM     53  C   UNL A   1      43.148  31.833  29.352  1.00  0.00     0.049 A 
ATOM     54  H   UNL A   1      42.550  29.888  28.795  1.00  0.00     0.167 HD
ATOM     55  C   UNL A   1      44.982  31.032  27.888  1.00  0.00     0.074 A 
ATOM     56  C   UNL A   1      46.246  31.197  27.202  1.00  0.00     0.031 C 
ATOM     57  C   UNL A   1      44.401  31.982  28.660  1.00  0.00     0.031 A 
BRANCH  44  58
ATOM     58  C   UNL A   1      39.029  30.287  31.161  1.00  0.00    -0.014 A 
ATOM     59  C   UNL A   1      37.884  30.924  30.661  1.00  0.00     0.009 A 
ATOM     60  C   UNL A   1      39.070  29.915  32.514  1.00  0.00     0.009 A 
ATOM     61  C   UNL A   1      36.802  31.188  31.503  1.00  0.00     0.001 A 
ATOM     62  C   UNL A   1      37.980  30.164  33.348  1.00  0.00     0.001 A 
ATOM     63  C   UNL A   1      36.849  30.801  32.843  1.00  0.00     0.000 A 
ENDBRANCH  44  58
BRANCH  45  64
ATOM     64  C   UNL A   1      46.609  27.404  25.367  1.00  0.00    -0.014 A 
ATOM     65  C   UNL A   1      46.730  27.844  24.042  1.00  0.00     0.009 A 
ATOM     66  C   UNL A   1      47.601  26.566  25.900  1.00  0.00     0.009 A 
ATOM     67  C   UNL A   1      47.826  27.454  23.268  1.00  0.00     0.001 A 
ATOM     68  C   UNL A   1      48.704  26.194  25.131  1.00  0.00     0.001 A 
ATOM     69  C   UNL A   1      48.815  26.638  23.813  1.00  0.00     0.000 A 
ENDBRANCH  45  64
BRANCH  57  70
ATOM     70  C   UNL A   1      45.127  33.284  28.834  1.00  0.00    -0.014 A 
ATOM     71  C   UNL A   1      46.096  33.443  29.835  1.00  0.00     0.009 A 
ATOM     72  C   UNL A   1      44.912  34.325  27.916  1.00  0.00     0.009 A 
ATOM     73  C   UNL A   1      46.830  34.628  29.920  1.00  0.00     0.001 A 
ATOM     74  C   UNL A   1      45.662  35.499  27.991  1.00  0.00     0.001 A 
ATOM     75  C   UNL A   1      46.617  35.650  28.994  1.00  0.00     0.000 A 
ENDBRANCH  57  70
ENDBRANCH  31  32
ENDBRANCH  24  26
ENDBRANCH  23  24
ENDBRANCH   1  23
TORSDOF 13
ENDMDL
MODEL 2
REMARK VINA RESULT:     -11.0      5.803     10.039
REMARK SMILES COc1cc(Cl)c2c(c1)C=C(C(=O)OCCOC(=O)c1ccc(-c3c4nc(c(-c5ccccc5)c5ccc([nH]5)c(-c5ccccc5)c5nc(c(-c6ccccc6)c6ccc3[nH]6)C=C5)C=C4)cc1)[C@@H](C(F)(F)F)O2
REMARK SMILES IDX 16 1 15 2 14 3 12 4 13 5 11 6 3 7 4 8 9 9 5 10 8 11 6 12
REMARK SMILES IDX 7 13 10 14 73 15 68 16 2 17 1 18 69 19 70 20 71 21 72 22
REMARK SMILES IDX 17 23 18 24 19 25 20 26 21 27 67 28 22 29 66 30 23 31 24 32
REMARK SMILES IDX 25 33 60 34 26 35 65 36 59 37 61 38 27 39 64 40 58 41 57 42
REMARK SMILES IDX 28 44 50 45 35 46 49 47 36 48 39 49 48 50 62 51 37 52 38 53
REMARK SMILES IDX 47 55 63 56 40 57 29 58 30 59 34 60 31 61 33 62 32 63 51 64
REMARK SMILES IDX 52 65 56 66 53 67 55 68 54 69 41 70 42 71 46 72 43 73 45 74
REMARK SMILES IDX 44 75
REMARK H PARENT 61 43 39 54
REMARK Flexibility Score: inf
ROOT
ATOM      1  C   UNL A   1      34.903  33.057  28.057  1.00  0.00     0.275 C 
ENDROOT
BRANCH   1   2
ATOM      2  C   UNL A   1      35.257  33.993  29.218  1.00  0.00     0.275 C 
BRANCH   2   3
ATOM      3  O   UNL A   1      35.957  33.295  30.270  1.00  0.00    -0.459 OA
BRANCH   3   4
ATOM      4  C   UNL A   1      35.266  33.083  31.416  1.00  0.00     0.338 C 
ATOM      5  O   UNL A   1      34.053  33.125  31.545  1.00  0.00    -0.246 OA
BRANCH   4   6
ATOM      6  C   UNL A   1      36.190  32.674  32.500  1.00  0.00     0.087 C 
ATOM      7  C   UNL A   1      39.521  29.512  33.934  1.00  0.00     0.121 A 
ATOM      8  C   UNL A   1      39.924  30.369  34.954  1.00  0.00     0.070 A 
ATOM      9  C   UNL A   1      38.442  29.857  33.122  1.00  0.00     0.058 A 
ATOM     10  C   UNL A   1      39.248  31.579  35.146  1.00  0.00     0.087 A 
ATOM     11  C   UNL A   1      37.758  31.064  33.320  1.00  0.00     0.022 A 
ATOM     12  Cl  UNL A   1      39.794  32.624  36.411  1.00  0.00    -0.080 Cl
ATOM     13  C   UNL A   1      38.176  31.945  34.316  1.00  0.00     0.146 A 
ATOM     14  C   UNL A   1      36.668  31.426  32.431  1.00  0.00     0.027 C 
ATOM     15  O   UNL A   1      37.601  33.171  34.505  1.00  0.00    -0.474 OA
ATOM     16  C   UNL A   1      36.590  33.650  33.573  1.00  0.00     0.316 C 
BRANCH   7  17
ATOM     17  O   UNL A   1      40.180  28.365  33.588  1.00  0.00    -0.497 OA
ATOM     18  C   UNL A   1      41.455  28.211  34.204  1.00  0.00     0.278 C 
ENDBRANCH   7  17
BRANCH  16  19
ATOM     19  C   UNL A   1      35.369  34.087  34.400  1.00  0.00     0.430 C 
ATOM     20  F   UNL A   1      34.919  35.305  34.014  1.00  0.00    -0.167 F 
ATOM     21  F   UNL A   1      34.329  33.230  34.270  1.00  0.00    -0.167 F 
ATOM     22  F   UNL A   1      35.659  34.164  35.721  1.00  0.00    -0.167 F 
ENDBRANCH  16  19
ENDBRANCH   4   6
ENDBRANCH   3   4
ENDBRANCH   2   3
ENDBRANCH   1   2
BRANCH   1  23
ATOM     23  O   UNL A   1      34.232  31.869  28.518  1.00  0.00    -0.458 OA
BRANCH  23  24
ATOM     24  C   UNL A   1      34.440  30.767  27.760  1.00  0.00     0.338 C 
ATOM     25  O   UNL A   1      33.735  30.351  26.857  1.00  0.00    -0.246 OA
BRANCH  24  26
ATOM     26  C   UNL A   1      35.777  30.218  28.044  1.00  0.00     0.060 A 
ATOM     27  C   UNL A   1      35.982  29.706  29.326  1.00  0.00     0.016 A 
ATOM     28  C   UNL A   1      36.823  30.237  27.119  1.00  0.00     0.016 A 
ATOM     29  C   UNL A   1      37.208  29.163  29.686  1.00  0.00     0.010 A 
ATOM     30  C   UNL A   1      38.078  29.743  27.497  1.00  0.00     0.010 A 
ATOM     31  C   UNL A   1      38.273  29.207  28.783  1.00  0.00    -0.014 A 
BRANCH  31  32
ATOM     32  C   UNL A   1      39.615  28.796  29.245  1.00  0.00     0.031 A 
ATOM     33  C   UNL A   1      40.150  27.456  28.833  1.00  0.00     0.074 A 
ATOM     34  C   UNL A   1      40.376  29.639  29.964  1.00  0.00     0.049 A 
ATOM     35  N   UNL A   1      41.274  26.880  29.170  1.00  0.00    -0.248 NA
ATOM     36  C   UNL A   1      39.321  26.671  27.904  1.00  0.00     0.031 C 
ATOM     37  C   UNL A   1      40.013  31.010  30.320  1.00  0.00     0.029 A 
ATOM     38  N   UNL A   1      41.620  29.462  30.514  1.00  0.00    -0.354 N 
ATOM     39  C   UNL A   1      41.289  25.668  28.494  1.00  0.00     0.074 A 
ATOM     40  C   UNL A   1      40.066  25.588  27.728  1.00  0.00     0.031 C 
ATOM     41  C   UNL A   1      41.012  31.548  31.040  1.00  0.00     0.029 A 
ATOM     42  C   UNL A   1      42.060  30.548  31.229  1.00  0.00     0.049 A 
ATOM     43  H   UNL A   1      42.145  28.637  30.406  1.00  0.00     0.167 HD
ATOM     44  C   UNL A   1      42.238  24.705  28.518  1.00  0.00     0.031 A 
ATOM     45  C   UNL A   1      43.170  30.704  31.977  1.00  0.00     0.031 A 
ATOM     46  C   UNL A   1      43.438  24.771  29.305  1.00  0.00     0.049 A 
ATOM     47  C   UNL A   1      44.145  29.567  32.097  1.00  0.00     0.074 A 
ATOM     48  C   UNL A   1      44.431  23.817  29.439  1.00  0.00     0.029 A 
ATOM     49  N   UNL A   1      43.803  25.849  30.095  1.00  0.00    -0.354 N 
ATOM     50  N   UNL A   1      44.118  28.394  31.510  1.00  0.00    -0.248 NA
ATOM     51  C   UNL A   1      45.297  29.768  32.989  1.00  0.00     0.031 C 
ATOM     52  C   UNL A   1      45.380  24.303  30.344  1.00  0.00     0.029 A 
ATOM     53  C   UNL A   1      45.000  25.578  30.732  1.00  0.00     0.049 A 
ATOM     54  H   UNL A   1      43.287  26.683  30.188  1.00  0.00     0.167 HD
ATOM     55  C   UNL A   1      45.255  27.726  31.946  1.00  0.00     0.074 A 
ATOM     56  C   UNL A   1      45.954  28.622  32.842  1.00  0.00     0.031 C 
ATOM     57  C   UNL A   1      45.681  26.480  31.624  1.00  0.00     0.031 A 
BRANCH  44  58
ATOM     58  C   UNL A   1      41.998  23.471  27.703  1.00  0.00    -0.014 A 
ATOM     59  C   UNL A   1      42.534  23.340  26.413  1.00  0.00     0.009 A 
ATOM     60  C   UNL A   1      41.285  22.399  28.261  1.00  0.00     0.009 A 
ATOM     61  C   UNL A   1      42.354  22.157  25.694  1.00  0.00     0.001 A 
ATOM     62  C   UNL A   1      41.122  21.212  27.547  1.00  0.00     0.001 A 
ATOM     63  C   UNL A   1      41.655  21.092  26.264  1.00  0.00     0.000 A 
ENDBRANCH  44  58
BRANCH  45  64
ATOM     64  C   UNL A   1      43.389  31.982  32.700  1.00  0.00    -0.014 A 
ATOM     65  C   UNL A   1      44.068  33.043  32.085  1.00  0.00     0.009 A 
ATOM     66  C   UNL A   1      42.890  32.154  34.001  1.00  0.00     0.009 A 
ATOM     67  C   UNL A   1      44.239  34.255  32.759  1.00  0.00     0.001 A 
ATOM     68  C   UNL A   1      43.046  33.372  34.664  1.00  0.00     0.001 A 
ATOM     69  C   UNL A   1      43.722  34.422  34.043  1.00  0.00     0.000 A 
ENDBRANCH  45  64
BRANCH  57  70
ATOM     70  C   UNL A   1      46.974  26.006  32.218  1.00  0.00    -0.014 A 
ATOM     71  C   UNL A   1      47.000  25.331  33.447  1.00  0.00     0.009 A 
ATOM     72  C   UNL A   1      48.164  26.145  31.487  1.00  0.00     0.009 A 
ATOM     73  C   UNL A   1      48.201  24.812  33.937  1.00  0.00     0.001 A 
ATOM     74  C   UNL A   1      49.357  25.606  31.969  1.00  0.00     0.001 A 
ATOM     75  C   UNL A   1      49.375  24.944  33.195  1.00  0.00     0.000 A 
ENDBRANCH  57  70
ENDBRANCH  31  32
ENDBRANCH  24  26
ENDBRANCH  23  24
ENDBRANCH   1  23
TORSDOF 13
ENDMDL
MODEL 3
REMARK VINA RESULT:     -11.0      3.512      8.589
REMARK SMILES COc1cc(Cl)c2c(c1)C=C(C(=O)OCCOC(=O)c1ccc(-c3c4nc(c(-c5ccccc5)c5ccc([nH]5)c(-c5ccccc5)c5nc(c(-c6ccccc6)c6ccc3[nH]6)C=C5)C=C4)cc1)[C@@H](C(F)(F)F)O2
REMARK SMILES IDX 16 1 15 2 14 3 12 4 13 5 11 6 3 7 4 8 9 9 5 10 8 11 6 12
REMARK SMILES IDX 7 13 10 14 73 15 68 16 2 17 1 18 69 19 70 20 71 21 72 22
REMARK SMILES IDX 17 23 18 24 19 25 20 26 21 27 67 28 22 29 66 30 23 31 24 32
REMARK SMILES IDX 25 33 60 34 26 35 65 36 59 37 61 38 27 39 64 40 58 41 57 42
REMARK SMILES IDX 28 44 50 45 35 46 49 47 36 48 39 49 48 50 62 51 37 52 38 53
REMARK SMILES IDX 47 55 63 56 40 57 29 58 30 59 34 60 31 61 33 62 32 63 51 64
REMARK SMILES IDX 52 65 56 66 53 67 55 68 54 69 41 70 42 71 46 72 43 73 45 74
REMARK SMILES IDX 44 75
REMARK H PARENT 61 43 39 54
REMARK Flexibility Score: inf
ROOT
ATOM      1  C   UNL A   1      31.595  30.120  25.494  1.00  0.00     0.275 C 
ENDROOT
BRANCH   1   2
ATOM      2  C   UNL A   1      31.329  28.770  24.817  1.00  0.00     0.275 C 
BRANCH   2   3
ATOM      3  O   UNL A   1      32.304  27.778  25.207  1.00  0.00    -0.459 OA
BRANCH   3   4
ATOM      4  C   UNL A   1      31.850  26.758  25.974  1.00  0.00     0.338 C 
ATOM      5  O   UNL A   1      31.032  26.843  26.877  1.00  0.00    -0.246 OA
BRANCH   4   6
ATOM      6  C   UNL A   1      32.405  25.472  25.492  1.00  0.00     0.087 C 
ATOM      7  C   UNL A   1      36.231  22.555  25.385  1.00  0.00     0.121 A 
ATOM      8  C   UNL A   1      35.434  21.494  24.965  1.00  0.00     0.070 A 
ATOM      9  C   UNL A   1      35.670  23.821  25.549  1.00  0.00     0.058 A 
ATOM     10  C   UNL A   1      34.073  21.706  24.722  1.00  0.00     0.087 A 
ATOM     11  C   UNL A   1      34.310  24.038  25.296  1.00  0.00     0.022 A 
ATOM     12  Cl  UNL A   1      33.115  20.356  24.222  1.00  0.00    -0.080 Cl
ATOM     13  C   UNL A   1      33.496  22.973  24.909  1.00  0.00     0.146 A 
ATOM     14  C   UNL A   1      33.737  25.353  25.521  1.00  0.00     0.027 C 
ATOM     15  O   UNL A   1      32.147  23.104  24.727  1.00  0.00    -0.474 OA
ATOM     16  C   UNL A   1      31.489  24.360  25.054  1.00  0.00     0.316 C 
BRANCH   7  17
ATOM     17  O   UNL A   1      37.540  22.434  25.759  1.00  0.00    -0.497 OA
ATOM     18  C   UNL A   1      38.162  23.661  26.126  1.00  0.00     0.278 C 
ENDBRANCH   7  17
BRANCH  16  19
ATOM     19  C   UNL A   1      30.663  24.782  23.828  1.00  0.00     0.430 C 
ATOM     20  F   UNL A   1      29.574  25.503  24.188  1.00  0.00    -0.167 F 
ATOM     21  F   UNL A   1      31.372  25.555  22.972  1.00  0.00    -0.167 F 
ATOM     22  F   UNL A   1      30.223  23.711  23.125  1.00  0.00    -0.167 F 
ENDBRANCH  16  19
ENDBRANCH   4   6
ENDBRANCH   3   4
ENDBRANCH   2   3
ENDBRANCH   1   2
BRANCH   1  23
ATOM     23  O   UNL A   1      32.950  30.216  25.972  1.00  0.00    -0.458 OA
BRANCH  23  24
ATOM     24  C   UNL A   1      33.163  31.189  26.888  1.00  0.00     0.338 C 
ATOM     25  O   UNL A   1      32.372  32.043  27.251  1.00  0.00    -0.246 OA
BRANCH  24  26
ATOM     26  C   UNL A   1      34.454  30.961  27.560  1.00  0.00     0.060 A 
ATOM     27  C   UNL A   1      34.748  29.643  27.914  1.00  0.00     0.016 A 
ATOM     28  C   UNL A   1      35.338  31.991  27.884  1.00  0.00     0.016 A 
ATOM     29  C   UNL A   1      35.944  29.329  28.547  1.00  0.00     0.010 A 
ATOM     30  C   UNL A   1      36.518  31.685  28.575  1.00  0.00     0.010 A 
ATOM     31  C   UNL A   1      36.822  30.353  28.909  1.00  0.00    -0.014 A 
BRANCH  31  32
ATOM     32  C   UNL A   1      37.996  30.022  29.743  1.00  0.00     0.031 A 
ATOM     33  C   UNL A   1      39.077  29.154  29.170  1.00  0.00     0.074 A 
ATOM     34  C   UNL A   1      38.129  30.550  30.972  1.00  0.00     0.049 A 
ATOM     35  N   UNL A   1      40.160  28.700  29.745  1.00  0.00    -0.248 NA
ATOM     36  C   UNL A   1      38.932  28.763  27.758  1.00  0.00     0.031 C 
ATOM     37  C   UNL A   1      37.205  31.503  31.587  1.00  0.00     0.029 A 
ATOM     38  N   UNL A   1      39.105  30.363  31.918  1.00  0.00    -0.354 N 
ATOM     39  C   UNL A   1      40.825  27.973  28.768  1.00  0.00     0.074 A 
ATOM     40  C   UNL A   1      40.028  28.043  27.563  1.00  0.00     0.031 C 
ATOM     41  C   UNL A   1      37.656  31.809  32.816  1.00  0.00     0.029 A 
ATOM     42  C   UNL A   1      38.872  31.044  33.086  1.00  0.00     0.049 A 
ATOM     43  H   UNL A   1      39.896  29.795  31.771  1.00  0.00     0.167 HD
ATOM     44  C   UNL A   1      41.993  27.300  28.871  1.00  0.00     0.031 A 
ATOM     45  C   UNL A   1      39.547  31.027  34.251  1.00  0.00     0.031 A 
ATOM     46  C   UNL A   1      42.766  27.203  30.077  1.00  0.00     0.049 A 
ATOM     47  C   UNL A   1      40.770  30.163  34.384  1.00  0.00     0.074 A 
ATOM     48  C   UNL A   1      43.935  26.494  30.294  1.00  0.00     0.029 A 
ATOM     49  N   UNL A   1      42.446  27.830  31.270  1.00  0.00    -0.354 N 
ATOM     50  N   UNL A   1      41.355  29.421  33.475  1.00  0.00    -0.248 NA
ATOM     51  C   UNL A   1      41.420  30.125  35.702  1.00  0.00     0.031 C 
ATOM     52  C   UNL A   1      44.300  26.660  31.633  1.00  0.00     0.029 A 
ATOM     53  C   UNL A   1      43.386  27.511  32.233  1.00  0.00     0.049 A 
ATOM     54  H   UNL A   1      41.666  28.414  31.411  1.00  0.00     0.167 HD
ATOM     55  C   UNL A   1      42.450  28.843  34.104  1.00  0.00     0.074 A 
ATOM     56  C   UNL A   1      42.453  29.322  35.470  1.00  0.00     0.031 C 
ATOM     57  C   UNL A   1      43.372  27.994  33.590  1.00  0.00     0.031 A 
BRANCH  44  58
ATOM     58  C   UNL A   1      42.486  26.573  27.658  1.00  0.00    -0.014 A 
ATOM     59  C   UNL A   1      42.031  25.281  27.353  1.00  0.00     0.009 A 
ATOM     60  C   UNL A   1      43.363  27.217  26.771  1.00  0.00     0.009 A 
ATOM     61  C   UNL A   1      42.452  24.646  26.183  1.00  0.00     0.001 A 
ATOM     62  C   UNL A   1      43.768  26.587  25.595  1.00  0.00     0.001 A 
ATOM     63  C   UNL A   1      43.314  25.302  25.303  1.00  0.00     0.000 A 
ENDBRANCH  44  58
BRANCH  45  64
ATOM     64  C   UNL A   1      39.049  31.831  35.396  1.00  0.00    -0.014 A 
ATOM     65  C   UNL A   1      39.420  33.176  35.539  1.00  0.00     0.009 A 
ATOM     66  C   UNL A   1      38.173  31.263  36.333  1.00  0.00     0.009 A 
ATOM     67  C   UNL A   1      38.919  33.935  36.599  1.00  0.00     0.001 A 
ATOM     68  C   UNL A   1      37.658  32.030  37.379  1.00  0.00     0.001 A 
ATOM     69  C   UNL A   1      38.033  33.366  37.512  1.00  0.00     0.000 A 
ENDBRANCH  45  64
BRANCH  57  70
ATOM     70  C   UNL A   1      44.484  27.538  34.488  1.00  0.00    -0.014 A 
ATOM     71  C   UNL A   1      45.651  28.301  34.638  1.00  0.00     0.009 A 
ATOM     72  C   UNL A   1      44.312  26.387  35.273  1.00  0.00     0.009 A 
ATOM     73  C   UNL A   1      46.632  27.911  35.552  1.00  0.00     0.001 A 
ATOM     74  C   UNL A   1      45.284  26.012  36.201  1.00  0.00     0.001 A 
ATOM     75  C   UNL A   1      46.444  26.773  36.337  1.00  0.00     0.000 A 
ENDBRANCH  57  70
ENDBRANCH  31  32
ENDBRANCH  24  26
ENDBRANCH  23  24
ENDBRANCH   1  23
TORSDOF 13
ENDMDL
