MODEL 1
REMARK VINA RESULT:     -11.5      0.000      0.000
REMARK SMILES CC(C)c1cc(C(=O)N[C@@H](Cc2c[nH]c3ccccc23)C(=O)OCCOC(=O)c2ccc(-c3c4nc(c(-c5ccccc5)c5ccc([nH]5)c(-c5ccccc5)c5nc(c(-c6ccccc6)c6ccc3[nH]6)C=C5)C=C4)cc2)n(C)n1
REMARK SMILES IDX 24 1 23 2 21 3 22 4 10 5 9 6 7 7 8 8 6 10 4 11 5 12 79 13
REMARK SMILES IDX 77 14 78 15 2 16 1 17 3 18 11 19 12 20 13 21 20 22 14 23
REMARK SMILES IDX 15 24 19 25 16 27 18 28 17 29 25 30 26 31 27 32 28 33 29 34
REMARK SMILES IDX 30 35 76 36 31 37 75 38 32 39 33 40 34 41 69 42 35 43 74 44
REMARK SMILES IDX 68 45 70 46 36 47 73 48 67 49 66 50 37 52 59 53 44 54 58 55
REMARK SMILES IDX 45 56 48 57 57 58 71 59 46 60 47 61 56 63 72 64 49 65 38 66
REMARK SMILES IDX 39 67 43 68 40 69 42 70 41 71 60 72 61 73 65 74 62 75 64 76
REMARK SMILES IDX 63 77 50 78 51 79 55 80 52 81 54 82 53 83
REMARK H PARENT 9 9 14 26 70 51 48 62
REMARK Flexibility Score: inf
ROOT
ATOM      1  C   UNL A   1      38.930  21.510  26.029  1.00  0.00     0.274 C 
ENDROOT
BRANCH   1   2
ATOM      2  O   UNL A   1      38.105  22.123  25.020  1.00  0.00    -0.461 OA
BRANCH   2   3
ATOM      3  C   UNL A   1      37.074  22.883  25.479  1.00  0.00     0.329 C 
ATOM      4  O   UNL A   1      37.175  23.798  26.291  1.00  0.00    -0.250 OA
BRANCH   3   5
ATOM      5  C   UNL A   1      35.715  22.445  24.917  1.00  0.00     0.197 C 
BRANCH   5   6
ATOM      6  N   UNL A   1      35.242  23.147  23.729  1.00  0.00    -0.337 N 
ATOM      7  C   UNL A   1      34.295  24.105  23.498  1.00  0.00     0.270 C 
ATOM      8  O   UNL A   1      34.097  24.340  22.302  1.00  0.00    -0.268 OA
ATOM      9  H   UNL A   1      35.712  22.868  22.910  1.00  0.00     0.164 HD
BRANCH   7  10
ATOM     10  C   UNL A   1      33.612  24.884  24.520  1.00  0.00     0.126 A 
ATOM     11  C   UNL A   1      33.224  26.573  25.967  1.00  0.00     0.066 A 
ATOM     12  C   UNL A   1      34.131  26.084  25.012  1.00  0.00     0.059 A 
ATOM     13  N   UNL A   1      32.215  25.719  26.125  1.00  0.00    -0.177 NA
ATOM     14  N   UNL A   1      32.393  24.796  25.156  1.00  0.00    -0.263 N 
ATOM     15  C   UNL A   1      31.229  23.996  24.876  1.00  0.00     0.174 C 
BRANCH  11  16
ATOM     16  C   UNL A   1      33.284  27.856  26.746  1.00  0.00     0.034 C 
ATOM     17  C   UNL A   1      33.599  29.056  25.850  1.00  0.00     0.014 C 
ATOM     18  C   UNL A   1      31.994  28.101  27.524  1.00  0.00     0.014 C 
ENDBRANCH  11  16
ENDBRANCH   7  10
ENDBRANCH   5   6
BRANCH   5  19
ATOM     19  C   UNL A   1      35.730  20.928  24.659  1.00  0.00     0.074 C 
BRANCH  19  20
ATOM     20  C   UNL A   1      34.445  20.225  24.973  1.00  0.00    -0.020 A 
ATOM     21  C   UNL A   1      33.304  20.774  25.527  1.00  0.00     0.087 A 
ATOM     22  C   UNL A   1      34.179  18.835  24.766  1.00  0.00     0.003 A 
ATOM     23  N   UNL A   1      32.369  19.781  25.653  1.00  0.00    -0.361 N 
ATOM     24  C   UNL A   1      32.878  18.587  25.200  1.00  0.00     0.046 A 
ATOM     25  C   UNL A   1      34.935  17.764  24.246  1.00  0.00     0.010 A 
ATOM     26  H   UNL A   1      31.463  19.905  26.017  1.00  0.00     0.166 HD
ATOM     27  C   UNL A   1      32.294  17.316  25.143  1.00  0.00     0.026 A 
ATOM     28  C   UNL A   1      34.369  16.488  24.185  1.00  0.00     0.001 A 
ATOM     29  C   UNL A   1      33.068  16.270  24.629  1.00  0.00     0.002 A 
ENDBRANCH  19  20
ENDBRANCH   5  19
ENDBRANCH   3   5
ENDBRANCH   2   3
ENDBRANCH   1   2
BRANCH   1  30
ATOM     30  C   UNL A   1      39.469  20.160  25.551  1.00  0.00     0.275 C 
BRANCH  30  31
ATOM     31  O   UNL A   1      40.521  19.678  26.407  1.00  0.00    -0.458 OA
BRANCH  31  32
ATOM     32  C   UNL A   1      41.770  19.941  25.960  1.00  0.00     0.338 C 
ATOM     33  O   UNL A   1      42.429  19.289  25.163  1.00  0.00    -0.246 OA
BRANCH  32  34
ATOM     34  C   UNL A   1      42.227  21.234  26.484  1.00  0.00     0.060 A 
ATOM     35  C   UNL A   1      42.172  21.436  27.862  1.00  0.00     0.016 A 
ATOM     36  C   UNL A   1      42.575  22.278  25.627  1.00  0.00     0.016 A 
ATOM     37  C   UNL A   1      42.430  22.694  28.395  1.00  0.00     0.010 A 
ATOM     38  C   UNL A   1      42.861  23.538  26.167  1.00  0.00     0.010 A 
ATOM     39  C   UNL A   1      42.766  23.762  27.553  1.00  0.00    -0.014 A 
BRANCH  39  40
ATOM     40  C   UNL A   1      42.944  25.117  28.132  1.00  0.00     0.031 A 
ATOM     41  C   UNL A   1      44.314  25.600  28.520  1.00  0.00     0.074 A 
ATOM     42  C   UNL A   1      41.892  25.953  28.231  1.00  0.00     0.049 A 
ATOM     43  N   UNL A   1      44.674  26.765  28.997  1.00  0.00    -0.248 NA
ATOM     44  C   UNL A   1      45.433  24.663  28.318  1.00  0.00     0.031 C 
ATOM     45  C   UNL A   1      40.521  25.640  27.825  1.00  0.00     0.029 A 
ATOM     46  N   UNL A   1      41.819  27.244  28.690  1.00  0.00    -0.354 N 
ATOM     47  C   UNL A   1      46.057  26.716  29.114  1.00  0.00     0.074 A 
ATOM     48  C   UNL A   1      46.471  25.391  28.706  1.00  0.00     0.031 C 
ATOM     49  C   UNL A   1      39.747  26.718  28.034  1.00  0.00     0.029 A 
ATOM     50  C   UNL A   1      40.554  27.775  28.637  1.00  0.00     0.049 A 
ATOM     51  H   UNL A   1      42.599  27.742  29.025  1.00  0.00     0.167 HD
ATOM     52  C   UNL A   1      46.912  27.691  29.501  1.00  0.00     0.031 A 
ATOM     53  C   UNL A   1      40.088  28.969  29.052  1.00  0.00     0.031 A 
ATOM     54  C   UNL A   1      46.515  28.996  29.953  1.00  0.00     0.049 A 
ATOM     55  C   UNL A   1      41.032  29.951  29.683  1.00  0.00     0.074 A 
ATOM     56  C   UNL A   1      47.312  30.034  30.407  1.00  0.00     0.029 A 
ATOM     57  N   UNL A   1      45.204  29.438  30.026  1.00  0.00    -0.354 N 
ATOM     58  N   UNL A   1      42.335  29.885  29.803  1.00  0.00    -0.248 NA
ATOM     59  C   UNL A   1      40.435  31.168  30.253  1.00  0.00     0.031 C 
ATOM     60  C   UNL A   1      46.476  31.083  30.809  1.00  0.00     0.029 A 
ATOM     61  C   UNL A   1      45.165  30.715  30.560  1.00  0.00     0.049 A 
ATOM     62  H   UNL A   1      44.417  28.920  29.741  1.00  0.00     0.167 HD
ATOM     63  C   UNL A   1      42.717  31.055  30.445  1.00  0.00     0.074 A 
ATOM     64  C   UNL A   1      41.508  31.820  30.679  1.00  0.00     0.031 C 
ATOM     65  C   UNL A   1      43.958  31.460  30.805  1.00  0.00     0.031 A 
BRANCH  52  66
ATOM     66  C   UNL A   1      48.375  27.362  29.475  1.00  0.00    -0.014 A 
ATOM     67  C   UNL A   1      49.152  27.627  28.337  1.00  0.00     0.009 A 
ATOM     68  C   UNL A   1      48.987  26.797  30.605  1.00  0.00     0.009 A 
ATOM     69  C   UNL A   1      50.512  27.310  28.322  1.00  0.00     0.001 A 
ATOM     70  C   UNL A   1      50.349  26.497  30.592  1.00  0.00     0.001 A 
ATOM     71  C   UNL A   1      51.109  26.746  29.449  1.00  0.00     0.000 A 
ENDBRANCH  52  66
BRANCH  53  72
ATOM     72  C   UNL A   1      38.640  29.282  28.939  1.00  0.00    -0.014 A 
ATOM     73  C   UNL A   1      38.091  29.709  27.722  1.00  0.00     0.009 A 
ATOM     74  C   UNL A   1      37.803  29.172  30.062  1.00  0.00     0.009 A 
ATOM     75  C   UNL A   1      36.736  30.033  27.634  1.00  0.00     0.001 A 
ATOM     76  C   UNL A   1      36.444  29.472  29.964  1.00  0.00     0.001 A 
ATOM     77  C   UNL A   1      35.913  29.910  28.753  1.00  0.00     0.000 A 
ENDBRANCH  53  72
BRANCH  65  78
ATOM     78  C   UNL A   1      44.073  32.796  31.480  1.00  0.00    -0.014 A 
ATOM     79  C   UNL A   1      44.198  33.976  30.730  1.00  0.00     0.009 A 
ATOM     80  C   UNL A   1      44.029  32.879  32.880  1.00  0.00     0.009 A 
ATOM     81  C   UNL A   1      44.303  35.211  31.372  1.00  0.00     0.001 A 
ATOM     82  C   UNL A   1      44.110  34.117  33.518  1.00  0.00     0.001 A 
ATOM     83  C   UNL A   1      44.255  35.281  32.764  1.00  0.00     0.000 A 
ENDBRANCH  65  78
ENDBRANCH  39  40
ENDBRANCH  32  34
ENDBRANCH  31  32
ENDBRANCH  30  31
ENDBRANCH   1  30
TORSDOF 16
ENDMDL
MODEL 2
REMARK VINA RESULT:     -11.4      1.418      4.003
REMARK SMILES CC(C)c1cc(C(=O)N[C@@H](Cc2c[nH]c3ccccc23)C(=O)OCCOC(=O)c2ccc(-c3c4nc(c(-c5ccccc5)c5ccc([nH]5)c(-c5ccccc5)c5nc(c(-c6ccccc6)c6ccc3[nH]6)C=C5)C=C4)cc2)n(C)n1
REMARK SMILES IDX 24 1 23 2 21 3 22 4 10 5 9 6 7 7 8 8 6 10 4 11 5 12 79 13
REMARK SMILES IDX 77 14 78 15 2 16 1 17 3 18 11 19 12 20 13 21 20 22 14 23
REMARK SMILES IDX 15 24 19 25 16 27 18 28 17 29 25 30 26 31 27 32 28 33 29 34
REMARK SMILES IDX 30 35 76 36 31 37 75 38 32 39 33 40 34 41 69 42 35 43 74 44
REMARK SMILES IDX 68 45 70 46 36 47 73 48 67 49 66 50 37 52 59 53 44 54 58 55
REMARK SMILES IDX 45 56 48 57 57 58 71 59 46 60 47 61 56 63 72 64 49 65 38 66
REMARK SMILES IDX 39 67 43 68 40 69 42 70 41 71 60 72 61 73 65 74 62 75 64 76
REMARK SMILES IDX 63 77 50 78 51 79 55 80 52 81 54 82 53 83
REMARK H PARENT 9 9 14 26 70 51 48 62
REMARK Flexibility Score: inf
ROOT
ATOM      1  C   UNL A   1      37.881  20.807  24.939  1.00  0.00     0.274 C 
ENDROOT
BRANCH   1   2
ATOM      2  O   UNL A   1      38.106  21.788  25.969  1.00  0.00    -0.461 OA
BRANCH   2   3
ATOM      3  C   UNL A   1      37.537  23.005  25.763  1.00  0.00     0.329 C 
ATOM      4  O   UNL A   1      38.132  24.078  25.780  1.00  0.00    -0.250 OA
BRANCH   3   5
ATOM      5  C   UNL A   1      36.019  22.926  25.552  1.00  0.00     0.197 C 
BRANCH   5   6
ATOM      6  N   UNL A   1      35.229  22.425  26.671  1.00  0.00    -0.337 N 
ATOM      7  C   UNL A   1      34.067  21.711  26.778  1.00  0.00     0.270 C 
ATOM      8  O   UNL A   1      33.645  21.607  27.934  1.00  0.00    -0.268 OA
ATOM      9  H   UNL A   1      35.620  22.652  27.546  1.00  0.00     0.164 HD
BRANCH   7  10
ATOM     10  C   UNL A   1      33.388  21.030  25.686  1.00  0.00     0.126 A 
ATOM     11  C   UNL A   1      32.867  19.376  24.241  1.00  0.00     0.066 A 
ATOM     12  C   UNL A   1      33.712  19.725  25.308  1.00  0.00     0.059 A 
ATOM     13  N   UNL A   1      32.090  20.405  23.912  1.00  0.00    -0.177 NA
ATOM     14  N   UNL A   1      32.317  21.325  24.873  1.00  0.00    -0.263 N 
ATOM     15  C   UNL A   1      31.315  22.358  24.955  1.00  0.00     0.174 C 
BRANCH  11  16
ATOM     16  C   UNL A   1      32.769  18.066  23.513  1.00  0.00     0.034 C 
ATOM     17  C   UNL A   1      32.356  18.252  22.050  1.00  0.00     0.014 C 
ATOM     18  C   UNL A   1      34.073  17.277  23.598  1.00  0.00     0.014 C 
ENDBRANCH  11  16
ENDBRANCH   7  10
ENDBRANCH   5   6
BRANCH   5  19
ATOM     19  C   UNL A   1      35.489  24.301  25.110  1.00  0.00     0.074 C 
BRANCH  19  20
ATOM     20  C   UNL A   1      34.549  24.266  23.943  1.00  0.00    -0.020 A 
ATOM     21  C   UNL A   1      34.416  23.260  23.006  1.00  0.00     0.087 A 
ATOM     22  C   UNL A   1      33.624  25.296  23.583  1.00  0.00     0.003 A 
ATOM     23  N   UNL A   1      33.451  23.636  22.108  1.00  0.00    -0.361 N 
ATOM     24  C   UNL A   1      32.954  24.875  22.435  1.00  0.00     0.046 A 
ATOM     25  C   UNL A   1      33.297  26.551  24.136  1.00  0.00     0.010 A 
ATOM     26  H   UNL A   1      33.157  23.096  21.340  1.00  0.00     0.166 HD
ATOM     27  C   UNL A   1      31.974  25.653  21.807  1.00  0.00     0.026 A 
ATOM     28  C   UNL A   1      32.323  27.342  23.521  1.00  0.00     0.001 A 
ATOM     29  C   UNL A   1      31.673  26.897  22.373  1.00  0.00     0.002 A 
ENDBRANCH  19  20
ENDBRANCH   5  19
ENDBRANCH   3   5
ENDBRANCH   2   3
ENDBRANCH   1   2
BRANCH   1  30
ATOM     30  C   UNL A   1      38.852  19.632  25.077  1.00  0.00     0.275 C 
BRANCH  30  31
ATOM     31  O   UNL A   1      39.618  19.720  26.293  1.00  0.00    -0.458 OA
BRANCH  31  32
ATOM     32  C   UNL A   1      40.958  19.699  26.111  1.00  0.00     0.338 C 
ATOM     33  O   UNL A   1      41.621  18.836  25.554  1.00  0.00    -0.246 OA
BRANCH  32  34
ATOM     34  C   UNL A   1      41.548  20.955  26.589  1.00  0.00     0.060 A 
ATOM     35  C   UNL A   1      41.532  21.205  27.960  1.00  0.00     0.016 A 
ATOM     36  C   UNL A   1      41.984  21.934  25.695  1.00  0.00     0.016 A 
ATOM     37  C   UNL A   1      41.921  22.447  28.450  1.00  0.00     0.010 A 
ATOM     38  C   UNL A   1      42.400  23.175  26.190  1.00  0.00     0.010 A 
ATOM     39  C   UNL A   1      42.348  23.450  27.569  1.00  0.00    -0.014 A 
BRANCH  39  40
ATOM     40  C   UNL A   1      42.667  24.798  28.103  1.00  0.00     0.031 A 
ATOM     41  C   UNL A   1      44.093  25.182  28.386  1.00  0.00     0.074 A 
ATOM     42  C   UNL A   1      41.689  25.713  28.252  1.00  0.00     0.049 A 
ATOM     43  N   UNL A   1      44.571  26.325  28.809  1.00  0.00    -0.248 NA
ATOM     44  C   UNL A   1      45.121  24.159  28.130  1.00  0.00     0.031 C 
ATOM     45  C   UNL A   1      40.274  25.500  27.947  1.00  0.00     0.029 A 
ATOM     46  N   UNL A   1      41.745  27.015  28.684  1.00  0.00    -0.354 N 
ATOM     47  C   UNL A   1      45.951  26.173  28.834  1.00  0.00     0.074 A 
ATOM     48  C   UNL A   1      46.235  24.812  28.430  1.00  0.00     0.031 C 
ATOM     49  C   UNL A   1      39.599  26.637  28.183  1.00  0.00     0.029 A 
ATOM     50  C   UNL A   1      40.523  27.640  28.705  1.00  0.00     0.049 A 
ATOM     51  H   UNL A   1      42.582  27.458  28.954  1.00  0.00     0.167 HD
ATOM     52  C   UNL A   1      46.902  27.087  29.138  1.00  0.00     0.031 A 
ATOM     53  C   UNL A   1      40.178  28.874  29.121  1.00  0.00     0.031 A 
ATOM     54  C   UNL A   1      46.636  28.426  29.584  1.00  0.00     0.049 A 
ATOM     55  C   UNL A   1      41.234  29.793  29.663  1.00  0.00     0.074 A 
ATOM     56  C   UNL A   1      47.538  29.408  29.958  1.00  0.00     0.029 A 
ATOM     57  N   UNL A   1      45.370  28.968  29.736  1.00  0.00    -0.354 N 
ATOM     58  N   UNL A   1      42.535  29.629  29.697  1.00  0.00    -0.248 NA
ATOM     59  C   UNL A   1      40.771  31.062  30.243  1.00  0.00     0.031 C 
ATOM     60  C   UNL A   1      46.813  30.526  30.391  1.00  0.00     0.029 A 
ATOM     61  C   UNL A   1      45.464  30.255  30.240  1.00  0.00     0.049 A 
ATOM     62  H   UNL A   1      44.528  28.507  29.517  1.00  0.00     0.167 HD
ATOM     63  C   UNL A   1      43.046  30.779  30.283  1.00  0.00     0.074 A 
ATOM     64  C   UNL A   1      41.918  31.638  30.580  1.00  0.00     0.031 C 
ATOM     65  C   UNL A   1      44.336  31.094  30.548  1.00  0.00     0.031 A 
BRANCH  52  66
ATOM     66  C   UNL A   1      48.330  26.647  29.021  1.00  0.00    -0.014 A 
ATOM     67  C   UNL A   1      48.982  26.027  30.099  1.00  0.00     0.009 A 
ATOM     68  C   UNL A   1      49.027  26.836  27.818  1.00  0.00     0.009 A 
ATOM     69  C   UNL A   1      50.315  25.627  29.982  1.00  0.00     0.001 A 
ATOM     70  C   UNL A   1      50.354  26.420  27.699  1.00  0.00     0.001 A 
ATOM     71  C   UNL A   1      50.999  25.824  28.782  1.00  0.00     0.000 A 
ENDBRANCH  52  66
BRANCH  53  72
ATOM     72  C   UNL A   1      38.753  29.294  29.099  1.00  0.00    -0.014 A 
ATOM     73  C   UNL A   1      37.926  29.085  30.212  1.00  0.00     0.009 A 
ATOM     74  C   UNL A   1      38.210  29.891  27.949  1.00  0.00     0.009 A 
ATOM     75  C   UNL A   1      36.579  29.452  30.168  1.00  0.00     0.001 A 
ATOM     76  C   UNL A   1      36.871  30.280  27.919  1.00  0.00     0.001 A 
ATOM     77  C   UNL A   1      36.055  30.054  29.025  1.00  0.00     0.000 A 
ENDBRANCH  53  72
BRANCH  65  78
ATOM     78  C   UNL A   1      44.598  32.430  31.181  1.00  0.00    -0.014 A 
ATOM     79  C   UNL A   1      44.667  32.567  32.577  1.00  0.00     0.009 A 
ATOM     80  C   UNL A   1      44.806  33.559  30.373  1.00  0.00     0.009 A 
ATOM     81  C   UNL A   1      44.912  33.816  33.150  1.00  0.00     0.001 A 
ATOM     82  C   UNL A   1      45.075  34.801  30.950  1.00  0.00     0.001 A 
ATOM     83  C   UNL A   1      45.120  34.930  32.337  1.00  0.00     0.000 A 
ENDBRANCH  65  78
ENDBRANCH  39  40
ENDBRANCH  32  34
ENDBRANCH  31  32
ENDBRANCH  30  31
ENDBRANCH   1  30
TORSDOF 16
ENDMDL
MODEL 3
REMARK VINA RESULT:     -11.4      3.024      7.393
REMARK SMILES CC(C)c1cc(C(=O)N[C@@H](Cc2c[nH]c3ccccc23)C(=O)OCCOC(=O)c2ccc(-c3c4nc(c(-c5ccccc5)c5ccc([nH]5)c(-c5ccccc5)c5nc(c(-c6ccccc6)c6ccc3[nH]6)C=C5)C=C4)cc2)n(C)n1
REMARK SMILES IDX 24 1 23 2 21 3 22 4 10 5 9 6 7 7 8 8 6 10 4 11 5 12 79 13
REMARK SMILES IDX 77 14 78 15 2 16 1 17 3 18 11 19 12 20 13 21 20 22 14 23
REMARK SMILES IDX 15 24 19 25 16 27 18 28 17 29 25 30 26 31 27 32 28 33 29 34
REMARK SMILES IDX 30 35 76 36 31 37 75 38 32 39 33 40 34 41 69 42 35 43 74 44
REMARK SMILES IDX 68 45 70 46 36 47 73 48 67 49 66 50 37 52 59 53 44 54 58 55
REMARK SMILES IDX 45 56 48 57 57 58 71 59 46 60 47 61 56 63 72 64 49 65 38 66
REMARK SMILES IDX 39 67 43 68 40 69 42 70 41 71 60 72 61 73 65 74 62 75 64 76
REMARK SMILES IDX 63 77 50 78 51 79 55 80 52 81 54 82 53 83
REMARK H PARENT 9 9 14 26 70 51 48 62
REMARK Flexibility Score: inf
ROOT
ATOM      1  C   UNL A   1      31.987  28.832  27.514  1.00  0.00     0.274 C 
ENDROOT
BRANCH   1   2
ATOM      2  O   UNL A   1      32.906  27.741  27.319  1.00  0.00    -0.461 OA
BRANCH   2   3
ATOM      3  C   UNL A   1      32.481  26.749  26.490  1.00  0.00     0.329 C 
ATOM      4  O   UNL A   1      31.470  26.073  26.655  1.00  0.00    -0.250 OA
BRANCH   3   5
ATOM      5  C   UNL A   1      33.437  26.503  25.316  1.00  0.00     0.197 C 
BRANCH   5   6
ATOM      6  N   UNL A   1      33.827  27.671  24.534  1.00  0.00    -0.337 N 
ATOM      7  C   UNL A   1      33.227  28.406  23.550  1.00  0.00     0.270 C 
ATOM      8  O   UNL A   1      33.962  29.253  23.035  1.00  0.00    -0.268 OA
ATOM      9  H   UNL A   1      34.723  28.004  24.767  1.00  0.00     0.164 HD
BRANCH   7  10
ATOM     10  C   UNL A   1      31.827  28.317  23.160  1.00  0.00     0.126 A 
ATOM     11  C   UNL A   1      29.681  28.955  22.869  1.00  0.00     0.066 A 
ATOM     12  C   UNL A   1      30.929  29.367  23.366  1.00  0.00     0.059 A 
ATOM     13  N   UNL A   1      29.753  27.701  22.426  1.00  0.00    -0.177 NA
ATOM     14  N   UNL A   1      31.066  27.395  22.478  1.00  0.00    -0.263 N 
ATOM     15  C   UNL A   1      31.439  26.246  21.692  1.00  0.00     0.174 C 
BRANCH  11  16
ATOM     16  C   UNL A   1      28.398  29.732  22.796  1.00  0.00     0.034 C 
ATOM     17  C   UNL A   1      28.242  30.454  21.455  1.00  0.00     0.014 C 
ATOM     18  C   UNL A   1      27.187  28.843  23.063  1.00  0.00     0.014 C 
ENDBRANCH  11  16
ENDBRANCH   7  10
ENDBRANCH   5   6
BRANCH   5  19
ATOM     19  C   UNL A   1      34.692  25.767  25.821  1.00  0.00     0.074 C 
BRANCH  19  20
ATOM     20  C   UNL A   1      34.867  24.381  25.280  1.00  0.00    -0.020 A 
ATOM     21  C   UNL A   1      33.935  23.627  24.593  1.00  0.00     0.087 A 
ATOM     22  C   UNL A   1      36.045  23.579  25.400  1.00  0.00     0.003 A 
ATOM     23  N   UNL A   1      34.503  22.417  24.291  1.00  0.00    -0.361 N 
ATOM     24  C   UNL A   1      35.788  22.360  24.775  1.00  0.00     0.046 A 
ATOM     25  C   UNL A   1      37.310  23.785  25.987  1.00  0.00     0.010 A 
ATOM     26  H   UNL A   1      34.054  21.693  23.799  1.00  0.00     0.166 HD
ATOM     27  C   UNL A   1      36.735  21.331  24.712  1.00  0.00     0.026 A 
ATOM     28  C   UNL A   1      38.267  22.768  25.936  1.00  0.00     0.001 A 
ATOM     29  C   UNL A   1      37.981  21.559  25.308  1.00  0.00     0.002 A 
ENDBRANCH  19  20
ENDBRANCH   5  19
ENDBRANCH   3   5
ENDBRANCH   2   3
ENDBRANCH   1   2
BRANCH   1  30
ATOM     30  C   UNL A   1      32.445  30.078  26.754  1.00  0.00     0.275 C 
BRANCH  30  31
ATOM     31  O   UNL A   1      33.881  30.154  26.678  1.00  0.00    -0.458 OA
BRANCH  31  32
ATOM     32  C   UNL A   1      34.466  30.752  27.741  1.00  0.00     0.338 C 
ATOM     33  O   UNL A   1      34.001  31.634  28.448  1.00  0.00    -0.246 OA
BRANCH  32  34
ATOM     34  C   UNL A   1      35.751  30.107  28.033  1.00  0.00     0.060 A 
ATOM     35  C   UNL A   1      35.993  29.696  29.342  1.00  0.00     0.016 A 
ATOM     36  C   UNL A   1      36.756  30.030  27.069  1.00  0.00     0.016 A 
ATOM     37  C   UNL A   1      37.252  29.235  29.711  1.00  0.00     0.010 A 
ATOM     38  C   UNL A   1      38.016  29.541  27.433  1.00  0.00     0.010 A 
ATOM     39  C   UNL A   1      38.282  29.164  28.763  1.00  0.00    -0.014 A 
BRANCH  39  40
ATOM     40  C   UNL A   1      39.643  28.762  29.197  1.00  0.00     0.031 A 
ATOM     41  C   UNL A   1      40.174  27.398  28.852  1.00  0.00     0.074 A 
ATOM     42  C   UNL A   1      40.441  29.647  29.824  1.00  0.00     0.049 A 
ATOM     43  N   UNL A   1      41.352  26.883  29.103  1.00  0.00    -0.248 NA
ATOM     44  C   UNL A   1      39.277  26.504  28.100  1.00  0.00     0.031 C 
ATOM     45  C   UNL A   1      40.081  31.026  30.156  1.00  0.00     0.029 A 
ATOM     46  N   UNL A   1      41.730  29.520  30.279  1.00  0.00    -0.354 N 
ATOM     47  C   UNL A   1      41.352  25.628  28.510  1.00  0.00     0.074 A 
ATOM     48  C   UNL A   1      40.041  25.434  27.927  1.00  0.00     0.031 C 
ATOM     49  C   UNL A   1      41.130  31.623  30.743  1.00  0.00     0.029 A 
ATOM     50  C   UNL A   1      42.216  30.656  30.877  1.00  0.00     0.049 A 
ATOM     51  H   UNL A   1      42.256  28.693  30.185  1.00  0.00     0.167 HD
ATOM     52  C   UNL A   1      42.357  24.725  28.430  1.00  0.00     0.031 A 
ATOM     53  C   UNL A   1      43.393  30.887  31.489  1.00  0.00     0.031 A 
ATOM     54  C   UNL A   1      43.648  24.882  29.042  1.00  0.00     0.049 A 
ATOM     55  C   UNL A   1      44.409  29.785  31.577  1.00  0.00     0.074 A 
ATOM     56  C   UNL A   1      44.713  23.997  29.051  1.00  0.00     0.029 A 
ATOM     57  N   UNL A   1      44.043  25.992  29.771  1.00  0.00    -0.354 N 
ATOM     58  N   UNL A   1      44.389  28.596  31.025  1.00  0.00    -0.248 NA
ATOM     59  C   UNL A   1      45.606  30.053  32.389  1.00  0.00     0.031 C 
ATOM     60  C   UNL A   1      45.733  24.550  29.836  1.00  0.00     0.029 A 
ATOM     61  C   UNL A   1      45.319  25.797  30.273  1.00  0.00     0.049 A 
ATOM     62  H   UNL A   1      43.497  26.799  29.911  1.00  0.00     0.167 HD
ATOM     63  C   UNL A   1      45.573  27.981  31.408  1.00  0.00     0.074 A 
ATOM     64  C   UNL A   1      46.295  28.931  32.230  1.00  0.00     0.031 C 
ATOM     65  C   UNL A   1      46.022  26.740  31.103  1.00  0.00     0.031 A 
BRANCH  52  66
ATOM     66  C   UNL A   1      42.080  23.464  27.669  1.00  0.00    -0.014 A 
ATOM     67  C   UNL A   1      42.428  23.350  26.313  1.00  0.00     0.009 A 
ATOM     68  C   UNL A   1      41.480  22.372  28.314  1.00  0.00     0.009 A 
ATOM     69  C   UNL A   1      42.158  22.174  25.612  1.00  0.00     0.001 A 
ATOM     70  C   UNL A   1      41.227  21.192  27.615  1.00  0.00     0.001 A 
ATOM     71  C   UNL A   1      41.559  21.096  26.263  1.00  0.00     0.000 A 
ENDBRANCH  52  66
BRANCH  53  72
ATOM     72  C   UNL A   1      43.655  32.205  32.123  1.00  0.00    -0.014 A 
ATOM     73  C   UNL A   1      43.260  32.456  33.445  1.00  0.00     0.009 A 
ATOM     74  C   UNL A   1      44.287  33.227  31.396  1.00  0.00     0.009 A 
ATOM     75  C   UNL A   1      43.479  33.710  34.021  1.00  0.00     0.001 A 
ATOM     76  C   UNL A   1      44.528  34.469  31.983  1.00  0.00     0.001 A 
ATOM     77  C   UNL A   1      44.117  34.713  33.292  1.00  0.00     0.000 A 
ENDBRANCH  53  72
BRANCH  65  78
ATOM     78  C   UNL A   1      47.361  26.343  31.650  1.00  0.00    -0.014 A 
ATOM     79  C   UNL A   1      47.472  25.687  32.886  1.00  0.00     0.009 A 
ATOM     80  C   UNL A   1      48.525  26.603  30.909  1.00  0.00     0.009 A 
ATOM     81  C   UNL A   1      48.725  25.323  33.381  1.00  0.00     0.001 A 
ATOM     82  C   UNL A   1      49.775  26.216  31.396  1.00  0.00     0.001 A 
ATOM     83  C   UNL A   1      49.874  25.584  32.634  1.00  0.00     0.000 A 
ENDBRANCH  65  78
ENDBRANCH  39  40
ENDBRANCH  32  34
ENDBRANCH  31  32
ENDBRANCH  30  31
ENDBRANCH   1  30
TORSDOF 16
ENDMDL
