MODEL 1
REMARK VINA RESULT:     -12.0      0.000      0.000
REMARK SMILES O=C(CCCN1C(=O)C(=O)/C(=C(/[O-])c2ccc(Cl)cc2)[C@@H]1c1ccccc1[N+](=O)[O-])OCCOC(=O)c1ccc(-c2c3nc(c(-c4ccccc4)c4ccc([nH]4)c(-c4ccccc4)c4nc(c(-c5ccccc5)c5ccc2[nH]5)C=C4)C=C3)cc1
REMARK SMILES IDX 31 1 2 2 1 3 3 4 4 5 5 6 6 7 7 8 21 9 8 10 9 11 11 12 10 13
REMARK SMILES IDX 12 14 13 15 22 16 23 17 27 18 24 19 26 20 25 21 28 22 29 23
REMARK SMILES IDX 30 24 14 25 15 26 20 27 16 28 19 29 17 30 18 31 32 32 33 33
REMARK SMILES IDX 34 34 35 35 36 36 37 37 38 38 84 39 39 40 83 41 40 42 41 43
REMARK SMILES IDX 42 44 77 45 43 46 82 47 76 48 78 49 44 50 81 51 75 52 74 53
REMARK SMILES IDX 45 55 67 56 52 57 66 58 53 59 56 60 65 61 79 62 54 63 55 64
REMARK SMILES IDX 64 66 80 67 57 68 46 69 47 70 51 71 48 72 50 73 49 74 68 75
REMARK SMILES IDX 69 76 73 77 70 78 72 79 71 80 58 81 59 82 63 83 60 84 62 85
REMARK SMILES IDX 61 86
REMARK H PARENT 78 54 56 65
REMARK Flexibility Score: inf
ROOT
ATOM      1  O   UNL A   1      34.591  20.950  24.311  1.00  0.00    -0.462 OA
ENDROOT
BRANCH   1   2
ATOM      2  C   UNL A   1      33.260  20.694  24.141  1.00  0.00     0.305 C 
ATOM      3  O   UNL A   1      32.759  19.651  24.553  1.00  0.00    -0.252 OA
BRANCH   2   4
ATOM      4  C   UNL A   1      32.536  21.605  23.174  1.00  0.00     0.124 C 
BRANCH   4   5
ATOM      5  C   UNL A   1      33.281  22.828  22.598  1.00  0.00     0.033 C 
BRANCH   5   6
ATOM      6  C   UNL A   1      32.545  24.206  22.504  1.00  0.00     0.121 C 
BRANCH   6   7
ATOM      7  N   UNL A   1      32.903  25.186  23.523  1.00  0.00    -0.324 N 
ATOM      8  C   UNL A   1      33.180  26.464  23.048  1.00  0.00     0.295 C 
ATOM      9  C   UNL A   1      32.411  25.224  24.927  1.00  0.00     0.157 C 
ATOM     10  O   UNL A   1      33.169  26.883  21.903  1.00  0.00    -0.265 OA
ATOM     11  C   UNL A   1      33.499  27.313  24.235  1.00  0.00     0.248 C 
ATOM     12  C   UNL A   1      32.814  26.678  25.378  1.00  0.00     0.025 C 
ATOM     13  O   UNL A   1      34.196  28.308  24.182  1.00  0.00    -0.283 OA
ATOM     14  C   UNL A   1      32.467  27.449  26.430  1.00  0.00    -0.092 C 
ATOM     15  O   UNL A   1      31.489  27.026  27.302  1.00  0.00    -0.872 OA
BRANCH   9  16
ATOM     16  C   UNL A   1      32.829  24.116  25.941  1.00  0.00     0.057 A 
ATOM     17  C   UNL A   1      34.168  24.144  26.394  1.00  0.00     0.013 A 
ATOM     18  C   UNL A   1      32.101  23.079  26.552  1.00  0.00     0.275 A 
ATOM     19  C   UNL A   1      34.780  23.124  27.145  1.00  0.00     0.001 A 
ATOM     20  C   UNL A   1      32.690  22.030  27.305  1.00  0.00     0.086 A 
ATOM     21  C   UNL A   1      34.048  22.032  27.562  1.00  0.00     0.007 A 
BRANCH  18  22
ATOM     22  N   UNL A   1      30.674  23.087  26.695  1.00  0.00     0.063 N 
ATOM     23  O   UNL A   1      30.053  22.122  26.232  1.00  0.00    -0.258 OA
ATOM     24  O   UNL A   1      30.179  24.087  27.198  1.00  0.00    -0.258 OA
ENDBRANCH  18  22
ENDBRANCH   9  16
BRANCH  14  25
ATOM     25  C   UNL A   1      33.031  28.770  26.814  1.00  0.00    -0.033 A 
ATOM     26  C   UNL A   1      32.313  29.971  26.742  1.00  0.00     0.009 A 
ATOM     27  C   UNL A   1      34.353  28.813  27.294  1.00  0.00     0.009 A 
ATOM     28  C   UNL A   1      32.913  31.187  27.099  1.00  0.00     0.021 A 
ATOM     29  C   UNL A   1      34.948  30.025  27.672  1.00  0.00     0.021 A 
ATOM     30  C   UNL A   1      34.226  31.209  27.564  1.00  0.00     0.041 A 
ATOM     31  Cl  UNL A   1      34.954  32.702  28.015  1.00  0.00    -0.084 Cl
ENDBRANCH  14  25
ENDBRANCH   6   7
ENDBRANCH   5   6
ENDBRANCH   4   5
ENDBRANCH   2   4
ENDBRANCH   1   2
BRANCH   1  32
ATOM     32  C   UNL A   1      35.516  20.079  25.012  1.00  0.00     0.274 C 
BRANCH  32  33
ATOM     33  C   UNL A   1      37.017  20.288  24.760  1.00  0.00     0.275 C 
BRANCH  33  34
ATOM     34  O   UNL A   1      37.572  21.355  25.517  1.00  0.00    -0.458 OA
BRANCH  34  35
ATOM     35  C   UNL A   1      38.828  21.110  25.954  1.00  0.00     0.338 C 
ATOM     36  O   UNL A   1      39.481  20.098  25.774  1.00  0.00    -0.246 OA
BRANCH  35  37
ATOM     37  C   UNL A   1      39.364  22.369  26.497  1.00  0.00     0.060 A 
ATOM     38  C   UNL A   1      38.717  23.557  26.137  1.00  0.00     0.016 A 
ATOM     39  C   UNL A   1      40.461  22.386  27.364  1.00  0.00     0.016 A 
ATOM     40  C   UNL A   1      39.228  24.776  26.570  1.00  0.00     0.010 A 
ATOM     41  C   UNL A   1      40.971  23.610  27.798  1.00  0.00     0.010 A 
ATOM     42  C   UNL A   1      40.391  24.810  27.352  1.00  0.00    -0.014 A 
BRANCH  42  43
ATOM     43  C   UNL A   1      41.112  26.093  27.506  1.00  0.00     0.031 A 
ATOM     44  C   UNL A   1      40.469  27.174  28.333  1.00  0.00     0.074 A 
ATOM     45  C   UNL A   1      42.339  26.276  26.989  1.00  0.00     0.049 A 
ATOM     46  N   UNL A   1      40.941  28.343  28.684  1.00  0.00    -0.248 NA
ATOM     47  C   UNL A   1      39.113  26.897  28.838  1.00  0.00     0.031 C 
ATOM     48  C   UNL A   1      43.081  25.296  26.198  1.00  0.00     0.029 A 
ATOM     49  N   UNL A   1      43.180  27.356  27.070  1.00  0.00    -0.354 N 
ATOM     50  C   UNL A   1      39.949  28.930  29.459  1.00  0.00     0.074 A 
ATOM     51  C   UNL A   1      38.829  28.017  29.483  1.00  0.00     0.031 C 
ATOM     52  C   UNL A   1      44.277  25.820  25.872  1.00  0.00     0.029 A 
ATOM     53  C   UNL A   1      44.373  27.175  26.414  1.00  0.00     0.049 A 
ATOM     54  H   UNL A   1      42.950  28.183  27.552  1.00  0.00     0.167 HD
ATOM     55  C   UNL A   1      39.973  30.115  30.113  1.00  0.00     0.031 A 
ATOM     56  C   UNL A   1      45.419  28.010  26.269  1.00  0.00     0.031 A 
ATOM     57  C   UNL A   1      41.071  31.040  30.069  1.00  0.00     0.049 A 
ATOM     58  C   UNL A   1      45.382  29.366  26.929  1.00  0.00     0.074 A 
ATOM     59  C   UNL A   1      41.191  32.266  30.697  1.00  0.00     0.029 A 
ATOM     60  N   UNL A   1      42.236  30.843  29.344  1.00  0.00    -0.354 N 
ATOM     61  N   UNL A   1      44.459  29.889  27.701  1.00  0.00    -0.248 NA
ATOM     62  C   UNL A   1      46.543  30.241  26.707  1.00  0.00     0.031 C 
ATOM     63  C   UNL A   1      42.403  32.841  30.302  1.00  0.00     0.029 A 
ATOM     64  C   UNL A   1      43.068  31.941  29.485  1.00  0.00     0.049 A 
ATOM     65  H   UNL A   1      42.442  30.043  28.810  1.00  0.00     0.167 HD
ATOM     66  C   UNL A   1      44.945  31.134  28.084  1.00  0.00     0.074 A 
ATOM     67  C   UNL A   1      46.249  31.281  27.473  1.00  0.00     0.031 C 
ATOM     68  C   UNL A   1      44.365  32.073  28.873  1.00  0.00     0.031 A 
BRANCH  55  69
ATOM     69  C   UNL A   1      38.753  30.483  30.911  1.00  0.00    -0.014 A 
ATOM     70  C   UNL A   1      37.650  31.109  30.307  1.00  0.00     0.009 A 
ATOM     71  C   UNL A   1      38.697  30.182  32.280  1.00  0.00     0.009 A 
ATOM     72  C   UNL A   1      36.531  31.457  31.066  1.00  0.00     0.001 A 
ATOM     73  C   UNL A   1      37.565  30.503  33.030  1.00  0.00     0.001 A 
ATOM     74  C   UNL A   1      36.487  31.148  32.425  1.00  0.00     0.000 A 
ENDBRANCH  55  69
BRANCH  56  75
ATOM     75  C   UNL A   1      46.599  27.603  25.460  1.00  0.00    -0.014 A 
ATOM     76  C   UNL A   1      46.694  27.945  24.103  1.00  0.00     0.009 A 
ATOM     77  C   UNL A   1      47.617  26.826  26.035  1.00  0.00     0.009 A 
ATOM     78  C   UNL A   1      47.763  27.486  23.329  1.00  0.00     0.001 A 
ATOM     79  C   UNL A   1      48.701  26.395  25.268  1.00  0.00     0.001 A 
ATOM     80  C   UNL A   1      48.766  26.713  23.913  1.00  0.00     0.000 A 
ENDBRANCH  56  75
BRANCH  68  81
ATOM     81  C   UNL A   1      45.152  33.322  29.158  1.00  0.00    -0.014 A 
ATOM     82  C   UNL A   1      46.047  33.397  30.236  1.00  0.00     0.009 A 
ATOM     83  C   UNL A   1      45.026  34.431  28.303  1.00  0.00     0.009 A 
ATOM     84  C   UNL A   1      46.770  34.569  30.475  1.00  0.00     0.001 A 
ATOM     85  C   UNL A   1      45.775  35.587  28.524  1.00  0.00     0.001 A 
ATOM     86  C   UNL A   1      46.637  35.660  29.616  1.00  0.00     0.000 A 
ENDBRANCH  68  81
ENDBRANCH  42  43
ENDBRANCH  35  37
ENDBRANCH  34  35
ENDBRANCH  33  34
ENDBRANCH  32  33
ENDBRANCH   1  32
TORSDOF 17
ENDMDL
MODEL 2
REMARK VINA RESULT:     -11.9      3.617      6.963
REMARK SMILES O=C(CCCN1C(=O)C(=O)/C(=C(/[O-])c2ccc(Cl)cc2)[C@@H]1c1ccccc1[N+](=O)[O-])OCCOC(=O)c1ccc(-c2c3nc(c(-c4ccccc4)c4ccc([nH]4)c(-c4ccccc4)c4nc(c(-c5ccccc5)c5ccc2[nH]5)C=C4)C=C3)cc1
REMARK SMILES IDX 31 1 2 2 1 3 3 4 4 5 5 6 6 7 7 8 21 9 8 10 9 11 11 12 10 13
REMARK SMILES IDX 12 14 13 15 22 16 23 17 27 18 24 19 26 20 25 21 28 22 29 23
REMARK SMILES IDX 30 24 14 25 15 26 20 27 16 28 19 29 17 30 18 31 32 32 33 33
REMARK SMILES IDX 34 34 35 35 36 36 37 37 38 38 84 39 39 40 83 41 40 42 41 43
REMARK SMILES IDX 42 44 77 45 43 46 82 47 76 48 78 49 44 50 81 51 75 52 74 53
REMARK SMILES IDX 45 55 67 56 52 57 66 58 53 59 56 60 65 61 79 62 54 63 55 64
REMARK SMILES IDX 64 66 80 67 57 68 46 69 47 70 51 71 48 72 50 73 49 74 68 75
REMARK SMILES IDX 69 76 73 77 70 78 72 79 71 80 58 81 59 82 63 83 60 84 62 85
REMARK SMILES IDX 61 86
REMARK H PARENT 78 54 56 65
REMARK Flexibility Score: inf
ROOT
ATOM      1  O   UNL A   1      30.956  28.658  25.025  1.00  0.00    -0.462 OA
ENDROOT
BRANCH   1   2
ATOM      2  C   UNL A   1      30.314  28.055  23.981  1.00  0.00     0.305 C 
ATOM      3  O   UNL A   1      29.908  28.709  23.024  1.00  0.00    -0.252 OA
BRANCH   2   4
ATOM      4  C   UNL A   1      29.879  26.625  24.218  1.00  0.00     0.124 C 
BRANCH   4   5
ATOM      5  C   UNL A   1      30.293  25.925  25.530  1.00  0.00     0.033 C 
BRANCH   5   6
ATOM      6  C   UNL A   1      30.861  24.467  25.482  1.00  0.00     0.121 C 
BRANCH   6   7
ATOM      7  N   UNL A   1      32.312  24.351  25.539  1.00  0.00    -0.324 N 
ATOM      8  C   UNL A   1      32.803  23.499  26.522  1.00  0.00     0.295 C 
ATOM      9  C   UNL A   1      33.255  24.453  24.391  1.00  0.00     0.157 C 
ATOM     10  O   UNL A   1      32.195  22.836  27.346  1.00  0.00    -0.265 OA
ATOM     11  C   UNL A   1      34.292  23.500  26.402  1.00  0.00     0.248 C 
ATOM     12  C   UNL A   1      34.581  23.858  24.999  1.00  0.00     0.025 C 
ATOM     13  O   UNL A   1      35.042  23.251  27.327  1.00  0.00    -0.283 OA
ATOM     14  C   UNL A   1      35.740  23.438  24.452  1.00  0.00    -0.092 C 
ATOM     15  O   UNL A   1      35.874  23.372  23.084  1.00  0.00    -0.872 OA
BRANCH   9  16
ATOM     16  C   UNL A   1      33.459  25.813  23.656  1.00  0.00     0.057 A 
ATOM     17  C   UNL A   1      34.002  26.872  24.421  1.00  0.00     0.013 A 
ATOM     18  C   UNL A   1      33.244  26.201  22.321  1.00  0.00     0.275 A 
ATOM     19  C   UNL A   1      34.073  28.210  23.996  1.00  0.00     0.001 A 
ATOM     20  C   UNL A   1      33.296  27.544  21.865  1.00  0.00     0.086 A 
ATOM     21  C   UNL A   1      33.669  28.560  22.724  1.00  0.00     0.007 A 
BRANCH  18  22
ATOM     22  N   UNL A   1      33.188  25.278  21.225  1.00  0.00     0.063 N 
ATOM     23  O   UNL A   1      32.977  25.748  20.100  1.00  0.00    -0.258 OA
ATOM     24  O   UNL A   1      33.278  24.090  21.503  1.00  0.00    -0.258 OA
ENDBRANCH  18  22
ENDBRANCH   9  16
BRANCH  14  25
ATOM     25  C   UNL A   1      36.979  23.017  25.160  1.00  0.00    -0.033 A 
ATOM     26  C   UNL A   1      37.786  23.892  25.899  1.00  0.00     0.009 A 
ATOM     27  C   UNL A   1      37.349  21.661  25.100  1.00  0.00     0.009 A 
ATOM     28  C   UNL A   1      38.954  23.434  26.524  1.00  0.00     0.021 A 
ATOM     29  C   UNL A   1      38.505  21.196  25.743  1.00  0.00     0.021 A 
ATOM     30  C   UNL A   1      39.308  22.089  26.446  1.00  0.00     0.041 A 
ATOM     31  Cl  UNL A   1      40.735  21.527  27.226  1.00  0.00    -0.084 Cl
ENDBRANCH  14  25
ENDBRANCH   6   7
ENDBRANCH   5   6
ENDBRANCH   4   5
ENDBRANCH   2   4
ENDBRANCH   1   2
BRANCH   1  32
ATOM     32  C   UNL A   1      31.223  30.082  25.117  1.00  0.00     0.274 C 
BRANCH  32  33
ATOM     33  C   UNL A   1      31.676  30.632  26.479  1.00  0.00     0.275 C 
BRANCH  33  34
ATOM     34  O   UNL A   1      33.062  30.445  26.728  1.00  0.00    -0.458 OA
BRANCH  34  35
ATOM     35  C   UNL A   1      33.641  31.487  27.366  1.00  0.00     0.338 C 
ATOM     36  O   UNL A   1      33.092  32.502  27.758  1.00  0.00    -0.246 OA
BRANCH  35  37
ATOM     37  C   UNL A   1      35.015  31.089  27.712  1.00  0.00     0.060 A 
ATOM     38  C   UNL A   1      35.316  29.723  27.703  1.00  0.00     0.016 A 
ATOM     39  C   UNL A   1      35.999  32.036  28.014  1.00  0.00     0.016 A 
ATOM     40  C   UNL A   1      36.582  29.295  28.089  1.00  0.00     0.010 A 
ATOM     41  C   UNL A   1      37.269  31.605  28.400  1.00  0.00     0.010 A 
ATOM     42  C   UNL A   1      37.543  30.230  28.496  1.00  0.00    -0.014 A 
BRANCH  42  43
ATOM     43  C   UNL A   1      38.740  29.755  29.227  1.00  0.00     0.031 A 
ATOM     44  C   UNL A   1      38.909  30.175  30.662  1.00  0.00     0.074 A 
ATOM     45  C   UNL A   1      39.619  28.912  28.660  1.00  0.00     0.049 A 
ATOM     46  N   UNL A   1      39.821  29.818  31.530  1.00  0.00    -0.248 NA
ATOM     47  C   UNL A   1      37.912  31.121  31.192  1.00  0.00     0.031 C 
ATOM     48  C   UNL A   1      39.549  28.406  27.290  1.00  0.00     0.029 A 
ATOM     49  N   UNL A   1      40.742  28.323  29.183  1.00  0.00    -0.354 N 
ATOM     50  C   UNL A   1      39.498  30.482  32.706  1.00  0.00     0.074 A 
ATOM     51  C   UNL A   1      38.343  31.306  32.430  1.00  0.00     0.031 C 
ATOM     52  C   UNL A   1      40.584  27.572  27.083  1.00  0.00     0.029 A 
ATOM     53  C   UNL A   1      41.397  27.503  28.297  1.00  0.00     0.049 A 
ATOM     54  H   UNL A   1      41.050  28.475  30.106  1.00  0.00     0.167 HD
ATOM     55  C   UNL A   1      40.096  30.401  33.918  1.00  0.00     0.031 A 
ATOM     56  C   UNL A   1      42.523  26.782  28.452  1.00  0.00     0.031 A 
ATOM     57  C   UNL A   1      41.262  29.608  34.192  1.00  0.00     0.049 A 
ATOM     58  C   UNL A   1      43.226  26.783  29.787  1.00  0.00     0.074 A 
ATOM     59  C   UNL A   1      41.942  29.458  35.388  1.00  0.00     0.029 A 
ATOM     60  N   UNL A   1      41.928  28.838  33.251  1.00  0.00    -0.354 N 
ATOM     61  N   UNL A   1      42.883  27.375  30.906  1.00  0.00    -0.248 NA
ATOM     62  C   UNL A   1      44.467  25.999  29.881  1.00  0.00     0.031 C 
ATOM     63  C   UNL A   1      43.057  28.648  35.156  1.00  0.00     0.029 A 
ATOM     64  C   UNL A   1      43.031  28.236  33.832  1.00  0.00     0.049 A 
ATOM     65  H   UNL A   1      41.658  28.735  32.311  1.00  0.00     0.167 HD
ATOM     66  C   UNL A   1      43.843  27.006  31.842  1.00  0.00     0.074 A 
ATOM     67  C   UNL A   1      44.772  26.128  31.164  1.00  0.00     0.031 C 
ATOM     68  C   UNL A   1      43.946  27.361  33.147  1.00  0.00     0.031 A 
BRANCH  55  69
ATOM     69  C   UNL A   1      39.504  31.219  35.032  1.00  0.00    -0.014 A 
ATOM     70  C   UNL A   1      38.521  30.686  35.883  1.00  0.00     0.009 A 
ATOM     71  C   UNL A   1      39.950  32.531  35.248  1.00  0.00     0.009 A 
ATOM     72  C   UNL A   1      37.972  31.463  36.904  1.00  0.00     0.001 A 
ATOM     73  C   UNL A   1      39.422  33.296  36.289  1.00  0.00     0.001 A 
ATOM     74  C   UNL A   1      38.427  32.765  37.110  1.00  0.00     0.000 A 
ENDBRANCH  55  69
BRANCH  56  75
ATOM     75  C   UNL A   1      43.075  25.997  27.316  1.00  0.00    -0.014 A 
ATOM     76  C   UNL A   1      44.020  26.559  26.444  1.00  0.00     0.009 A 
ATOM     77  C   UNL A   1      42.620  24.692  27.071  1.00  0.00     0.009 A 
ATOM     78  C   UNL A   1      44.469  25.846  25.329  1.00  0.00     0.001 A 
ATOM     79  C   UNL A   1      43.094  23.968  25.974  1.00  0.00     0.001 A 
ATOM     80  C   UNL A   1      44.007  24.551  25.097  1.00  0.00     0.000 A 
ENDBRANCH  56  75
BRANCH  68  81
ATOM     81  C   UNL A   1      45.077  26.766  33.940  1.00  0.00    -0.014 A 
ATOM     82  C   UNL A   1      44.931  25.553  34.630  1.00  0.00     0.009 A 
ATOM     83  C   UNL A   1      46.325  27.411  33.960  1.00  0.00     0.009 A 
ATOM     84  C   UNL A   1      46.000  25.019  35.356  1.00  0.00     0.001 A 
ATOM     85  C   UNL A   1      47.400  26.858  34.656  1.00  0.00     0.001 A 
ATOM     86  C   UNL A   1      47.233  25.669  35.363  1.00  0.00     0.000 A 
ENDBRANCH  68  81
ENDBRANCH  42  43
ENDBRANCH  35  37
ENDBRANCH  34  35
ENDBRANCH  33  34
ENDBRANCH  32  33
ENDBRANCH   1  32
TORSDOF 17
ENDMDL
MODEL 3
REMARK VINA RESULT:     -11.0      1.770      6.238
REMARK SMILES O=C(CCCN1C(=O)C(=O)/C(=C(/[O-])c2ccc(Cl)cc2)[C@@H]1c1ccccc1[N+](=O)[O-])OCCOC(=O)c1ccc(-c2c3nc(c(-c4ccccc4)c4ccc([nH]4)c(-c4ccccc4)c4nc(c(-c5ccccc5)c5ccc2[nH]5)C=C4)C=C3)cc1
REMARK SMILES IDX 31 1 2 2 1 3 3 4 4 5 5 6 6 7 7 8 21 9 8 10 9 11 11 12 10 13
REMARK SMILES IDX 12 14 13 15 22 16 23 17 27 18 24 19 26 20 25 21 28 22 29 23
REMARK SMILES IDX 30 24 14 25 15 26 20 27 16 28 19 29 17 30 18 31 32 32 33 33
REMARK SMILES IDX 34 34 35 35 36 36 37 37 38 38 84 39 39 40 83 41 40 42 41 43
REMARK SMILES IDX 42 44 77 45 43 46 82 47 76 48 78 49 44 50 81 51 75 52 74 53
REMARK SMILES IDX 45 55 67 56 52 57 66 58 53 59 56 60 65 61 79 62 54 63 55 64
REMARK SMILES IDX 64 66 80 67 57 68 46 69 47 70 51 71 48 72 50 73 49 74 68 75
REMARK SMILES IDX 69 76 73 77 70 78 72 79 71 80 58 81 59 82 63 83 60 84 62 85
REMARK SMILES IDX 61 86
REMARK H PARENT 78 54 56 65
REMARK Flexibility Score: inf
ROOT
ATOM      1  O   UNL A   1      35.474  21.010  25.921  1.00  0.00    -0.462 OA
ENDROOT
BRANCH   1   2
ATOM      2  C   UNL A   1      34.163  20.799  26.241  1.00  0.00     0.305 C 
ATOM      3  O   UNL A   1      33.340  20.500  25.379  1.00  0.00    -0.252 OA
BRANCH   2   4
ATOM      4  C   UNL A   1      33.747  21.244  27.626  1.00  0.00     0.124 C 
BRANCH   4   5
ATOM      5  C   UNL A   1      33.077  22.624  27.798  1.00  0.00     0.033 C 
BRANCH   5   6
ATOM      6  C   UNL A   1      31.637  22.859  27.231  1.00  0.00     0.121 C 
BRANCH   6   7
ATOM      7  N   UNL A   1      31.500  23.960  26.285  1.00  0.00    -0.324 N 
ATOM      8  C   UNL A   1      30.289  24.643  26.337  1.00  0.00     0.295 C 
ATOM      9  C   UNL A   1      32.594  24.835  25.780  1.00  0.00     0.157 C 
ATOM     10  O   UNL A   1      29.324  24.452  27.057  1.00  0.00    -0.265 OA
ATOM     11  C   UNL A   1      30.356  25.734  25.319  1.00  0.00     0.248 C 
ATOM     12  C   UNL A   1      31.791  26.032  25.145  1.00  0.00     0.025 C 
ATOM     13  O   UNL A   1      29.376  26.218  24.786  1.00  0.00    -0.283 OA
ATOM     14  C   UNL A   1      32.147  27.266  24.730  1.00  0.00    -0.092 C 
ATOM     15  O   UNL A   1      33.427  27.724  24.948  1.00  0.00    -0.872 OA
BRANCH   9  16
ATOM     16  C   UNL A   1      33.699  24.256  24.845  1.00  0.00     0.057 A 
ATOM     17  C   UNL A   1      35.019  24.253  25.351  1.00  0.00     0.013 A 
ATOM     18  C   UNL A   1      33.638  23.675  23.564  1.00  0.00     0.275 A 
ATOM     19  C   UNL A   1      36.167  23.960  24.592  1.00  0.00     0.001 A 
ATOM     20  C   UNL A   1      34.777  23.381  22.770  1.00  0.00     0.086 A 
ATOM     21  C   UNL A   1      36.049  23.570  23.274  1.00  0.00     0.007 A 
BRANCH  18  22
ATOM     22  N   UNL A   1      32.450  23.092  23.013  1.00  0.00     0.063 N 
ATOM     23  O   UNL A   1      31.523  23.859  22.728  1.00  0.00    -0.258 OA
ATOM     24  O   UNL A   1      32.421  21.871  22.940  1.00  0.00    -0.258 OA
ENDBRANCH  18  22
ENDBRANCH   9  16
BRANCH  14  25
ATOM     25  C   UNL A   1      31.306  28.262  24.016  1.00  0.00    -0.033 A 
ATOM     26  C   UNL A   1      30.832  29.442  24.605  1.00  0.00     0.009 A 
ATOM     27  C   UNL A   1      30.983  28.016  22.669  1.00  0.00     0.009 A 
ATOM     28  C   UNL A   1      30.023  30.329  23.882  1.00  0.00     0.021 A 
ATOM     29  C   UNL A   1      30.192  28.912  21.937  1.00  0.00     0.021 A 
ATOM     30  C   UNL A   1      29.709  30.063  22.551  1.00  0.00     0.041 A 
ATOM     31  Cl  UNL A   1      28.727  31.161  21.661  1.00  0.00    -0.084 Cl
ENDBRANCH  14  25
ENDBRANCH   6   7
ENDBRANCH   5   6
ENDBRANCH   4   5
ENDBRANCH   2   4
ENDBRANCH   1   2
BRANCH   1  32
ATOM     32  C   UNL A   1      36.191  20.306  24.873  1.00  0.00     0.274 C 
BRANCH  32  33
ATOM     33  C   UNL A   1      37.718  20.201  25.006  1.00  0.00     0.275 C 
BRANCH  33  34
ATOM     34  O   UNL A   1      38.323  21.385  25.505  1.00  0.00    -0.458 OA
BRANCH  34  35
ATOM     35  C   UNL A   1      39.485  21.164  26.159  1.00  0.00     0.338 C 
ATOM     36  O   UNL A   1      40.195  20.178  26.076  1.00  0.00    -0.246 OA
BRANCH  35  37
ATOM     37  C   UNL A   1      39.868  22.421  26.823  1.00  0.00     0.060 A 
ATOM     38  C   UNL A   1      39.145  23.573  26.497  1.00  0.00     0.016 A 
ATOM     39  C   UNL A   1      40.899  22.467  27.767  1.00  0.00     0.016 A 
ATOM     40  C   UNL A   1      39.514  24.796  27.047  1.00  0.00     0.010 A 
ATOM     41  C   UNL A   1      41.268  23.694  28.319  1.00  0.00     0.010 A 
ATOM     42  C   UNL A   1      40.615  24.870  27.913  1.00  0.00    -0.014 A 
BRANCH  42  43
ATOM     43  C   UNL A   1      41.206  26.195  28.205  1.00  0.00     0.031 A 
ATOM     44  C   UNL A   1      42.549  26.521  27.609  1.00  0.00     0.074 A 
ATOM     45  C   UNL A   1      40.541  27.117  28.921  1.00  0.00     0.049 A 
ATOM     46  N   UNL A   1      43.226  27.640  27.648  1.00  0.00    -0.248 NA
ATOM     47  C   UNL A   1      43.216  25.441  26.861  1.00  0.00     0.031 C 
ATOM     48  C   UNL A   1      39.222  26.936  29.524  1.00  0.00     0.029 A 
ATOM     49  N   UNL A   1      40.891  28.403  29.248  1.00  0.00    -0.354 N 
ATOM     50  C   UNL A   1      44.385  27.402  26.922  1.00  0.00     0.074 A 
ATOM     51  C   UNL A   1      44.350  26.020  26.499  1.00  0.00     0.031 C 
ATOM     52  C   UNL A   1      38.869  28.077  30.143  1.00  0.00     0.029 A 
ATOM     53  C   UNL A   1      39.943  29.058  29.995  1.00  0.00     0.049 A 
ATOM     54  H   UNL A   1      41.741  28.817  28.972  1.00  0.00     0.167 HD
ATOM     55  C   UNL A   1      45.385  28.261  26.613  1.00  0.00     0.031 A 
ATOM     56  C   UNL A   1      39.948  30.306  30.502  1.00  0.00     0.031 A 
ATOM     57  C   UNL A   1      45.441  29.627  27.054  1.00  0.00     0.049 A 
ATOM     58  C   UNL A   1      41.119  31.214  30.223  1.00  0.00     0.074 A 
ATOM     59  C   UNL A   1      46.411  30.578  26.793  1.00  0.00     0.029 A 
ATOM     60  N   UNL A   1      44.489  30.233  27.859  1.00  0.00    -0.354 N 
ATOM     61  N   UNL A   1      42.186  30.994  29.493  1.00  0.00    -0.248 NA
ATOM     62  C   UNL A   1      41.075  32.553  30.830  1.00  0.00     0.031 C 
ATOM     63  C   UNL A   1      46.079  31.742  27.494  1.00  0.00     0.029 A 
ATOM     64  C   UNL A   1      44.866  31.537  28.132  1.00  0.00     0.049 A 
ATOM     65  H   UNL A   1      43.669  29.801  28.188  1.00  0.00     0.167 HD
ATOM     66  C   UNL A   1      42.919  32.175  29.523  1.00  0.00     0.074 A 
ATOM     67  C   UNL A   1      42.167  33.113  30.330  1.00  0.00     0.031 C 
ATOM     68  C   UNL A   1      44.107  32.461  28.935  1.00  0.00     0.031 A 
BRANCH  55  69
ATOM     69  C   UNL A   1      46.514  27.729  25.774  1.00  0.00    -0.014 A 
ATOM     70  C   UNL A   1      47.567  26.999  26.351  1.00  0.00     0.009 A 
ATOM     71  C   UNL A   1      46.513  27.940  24.388  1.00  0.00     0.009 A 
ATOM     72  C   UNL A   1      48.614  26.524  25.560  1.00  0.00     0.001 A 
ATOM     73  C   UNL A   1      47.545  27.437  23.595  1.00  0.00     0.001 A 
ATOM     74  C   UNL A   1      48.600  26.738  24.182  1.00  0.00     0.000 A 
ENDBRANCH  55  69
BRANCH  56  75
ATOM     75  C   UNL A   1      38.811  30.783  31.334  1.00  0.00    -0.014 A 
ATOM     76  C   UNL A   1      38.804  30.585  32.724  1.00  0.00     0.009 A 
ATOM     77  C   UNL A   1      37.702  31.398  30.732  1.00  0.00     0.009 A 
ATOM     78  C   UNL A   1      37.694  30.958  33.487  1.00  0.00     0.001 A 
ATOM     79  C   UNL A   1      36.608  31.800  31.502  1.00  0.00     0.001 A 
ATOM     80  C   UNL A   1      36.600  31.567  32.875  1.00  0.00     0.000 A 
ENDBRANCH  56  75
BRANCH  68  81
ATOM     81  C   UNL A   1      44.648  33.854  29.103  1.00  0.00    -0.014 A 
ATOM     82  C   UNL A   1      45.523  34.180  30.151  1.00  0.00     0.009 A 
ATOM     83  C   UNL A   1      44.308  34.847  28.169  1.00  0.00     0.009 A 
ATOM     84  C   UNL A   1      46.015  35.482  30.281  1.00  0.00     0.001 A 
ATOM     85  C   UNL A   1      44.828  36.137  28.282  1.00  0.00     0.001 A 
ATOM     86  C   UNL A   1      45.672  36.456  29.345  1.00  0.00     0.000 A 
ENDBRANCH  68  81
ENDBRANCH  42  43
ENDBRANCH  35  37
ENDBRANCH  34  35
ENDBRANCH  33  34
ENDBRANCH  32  33
ENDBRANCH   1  32
TORSDOF 17
ENDMDL
