MODEL 1
REMARK VINA RESULT:     -11.5      0.000      0.000
REMARK SMILES O=C(OCCOC(=O)[C@H]1[C@@H]2CC[C@@H](C2)[C@@H]1C(=O)Nc1ccc([N+](=O)[O-])cc1)c1ccc(-c2c3nc(c(-c4ccccc4)c4ccc([nH]4)c(-c4ccccc4)c4nc(c(-c5ccccc5)c5ccc2[nH]5)C=C4)C=C3)cc1
REMARK SMILES IDX 5 1 4 2 3 3 2 4 1 5 28 6 29 7 75 8 30 9 74 10 31 11 32 12
REMARK SMILES IDX 33 13 68 14 34 15 73 16 67 17 69 18 35 19 72 20 66 21 65 22
REMARK SMILES IDX 36 24 58 25 43 26 57 27 44 28 47 29 56 30 70 31 45 32 46 33
REMARK SMILES IDX 55 35 71 36 48 37 37 38 38 39 42 40 39 41 41 42 40 43 59 44
REMARK SMILES IDX 60 45 64 46 61 47 63 48 62 49 49 50 50 51 54 52 51 53 53 54
REMARK SMILES IDX 52 55 6 56 7 57 8 58 9 59 10 60 15 61 11 62 14 63 13 64
REMARK SMILES IDX 12 65 16 66 17 67 18 68 19 70 20 71 27 72 21 73 26 74 22 75
REMARK SMILES IDX 23 76 24 77 25 78
REMARK H PARENT 69 23 47 34 18 69
REMARK Flexibility Score: inf
ROOT
ATOM      1  C   UNL A   1      31.444  30.861  26.412  1.00  0.00     0.274 C 
ENDROOT
BRANCH   1   2
ATOM      2  C   UNL A   1      31.345  32.312  26.901  1.00  0.00     0.275 C 
BRANCH   2   3
ATOM      3  O   UNL A   1      32.600  32.997  26.988  1.00  0.00    -0.458 OA
BRANCH   3   4
ATOM      4  C   UNL A   1      33.016  33.711  28.059  1.00  0.00     0.338 C 
ATOM      5  O   UNL A   1      32.453  34.751  28.385  1.00  0.00    -0.246 OA
BRANCH   4   6
ATOM      6  C   UNL A   1      34.350  33.411  28.646  1.00  0.00     0.060 A 
ATOM      7  C   UNL A   1      35.577  33.898  28.176  1.00  0.00     0.016 A 
ATOM      8  C   UNL A   1      34.352  32.523  29.726  1.00  0.00     0.016 A 
ATOM      9  C   UNL A   1      36.781  33.572  28.820  1.00  0.00     0.010 A 
ATOM     10  C   UNL A   1      35.541  32.232  30.394  1.00  0.00     0.010 A 
ATOM     11  C   UNL A   1      36.774  32.741  29.938  1.00  0.00    -0.014 A 
BRANCH  11  12
ATOM     12  C   UNL A   1      38.011  32.208  30.564  1.00  0.00     0.031 A 
ATOM     13  C   UNL A   1      38.555  30.933  29.992  1.00  0.00     0.074 A 
ATOM     14  C   UNL A   1      38.569  32.727  31.677  1.00  0.00     0.049 A 
ATOM     15  N   UNL A   1      39.477  30.141  30.467  1.00  0.00    -0.248 NA
ATOM     16  C   UNL A   1      37.981  30.499  28.704  1.00  0.00     0.031 C 
ATOM     17  C   UNL A   1      38.238  34.000  32.308  1.00  0.00     0.029 A 
ATOM     18  N   UNL A   1      39.453  32.153  32.562  1.00  0.00    -0.354 N 
ATOM     19  C   UNL A   1      39.642  29.165  29.499  1.00  0.00     0.074 A 
ATOM     20  C   UNL A   1      38.607  29.353  28.508  1.00  0.00     0.031 C 
ATOM     21  C   UNL A   1      38.700  34.001  33.572  1.00  0.00     0.029 A 
ATOM     22  C   UNL A   1      39.450  32.772  33.793  1.00  0.00     0.049 A 
ATOM     23  H   UNL A   1      40.027  31.384  32.338  1.00  0.00     0.167 HD
ATOM     24  C   UNL A   1      40.644  28.268  29.377  1.00  0.00     0.031 A 
ATOM     25  C   UNL A   1      39.975  32.374  34.967  1.00  0.00     0.031 A 
ATOM     26  C   UNL A   1      41.657  28.079  30.369  1.00  0.00     0.049 A 
ATOM     27  C   UNL A   1      40.911  31.201  34.960  1.00  0.00     0.074 A 
ATOM     28  C   UNL A   1      42.773  27.267  30.340  1.00  0.00     0.029 A 
ATOM     29  N   UNL A   1      41.649  28.715  31.602  1.00  0.00    -0.354 N 
ATOM     30  N   UNL A   1      41.187  30.382  33.974  1.00  0.00    -0.248 NA
ATOM     31  C   UNL A   1      41.695  30.966  36.180  1.00  0.00     0.031 C 
ATOM     32  C   UNL A   1      43.420  27.384  31.576  1.00  0.00     0.029 A 
ATOM     33  C   UNL A   1      42.723  28.294  32.358  1.00  0.00     0.049 A 
ATOM     34  H   UNL A   1      40.975  29.372  31.894  1.00  0.00     0.167 HD
ATOM     35  C   UNL A   1      42.266  29.624  34.406  1.00  0.00     0.074 A 
ATOM     36  C   UNL A   1      42.537  30.025  35.773  1.00  0.00     0.031 C 
ATOM     37  C   UNL A   1      43.003  28.733  33.703  1.00  0.00     0.031 A 
BRANCH  24  38
ATOM     38  C   UNL A   1      40.672  27.515  28.082  1.00  0.00    -0.014 A 
ATOM     39  C   UNL A   1      40.093  26.231  28.009  1.00  0.00     0.009 A 
ATOM     40  C   UNL A   1      41.399  28.000  26.991  1.00  0.00     0.009 A 
ATOM     41  C   UNL A   1      40.318  25.417  26.901  1.00  0.00     0.001 A 
ATOM     42  C   UNL A   1      41.596  27.192  25.869  1.00  0.00     0.001 A 
ATOM     43  C   UNL A   1      41.077  25.896  25.835  1.00  0.00     0.000 A 
ENDBRANCH  24  38
BRANCH  25  44
ATOM     44  C   UNL A   1      39.704  33.129  36.217  1.00  0.00    -0.014 A 
ATOM     45  C   UNL A   1      38.579  32.844  37.003  1.00  0.00     0.009 A 
ATOM     46  C   UNL A   1      40.569  34.160  36.621  1.00  0.00     0.009 A 
ATOM     47  C   UNL A   1      38.308  33.593  38.152  1.00  0.00     0.001 A 
ATOM     48  C   UNL A   1      40.300  34.901  37.776  1.00  0.00     0.001 A 
ATOM     49  C   UNL A   1      39.167  34.622  38.537  1.00  0.00     0.000 A 
ENDBRANCH  25  44
BRANCH  37  50
ATOM     50  C   UNL A   1      44.255  28.214  34.338  1.00  0.00    -0.014 A 
ATOM     51  C   UNL A   1      44.275  27.012  35.056  1.00  0.00     0.009 A 
ATOM     52  C   UNL A   1      45.457  28.907  34.119  1.00  0.00     0.009 A 
ATOM     53  C   UNL A   1      45.484  26.514  35.546  1.00  0.00     0.001 A 
ATOM     54  C   UNL A   1      46.665  28.394  34.588  1.00  0.00     0.001 A 
ATOM     55  C   UNL A   1      46.677  27.197  35.301  1.00  0.00     0.000 A 
ENDBRANCH  37  50
ENDBRANCH  11  12
ENDBRANCH   4   6
ENDBRANCH   3   4
ENDBRANCH   2   3
ENDBRANCH   1   2
BRANCH   1  56
ATOM     56  O   UNL A   1      32.131  29.929  27.269  1.00  0.00    -0.462 OA
BRANCH  56  57
ATOM     57  C   UNL A   1      31.787  28.619  27.093  1.00  0.00     0.310 C 
ATOM     58  O   UNL A   1      31.320  27.927  27.976  1.00  0.00    -0.252 OA
BRANCH  57  59
ATOM     59  C   UNL A   1      31.983  28.098  25.664  1.00  0.00     0.115 C 
ATOM     60  C   UNL A   1      33.463  28.208  25.309  1.00  0.00     0.004 C 
ATOM     61  C   UNL A   1      31.665  26.609  25.391  1.00  0.00     0.096 C 
ATOM     62  C   UNL A   1      33.668  28.166  23.793  1.00  0.00     0.005 C 
ATOM     63  C   UNL A   1      34.006  26.851  25.718  1.00  0.00     0.009 C 
ATOM     64  C   UNL A   1      33.030  26.084  24.842  1.00  0.00     0.003 C 
ATOM     65  C   UNL A   1      33.414  26.690  23.470  1.00  0.00     0.005 C 
BRANCH  61  66
ATOM     66  C   UNL A   1      30.537  26.314  24.393  1.00  0.00     0.228 C 
ATOM     67  O   UNL A   1      29.975  27.208  23.756  1.00  0.00    -0.274 OA
ATOM     68  N   UNL A   1      30.154  25.029  24.133  1.00  0.00    -0.326 N 
ATOM     69  H   UNL A   1      29.263  24.903  23.734  1.00  0.00     0.169 HD
BRANCH  68  70
ATOM     70  C   UNL A   1      30.900  23.881  24.381  1.00  0.00     0.041 A 
ATOM     71  C   UNL A   1      30.937  23.346  25.670  1.00  0.00     0.033 A 
ATOM     72  C   UNL A   1      31.594  23.283  23.330  1.00  0.00     0.033 A 
ATOM     73  C   UNL A   1      31.599  22.139  25.893  1.00  0.00     0.088 A 
ATOM     74  C   UNL A   1      32.234  22.059  23.537  1.00  0.00     0.088 A 
ATOM     75  C   UNL A   1      32.202  21.483  24.811  1.00  0.00     0.269 A 
BRANCH  75  76
ATOM     76  N   UNL A   1      32.738  20.140  25.008  1.00  0.00     0.062 N 
ATOM     77  O   UNL A   1      33.921  20.049  25.364  1.00  0.00    -0.258 OA
ATOM     78  O   UNL A   1      31.969  19.184  24.844  1.00  0.00    -0.258 OA
ENDBRANCH  75  76
ENDBRANCH  68  70
ENDBRANCH  61  66
ENDBRANCH  57  59
ENDBRANCH  56  57
ENDBRANCH   1  56
TORSDOF 14
ENDMDL
MODEL 2
REMARK VINA RESULT:     -11.5      4.884      9.301
REMARK SMILES O=C(OCCOC(=O)[C@H]1[C@@H]2CC[C@@H](C2)[C@@H]1C(=O)Nc1ccc([N+](=O)[O-])cc1)c1ccc(-c2c3nc(c(-c4ccccc4)c4ccc([nH]4)c(-c4ccccc4)c4nc(c(-c5ccccc5)c5ccc2[nH]5)C=C4)C=C3)cc1
REMARK SMILES IDX 5 1 4 2 3 3 2 4 1 5 28 6 29 7 75 8 30 9 74 10 31 11 32 12
REMARK SMILES IDX 33 13 68 14 34 15 73 16 67 17 69 18 35 19 72 20 66 21 65 22
REMARK SMILES IDX 36 24 58 25 43 26 57 27 44 28 47 29 56 30 70 31 45 32 46 33
REMARK SMILES IDX 55 35 71 36 48 37 37 38 38 39 42 40 39 41 41 42 40 43 59 44
REMARK SMILES IDX 60 45 64 46 61 47 63 48 62 49 49 50 50 51 54 52 51 53 53 54
REMARK SMILES IDX 52 55 6 56 7 57 8 58 9 59 10 60 15 61 11 62 14 63 13 64
REMARK SMILES IDX 12 65 16 66 17 67 18 68 19 70 20 71 27 72 21 73 26 74 22 75
REMARK SMILES IDX 23 76 24 77 25 78
REMARK H PARENT 69 23 47 34 18 69
REMARK Flexibility Score: inf
ROOT
ATOM      1  C   UNL A   1      37.693  21.401  25.013  1.00  0.00     0.274 C 
ENDROOT
BRANCH   1   2
ATOM      2  C   UNL A   1      38.174  19.945  24.959  1.00  0.00     0.275 C 
BRANCH   2   3
ATOM      3  O   UNL A   1      39.068  19.575  26.014  1.00  0.00    -0.458 OA
BRANCH   3   4
ATOM      4  C   UNL A   1      40.415  19.698  25.962  1.00  0.00     0.338 C 
ATOM      5  O   UNL A   1      41.127  18.753  25.639  1.00  0.00    -0.246 OA
BRANCH   4   6
ATOM      6  C   UNL A   1      41.051  20.879  26.607  1.00  0.00     0.060 A 
ATOM      7  C   UNL A   1      41.132  21.111  27.987  1.00  0.00     0.016 A 
ATOM      8  C   UNL A   1      41.557  21.847  25.735  1.00  0.00     0.016 A 
ATOM      9  C   UNL A   1      41.778  22.249  28.494  1.00  0.00     0.010 A 
ATOM     10  C   UNL A   1      42.238  22.957  26.236  1.00  0.00     0.010 A 
ATOM     11  C   UNL A   1      42.342  23.180  27.624  1.00  0.00    -0.014 A 
BRANCH  11  12
ATOM     12  C   UNL A   1      42.882  24.489  28.071  1.00  0.00     0.031 A 
ATOM     13  C   UNL A   1      41.897  25.614  28.190  1.00  0.00     0.074 A 
ATOM     14  C   UNL A   1      44.198  24.739  28.234  1.00  0.00     0.049 A 
ATOM     15  N   UNL A   1      42.116  26.891  28.346  1.00  0.00    -0.248 NA
ATOM     16  C   UNL A   1      40.471  25.241  28.130  1.00  0.00     0.031 C 
ATOM     17  C   UNL A   1      45.277  23.758  28.254  1.00  0.00     0.029 A 
ATOM     18  N   UNL A   1      44.861  25.944  28.273  1.00  0.00    -0.354 N 
ATOM     19  C   UNL A   1      40.859  27.454  28.478  1.00  0.00     0.074 A 
ATOM     20  C   UNL A   1      39.886  26.423  28.200  1.00  0.00     0.031 C 
ATOM     21  C   UNL A   1      46.450  24.385  28.046  1.00  0.00     0.029 A 
ATOM     22  C   UNL A   1      46.205  25.820  27.990  1.00  0.00     0.049 A 
ATOM     23  H   UNL A   1      44.423  26.801  28.481  1.00  0.00     0.167 HD
ATOM     24  C   UNL A   1      40.537  28.691  28.918  1.00  0.00     0.031 A 
ATOM     25  C   UNL A   1      47.121  26.761  27.697  1.00  0.00     0.031 A 
ATOM     26  C   UNL A   1      41.506  29.710  29.177  1.00  0.00     0.049 A 
ATOM     27  C   UNL A   1      46.749  28.199  27.912  1.00  0.00     0.074 A 
ATOM     28  C   UNL A   1      41.329  30.975  29.702  1.00  0.00     0.029 A 
ATOM     29  N   UNL A   1      42.858  29.571  28.899  1.00  0.00    -0.354 N 
ATOM     30  N   UNL A   1      45.577  28.704  28.208  1.00  0.00    -0.248 NA
ATOM     31  C   UNL A   1      47.840  29.183  27.871  1.00  0.00     0.031 C 
ATOM     32  C   UNL A   1      42.574  31.616  29.702  1.00  0.00     0.029 A 
ATOM     33  C   UNL A   1      43.527  30.736  29.210  1.00  0.00     0.049 A 
ATOM     34  H   UNL A   1      43.278  28.758  28.532  1.00  0.00     0.167 HD
ATOM     35  C   UNL A   1      45.810  30.036  28.521  1.00  0.00     0.074 A 
ATOM     36  C   UNL A   1      47.221  30.278  28.295  1.00  0.00     0.031 C 
ATOM     37  C   UNL A   1      44.940  30.948  29.017  1.00  0.00     0.031 A 
BRANCH  24  38
ATOM     38  C   UNL A   1      39.081  28.912  29.189  1.00  0.00    -0.014 A 
ATOM     39  C   UNL A   1      38.266  29.491  28.195  1.00  0.00     0.009 A 
ATOM     40  C   UNL A   1      38.552  28.698  30.466  1.00  0.00     0.009 A 
ATOM     41  C   UNL A   1      36.980  29.930  28.501  1.00  0.00     0.001 A 
ATOM     42  C   UNL A   1      37.252  29.112  30.761  1.00  0.00     0.001 A 
ATOM     43  C   UNL A   1      36.477  29.747  29.788  1.00  0.00     0.000 A 
ENDBRANCH  24  38
BRANCH  25  44
ATOM     44  C   UNL A   1      48.488  26.382  27.258  1.00  0.00    -0.014 A 
ATOM     45  C   UNL A   1      49.468  26.010  28.189  1.00  0.00     0.009 A 
ATOM     46  C   UNL A   1      48.826  26.410  25.895  1.00  0.00     0.009 A 
ATOM     47  C   UNL A   1      50.765  25.702  27.770  1.00  0.00     0.001 A 
ATOM     48  C   UNL A   1      50.123  26.091  25.477  1.00  0.00     0.001 A 
ATOM     49  C   UNL A   1      51.092  25.744  26.415  1.00  0.00     0.000 A 
ENDBRANCH  25  44
BRANCH  37  50
ATOM     50  C   UNL A   1      45.498  32.258  29.478  1.00  0.00    -0.014 A 
ATOM     51  C   UNL A   1      45.526  33.383  28.645  1.00  0.00     0.009 A 
ATOM     52  C   UNL A   1      45.912  32.380  30.815  1.00  0.00     0.009 A 
ATOM     53  C   UNL A   1      45.961  34.611  29.147  1.00  0.00     0.001 A 
ATOM     54  C   UNL A   1      46.322  33.612  31.319  1.00  0.00     0.001 A 
ATOM     55  C   UNL A   1      46.346  34.728  30.483  1.00  0.00     0.000 A 
ENDBRANCH  37  50
ENDBRANCH  11  12
ENDBRANCH   4   6
ENDBRANCH   3   4
ENDBRANCH   2   3
ENDBRANCH   1   2
BRANCH   1  56
ATOM     56  O   UNL A   1      36.388  21.636  25.578  1.00  0.00    -0.462 OA
BRANCH  56  57
ATOM     57  C   UNL A   1      36.091  22.946  25.821  1.00  0.00     0.310 C 
ATOM     58  O   UNL A   1      36.804  23.682  26.476  1.00  0.00    -0.252 OA
BRANCH  57  59
ATOM     59  C   UNL A   1      34.803  23.441  25.151  1.00  0.00     0.115 C 
ATOM     60  C   UNL A   1      35.186  24.282  23.936  1.00  0.00     0.004 C 
ATOM     61  C   UNL A   1      33.848  22.379  24.557  1.00  0.00     0.096 C 
ATOM     62  C   UNL A   1      34.025  25.181  23.505  1.00  0.00     0.005 C 
ATOM     63  C   UNL A   1      35.200  23.260  22.814  1.00  0.00     0.009 C 
ATOM     64  C   UNL A   1      33.768  22.819  23.060  1.00  0.00     0.003 C 
ATOM     65  C   UNL A   1      33.061  24.182  22.858  1.00  0.00     0.005 C 
BRANCH  61  66
ATOM     66  C   UNL A   1      32.442  22.297  25.167  1.00  0.00     0.228 C 
ATOM     67  O   UNL A   1      31.726  23.292  25.302  1.00  0.00    -0.274 OA
ATOM     68  N   UNL A   1      31.910  21.092  25.532  1.00  0.00    -0.326 N 
ATOM     69  H   UNL A   1      31.161  21.112  26.170  1.00  0.00     0.169 HD
BRANCH  68  70
ATOM     70  C   UNL A   1      32.326  19.840  25.090  1.00  0.00     0.041 A 
ATOM     71  C   UNL A   1      32.290  19.540  23.727  1.00  0.00     0.033 A 
ATOM     72  C   UNL A   1      32.779  18.907  26.023  1.00  0.00     0.033 A 
ATOM     73  C   UNL A   1      32.805  18.326  23.278  1.00  0.00     0.088 A 
ATOM     74  C   UNL A   1      33.324  17.701  25.579  1.00  0.00     0.088 A 
ATOM     75  C   UNL A   1      33.361  17.436  24.207  1.00  0.00     0.269 A 
BRANCH  75  76
ATOM     76  N   UNL A   1      34.058  16.250  23.721  1.00  0.00     0.062 N 
ATOM     77  O   UNL A   1      34.284  16.185  22.504  1.00  0.00    -0.258 OA
ATOM     78  O   UNL A   1      34.410  15.406  24.556  1.00  0.00    -0.258 OA
ENDBRANCH  75  76
ENDBRANCH  68  70
ENDBRANCH  61  66
ENDBRANCH  57  59
ENDBRANCH  56  57
ENDBRANCH   1  56
TORSDOF 14
ENDMDL
MODEL 3
REMARK VINA RESULT:     -11.4      1.702      2.288
REMARK SMILES O=C(OCCOC(=O)[C@H]1[C@@H]2CC[C@@H](C2)[C@@H]1C(=O)Nc1ccc([N+](=O)[O-])cc1)c1ccc(-c2c3nc(c(-c4ccccc4)c4ccc([nH]4)c(-c4ccccc4)c4nc(c(-c5ccccc5)c5ccc2[nH]5)C=C4)C=C3)cc1
REMARK SMILES IDX 5 1 4 2 3 3 2 4 1 5 28 6 29 7 75 8 30 9 74 10 31 11 32 12
REMARK SMILES IDX 33 13 68 14 34 15 73 16 67 17 69 18 35 19 72 20 66 21 65 22
REMARK SMILES IDX 36 24 58 25 43 26 57 27 44 28 47 29 56 30 70 31 45 32 46 33
REMARK SMILES IDX 55 35 71 36 48 37 37 38 38 39 42 40 39 41 41 42 40 43 59 44
REMARK SMILES IDX 60 45 64 46 61 47 63 48 62 49 49 50 50 51 54 52 51 53 53 54
REMARK SMILES IDX 52 55 6 56 7 57 8 58 9 59 10 60 15 61 11 62 14 63 13 64
REMARK SMILES IDX 12 65 16 66 17 67 18 68 19 70 20 71 27 72 21 73 26 74 22 75
REMARK SMILES IDX 23 76 24 77 25 78
REMARK H PARENT 69 23 47 34 18 69
REMARK Flexibility Score: inf
ROOT
ATOM      1  C   UNL A   1      32.380  30.993  26.800  1.00  0.00     0.274 C 
ENDROOT
BRANCH   1   2
ATOM      2  C   UNL A   1      31.553  32.243  27.126  1.00  0.00     0.275 C 
BRANCH   2   3
ATOM      3  O   UNL A   1      32.290  33.471  27.088  1.00  0.00    -0.458 OA
BRANCH   3   4
ATOM      4  C   UNL A   1      32.857  34.062  28.165  1.00  0.00     0.338 C 
ATOM      5  O   UNL A   1      32.519  35.186  28.523  1.00  0.00    -0.246 OA
BRANCH   4   6
ATOM      6  C   UNL A   1      34.114  33.488  28.718  1.00  0.00     0.060 A 
ATOM      7  C   UNL A   1      34.244  32.852  29.959  1.00  0.00     0.016 A 
ATOM      8  C   UNL A   1      35.256  33.658  27.930  1.00  0.00     0.016 A 
ATOM      9  C   UNL A   1      35.475  32.321  30.377  1.00  0.00     0.010 A 
ATOM     10  C   UNL A   1      36.470  33.095  28.322  1.00  0.00     0.010 A 
ATOM     11  C   UNL A   1      36.598  32.433  29.560  1.00  0.00    -0.014 A 
BRANCH  11  12
ATOM     12  C   UNL A   1      37.966  32.059  30.001  1.00  0.00     0.031 A 
ATOM     13  C   UNL A   1      38.425  30.673  29.659  1.00  0.00     0.074 A 
ATOM     14  C   UNL A   1      38.735  32.837  30.792  1.00  0.00     0.049 A 
ATOM     15  N   UNL A   1      39.465  30.016  30.095  1.00  0.00    -0.248 NA
ATOM     16  C   UNL A   1      37.598  29.934  28.687  1.00  0.00     0.031 C 
ATOM     17  C   UNL A   1      38.497  34.233  31.141  1.00  0.00     0.029 A 
ATOM     18  N   UNL A   1      39.819  32.495  31.567  1.00  0.00    -0.354 N 
ATOM     19  C   UNL A   1      39.452  28.823  29.392  1.00  0.00     0.074 A 
ATOM     20  C   UNL A   1      38.215  28.767  28.649  1.00  0.00     0.031 C 
ATOM     21  C   UNL A   1      39.229  34.550  32.225  1.00  0.00     0.029 A 
ATOM     22  C   UNL A   1      40.064  33.407  32.571  1.00  0.00     0.049 A 
ATOM     23  H   UNL A   1      40.362  31.686  31.419  1.00  0.00     0.167 HD
ATOM     24  C   UNL A   1      40.441  27.910  29.275  1.00  0.00     0.031 A 
ATOM     25  C   UNL A   1      40.855  33.314  33.656  1.00  0.00     0.031 A 
ATOM     26  C   UNL A   1      41.657  27.966  30.026  1.00  0.00     0.049 A 
ATOM     27  C   UNL A   1      41.817  32.164  33.730  1.00  0.00     0.074 A 
ATOM     28  C   UNL A   1      42.773  27.158  29.948  1.00  0.00     0.029 A 
ATOM     29  N   UNL A   1      41.896  28.896  31.028  1.00  0.00    -0.354 N 
ATOM     30  N   UNL A   1      41.902  31.118  32.946  1.00  0.00    -0.248 NA
ATOM     31  C   UNL A   1      42.864  32.237  34.759  1.00  0.00     0.031 C 
ATOM     32  C   UNL A   1      43.675  27.577  30.935  1.00  0.00     0.029 A 
ATOM     33  C   UNL A   1      43.130  28.666  31.600  1.00  0.00     0.049 A 
ATOM     34  H   UNL A   1      41.276  29.614  31.290  1.00  0.00     0.167 HD
ATOM     35  C   UNL A   1      43.083  30.480  33.297  1.00  0.00     0.074 A 
ATOM     36  C   UNL A   1      43.635  31.212  34.421  1.00  0.00     0.031 C 
ATOM     37  C   UNL A   1      43.683  29.429  32.692  1.00  0.00     0.031 A 
BRANCH  24  38
ATOM     38  C   UNL A   1      40.212  26.852  28.240  1.00  0.00    -0.014 A 
ATOM     39  C   UNL A   1      39.588  25.642  28.605  1.00  0.00     0.009 A 
ATOM     40  C   UNL A   1      40.748  26.984  26.955  1.00  0.00     0.009 A 
ATOM     41  C   UNL A   1      39.584  24.557  27.731  1.00  0.00     0.001 A 
ATOM     42  C   UNL A   1      40.716  25.904  26.071  1.00  0.00     0.001 A 
ATOM     43  C   UNL A   1      40.156  24.687  26.467  1.00  0.00     0.000 A 
ENDBRANCH  24  38
BRANCH  25  44
ATOM     44  C   UNL A   1      40.837  34.366  34.704  1.00  0.00    -0.014 A 
ATOM     45  C   UNL A   1      41.770  35.413  34.692  1.00  0.00     0.009 A 
ATOM     46  C   UNL A   1      39.891  34.315  35.741  1.00  0.00     0.009 A 
ATOM     47  C   UNL A   1      41.774  36.371  35.709  1.00  0.00     0.001 A 
ATOM     48  C   UNL A   1      39.892  35.281  36.752  1.00  0.00     0.001 A 
ATOM     49  C   UNL A   1      40.838  36.304  36.740  1.00  0.00     0.000 A 
ENDBRANCH  25  44
BRANCH  37  50
ATOM     50  C   UNL A   1      45.068  29.071  33.135  1.00  0.00    -0.014 A 
ATOM     51  C   UNL A   1      46.199  29.695  32.597  1.00  0.00     0.009 A 
ATOM     52  C   UNL A   1      45.221  28.155  34.189  1.00  0.00     0.009 A 
ATOM     53  C   UNL A   1      47.465  29.406  33.110  1.00  0.00     0.001 A 
ATOM     54  C   UNL A   1      46.483  27.887  34.715  1.00  0.00     0.001 A 
ATOM     55  C   UNL A   1      47.605  28.513  34.174  1.00  0.00     0.000 A 
ENDBRANCH  37  50
ENDBRANCH  11  12
ENDBRANCH   4   6
ENDBRANCH   3   4
ENDBRANCH   2   3
ENDBRANCH   1   2
BRANCH   1  56
ATOM     56  O   UNL A   1      31.855  29.728  27.244  1.00  0.00    -0.462 OA
BRANCH  56  57
ATOM     57  C   UNL A   1      32.485  28.628  26.737  1.00  0.00     0.310 C 
ATOM     58  O   UNL A   1      33.661  28.385  26.929  1.00  0.00    -0.252 OA
BRANCH  57  59
ATOM     59  C   UNL A   1      31.574  27.682  25.946  1.00  0.00     0.115 C 
ATOM     60  C   UNL A   1      31.378  28.260  24.547  1.00  0.00     0.004 C 
ATOM     61  C   UNL A   1      32.091  26.251  25.667  1.00  0.00     0.096 C 
ATOM     62  C   UNL A   1      30.142  27.656  23.875  1.00  0.00     0.005 C 
ATOM     63  C   UNL A   1      32.495  27.603  23.756  1.00  0.00     0.009 C 
ATOM     64  C   UNL A   1      32.052  26.193  24.107  1.00  0.00     0.003 C 
ATOM     65  C   UNL A   1      30.617  26.242  23.527  1.00  0.00     0.005 C 
BRANCH  61  66
ATOM     66  C   UNL A   1      31.280  25.094  26.268  1.00  0.00     0.228 C 
ATOM     67  O   UNL A   1      30.084  25.206  26.545  1.00  0.00    -0.274 OA
ATOM     68  N   UNL A   1      31.854  23.869  26.464  1.00  0.00    -0.326 N 
ATOM     69  H   UNL A   1      31.408  23.267  27.102  1.00  0.00     0.169 HD
BRANCH  68  70
ATOM     70  C   UNL A   1      33.007  23.392  25.849  1.00  0.00     0.041 A 
ATOM     71  C   UNL A   1      32.905  22.627  24.686  1.00  0.00     0.033 A 
ATOM     72  C   UNL A   1      34.248  23.694  26.409  1.00  0.00     0.033 A 
ATOM     73  C   UNL A   1      34.064  22.240  24.016  1.00  0.00     0.088 A 
ATOM     74  C   UNL A   1      35.414  23.336  25.728  1.00  0.00     0.088 A 
ATOM     75  C   UNL A   1      35.309  22.639  24.520  1.00  0.00     0.269 A 
BRANCH  75  76
ATOM     76  N   UNL A   1      36.507  22.388  23.728  1.00  0.00     0.062 N 
ATOM     77  O   UNL A   1      36.623  23.011  22.663  1.00  0.00    -0.258 OA
ATOM     78  O   UNL A   1      37.346  21.601  24.186  1.00  0.00    -0.258 OA
ENDBRANCH  75  76
ENDBRANCH  68  70
ENDBRANCH  61  66
ENDBRANCH  57  59
ENDBRANCH  56  57
ENDBRANCH   1  56
TORSDOF 14
ENDMDL
