MODEL 1
REMARK VINA RESULT:     -11.2      0.000      0.000
REMARK SMILES Cc1cc(C[N@H+]2CCN(C)C(=O)C2(C)C)oc1C(=O)OCCOC(=O)c1ccc(-c2c3nc(c(-c4ccccc4)c4ccc([nH]4)c(-c4ccccc4)c4nc(c(-c5ccccc5)c5ccc2[nH]5)C=C4)C=C3)cc1
REMARK SMILES IDX 21 1 20 2 18 3 19 4 17 5 1 6 2 7 3 8 4 9 16 10 5 11 6 12
REMARK SMILES IDX 7 13 13 14 8 16 11 17 14 18 15 19 9 20 12 21 10 22 22 23
REMARK SMILES IDX 23 24 24 25 25 26 26 27 27 28 73 29 28 30 72 31 29 32 30 33
REMARK SMILES IDX 31 34 66 35 32 36 71 37 65 38 67 39 33 40 70 41 64 42 63 43
REMARK SMILES IDX 34 45 56 46 41 47 55 48 42 49 45 50 54 51 68 52 43 53 44 54
REMARK SMILES IDX 53 56 69 57 46 58 35 59 36 60 40 61 37 62 39 63 38 64 57 65
REMARK SMILES IDX 58 66 62 67 59 68 61 69 60 70 47 71 48 72 52 73 49 74 51 75
REMARK SMILES IDX 50 76
REMARK H PARENT 6 15 67 44 45 55
REMARK Flexibility Score: inf
ROOT
ATOM      1  C   UNL A   1      42.667  20.806  26.083  1.00  0.00     0.275 C 
ENDROOT
BRANCH   1   2
ATOM      2  O   UNL A   1      41.344  21.214  25.685  1.00  0.00    -0.456 OA
BRANCH   2   3
ATOM      3  C   UNL A   1      40.440  21.382  26.699  1.00  0.00     0.374 C 
ATOM      4  O   UNL A   1      40.697  21.221  27.878  1.00  0.00    -0.242 OA
BRANCH   3   5
ATOM      5  C   UNL A   1      39.174  21.855  26.171  1.00  0.00     0.215 A 
ATOM      6  C   UNL A   1      38.968  24.401  26.655  1.00  0.00     0.049 C 
ATOM      7  C   UNL A   1      38.532  23.084  26.130  1.00  0.00     0.003 A 
ATOM      8  C   UNL A   1      37.298  22.856  25.455  1.00  0.00     0.056 A 
ATOM      9  C   UNL A   1      37.189  21.501  25.241  1.00  0.00     0.159 A 
ATOM     10  O   UNL A   1      38.363  20.907  25.594  1.00  0.00    -0.448 OA
BRANCH   9  11
ATOM     11  C   UNL A   1      36.124  20.598  24.707  1.00  0.00     0.339 C 
BRANCH  11  12
ATOM     12  N   UNL A   1      34.927  20.373  25.543  1.00  0.00    -0.315 N 
ATOM     13  C   UNL A   1      34.418  21.590  26.185  1.00  0.00     0.285 C 
ATOM     14  C   UNL A   1      33.823  19.551  24.970  1.00  0.00     0.172 C 
ATOM     15  H   UNL A   1      35.315  19.765  26.264  1.00  0.00     0.349 HD
ATOM     16  C   UNL A   1      33.507  22.445  25.301  1.00  0.00     0.180 C 
ATOM     17  C   UNL A   1      32.887  20.380  24.034  1.00  0.00     0.283 C 
ATOM     18  C   UNL A   1      34.354  18.290  24.254  1.00  0.00     0.090 C 
ATOM     19  C   UNL A   1      32.903  19.029  26.104  1.00  0.00     0.090 C 
ATOM     20  N   UNL A   1      32.633  21.701  24.399  1.00  0.00    -0.335 N 
ATOM     21  O   UNL A   1      32.320  19.850  23.074  1.00  0.00    -0.268 OA
ATOM     22  C   UNL A   1      31.668  22.487  23.652  1.00  0.00     0.147 C 
ENDBRANCH  11  12
ENDBRANCH   9  11
ENDBRANCH   3   5
ENDBRANCH   2   3
ENDBRANCH   1   2
BRANCH   1  23
ATOM     23  C   UNL A   1      43.754  21.592  25.341  1.00  0.00     0.275 C 
BRANCH  23  24
ATOM     24  O   UNL A   1      43.273  22.869  24.882  1.00  0.00    -0.458 OA
BRANCH  24  25
ATOM     25  C   UNL A   1      44.049  23.932  25.197  1.00  0.00     0.338 C 
ATOM     26  O   UNL A   1      45.072  24.289  24.634  1.00  0.00    -0.246 OA
BRANCH  25  27
ATOM     27  C   UNL A   1      43.402  24.727  26.257  1.00  0.00     0.060 A 
ATOM     28  C   UNL A   1      43.584  26.111  26.222  1.00  0.00     0.016 A 
ATOM     29  C   UNL A   1      42.670  24.140  27.290  1.00  0.00     0.016 A 
ATOM     30  C   UNL A   1      43.040  26.921  27.212  1.00  0.00     0.010 A 
ATOM     31  C   UNL A   1      42.128  24.952  28.293  1.00  0.00     0.010 A 
ATOM     32  C   UNL A   1      42.317  26.347  28.263  1.00  0.00    -0.014 A 
BRANCH  32  33
ATOM     33  C   UNL A   1      41.816  27.216  29.350  1.00  0.00     0.031 A 
ATOM     34  C   UNL A   1      42.576  27.301  30.642  1.00  0.00     0.074 A 
ATOM     35  C   UNL A   1      40.721  27.972  29.159  1.00  0.00     0.049 A 
ATOM     36  N   UNL A   1      42.299  27.991  31.719  1.00  0.00    -0.248 NA
ATOM     37  C   UNL A   1      43.814  26.510  30.731  1.00  0.00     0.031 C 
ATOM     38  C   UNL A   1      39.936  28.025  27.924  1.00  0.00     0.029 A 
ATOM     39  N   UNL A   1      40.086  28.847  30.000  1.00  0.00    -0.354 N 
ATOM     40  C   UNL A   1      43.318  27.707  32.620  1.00  0.00     0.074 A 
ATOM     41  C   UNL A   1      44.212  26.773  31.968  1.00  0.00     0.031 C 
ATOM     42  C   UNL A   1      38.928  28.898  28.087  1.00  0.00     0.029 A 
ATOM     43  C   UNL A   1      38.974  29.433  29.445  1.00  0.00     0.049 A 
ATOM     44  H   UNL A   1      40.397  29.039  30.914  1.00  0.00     0.167 HD
ATOM     45  C   UNL A   1      43.490  28.180  33.876  1.00  0.00     0.031 A 
ATOM     46  C   UNL A   1      38.084  30.290  29.980  1.00  0.00     0.031 A 
ATOM     47  C   UNL A   1      42.600  29.105  34.525  1.00  0.00     0.049 A 
ATOM     48  C   UNL A   1      38.259  30.742  31.402  1.00  0.00     0.074 A 
ATOM     49  C   UNL A   1      42.692  29.641  35.798  1.00  0.00     0.029 A 
ATOM     50  N   UNL A   1      41.453  29.629  33.952  1.00  0.00    -0.354 N 
ATOM     51  N   UNL A   1      39.221  30.459  32.246  1.00  0.00    -0.248 NA
ATOM     52  C   UNL A   1      37.221  31.629  31.947  1.00  0.00     0.031 C 
ATOM     53  C   UNL A   1      41.575  30.458  36.010  1.00  0.00     0.029 A 
ATOM     54  C   UNL A   1      40.815  30.464  34.852  1.00  0.00     0.049 A 
ATOM     55  H   UNL A   1      41.139  29.435  33.039  1.00  0.00     0.167 HD
ATOM     56  C   UNL A   1      38.915  31.147  33.413  1.00  0.00     0.074 A 
ATOM     57  C   UNL A   1      37.685  31.872  33.165  1.00  0.00     0.031 C 
ATOM     58  C   UNL A   1      39.591  31.174  34.587  1.00  0.00     0.031 A 
BRANCH  45  59
ATOM     59  C   UNL A   1      44.672  27.667  34.645  1.00  0.00    -0.014 A 
ATOM     60  C   UNL A   1      44.588  26.500  35.419  1.00  0.00     0.009 A 
ATOM     61  C   UNL A   1      45.895  28.350  34.571  1.00  0.00     0.009 A 
ATOM     62  C   UNL A   1      45.701  26.043  36.128  1.00  0.00     0.001 A 
ATOM     63  C   UNL A   1      47.011  27.880  35.265  1.00  0.00     0.001 A 
ATOM     64  C   UNL A   1      46.912  26.732  36.049  1.00  0.00     0.000 A 
ENDBRANCH  45  59
BRANCH  46  65
ATOM     65  C   UNL A   1      36.925  30.756  29.176  1.00  0.00    -0.014 A 
ATOM     66  C   UNL A   1      35.904  29.867  28.811  1.00  0.00     0.009 A 
ATOM     67  C   UNL A   1      36.843  32.094  28.760  1.00  0.00     0.009 A 
ATOM     68  C   UNL A   1      34.833  30.306  28.027  1.00  0.00     0.001 A 
ATOM     69  C   UNL A   1      35.761  32.535  27.998  1.00  0.00     0.001 A 
ATOM     70  C   UNL A   1      34.761  31.639  27.625  1.00  0.00     0.000 A 
ENDBRANCH  46  65
BRANCH  58  71
ATOM     71  C   UNL A   1      39.026  32.034  35.681  1.00  0.00    -0.014 A 
ATOM     72  C   UNL A   1      38.150  31.504  36.640  1.00  0.00     0.009 A 
ATOM     73  C   UNL A   1      39.406  33.382  35.772  1.00  0.00     0.009 A 
ATOM     74  C   UNL A   1      37.643  32.317  37.655  1.00  0.00     0.001 A 
ATOM     75  C   UNL A   1      38.915  34.186  36.801  1.00  0.00     0.001 A 
ATOM     76  C   UNL A   1      38.027  33.655  37.737  1.00  0.00     0.000 A 
ENDBRANCH  58  71
ENDBRANCH  32  33
ENDBRANCH  25  27
ENDBRANCH  24  25
ENDBRANCH  23  24
ENDBRANCH   1  23
TORSDOF 13
ENDMDL
MODEL 2
REMARK VINA RESULT:     -10.9      5.375     10.398
REMARK SMILES Cc1cc(C[N@H+]2CCN(C)C(=O)C2(C)C)oc1C(=O)OCCOC(=O)c1ccc(-c2c3nc(c(-c4ccccc4)c4ccc([nH]4)c(-c4ccccc4)c4nc(c(-c5ccccc5)c5ccc2[nH]5)C=C4)C=C3)cc1
REMARK SMILES IDX 21 1 20 2 18 3 19 4 17 5 1 6 2 7 3 8 4 9 16 10 5 11 6 12
REMARK SMILES IDX 7 13 13 14 8 16 11 17 14 18 15 19 9 20 12 21 10 22 22 23
REMARK SMILES IDX 23 24 24 25 25 26 26 27 27 28 73 29 28 30 72 31 29 32 30 33
REMARK SMILES IDX 31 34 66 35 32 36 71 37 65 38 67 39 33 40 70 41 64 42 63 43
REMARK SMILES IDX 34 45 56 46 41 47 55 48 42 49 45 50 54 51 68 52 43 53 44 54
REMARK SMILES IDX 53 56 69 57 46 58 35 59 36 60 40 61 37 62 39 63 38 64 57 65
REMARK SMILES IDX 58 66 62 67 59 68 61 69 60 70 47 71 48 72 52 73 49 74 51 75
REMARK SMILES IDX 50 76
REMARK H PARENT 6 15 67 44 45 55
REMARK Flexibility Score: inf
ROOT
ATOM      1  C   UNL A   1      34.406  33.709  30.209  1.00  0.00     0.275 C 
ENDROOT
BRANCH   1   2
ATOM      2  O   UNL A   1      34.076  32.527  29.455  1.00  0.00    -0.456 OA
BRANCH   2   3
ATOM      3  C   UNL A   1      34.619  32.446  28.202  1.00  0.00     0.374 C 
ATOM      4  O   UNL A   1      35.158  33.375  27.628  1.00  0.00    -0.242 OA
BRANCH   3   5
ATOM      5  C   UNL A   1      34.532  31.086  27.703  1.00  0.00     0.215 A 
ATOM      6  C   UNL A   1      36.868  29.967  27.917  1.00  0.00     0.049 C 
ATOM      7  C   UNL A   1      35.429  30.036  27.569  1.00  0.00     0.003 A 
ATOM      8  C   UNL A   1      34.686  28.961  27.000  1.00  0.00     0.056 A 
ATOM      9  C   UNL A   1      33.433  29.440  26.697  1.00  0.00     0.159 A 
ATOM     10  O   UNL A   1      33.312  30.699  27.202  1.00  0.00    -0.448 OA
BRANCH   9  11
ATOM     11  C   UNL A   1      32.234  28.891  25.992  1.00  0.00     0.339 C 
BRANCH  11  12
ATOM     12  N   UNL A   1      32.400  27.645  25.215  1.00  0.00    -0.315 N 
ATOM     13  C   UNL A   1      31.771  26.474  25.836  1.00  0.00     0.285 C 
ATOM     14  C   UNL A   1      32.135  27.699  23.748  1.00  0.00     0.172 C 
ATOM     15  H   UNL A   1      33.413  27.531  25.261  1.00  0.00     0.349 HD
ATOM     16  C   UNL A   1      30.275  26.326  25.549  1.00  0.00     0.180 C 
ATOM     17  C   UNL A   1      30.614  27.583  23.414  1.00  0.00     0.283 C 
ATOM     18  C   UNL A   1      32.757  28.952  23.096  1.00  0.00     0.090 C 
ATOM     19  C   UNL A   1      32.799  26.489  23.042  1.00  0.00     0.090 C 
ATOM     20  N   UNL A   1      29.851  26.733  24.213  1.00  0.00    -0.335 N 
ATOM     21  O   UNL A   1      30.139  28.143  22.422  1.00  0.00    -0.268 OA
ATOM     22  C   UNL A   1      28.463  26.474  23.877  1.00  0.00     0.147 C 
ENDBRANCH  11  12
ENDBRANCH   9  11
ENDBRANCH   3   5
ENDBRANCH   2   3
ENDBRANCH   1   2
BRANCH   1  23
ATOM     23  C   UNL A   1      34.570  33.407  31.703  1.00  0.00     0.275 C 
BRANCH  23  24
ATOM     24  O   UNL A   1      35.194  32.128  31.926  1.00  0.00    -0.458 OA
BRANCH  24  25
ATOM     25  C   UNL A   1      36.237  32.131  32.788  1.00  0.00     0.338 C 
ATOM     26  O   UNL A   1      36.197  32.328  33.992  1.00  0.00    -0.246 OA
BRANCH  25  27
ATOM     27  C   UNL A   1      37.463  31.703  32.089  1.00  0.00     0.060 A 
ATOM     28  C   UNL A   1      37.655  32.170  30.787  1.00  0.00     0.016 A 
ATOM     29  C   UNL A   1      38.387  30.831  32.667  1.00  0.00     0.016 A 
ATOM     30  C   UNL A   1      38.766  31.776  30.051  1.00  0.00     0.010 A 
ATOM     31  C   UNL A   1      39.502  30.425  31.924  1.00  0.00     0.010 A 
ATOM     32  C   UNL A   1      39.693  30.890  30.610  1.00  0.00    -0.014 A 
BRANCH  32  33
ATOM     33  C   UNL A   1      40.824  30.417  29.782  1.00  0.00     0.031 A 
ATOM     34  C   UNL A   1      40.759  29.061  29.139  1.00  0.00     0.074 A 
ATOM     35  C   UNL A   1      41.878  31.221  29.557  1.00  0.00     0.049 A 
ATOM     36  N   UNL A   1      41.647  28.459  28.390  1.00  0.00    -0.248 NA
ATOM     37  C   UNL A   1      39.529  28.285  29.364  1.00  0.00     0.031 C 
ATOM     38  C   UNL A   1      42.026  32.584  30.072  1.00  0.00     0.029 A 
ATOM     39  N   UNL A   1      43.018  31.012  28.827  1.00  0.00    -0.354 N 
ATOM     40  C   UNL A   1      41.092  27.228  28.067  1.00  0.00     0.074 A 
ATOM     41  C   UNL A   1      39.796  27.164  28.710  1.00  0.00     0.031 C 
ATOM     42  C   UNL A   1      43.190  33.091  29.631  1.00  0.00     0.029 A 
ATOM     43  C   UNL A   1      43.883  32.079  28.839  1.00  0.00     0.049 A 
ATOM     44  H   UNL A   1      43.201  30.176  28.339  1.00  0.00     0.167 HD
ATOM     45  C   UNL A   1      41.616  26.239  27.304  1.00  0.00     0.031 A 
ATOM     46  C   UNL A   1      45.104  32.216  28.290  1.00  0.00     0.031 A 
ATOM     47  C   UNL A   1      42.904  26.300  26.668  1.00  0.00     0.049 A 
ATOM     48  C   UNL A   1      45.693  31.075  27.509  1.00  0.00     0.074 A 
ATOM     49  C   UNL A   1      43.521  25.347  25.877  1.00  0.00     0.029 A 
ATOM     50  N   UNL A   1      43.775  27.375  26.754  1.00  0.00    -0.354 N 
ATOM     51  N   UNL A   1      45.162  29.913  27.218  1.00  0.00    -0.248 NA
ATOM     52  C   UNL A   1      47.054  31.264  26.985  1.00  0.00     0.031 C 
ATOM     53  C   UNL A   1      44.785  25.829  25.517  1.00  0.00     0.029 A 
ATOM     54  C   UNL A   1      44.934  27.100  26.049  1.00  0.00     0.049 A 
ATOM     55  H   UNL A   1      43.595  28.210  27.243  1.00  0.00     0.167 HD
ATOM     56  C   UNL A   1      46.114  29.240  26.463  1.00  0.00     0.074 A 
ATOM     57  C   UNL A   1      47.250  30.130  26.329  1.00  0.00     0.031 C 
ATOM     58  C   UNL A   1      46.054  27.996  25.930  1.00  0.00     0.031 A 
BRANCH  45  59
ATOM     59  C   UNL A   1      40.804  24.987  27.154  1.00  0.00    -0.014 A 
ATOM     60  C   UNL A   1      39.627  24.967  26.391  1.00  0.00     0.009 A 
ATOM     61  C   UNL A   1      41.240  23.802  27.767  1.00  0.00     0.009 A 
ATOM     62  C   UNL A   1      38.886  23.790  26.268  1.00  0.00     0.001 A 
ATOM     63  C   UNL A   1      40.508  22.622  27.626  1.00  0.00     0.001 A 
ATOM     64  C   UNL A   1      39.328  22.618  26.884  1.00  0.00     0.000 A 
ENDBRANCH  45  59
BRANCH  46  65
ATOM     65  C   UNL A   1      45.869  33.475  28.481  1.00  0.00    -0.014 A 
ATOM     66  C   UNL A   1      46.714  33.637  29.589  1.00  0.00     0.009 A 
ATOM     67  C   UNL A   1      45.745  34.527  27.560  1.00  0.00     0.009 A 
ATOM     68  C   UNL A   1      47.405  34.836  29.779  1.00  0.00     0.001 A 
ATOM     69  C   UNL A   1      46.456  35.714  27.741  1.00  0.00     0.001 A 
ATOM     70  C   UNL A   1      47.279  35.872  28.854  1.00  0.00     0.000 A 
ENDBRANCH  46  65
BRANCH  58  71
ATOM     71  C   UNL A   1      47.241  27.536  25.133  1.00  0.00    -0.014 A 
ATOM     72  C   UNL A   1      47.346  27.816  23.762  1.00  0.00     0.009 A 
ATOM     73  C   UNL A   1      48.282  26.845  25.772  1.00  0.00     0.009 A 
ATOM     74  C   UNL A   1      48.462  27.388  23.041  1.00  0.00     0.001 A 
ATOM     75  C   UNL A   1      49.406  26.439  25.052  1.00  0.00     0.001 A 
ATOM     76  C   UNL A   1      49.491  26.703  23.686  1.00  0.00     0.000 A 
ENDBRANCH  58  71
ENDBRANCH  32  33
ENDBRANCH  25  27
ENDBRANCH  24  25
ENDBRANCH  23  24
ENDBRANCH   1  23
TORSDOF 13
ENDMDL
MODEL 3
REMARK VINA RESULT:     -10.9      0.927      6.110
REMARK SMILES Cc1cc(C[N@H+]2CCN(C)C(=O)C2(C)C)oc1C(=O)OCCOC(=O)c1ccc(-c2c3nc(c(-c4ccccc4)c4ccc([nH]4)c(-c4ccccc4)c4nc(c(-c5ccccc5)c5ccc2[nH]5)C=C4)C=C3)cc1
REMARK SMILES IDX 21 1 20 2 18 3 19 4 17 5 1 6 2 7 3 8 4 9 16 10 5 11 6 12
REMARK SMILES IDX 7 13 13 14 8 16 11 17 14 18 15 19 9 20 12 21 10 22 22 23
REMARK SMILES IDX 23 24 24 25 25 26 26 27 27 28 73 29 28 30 72 31 29 32 30 33
REMARK SMILES IDX 31 34 66 35 32 36 71 37 65 38 67 39 33 40 70 41 64 42 63 43
REMARK SMILES IDX 34 45 56 46 41 47 55 48 42 49 45 50 54 51 68 52 43 53 44 54
REMARK SMILES IDX 53 56 69 57 46 58 35 59 36 60 40 61 37 62 39 63 38 64 57 65
REMARK SMILES IDX 58 66 62 67 59 68 61 69 60 70 47 71 48 72 52 73 49 74 51 75
REMARK SMILES IDX 50 76
REMARK H PARENT 6 15 67 44 45 55
REMARK Flexibility Score: inf
ROOT
ATOM      1  C   UNL A   1      42.356  20.949  25.954  1.00  0.00     0.275 C 
ENDROOT
BRANCH   1   2
ATOM      2  O   UNL A   1      41.065  21.539  25.711  1.00  0.00    -0.456 OA
BRANCH   2   3
ATOM      3  C   UNL A   1      40.293  21.765  26.818  1.00  0.00     0.374 C 
ATOM      4  O   UNL A   1      40.593  21.417  27.945  1.00  0.00    -0.242 OA
BRANCH   3   5
ATOM      5  C   UNL A   1      39.121  22.544  26.463  1.00  0.00     0.215 A 
ATOM      6  C   UNL A   1      39.300  24.880  27.588  1.00  0.00     0.049 C 
ATOM      7  C   UNL A   1      38.675  23.825  26.756  1.00  0.00     0.003 A 
ATOM      8  C   UNL A   1      37.429  23.967  26.079  1.00  0.00     0.056 A 
ATOM      9  C   UNL A   1      37.117  22.745  25.528  1.00  0.00     0.159 A 
ATOM     10  O   UNL A   1      38.182  21.910  25.686  1.00  0.00    -0.448 OA
BRANCH   9  11
ATOM     11  C   UNL A   1      35.933  22.181  24.810  1.00  0.00     0.339 C 
BRANCH  11  12
ATOM     12  N   UNL A   1      34.642  22.888  24.945  1.00  0.00    -0.315 N 
ATOM     13  C   UNL A   1      34.228  23.598  23.730  1.00  0.00     0.285 C 
ATOM     14  C   UNL A   1      33.505  22.148  25.564  1.00  0.00     0.172 C 
ATOM     15  H   UNL A   1      34.882  23.578  25.657  1.00  0.00     0.349 HD
ATOM     16  C   UNL A   1      33.519  22.726  22.691  1.00  0.00     0.180 C 
ATOM     17  C   UNL A   1      32.773  21.220  24.544  1.00  0.00     0.283 C 
ATOM     18  C   UNL A   1      33.944  21.362  26.819  1.00  0.00     0.090 C 
ATOM     19  C   UNL A   1      32.424  23.145  26.054  1.00  0.00     0.090 C 
ATOM     20  N   UNL A   1      32.650  21.687  23.236  1.00  0.00    -0.335 N 
ATOM     21  O   UNL A   1      32.240  20.170  24.912  1.00  0.00    -0.268 OA
ATOM     22  C   UNL A   1      31.866  20.939  22.270  1.00  0.00     0.147 C 
ENDBRANCH  11  12
ENDBRANCH   9  11
ENDBRANCH   3   5
ENDBRANCH   2   3
ENDBRANCH   1   2
BRANCH   1  23
ATOM     23  C   UNL A   1      43.496  21.932  25.663  1.00  0.00     0.275 C 
BRANCH  23  24
ATOM     24  O   UNL A   1      43.002  23.228  25.277  1.00  0.00    -0.458 OA
BRANCH  24  25
ATOM     25  C   UNL A   1      43.892  24.243  25.368  1.00  0.00     0.338 C 
ATOM     26  O   UNL A   1      44.801  24.496  24.593  1.00  0.00    -0.246 OA
BRANCH  25  27
ATOM     27  C   UNL A   1      43.526  25.131  26.486  1.00  0.00     0.060 A 
ATOM     28  C   UNL A   1      42.929  24.542  27.603  1.00  0.00     0.016 A 
ATOM     29  C   UNL A   1      43.714  26.513  26.436  1.00  0.00     0.016 A 
ATOM     30  C   UNL A   1      42.517  25.321  28.678  1.00  0.00     0.010 A 
ATOM     31  C   UNL A   1      43.293  27.301  27.513  1.00  0.00     0.010 A 
ATOM     32  C   UNL A   1      42.685  26.710  28.637  1.00  0.00    -0.014 A 
BRANCH  32  33
ATOM     33  C   UNL A   1      42.167  27.529  29.754  1.00  0.00     0.031 A 
ATOM     34  C   UNL A   1      40.870  28.268  29.592  1.00  0.00     0.074 A 
ATOM     35  C   UNL A   1      42.823  27.563  30.927  1.00  0.00     0.049 A 
ATOM     36  N   UNL A   1      40.252  29.049  30.443  1.00  0.00    -0.248 NA
ATOM     37  C   UNL A   1      40.173  28.102  28.307  1.00  0.00     0.031 C 
ATOM     38  C   UNL A   1      44.057  26.835  31.226  1.00  0.00     0.029 A 
ATOM     39  N   UNL A   1      42.535  28.230  32.089  1.00  0.00    -0.354 N 
ATOM     40  C   UNL A   1      39.104  29.479  29.792  1.00  0.00     0.074 A 
ATOM     41  C   UNL A   1      39.115  28.883  28.473  1.00  0.00     0.031 C 
ATOM     42  C   UNL A   1      44.414  27.089  32.496  1.00  0.00     0.029 A 
ATOM     43  C   UNL A   1      43.459  28.024  33.084  1.00  0.00     0.049 A 
ATOM     44  H   UNL A   1      41.740  28.802  32.200  1.00  0.00     0.167 HD
ATOM     45  C   UNL A   1      38.129  30.298  30.253  1.00  0.00     0.031 A 
ATOM     46  C   UNL A   1      43.536  28.547  34.322  1.00  0.00     0.031 A 
ATOM     47  C   UNL A   1      38.119  30.893  31.562  1.00  0.00     0.049 A 
ATOM     48  C   UNL A   1      42.479  29.512  34.781  1.00  0.00     0.074 A 
ATOM     49  C   UNL A   1      37.174  31.738  32.118  1.00  0.00     0.029 A 
ATOM     50  N   UNL A   1      39.103  30.708  32.519  1.00  0.00    -0.354 N 
ATOM     51  N   UNL A   1      41.402  29.917  34.153  1.00  0.00    -0.248 NA
ATOM     52  C   UNL A   1      42.651  30.094  36.120  1.00  0.00     0.031 C 
ATOM     53  C   UNL A   1      37.609  32.097  33.399  1.00  0.00     0.029 A 
ATOM     54  C   UNL A   1      38.802  31.439  33.654  1.00  0.00     0.049 A 
ATOM     55  H   UNL A   1      39.899  30.139  32.407  1.00  0.00     0.167 HD
ATOM     56  C   UNL A   1      40.760  30.786  35.026  1.00  0.00     0.074 A 
ATOM     57  C   UNL A   1      41.560  30.838  36.233  1.00  0.00     0.031 C 
ATOM     58  C   UNL A   1      39.611  31.481  34.843  1.00  0.00     0.031 A 
BRANCH  45  59
ATOM     59  C   UNL A   1      37.011  30.629  29.309  1.00  0.00    -0.014 A 
ATOM     60  C   UNL A   1      36.053  29.670  28.947  1.00  0.00     0.009 A 
ATOM     61  C   UNL A   1      36.902  31.931  28.795  1.00  0.00     0.009 A 
ATOM     62  C   UNL A   1      35.023  30.001  28.063  1.00  0.00     0.001 A 
ATOM     63  C   UNL A   1      35.859  32.264  27.929  1.00  0.00     0.001 A 
ATOM     64  C   UNL A   1      34.925  31.298  27.558  1.00  0.00     0.000 A 
ENDBRANCH  45  59
BRANCH  46  65
ATOM     65  C   UNL A   1      44.673  28.193  35.210  1.00  0.00    -0.014 A 
ATOM     66  C   UNL A   1      44.581  27.106  36.091  1.00  0.00     0.009 A 
ATOM     67  C   UNL A   1      45.854  28.953  35.186  1.00  0.00     0.009 A 
ATOM     68  C   UNL A   1      45.642  26.800  36.947  1.00  0.00     0.001 A 
ATOM     69  C   UNL A   1      46.921  28.629  36.025  1.00  0.00     0.001 A 
ATOM     70  C   UNL A   1      46.812  27.558  36.910  1.00  0.00     0.000 A 
ENDBRANCH  46  65
BRANCH  58  71
ATOM     71  C   UNL A   1      39.141  32.336  35.984  1.00  0.00    -0.014 A 
ATOM     72  C   UNL A   1      39.586  33.659  36.130  1.00  0.00     0.009 A 
ATOM     73  C   UNL A   1      38.214  31.822  36.903  1.00  0.00     0.009 A 
ATOM     74  C   UNL A   1      39.131  34.442  37.192  1.00  0.00     0.001 A 
ATOM     75  C   UNL A   1      37.743  32.615  37.951  1.00  0.00     0.001 A 
ATOM     76  C   UNL A   1      38.208  33.921  38.099  1.00  0.00     0.000 A 
ENDBRANCH  58  71
ENDBRANCH  32  33
ENDBRANCH  25  27
ENDBRANCH  24  25
ENDBRANCH  23  24
ENDBRANCH   1  23
TORSDOF 13
ENDMDL
