MODEL 1
REMARK VINA RESULT:      -9.9      0.000      0.000
REMARK SMILES O=C(OCCOC(=O)c1ccc(S(=O)(=O)Nc2ccccc2I)cc1)c1ccc(-c2c3nc(c(-c4ccccc4)c4ccc([nH]4)c(-c4ccccc4)c4nc(c(-c5ccccc5)c5ccc2[nH]5)C=C4)C=C3)cc1
REMARK SMILES IDX 5 1 4 2 3 3 2 4 1 5 26 6 27 7 73 8 28 9 72 10 29 11 30 12
REMARK SMILES IDX 31 13 66 14 32 15 71 16 65 17 67 18 33 19 70 20 64 21 63 22
REMARK SMILES IDX 34 24 56 25 41 26 55 27 42 28 45 29 54 30 68 31 43 32 44 33
REMARK SMILES IDX 53 35 69 36 46 37 35 38 36 39 40 40 37 41 39 42 38 43 57 44
REMARK SMILES IDX 58 45 62 46 59 47 61 48 60 49 47 50 48 51 52 52 49 53 51 54
REMARK SMILES IDX 50 55 6 56 7 57 8 58 9 59 10 60 25 61 11 62 24 63 12 64
REMARK SMILES IDX 13 65 14 66 15 67 16 68 17 70 18 71 22 72 19 73 21 74 23 75
REMARK SMILES IDX 20 76
REMARK H PARENT 67 23 45 34 16 69
REMARK Flexibility Score: inf
ROOT
ATOM      1  C   UNL A   1      32.472  35.995  31.446  1.00  0.00     0.275 C 
ENDROOT
BRANCH   1   2
ATOM      2  C   UNL A   1      32.983  36.169  30.016  1.00  0.00     0.275 C 
BRANCH   2   3
ATOM      3  O   UNL A   1      32.458  35.215  29.073  1.00  0.00    -0.458 OA
BRANCH   3   4
ATOM      4  C   UNL A   1      33.039  34.162  28.451  1.00  0.00     0.338 C 
ATOM      5  O   UNL A   1      32.409  33.589  27.563  1.00  0.00    -0.246 OA
BRANCH   4   6
ATOM      6  C   UNL A   1      34.362  33.570  28.838  1.00  0.00     0.060 A 
ATOM      7  C   UNL A   1      34.656  32.908  30.032  1.00  0.00     0.016 A 
ATOM      8  C   UNL A   1      35.412  33.733  27.911  1.00  0.00     0.016 A 
ATOM      9  C   UNL A   1      35.931  32.377  30.278  1.00  0.00     0.010 A 
ATOM     10  C   UNL A   1      36.688  33.205  28.151  1.00  0.00     0.010 A 
ATOM     11  C   UNL A   1      36.957  32.518  29.342  1.00  0.00    -0.014 A 
BRANCH  11  12
ATOM     12  C   UNL A   1      38.341  32.088  29.664  1.00  0.00     0.031 A 
ATOM     13  C   UNL A   1      38.728  30.664  29.388  1.00  0.00     0.074 A 
ATOM     14  C   UNL A   1      39.273  32.944  30.130  1.00  0.00     0.049 A 
ATOM     15  N   UNL A   1      39.885  30.081  29.564  1.00  0.00    -0.248 NA
ATOM     16  C   UNL A   1      37.706  29.806  28.763  1.00  0.00     0.031 C 
ATOM     17  C   UNL A   1      39.120  34.389  30.265  1.00  0.00     0.029 A 
ATOM     18  N   UNL A   1      40.545  32.710  30.601  1.00  0.00    -0.354 N 
ATOM     19  C   UNL A   1      39.755  28.823  28.996  1.00  0.00     0.074 A 
ATOM     20  C   UNL A   1      38.384  28.687  28.558  1.00  0.00     0.031 C 
ATOM     21  C   UNL A   1      40.203  34.891  30.883  1.00  0.00     0.029 A 
ATOM     22  C   UNL A   1      41.115  33.807  31.207  1.00  0.00     0.049 A 
ATOM     23  H   UNL A   1      41.003  31.842  30.514  1.00  0.00     0.167 HD
ATOM     24  C   UNL A   1      40.713  27.889  28.798  1.00  0.00     0.031 A 
ATOM     25  C   UNL A   1      42.222  33.900  31.969  1.00  0.00     0.031 A 
ATOM     26  C   UNL A   1      42.060  28.003  29.282  1.00  0.00     0.049 A 
ATOM     27  C   UNL A   1      43.144  32.722  32.040  1.00  0.00     0.074 A 
ATOM     28  C   UNL A   1      43.119  27.131  29.108  1.00  0.00     0.029 A 
ATOM     29  N   UNL A   1      42.521  29.044  30.071  1.00  0.00    -0.354 N 
ATOM     30  N   UNL A   1      43.011  31.541  31.495  1.00  0.00    -0.248 NA
ATOM     31  C   UNL A   1      44.408  32.927  32.762  1.00  0.00     0.031 C 
ATOM     32  C   UNL A   1      44.206  27.615  29.847  1.00  0.00     0.029 A 
ATOM     33  C   UNL A   1      43.837  28.814  30.433  1.00  0.00     0.049 A 
ATOM     34  H   UNL A   1      41.992  29.831  30.335  1.00  0.00     0.167 HD
ATOM     35  C   UNL A   1      44.210  30.889  31.731  1.00  0.00     0.074 A 
ATOM     36  C   UNL A   1      45.030  31.782  32.524  1.00  0.00     0.031 C 
ATOM     37  C   UNL A   1      44.620  29.686  31.267  1.00  0.00     0.031 A 
BRANCH  24  38
ATOM     38  C   UNL A   1      40.319  26.673  28.018  1.00  0.00    -0.014 A 
ATOM     39  C   UNL A   1      40.725  26.518  26.680  1.00  0.00     0.009 A 
ATOM     40  C   UNL A   1      39.548  25.670  28.619  1.00  0.00     0.009 A 
ATOM     41  C   UNL A   1      40.338  25.392  25.952  1.00  0.00     0.001 A 
ATOM     42  C   UNL A   1      39.179  24.536  27.893  1.00  0.00     0.001 A 
ATOM     43  C   UNL A   1      39.568  24.401  26.560  1.00  0.00     0.000 A 
ENDBRANCH  24  38
BRANCH  25  44
ATOM     44  C   UNL A   1      42.548  35.112  32.764  1.00  0.00    -0.014 A 
ATOM     45  C   UNL A   1      41.979  35.353  34.020  1.00  0.00     0.009 A 
ATOM     46  C   UNL A   1      43.377  36.097  32.195  1.00  0.00     0.009 A 
ATOM     47  C   UNL A   1      42.252  36.547  34.697  1.00  0.00     0.001 A 
ATOM     48  C   UNL A   1      43.661  37.280  32.881  1.00  0.00     0.001 A 
ATOM     49  C   UNL A   1      43.098  37.503  34.133  1.00  0.00     0.000 A 
ENDBRANCH  25  44
BRANCH  37  50
ATOM     50  C   UNL A   1      46.038  29.311  31.566  1.00  0.00    -0.014 A 
ATOM     51  C   UNL A   1      47.076  29.587  30.664  1.00  0.00     0.009 A 
ATOM     52  C   UNL A   1      46.327  28.634  32.761  1.00  0.00     0.009 A 
ATOM     53  C   UNL A   1      48.374  29.151  30.938  1.00  0.00     0.001 A 
ATOM     54  C   UNL A   1      47.629  28.227  33.044  1.00  0.00     0.001 A 
ATOM     55  C   UNL A   1      48.648  28.475  32.127  1.00  0.00     0.000 A 
ENDBRANCH  37  50
ENDBRANCH  11  12
ENDBRANCH   4   6
ENDBRANCH   3   4
ENDBRANCH   2   3
ENDBRANCH   1   2
BRANCH   1  56
ATOM     56  O   UNL A   1      33.400  35.283  32.271  1.00  0.00    -0.458 OA
BRANCH  56  57
ATOM     57  C   UNL A   1      34.357  36.049  32.861  1.00  0.00     0.338 C 
ATOM     58  O   UNL A   1      34.339  37.261  32.992  1.00  0.00    -0.246 OA
BRANCH  57  59
ATOM     59  C   UNL A   1      35.400  35.175  33.441  1.00  0.00     0.060 A 
ATOM     60  C   UNL A   1      35.159  34.567  34.682  1.00  0.00     0.017 A 
ATOM     61  C   UNL A   1      36.579  34.896  32.745  1.00  0.00     0.017 A 
ATOM     62  C   UNL A   1      36.103  33.696  35.235  1.00  0.00     0.023 A 
ATOM     63  C   UNL A   1      37.497  33.998  33.280  1.00  0.00     0.023 A 
ATOM     64  C   UNL A   1      37.287  33.437  34.540  1.00  0.00     0.087 A 
BRANCH  64  65
ATOM     65  S   UNL A   1      38.501  32.327  35.205  1.00  0.00     0.261 S 
ATOM     66  O   UNL A   1      39.436  33.096  35.999  1.00  0.00    -0.201 OA
ATOM     67  O   UNL A   1      37.775  31.223  35.800  1.00  0.00    -0.201 OA
BRANCH  65  68
ATOM     68  N   UNL A   1      39.400  31.660  33.911  1.00  0.00    -0.279 N 
ATOM     69  H   UNL A   1      40.156  32.155  33.521  1.00  0.00     0.180 HD
BRANCH  68  70
ATOM     70  C   UNL A   1      39.033  30.364  33.398  1.00  0.00     0.062 A 
ATOM     71  C   UNL A   1      37.770  30.202  32.823  1.00  0.00     0.028 A 
ATOM     72  C   UNL A   1      39.927  29.281  33.388  1.00  0.00     0.037 A 
ATOM     73  C   UNL A   1      37.405  28.977  32.257  1.00  0.00     0.002 A 
ATOM     74  C   UNL A   1      39.571  28.076  32.767  1.00  0.00     0.017 A 
ATOM     75  I   UNL A   1      41.794  29.353  34.335  1.00  0.00    -0.042 I 
ATOM     76  C   UNL A   1      38.310  27.926  32.199  1.00  0.00     0.001 A 
ENDBRANCH  68  70
ENDBRANCH  65  68
ENDBRANCH  64  65
ENDBRANCH  57  59
ENDBRANCH  56  57
ENDBRANCH   1  56
TORSDOF 14
ENDMDL
MODEL 2
REMARK VINA RESULT:      -9.1      0.589      5.960
REMARK SMILES O=C(OCCOC(=O)c1ccc(S(=O)(=O)Nc2ccccc2I)cc1)c1ccc(-c2c3nc(c(-c4ccccc4)c4ccc([nH]4)c(-c4ccccc4)c4nc(c(-c5ccccc5)c5ccc2[nH]5)C=C4)C=C3)cc1
REMARK SMILES IDX 5 1 4 2 3 3 2 4 1 5 26 6 27 7 73 8 28 9 72 10 29 11 30 12
REMARK SMILES IDX 31 13 66 14 32 15 71 16 65 17 67 18 33 19 70 20 64 21 63 22
REMARK SMILES IDX 34 24 56 25 41 26 55 27 42 28 45 29 54 30 68 31 43 32 44 33
REMARK SMILES IDX 53 35 69 36 46 37 35 38 36 39 40 40 37 41 39 42 38 43 57 44
REMARK SMILES IDX 58 45 62 46 59 47 61 48 60 49 47 50 48 51 52 52 49 53 51 54
REMARK SMILES IDX 50 55 6 56 7 57 8 58 9 59 10 60 25 61 11 62 24 63 12 64
REMARK SMILES IDX 13 65 14 66 15 67 16 68 17 70 18 71 22 72 19 73 21 74 23 75
REMARK SMILES IDX 20 76
REMARK H PARENT 67 23 45 34 16 69
REMARK Flexibility Score: inf
ROOT
ATOM      1  C   UNL A   1      32.408  35.619  32.247  1.00  0.00     0.275 C 
ENDROOT
BRANCH   1   2
ATOM      2  C   UNL A   1      32.868  35.992  30.838  1.00  0.00     0.275 C 
BRANCH   2   3
ATOM      3  O   UNL A   1      32.484  35.055  29.815  1.00  0.00    -0.458 OA
BRANCH   3   4
ATOM      4  C   UNL A   1      33.215  34.404  28.879  1.00  0.00     0.338 C 
ATOM      5  O   UNL A   1      32.759  34.315  27.740  1.00  0.00    -0.246 OA
BRANCH   4   6
ATOM      6  C   UNL A   1      34.503  33.685  29.154  1.00  0.00     0.060 A 
ATOM      7  C   UNL A   1      34.830  32.990  30.320  1.00  0.00     0.016 A 
ATOM      8  C   UNL A   1      35.483  33.754  28.143  1.00  0.00     0.016 A 
ATOM      9  C   UNL A   1      36.065  32.339  30.459  1.00  0.00     0.010 A 
ATOM     10  C   UNL A   1      36.718  33.105  28.276  1.00  0.00     0.010 A 
ATOM     11  C   UNL A   1      37.019  32.388  29.441  1.00  0.00    -0.014 A 
BRANCH  11  12
ATOM     12  C   UNL A   1      38.377  31.825  29.646  1.00  0.00     0.031 A 
ATOM     13  C   UNL A   1      39.451  32.730  30.176  1.00  0.00     0.074 A 
ATOM     14  C   UNL A   1      38.659  30.524  29.434  1.00  0.00     0.049 A 
ATOM     15  N   UNL A   1      40.697  32.445  30.456  1.00  0.00    -0.248 NA
ATOM     16  C   UNL A   1      39.056  34.110  30.507  1.00  0.00     0.031 C 
ATOM     17  C   UNL A   1      37.693  29.478  29.110  1.00  0.00     0.029 A 
ATOM     18  N   UNL A   1      39.864  29.858  29.440  1.00  0.00    -0.354 N 
ATOM     19  C   UNL A   1      41.205  33.579  31.072  1.00  0.00     0.074 A 
ATOM     20  C   UNL A   1      40.171  34.588  31.038  1.00  0.00     0.031 C 
ATOM     21  C   UNL A   1      38.351  28.338  28.842  1.00  0.00     0.029 A 
ATOM     22  C   UNL A   1      39.781  28.573  28.952  1.00  0.00     0.049 A 
ATOM     23  H   UNL A   1      40.703  30.261  29.762  1.00  0.00     0.167 HD
ATOM     24  C   UNL A   1      42.406  33.740  31.671  1.00  0.00     0.031 A 
ATOM     25  C   UNL A   1      40.758  27.715  28.598  1.00  0.00     0.031 A 
ATOM     26  C   UNL A   1      43.452  32.756  31.656  1.00  0.00     0.049 A 
ATOM     27  C   UNL A   1      42.172  28.052  28.958  1.00  0.00     0.074 A 
ATOM     28  C   UNL A   1      44.694  32.804  32.261  1.00  0.00     0.029 A 
ATOM     29  N   UNL A   1      43.386  31.557  30.966  1.00  0.00    -0.354 N 
ATOM     30  N   UNL A   1      42.637  29.124  29.543  1.00  0.00    -0.248 NA
ATOM     31  C   UNL A   1      43.178  27.016  28.683  1.00  0.00     0.031 C 
ATOM     32  C   UNL A   1      45.406  31.659  31.883  1.00  0.00     0.029 A 
ATOM     33  C   UNL A   1      44.585  30.876  31.089  1.00  0.00     0.049 A 
ATOM     34  H   UNL A   1      42.603  31.237  30.463  1.00  0.00     0.167 HD
ATOM     35  C   UNL A   1      43.975  28.860  29.788  1.00  0.00     0.074 A 
ATOM     36  C   UNL A   1      44.259  27.553  29.229  1.00  0.00     0.031 C 
ATOM     37  C   UNL A   1      44.868  29.604  30.482  1.00  0.00     0.031 A 
BRANCH  24  38
ATOM     38  C   UNL A   1      42.633  35.033  32.394  1.00  0.00    -0.014 A 
ATOM     39  C   UNL A   1      43.387  36.061  31.803  1.00  0.00     0.009 A 
ATOM     40  C   UNL A   1      42.085  35.231  33.667  1.00  0.00     0.009 A 
ATOM     41  C   UNL A   1      43.612  37.255  32.490  1.00  0.00     0.001 A 
ATOM     42  C   UNL A   1      42.295  36.434  34.344  1.00  0.00     0.001 A 
ATOM     43  C   UNL A   1      43.063  37.442  33.758  1.00  0.00     0.000 A 
ENDBRANCH  24  38
BRANCH  25  44
ATOM     44  C   UNL A   1      40.491  26.465  27.840  1.00  0.00    -0.014 A 
ATOM     45  C   UNL A   1      39.943  25.329  28.447  1.00  0.00     0.009 A 
ATOM     46  C   UNL A   1      40.893  26.388  26.493  1.00  0.00     0.009 A 
ATOM     47  C   UNL A   1      39.786  24.148  27.713  1.00  0.00     0.001 A 
ATOM     48  C   UNL A   1      40.717  25.213  25.758  1.00  0.00     0.001 A 
ATOM     49  C   UNL A   1      40.163  24.093  26.370  1.00  0.00     0.000 A 
ENDBRANCH  25  44
BRANCH  37  50
ATOM     50  C   UNL A   1      46.209  28.979  30.713  1.00  0.00    -0.014 A 
ATOM     51  C   UNL A   1      47.284  29.204  29.840  1.00  0.00     0.009 A 
ATOM     52  C   UNL A   1      46.380  28.119  31.809  1.00  0.00     0.009 A 
ATOM     53  C   UNL A   1      48.495  28.541  30.041  1.00  0.00     0.001 A 
ATOM     54  C   UNL A   1      47.600  27.482  32.022  1.00  0.00     0.001 A 
ATOM     55  C   UNL A   1      48.653  27.684  31.130  1.00  0.00     0.000 A 
ENDBRANCH  37  50
ENDBRANCH  11  12
ENDBRANCH   4   6
ENDBRANCH   3   4
ENDBRANCH   2   3
ENDBRANCH   1   2
BRANCH   1  56
ATOM     56  O   UNL A   1      33.422  34.930  32.985  1.00  0.00    -0.458 OA
BRANCH  56  57
ATOM     57  C   UNL A   1      34.347  35.729  33.581  1.00  0.00     0.338 C 
ATOM     58  O   UNL A   1      34.216  36.908  33.864  1.00  0.00    -0.246 OA
BRANCH  57  59
ATOM     59  C   UNL A   1      35.529  34.921  33.956  1.00  0.00     0.060 A 
ATOM     60  C   UNL A   1      35.544  34.285  35.206  1.00  0.00     0.017 A 
ATOM     61  C   UNL A   1      36.586  34.729  33.063  1.00  0.00     0.017 A 
ATOM     62  C   UNL A   1      36.623  33.473  35.571  1.00  0.00     0.023 A 
ATOM     63  C   UNL A   1      37.637  33.888  33.414  1.00  0.00     0.023 A 
ATOM     64  C   UNL A   1      37.684  33.301  34.679  1.00  0.00     0.087 A 
BRANCH  64  65
ATOM     65  S   UNL A   1      39.063  32.268  35.101  1.00  0.00     0.261 S 
ATOM     66  O   UNL A   1      40.108  33.105  35.650  1.00  0.00    -0.201 OA
ATOM     67  O   UNL A   1      38.533  31.163  35.875  1.00  0.00    -0.201 OA
BRANCH  65  68
ATOM     68  N   UNL A   1      39.694  31.583  33.667  1.00  0.00    -0.279 N 
ATOM     69  H   UNL A   1      40.325  32.090  33.107  1.00  0.00     0.180 HD
BRANCH  68  70
ATOM     70  C   UNL A   1      39.288  30.253  33.288  1.00  0.00     0.062 A 
ATOM     71  C   UNL A   1      37.952  30.033  32.940  1.00  0.00     0.028 A 
ATOM     72  C   UNL A   1      40.200  29.191  33.183  1.00  0.00     0.037 A 
ATOM     73  C   UNL A   1      37.536  28.771  32.504  1.00  0.00     0.002 A 
ATOM     74  C   UNL A   1      39.784  27.946  32.691  1.00  0.00     0.017 A 
ATOM     75  I   UNL A   1      42.195  29.356  33.800  1.00  0.00    -0.042 I 
ATOM     76  C   UNL A   1      38.451  27.738  32.350  1.00  0.00     0.001 A 
ENDBRANCH  68  70
ENDBRANCH  65  68
ENDBRANCH  64  65
ENDBRANCH  57  59
ENDBRANCH  56  57
ENDBRANCH   1  56
TORSDOF 14
ENDMDL
MODEL 3
REMARK VINA RESULT:      -8.9      6.377     11.583
REMARK SMILES O=C(OCCOC(=O)c1ccc(S(=O)(=O)Nc2ccccc2I)cc1)c1ccc(-c2c3nc(c(-c4ccccc4)c4ccc([nH]4)c(-c4ccccc4)c4nc(c(-c5ccccc5)c5ccc2[nH]5)C=C4)C=C3)cc1
REMARK SMILES IDX 5 1 4 2 3 3 2 4 1 5 26 6 27 7 73 8 28 9 72 10 29 11 30 12
REMARK SMILES IDX 31 13 66 14 32 15 71 16 65 17 67 18 33 19 70 20 64 21 63 22
REMARK SMILES IDX 34 24 56 25 41 26 55 27 42 28 45 29 54 30 68 31 43 32 44 33
REMARK SMILES IDX 53 35 69 36 46 37 35 38 36 39 40 40 37 41 39 42 38 43 57 44
REMARK SMILES IDX 58 45 62 46 59 47 61 48 60 49 47 50 48 51 52 52 49 53 51 54
REMARK SMILES IDX 50 55 6 56 7 57 8 58 9 59 10 60 25 61 11 62 24 63 12 64
REMARK SMILES IDX 13 65 14 66 15 67 16 68 17 70 18 71 22 72 19 73 21 74 23 75
REMARK SMILES IDX 20 76
REMARK H PARENT 67 23 45 34 16 69
REMARK Flexibility Score: inf
ROOT
ATOM      1  C   UNL A   1      38.978  21.206  25.791  1.00  0.00     0.275 C 
ENDROOT
BRANCH   1   2
ATOM      2  C   UNL A   1      39.145  19.754  25.344  1.00  0.00     0.275 C 
BRANCH   2   3
ATOM      3  O   UNL A   1      40.256  19.065  25.949  1.00  0.00    -0.458 OA
BRANCH   3   4
ATOM      4  C   UNL A   1      41.575  19.367  25.995  1.00  0.00     0.338 C 
ATOM      5  O   UNL A   1      42.385  18.481  25.721  1.00  0.00    -0.246 OA
BRANCH   4   6
ATOM      6  C   UNL A   1      42.133  20.679  26.461  1.00  0.00     0.060 A 
ATOM      7  C   UNL A   1      42.130  21.161  27.771  1.00  0.00     0.016 A 
ATOM      8  C   UNL A   1      42.681  21.511  25.464  1.00  0.00     0.016 A 
ATOM      9  C   UNL A   1      42.699  22.403  28.093  1.00  0.00     0.010 A 
ATOM     10  C   UNL A   1      43.251  22.752  25.779  1.00  0.00     0.010 A 
ATOM     11  C   UNL A   1      43.266  23.209  27.104  1.00  0.00    -0.014 A 
BRANCH  11  12
ATOM     12  C   UNL A   1      43.734  24.582  27.419  1.00  0.00     0.031 A 
ATOM     13  C   UNL A   1      42.705  25.652  27.643  1.00  0.00     0.074 A 
ATOM     14  C   UNL A   1      45.039  24.881  27.574  1.00  0.00     0.049 A 
ATOM     15  N   UNL A   1      42.887  26.909  27.956  1.00  0.00    -0.248 NA
ATOM     16  C   UNL A   1      41.292  25.240  27.584  1.00  0.00     0.031 C 
ATOM     17  C   UNL A   1      46.144  23.927  27.585  1.00  0.00     0.029 A 
ATOM     18  N   UNL A   1      45.664  26.097  27.732  1.00  0.00    -0.354 N 
ATOM     19  C   UNL A   1      41.620  27.412  28.214  1.00  0.00     0.074 A 
ATOM     20  C   UNL A   1      40.672  26.359  27.927  1.00  0.00     0.031 C 
ATOM     21  C   UNL A   1      47.307  24.598  27.629  1.00  0.00     0.029 A 
ATOM     22  C   UNL A   1      47.035  26.026  27.628  1.00  0.00     0.049 A 
ATOM     23  H   UNL A   1      45.178  26.937  27.904  1.00  0.00     0.167 HD
ATOM     24  C   UNL A   1      41.285  28.624  28.709  1.00  0.00     0.031 A 
ATOM     25  C   UNL A   1      47.948  27.009  27.502  1.00  0.00     0.031 A 
ATOM     26  C   UNL A   1      42.223  29.687  28.941  1.00  0.00     0.049 A 
ATOM     27  C   UNL A   1      47.509  28.425  27.711  1.00  0.00     0.074 A 
ATOM     28  C   UNL A   1      41.994  30.943  29.472  1.00  0.00     0.029 A 
ATOM     29  N   UNL A   1      43.568  29.626  28.618  1.00  0.00    -0.354 N 
ATOM     30  N   UNL A   1      46.311  28.886  27.959  1.00  0.00    -0.248 NA
ATOM     31  C   UNL A   1      48.570  29.442  27.710  1.00  0.00     0.031 C 
ATOM     32  C   UNL A   1      43.192  31.665  29.410  1.00  0.00     0.029 A 
ATOM     33  C   UNL A   1      44.175  30.839  28.893  1.00  0.00     0.049 A 
ATOM     34  H   UNL A   1      44.025  28.836  28.248  1.00  0.00     0.167 HD
ATOM     35  C   UNL A   1      46.482  30.233  28.229  1.00  0.00     0.074 A 
ATOM     36  C   UNL A   1      47.890  30.526  28.051  1.00  0.00     0.031 C 
ATOM     37  C   UNL A   1      45.563  31.129  28.660  1.00  0.00     0.031 A 
BRANCH  24  38
ATOM     38  C   UNL A   1      39.839  28.845  29.032  1.00  0.00    -0.014 A 
ATOM     39  C   UNL A   1      38.963  29.376  28.070  1.00  0.00     0.009 A 
ATOM     40  C   UNL A   1      39.344  28.515  30.300  1.00  0.00     0.009 A 
ATOM     41  C   UNL A   1      37.621  29.600  28.384  1.00  0.00     0.001 A 
ATOM     42  C   UNL A   1      37.997  28.721  30.604  1.00  0.00     0.001 A 
ATOM     43  C   UNL A   1      37.139  29.269  29.650  1.00  0.00     0.000 A 
ENDBRANCH  24  38
BRANCH  25  44
ATOM     44  C   UNL A   1      49.363  26.746  27.133  1.00  0.00    -0.014 A 
ATOM     45  C   UNL A   1      49.783  26.674  25.800  1.00  0.00     0.009 A 
ATOM     46  C   UNL A   1      50.291  26.461  28.152  1.00  0.00     0.009 A 
ATOM     47  C   UNL A   1      51.109  26.343  25.499  1.00  0.00     0.001 A 
ATOM     48  C   UNL A   1      51.617  26.149  27.849  1.00  0.00     0.001 A 
ATOM     49  C   UNL A   1      52.026  26.090  26.520  1.00  0.00     0.000 A 
ENDBRANCH  25  44
BRANCH  37  50
ATOM     50  C   UNL A   1      46.083  32.487  29.018  1.00  0.00    -0.014 A 
ATOM     51  C   UNL A   1      46.552  32.777  30.308  1.00  0.00     0.009 A 
ATOM     52  C   UNL A   1      46.064  33.502  28.049  1.00  0.00     0.009 A 
ATOM     53  C   UNL A   1      46.953  34.074  30.630  1.00  0.00     0.001 A 
ATOM     54  C   UNL A   1      46.493  34.789  28.366  1.00  0.00     0.001 A 
ATOM     55  C   UNL A   1      46.925  35.077  29.660  1.00  0.00     0.000 A 
ENDBRANCH  37  50
ENDBRANCH  11  12
ENDBRANCH   4   6
ENDBRANCH   3   4
ENDBRANCH   2   3
ENDBRANCH   1   2
BRANCH   1  56
ATOM     56  O   UNL A   1      37.666  21.710  25.519  1.00  0.00    -0.458 OA
BRANCH  56  57
ATOM     57  C   UNL A   1      37.499  23.041  25.747  1.00  0.00     0.338 C 
ATOM     58  O   UNL A   1      38.201  23.753  26.445  1.00  0.00    -0.246 OA
BRANCH  57  59
ATOM     59  C   UNL A   1      36.385  23.547  24.916  1.00  0.00     0.060 A 
ATOM     60  C   UNL A   1      36.160  22.967  23.659  1.00  0.00     0.017 A 
ATOM     61  C   UNL A   1      35.521  24.537  25.392  1.00  0.00     0.017 A 
ATOM     62  C   UNL A   1      35.085  23.388  22.870  1.00  0.00     0.023 A 
ATOM     63  C   UNL A   1      34.429  24.924  24.621  1.00  0.00     0.023 A 
ATOM     64  C   UNL A   1      34.236  24.391  23.346  1.00  0.00     0.087 A 
BRANCH  64  65
ATOM     65  S   UNL A   1      32.854  24.941  22.379  1.00  0.00     0.261 S 
ATOM     66  O   UNL A   1      32.507  26.281  22.802  1.00  0.00    -0.201 OA
ATOM     67  O   UNL A   1      33.185  24.677  20.993  1.00  0.00    -0.201 OA
BRANCH  65  68
ATOM     68  N   UNL A   1      31.505  23.954  22.741  1.00  0.00    -0.279 N 
ATOM     69  H   UNL A   1      30.595  24.244  22.501  1.00  0.00     0.180 HD
BRANCH  68  70
ATOM     70  C   UNL A   1      31.719  22.692  23.404  1.00  0.00     0.062 A 
ATOM     71  C   UNL A   1      32.091  21.585  22.637  1.00  0.00     0.028 A 
ATOM     72  C   UNL A   1      31.639  22.555  24.800  1.00  0.00     0.037 A 
ATOM     73  C   UNL A   1      32.370  20.362  23.254  1.00  0.00     0.002 A 
ATOM     74  C   UNL A   1      31.976  21.340  25.412  1.00  0.00     0.017 A 
ATOM     75  I   UNL A   1      30.963  24.097  26.045  1.00  0.00    -0.042 I 
ATOM     76  C   UNL A   1      32.344  20.244  24.638  1.00  0.00     0.001 A 
ENDBRANCH  68  70
ENDBRANCH  65  68
ENDBRANCH  64  65
ENDBRANCH  57  59
ENDBRANCH  56  57
ENDBRANCH   1  56
TORSDOF 14
ENDMDL
