MODEL 1
REMARK VINA RESULT:      -8.5      0.000      0.000
REMARK SMILES CC(C)CS(=O)(=O)Cc1c(C(=O)OCCOC(=O)c2ccc(-c3c4nc(c(-c5ccccc5)c5ccc([nH]5)c(-c5ccccc5)c5nc(c(-c6ccccc6)c6ccc3[nH]6)C=C5)C=C4)cc2)oc2ccccc12
REMARK SMILES IDX 14 1 13 2 11 3 12 4 10 5 9 6 73 7 67 8 68 9 72 10 69 11
REMARK SMILES IDX 71 12 70 13 8 14 5 15 6 16 7 17 4 18 2 19 1 20 3 21 15 22
REMARK SMILES IDX 16 23 17 24 18 25 19 26 20 27 66 28 21 29 65 30 22 31 23 32
REMARK SMILES IDX 24 33 59 34 25 35 64 36 58 37 60 38 26 39 63 40 57 41 56 42
REMARK SMILES IDX 27 44 49 45 34 46 48 47 35 48 38 49 47 50 61 51 36 52 37 53
REMARK SMILES IDX 46 55 62 56 39 57 28 58 29 59 33 60 30 61 32 62 31 63 50 64
REMARK SMILES IDX 51 65 55 66 52 67 54 68 53 69 40 70 41 71 45 72 42 73 44 74
REMARK SMILES IDX 43 75
REMARK H PARENT 60 43 38 54
REMARK Flexibility Score: inf
ROOT
ATOM      1  C   UNL A   1      42.034  20.473  26.260  1.00  0.00     0.275 C 
ENDROOT
BRANCH   1   2
ATOM      2  O   UNL A   1      42.626  21.471  27.118  1.00  0.00    -0.456 OA
BRANCH   2   3
ATOM      3  C   UNL A   1      43.353  22.452  26.503  1.00  0.00     0.374 C 
ATOM      4  O   UNL A   1      43.244  22.756  25.325  1.00  0.00    -0.242 OA
BRANCH   3   5
ATOM      5  C   UNL A   1      44.189  23.148  27.471  1.00  0.00     0.217 A 
ATOM      6  C   UNL A   1      45.515  23.601  27.397  1.00  0.00     0.028 A 
ATOM      7  C   UNL A   1      45.725  24.364  28.597  1.00  0.00     0.025 A 
ATOM      8  O   UNL A   1      43.637  23.514  28.665  1.00  0.00    -0.449 OA
ATOM      9  C   UNL A   1      44.553  24.251  29.336  1.00  0.00     0.135 A 
ATOM     10  C   UNL A   1      46.732  25.192  29.131  1.00  0.00     0.012 A 
ATOM     11  C   UNL A   1      44.334  24.857  30.573  1.00  0.00     0.048 A 
ATOM     12  C   UNL A   1      46.551  25.812  30.373  1.00  0.00     0.001 A 
ATOM     13  C   UNL A   1      45.369  25.643  31.085  1.00  0.00     0.004 A 
BRANCH   6  14
ATOM     14  C   UNL A   1      46.377  23.505  26.178  1.00  0.00     0.177 C 
BRANCH  14  15
ATOM     15  S   UNL A   1      46.536  24.818  24.992  1.00  0.00     0.154 S 
ATOM     16  O   UNL A   1      45.246  25.485  24.944  1.00  0.00    -0.228 OA
ATOM     17  O   UNL A   1      47.095  24.256  23.775  1.00  0.00    -0.228 OA
BRANCH  15  18
ATOM     18  C   UNL A   1      47.694  26.030  25.587  1.00  0.00     0.140 C 
BRANCH  18  19
ATOM     19  C   UNL A   1      49.190  25.915  25.237  1.00  0.00    -0.002 C 
ATOM     20  C   UNL A   1      49.861  27.115  24.573  1.00  0.00     0.008 C 
ATOM     21  C   UNL A   1      49.954  25.628  26.538  1.00  0.00     0.008 C 
ENDBRANCH  18  19
ENDBRANCH  15  18
ENDBRANCH  14  15
ENDBRANCH   6  14
ENDBRANCH   3   5
ENDBRANCH   2   3
ENDBRANCH   1   2
BRANCH   1  22
ATOM     22  C   UNL A   1      40.505  20.514  26.322  1.00  0.00     0.275 C 
BRANCH  22  23
ATOM     23  O   UNL A   1      40.084  21.631  27.126  1.00  0.00    -0.458 OA
BRANCH  23  24
ATOM     24  C   UNL A   1      39.365  22.589  26.499  1.00  0.00     0.338 C 
ATOM     25  O   UNL A   1      38.356  22.457  25.831  1.00  0.00    -0.246 OA
BRANCH  24  26
ATOM     26  C   UNL A   1      39.925  23.897  26.871  1.00  0.00     0.060 A 
ATOM     27  C   UNL A   1      40.239  24.093  28.211  1.00  0.00     0.016 A 
ATOM     28  C   UNL A   1      40.075  24.938  25.955  1.00  0.00     0.016 A 
ATOM     29  C   UNL A   1      40.719  25.327  28.639  1.00  0.00     0.010 A 
ATOM     30  C   UNL A   1      40.544  26.188  26.396  1.00  0.00     0.010 A 
ATOM     31  C   UNL A   1      40.854  26.396  27.751  1.00  0.00    -0.014 A 
BRANCH  31  32
ATOM     32  C   UNL A   1      41.198  27.731  28.312  1.00  0.00     0.031 A 
ATOM     33  C   UNL A   1      42.632  28.189  28.310  1.00  0.00     0.074 A 
ATOM     34  C   UNL A   1      40.236  28.605  28.666  1.00  0.00     0.049 A 
ATOM     35  N   UNL A   1      43.144  29.313  28.747  1.00  0.00    -0.248 NA
ATOM     36  C   UNL A   1      43.615  27.272  27.712  1.00  0.00     0.031 C 
ATOM     37  C   UNL A   1      38.796  28.365  28.566  1.00  0.00     0.029 A 
ATOM     38  N   UNL A   1      40.329  29.892  29.141  1.00  0.00    -0.354 N 
ATOM     39  C   UNL A   1      44.508  29.226  28.505  1.00  0.00     0.074 A 
ATOM     40  C   UNL A   1      44.745  27.946  27.874  1.00  0.00     0.031 C 
ATOM     41  C   UNL A   1      38.142  29.479  28.934  1.00  0.00     0.029 A 
ATOM     42  C   UNL A   1      39.109  30.487  29.359  1.00  0.00     0.049 A 
ATOM     43  H   UNL A   1      41.187  30.343  29.308  1.00  0.00     0.167 HD
ATOM     44  C   UNL A   1      45.482  30.124  28.794  1.00  0.00     0.031 A 
ATOM     45  C   UNL A   1      38.801  31.697  29.868  1.00  0.00     0.031 A 
ATOM     46  C   UNL A   1      45.261  31.399  29.422  1.00  0.00     0.049 A 
ATOM     47  C   UNL A   1      39.907  32.624  30.297  1.00  0.00     0.074 A 
ATOM     48  C   UNL A   1      46.198  32.343  29.809  1.00  0.00     0.029 A 
ATOM     49  N   UNL A   1      44.018  31.912  29.753  1.00  0.00    -0.354 N 
ATOM     50  N   UNL A   1      41.202  32.494  30.145  1.00  0.00    -0.248 NA
ATOM     51  C   UNL A   1      39.503  33.859  30.987  1.00  0.00     0.031 C 
ATOM     52  C   UNL A   1      45.523  33.407  30.418  1.00  0.00     0.029 A 
ATOM     53  C   UNL A   1      44.165  33.148  30.362  1.00  0.00     0.049 A 
ATOM     54  H   UNL A   1      43.158  31.464  29.582  1.00  0.00     0.167 HD
ATOM     55  C   UNL A   1      41.765  33.632  30.710  1.00  0.00     0.074 A 
ATOM     56  C   UNL A   1      40.671  34.455  31.182  1.00  0.00     0.031 C 
ATOM     57  C   UNL A   1      43.075  33.960  30.834  1.00  0.00     0.031 A 
BRANCH  44  58
ATOM     58  C   UNL A   1      46.895  29.713  28.503  1.00  0.00    -0.014 A 
ATOM     59  C   UNL A   1      47.511  30.006  27.277  1.00  0.00     0.009 A 
ATOM     60  C   UNL A   1      47.628  29.038  29.492  1.00  0.00     0.009 A 
ATOM     61  C   UNL A   1      48.826  29.602  27.037  1.00  0.00     0.001 A 
ATOM     62  C   UNL A   1      48.949  28.656  29.257  1.00  0.00     0.001 A 
ATOM     63  C   UNL A   1      49.544  28.930  28.028  1.00  0.00     0.000 A 
ENDBRANCH  44  58
BRANCH  45  64
ATOM     64  C   UNL A   1      37.381  32.091  30.068  1.00  0.00    -0.014 A 
ATOM     65  C   UNL A   1      36.696  31.746  31.243  1.00  0.00     0.009 A 
ATOM     66  C   UNL A   1      36.687  32.773  29.054  1.00  0.00     0.009 A 
ATOM     67  C   UNL A   1      35.340  32.055  31.389  1.00  0.00     0.001 A 
ATOM     68  C   UNL A   1      35.340  33.106  29.216  1.00  0.00     0.001 A 
ATOM     69  C   UNL A   1      34.666  32.737  30.377  1.00  0.00     0.000 A 
ENDBRANCH  45  64
BRANCH  57  70
ATOM     70  C   UNL A   1      43.399  35.272  31.490  1.00  0.00    -0.014 A 
ATOM     71  C   UNL A   1      43.450  35.392  32.888  1.00  0.00     0.009 A 
ATOM     72  C   UNL A   1      43.693  36.395  30.700  1.00  0.00     0.009 A 
ATOM     73  C   UNL A   1      43.759  36.619  33.481  1.00  0.00     0.001 A 
ATOM     74  C   UNL A   1      44.028  37.612  31.296  1.00  0.00     0.001 A 
ATOM     75  C   UNL A   1      44.053  37.726  32.685  1.00  0.00     0.000 A 
ENDBRANCH  57  70
ENDBRANCH  31  32
ENDBRANCH  24  26
ENDBRANCH  23  24
ENDBRANCH  22  23
ENDBRANCH   1  22
TORSDOF 15
ENDMDL
MODEL 2
REMARK VINA RESULT:      -8.3      5.920     11.415
REMARK SMILES CC(C)CS(=O)(=O)Cc1c(C(=O)OCCOC(=O)c2ccc(-c3c4nc(c(-c5ccccc5)c5ccc([nH]5)c(-c5ccccc5)c5nc(c(-c6ccccc6)c6ccc3[nH]6)C=C5)C=C4)cc2)oc2ccccc12
REMARK SMILES IDX 14 1 13 2 11 3 12 4 10 5 9 6 73 7 67 8 68 9 72 10 69 11
REMARK SMILES IDX 71 12 70 13 8 14 5 15 6 16 7 17 4 18 2 19 1 20 3 21 15 22
REMARK SMILES IDX 16 23 17 24 18 25 19 26 20 27 66 28 21 29 65 30 22 31 23 32
REMARK SMILES IDX 24 33 59 34 25 35 64 36 58 37 60 38 26 39 63 40 57 41 56 42
REMARK SMILES IDX 27 44 49 45 34 46 48 47 35 48 38 49 47 50 61 51 36 52 37 53
REMARK SMILES IDX 46 55 62 56 39 57 28 58 29 59 33 60 30 61 32 62 31 63 50 64
REMARK SMILES IDX 51 65 55 66 52 67 54 68 53 69 40 70 41 71 45 72 42 73 44 74
REMARK SMILES IDX 43 75
REMARK H PARENT 60 43 38 54
REMARK Flexibility Score: inf
ROOT
ATOM      1  C   UNL A   1      31.436  30.350  26.193  1.00  0.00     0.275 C 
ENDROOT
BRANCH   1   2
ATOM      2  O   UNL A   1      32.366  29.389  26.734  1.00  0.00    -0.456 OA
BRANCH   2   3
ATOM      3  C   UNL A   1      31.847  28.182  27.113  1.00  0.00     0.374 C 
ATOM      4  O   UNL A   1      31.077  28.026  28.048  1.00  0.00    -0.242 OA
BRANCH   3   5
ATOM      5  C   UNL A   1      32.255  27.138  26.184  1.00  0.00     0.217 A 
ATOM      6  C   UNL A   1      31.655  26.652  25.013  1.00  0.00     0.028 A 
ATOM      7  C   UNL A   1      32.614  25.746  24.441  1.00  0.00     0.025 A 
ATOM      8  O   UNL A   1      33.454  26.518  26.387  1.00  0.00    -0.449 OA
ATOM      9  C   UNL A   1      33.674  25.690  25.339  1.00  0.00     0.135 A 
ATOM     10  C   UNL A   1      32.755  25.010  23.249  1.00  0.00     0.012 A 
ATOM     11  C   UNL A   1      34.828  24.927  25.157  1.00  0.00     0.048 A 
ATOM     12  C   UNL A   1      33.896  24.227  23.033  1.00  0.00     0.001 A 
ATOM     13  C   UNL A   1      34.916  24.184  23.977  1.00  0.00     0.004 A 
BRANCH   6  14
ATOM     14  C   UNL A   1      30.406  27.208  24.405  1.00  0.00     0.177 C 
BRANCH  14  15
ATOM     15  S   UNL A   1      30.400  28.234  22.956  1.00  0.00     0.154 S 
ATOM     16  O   UNL A   1      30.573  27.342  21.821  1.00  0.00    -0.228 OA
ATOM     17  O   UNL A   1      31.348  29.313  23.168  1.00  0.00    -0.228 OA
BRANCH  15  18
ATOM     18  C   UNL A   1      28.797  28.980  22.754  1.00  0.00     0.140 C 
BRANCH  18  19
ATOM     19  C   UNL A   1      28.672  30.482  22.436  1.00  0.00    -0.002 C 
ATOM     20  C   UNL A   1      28.085  30.879  21.084  1.00  0.00     0.008 C 
ATOM     21  C   UNL A   1      27.790  31.118  23.521  1.00  0.00     0.008 C 
ENDBRANCH  18  19
ENDBRANCH  15  18
ENDBRANCH  14  15
ENDBRANCH   6  14
ENDBRANCH   3   5
ENDBRANCH   2   3
ENDBRANCH   1   2
BRANCH   1  22
ATOM     22  C   UNL A   1      31.592  31.719  26.860  1.00  0.00     0.275 C 
BRANCH  22  23
ATOM     23  O   UNL A   1      32.930  32.207  26.656  1.00  0.00    -0.458 OA
BRANCH  23  24
ATOM     24  C   UNL A   1      33.414  33.052  27.594  1.00  0.00     0.338 C 
ATOM     25  O   UNL A   1      32.868  34.019  28.090  1.00  0.00    -0.246 OA
BRANCH  24  26
ATOM     26  C   UNL A   1      34.709  32.528  28.055  1.00  0.00     0.060 A 
ATOM     27  C   UNL A   1      34.748  31.196  28.451  1.00  0.00     0.016 A 
ATOM     28  C   UNL A   1      35.845  33.329  28.169  1.00  0.00     0.016 A 
ATOM     29  C   UNL A   1      35.928  30.654  28.952  1.00  0.00     0.010 A 
ATOM     30  C   UNL A   1      37.030  32.780  28.691  1.00  0.00     0.010 A 
ATOM     31  C   UNL A   1      37.074  31.438  29.104  1.00  0.00    -0.014 A 
BRANCH  31  32
ATOM     32  C   UNL A   1      38.240  30.841  29.811  1.00  0.00     0.031 A 
ATOM     33  C   UNL A   1      38.433  31.107  31.280  1.00  0.00     0.074 A 
ATOM     34  C   UNL A   1      39.028  29.932  29.205  1.00  0.00     0.049 A 
ATOM     35  N   UNL A   1      39.377  30.682  32.082  1.00  0.00    -0.248 NA
ATOM     36  C   UNL A   1      37.414  31.940  31.937  1.00  0.00     0.031 C 
ATOM     37  C   UNL A   1      38.862  29.447  27.834  1.00  0.00     0.029 A 
ATOM     38  N   UNL A   1      40.102  29.220  29.683  1.00  0.00    -0.354 N 
ATOM     39  C   UNL A   1      39.084  31.218  33.329  1.00  0.00     0.074 A 
ATOM     40  C   UNL A   1      37.870  31.991  33.181  1.00  0.00     0.031 C 
ATOM     41  C   UNL A   1      39.778  28.494  27.595  1.00  0.00     0.029 A 
ATOM     42  C   UNL A   1      40.637  28.347  28.766  1.00  0.00     0.049 A 
ATOM     43  H   UNL A   1      40.454  29.325  30.596  1.00  0.00     0.167 HD
ATOM     44  C   UNL A   1      39.770  31.092  34.491  1.00  0.00     0.031 A 
ATOM     45  C   UNL A   1      41.713  27.538  28.848  1.00  0.00     0.031 A 
ATOM     46  C   UNL A   1      40.978  30.329  34.652  1.00  0.00     0.049 A 
ATOM     47  C   UNL A   1      42.529  27.515  30.112  1.00  0.00     0.074 A 
ATOM     48  C   UNL A   1      41.773  30.200  35.779  1.00  0.00     0.029 A 
ATOM     49  N   UNL A   1      41.567  29.563  33.659  1.00  0.00    -0.354 N 
ATOM     50  N   UNL A   1      42.292  28.098  31.261  1.00  0.00    -0.248 NA
ATOM     51  C   UNL A   1      43.775  26.734  30.080  1.00  0.00     0.031 C 
ATOM     52  C   UNL A   1      42.869  29.393  35.453  1.00  0.00     0.029 A 
ATOM     53  C   UNL A   1      42.727  28.979  34.140  1.00  0.00     0.049 A 
ATOM     54  H   UNL A   1      41.213  29.452  32.747  1.00  0.00     0.167 HD
ATOM     55  C   UNL A   1      43.351  27.746  32.090  1.00  0.00     0.074 A 
ATOM     56  C   UNL A   1      44.217  26.876  31.321  1.00  0.00     0.031 C 
ATOM     57  C   UNL A   1      43.588  28.119  33.371  1.00  0.00     0.031 A 
BRANCH  44  58
ATOM     58  C   UNL A   1      39.264  31.873  35.669  1.00  0.00    -0.014 A 
ATOM     59  C   UNL A   1      39.718  33.172  35.943  1.00  0.00     0.009 A 
ATOM     60  C   UNL A   1      38.296  31.297  36.506  1.00  0.00     0.009 A 
ATOM     61  C   UNL A   1      39.231  33.866  37.052  1.00  0.00     0.001 A 
ATOM     62  C   UNL A   1      37.795  32.002  37.600  1.00  0.00     0.001 A 
ATOM     63  C   UNL A   1      38.270  33.282  37.877  1.00  0.00     0.000 A 
ENDBRANCH  44  58
BRANCH  45  64
ATOM     64  C   UNL A   1      42.133  26.724  27.676  1.00  0.00    -0.014 A 
ATOM     65  C   UNL A   1      42.967  27.263  26.685  1.00  0.00     0.009 A 
ATOM     66  C   UNL A   1      41.656  25.412  27.519  1.00  0.00     0.009 A 
ATOM     67  C   UNL A   1      43.294  26.515  25.550  1.00  0.00     0.001 A 
ATOM     68  C   UNL A   1      42.009  24.656  26.399  1.00  0.00     0.001 A 
ATOM     69  C   UNL A   1      42.817  25.212  25.411  1.00  0.00     0.000 A 
ENDBRANCH  45  64
BRANCH  57  70
ATOM     70  C   UNL A   1      44.823  27.575  34.032  1.00  0.00    -0.014 A 
ATOM     71  C   UNL A   1      46.037  28.280  33.994  1.00  0.00     0.009 A 
ATOM     72  C   UNL A   1      44.763  26.361  34.733  1.00  0.00     0.009 A 
ATOM     73  C   UNL A   1      47.174  27.763  34.619  1.00  0.00     0.001 A 
ATOM     74  C   UNL A   1      45.895  25.860  35.380  1.00  0.00     0.001 A 
ATOM     75  C   UNL A   1      47.101  26.557  35.316  1.00  0.00     0.000 A 
ENDBRANCH  57  70
ENDBRANCH  31  32
ENDBRANCH  24  26
ENDBRANCH  23  24
ENDBRANCH  22  23
ENDBRANCH   1  22
TORSDOF 15
ENDMDL
MODEL 3
REMARK VINA RESULT:      -8.2      4.292      7.795
REMARK SMILES CC(C)CS(=O)(=O)Cc1c(C(=O)OCCOC(=O)c2ccc(-c3c4nc(c(-c5ccccc5)c5ccc([nH]5)c(-c5ccccc5)c5nc(c(-c6ccccc6)c6ccc3[nH]6)C=C5)C=C4)cc2)oc2ccccc12
REMARK SMILES IDX 14 1 13 2 11 3 12 4 10 5 9 6 73 7 67 8 68 9 72 10 69 11
REMARK SMILES IDX 71 12 70 13 8 14 5 15 6 16 7 17 4 18 2 19 1 20 3 21 15 22
REMARK SMILES IDX 16 23 17 24 18 25 19 26 20 27 66 28 21 29 65 30 22 31 23 32
REMARK SMILES IDX 24 33 59 34 25 35 64 36 58 37 60 38 26 39 63 40 57 41 56 42
REMARK SMILES IDX 27 44 49 45 34 46 48 47 35 48 38 49 47 50 61 51 36 52 37 53
REMARK SMILES IDX 46 55 62 56 39 57 28 58 29 59 33 60 30 61 32 62 31 63 50 64
REMARK SMILES IDX 51 65 55 66 52 67 54 68 53 69 40 70 41 71 45 72 42 73 44 74
REMARK SMILES IDX 43 75
REMARK H PARENT 60 43 38 54
REMARK Flexibility Score: inf
ROOT
ATOM      1  C   UNL A   1      35.788  23.067  24.088  1.00  0.00     0.275 C 
ENDROOT
BRANCH   1   2
ATOM      2  O   UNL A   1      35.469  24.357  24.650  1.00  0.00    -0.456 OA
BRANCH   2   3
ATOM      3  C   UNL A   1      34.200  24.517  25.133  1.00  0.00     0.374 C 
ATOM      4  O   UNL A   1      33.479  23.600  25.494  1.00  0.00    -0.242 OA
BRANCH   3   5
ATOM      5  C   UNL A   1      33.876  25.931  25.255  1.00  0.00     0.217 A 
ATOM      6  C   UNL A   1      33.550  26.896  24.289  1.00  0.00     0.028 A 
ATOM      7  C   UNL A   1      33.163  28.064  25.032  1.00  0.00     0.025 A 
ATOM      8  O   UNL A   1      33.795  26.475  26.504  1.00  0.00    -0.449 OA
ATOM      9  C   UNL A   1      33.358  27.750  26.372  1.00  0.00     0.135 A 
ATOM     10  C   UNL A   1      32.612  29.329  24.752  1.00  0.00     0.012 A 
ATOM     11  C   UNL A   1      33.091  28.613  27.436  1.00  0.00     0.048 A 
ATOM     12  C   UNL A   1      32.335  30.225  25.792  1.00  0.00     0.001 A 
ATOM     13  C   UNL A   1      32.576  29.871  27.116  1.00  0.00     0.004 A 
BRANCH   6  14
ATOM     14  C   UNL A   1      33.394  26.614  22.828  1.00  0.00     0.177 C 
BRANCH  14  15
ATOM     15  S   UNL A   1      31.989  25.773  22.142  1.00  0.00     0.154 S 
ATOM     16  O   UNL A   1      32.495  24.549  21.542  1.00  0.00    -0.228 OA
ATOM     17  O   UNL A   1      31.257  26.721  21.321  1.00  0.00    -0.228 OA
BRANCH  15  18
ATOM     18  C   UNL A   1      30.896  25.263  23.450  1.00  0.00     0.140 C 
BRANCH  18  19
ATOM     19  C   UNL A   1      30.082  26.309  24.236  1.00  0.00    -0.002 C 
ATOM     20  C   UNL A   1      28.612  26.493  23.868  1.00  0.00     0.008 C 
ATOM     21  C   UNL A   1      30.135  25.921  25.722  1.00  0.00     0.008 C 
ENDBRANCH  18  19
ENDBRANCH  15  18
ENDBRANCH  14  15
ENDBRANCH   6  14
ENDBRANCH   3   5
ENDBRANCH   2   3
ENDBRANCH   1   2
BRANCH   1  22
ATOM     22  C   UNL A   1      37.137  22.551  24.597  1.00  0.00     0.275 C 
BRANCH  22  23
ATOM     23  O   UNL A   1      37.672  23.471  25.566  1.00  0.00    -0.458 OA
BRANCH  23  24
ATOM     24  C   UNL A   1      38.845  23.125  26.143  1.00  0.00     0.338 C 
ATOM     25  O   UNL A   1      39.441  22.068  26.061  1.00  0.00    -0.246 OA
BRANCH  24  26
ATOM     26  C   UNL A   1      39.395  24.317  26.805  1.00  0.00     0.060 A 
ATOM     27  C   UNL A   1      39.072  24.503  28.144  1.00  0.00     0.016 A 
ATOM     28  C   UNL A   1      40.148  25.274  26.124  1.00  0.00     0.016 A 
ATOM     29  C   UNL A   1      39.512  25.641  28.814  1.00  0.00     0.010 A 
ATOM     30  C   UNL A   1      40.577  26.429  26.802  1.00  0.00     0.010 A 
ATOM     31  C   UNL A   1      40.244  26.629  28.152  1.00  0.00    -0.014 A 
BRANCH  31  32
ATOM     32  C   UNL A   1      40.525  27.896  28.882  1.00  0.00     0.031 A 
ATOM     33  C   UNL A   1      41.919  28.176  29.375  1.00  0.00     0.074 A 
ATOM     34  C   UNL A   1      39.598  28.871  28.961  1.00  0.00     0.049 A 
ATOM     35  N   UNL A   1      42.374  29.217  30.027  1.00  0.00    -0.248 NA
ATOM     36  C   UNL A   1      42.940  27.162  29.070  1.00  0.00     0.031 C 
ATOM     37  C   UNL A   1      38.255  28.812  28.384  1.00  0.00     0.029 A 
ATOM     38  N   UNL A   1      39.665  30.124  29.523  1.00  0.00    -0.354 N 
ATOM     39  C   UNL A   1      43.725  28.970  30.236  1.00  0.00     0.074 A 
ATOM     40  C   UNL A   1      44.019  27.688  29.634  1.00  0.00     0.031 C 
ATOM     41  C   UNL A   1      37.639  29.987  28.592  1.00  0.00     0.029 A 
ATOM     42  C   UNL A   1      38.513  30.858  29.372  1.00  0.00     0.049 A 
ATOM     43  H   UNL A   1      40.463  30.463  29.989  1.00  0.00     0.167 HD
ATOM     44  C   UNL A   1      44.638  29.734  30.884  1.00  0.00     0.031 A 
ATOM     45  C   UNL A   1      38.185  32.082  29.832  1.00  0.00     0.031 A 
ATOM     46  C   UNL A   1      44.359  31.009  31.489  1.00  0.00     0.049 A 
ATOM     47  C   UNL A   1      39.179  32.855  30.656  1.00  0.00     0.074 A 
ATOM     48  C   UNL A   1      45.210  31.821  32.220  1.00  0.00     0.029 A 
ATOM     49  N   UNL A   1      43.138  31.661  31.432  1.00  0.00    -0.354 N 
ATOM     50  N   UNL A   1      40.430  32.572  30.926  1.00  0.00    -0.248 NA
ATOM     51  C   UNL A   1      38.704  34.111  31.258  1.00  0.00     0.031 C 
ATOM     52  C   UNL A   1      44.490  32.942  32.646  1.00  0.00     0.029 A 
ATOM     53  C   UNL A   1      43.207  32.853  32.135  1.00  0.00     0.049 A 
ATOM     54  H   UNL A   1      42.341  31.327  30.961  1.00  0.00     0.167 HD
ATOM     55  C   UNL A   1      40.893  33.617  31.717  1.00  0.00     0.074 A 
ATOM     56  C   UNL A   1      39.798  34.554  31.861  1.00  0.00     0.031 C 
ATOM     57  C   UNL A   1      42.115  33.779  32.280  1.00  0.00     0.031 A 
BRANCH  44  58
ATOM     58  C   UNL A   1      46.016  29.162  31.042  1.00  0.00    -0.014 A 
ATOM     59  C   UNL A   1      46.353  28.339  32.127  1.00  0.00     0.009 A 
ATOM     60  C   UNL A   1      46.987  29.441  30.068  1.00  0.00     0.009 A 
ATOM     61  C   UNL A   1      47.648  27.830  32.246  1.00  0.00     0.001 A 
ATOM     62  C   UNL A   1      48.274  28.913  30.179  1.00  0.00     0.001 A 
ATOM     63  C   UNL A   1      48.605  28.115  31.272  1.00  0.00     0.000 A 
ENDBRANCH  44  58
BRANCH  45  64
ATOM     64  C   UNL A   1      36.828  32.641  29.586  1.00  0.00    -0.014 A 
ATOM     65  C   UNL A   1      36.567  33.425  28.452  1.00  0.00     0.009 A 
ATOM     66  C   UNL A   1      35.798  32.433  30.518  1.00  0.00     0.009 A 
ATOM     67  C   UNL A   1      35.310  34.009  28.269  1.00  0.00     0.001 A 
ATOM     68  C   UNL A   1      34.534  32.993  30.318  1.00  0.00     0.001 A 
ATOM     69  C   UNL A   1      34.295  33.788  29.201  1.00  0.00     0.000 A 
ENDBRANCH  45  64
BRANCH  57  70
ATOM     70  C   UNL A   1      42.342  35.024  33.090  1.00  0.00    -0.014 A 
ATOM     71  C   UNL A   1      41.845  35.139  34.398  1.00  0.00     0.009 A 
ATOM     72  C   UNL A   1      43.094  36.080  32.552  1.00  0.00     0.009 A 
ATOM     73  C   UNL A   1      42.072  36.301  35.140  1.00  0.00     0.001 A 
ATOM     74  C   UNL A   1      43.341  37.230  33.306  1.00  0.00     0.001 A 
ATOM     75  C   UNL A   1      42.823  37.343  34.596  1.00  0.00     0.000 A 
ENDBRANCH  57  70
ENDBRANCH  31  32
ENDBRANCH  24  26
ENDBRANCH  23  24
ENDBRANCH  22  23
ENDBRANCH   1  22
TORSDOF 15
ENDMDL
