MODEL 1
REMARK VINA RESULT:     -10.5      0.000      0.000
REMARK SMILES CCCCCCNC(=O)Oc1cccc(-c2ccc([C@@H](C)C(=O)OCCOC(=O)c3ccc(-c4c5nc(c(-c6ccccc6)c6ccc([nH]6)c(-c6ccccc6)c6nc(c(-c7ccccc7)c7ccc4[nH]7)C=C6)C=C5)cc3)cc2[N+](=O)[O-])c1
REMARK SMILES IDX 20 1 21 2 19 3 16 4 17 5 79 6 18 7 78 8 15 9 11 10 12 11
REMARK SMILES IDX 83 12 13 13 14 14 10 15 8 16 7 17 9 19 6 20 5 21 4 22 3 23
REMARK SMILES IDX 2 24 1 25 80 26 81 27 82 28 22 29 23 30 24 31 25 32 26 33
REMARK SMILES IDX 27 34 28 35 29 36 30 37 31 38 77 39 32 40 76 41 33 42 34 43
REMARK SMILES IDX 35 44 70 45 36 46 75 47 69 48 71 49 37 50 74 51 68 52 67 53
REMARK SMILES IDX 38 55 60 56 45 57 59 58 46 59 49 60 58 61 72 62 47 63 48 64
REMARK SMILES IDX 57 66 73 67 50 68 39 69 40 70 44 71 41 72 43 73 42 74 61 75
REMARK SMILES IDX 62 76 66 77 63 78 65 79 64 80 51 81 52 82 56 83 53 84 55 85
REMARK SMILES IDX 54 86
REMARK H PARENT 7 18 71 54 49 65
REMARK Flexibility Score: inf
ROOT
ATOM      1  C   UNL A   1      34.158  34.766  28.969  1.00  0.00     0.126 C 
ATOM      2  C   UNL A   1      34.402  35.844  27.915  1.00  0.00     0.025 C 
ENDROOT
BRANCH   1   3
ATOM      3  C   UNL A   1      33.725  33.441  28.357  1.00  0.00    -0.027 A 
ATOM      4  C   UNL A   1      32.990  30.954  27.127  1.00  0.00     0.060 A 
ATOM      5  C   UNL A   1      32.145  32.079  27.093  1.00  0.00     0.016 A 
ATOM      6  C   UNL A   1      34.199  31.105  27.827  1.00  0.00     0.277 A 
ATOM      7  C   UNL A   1      32.505  33.297  27.687  1.00  0.00     0.006 A 
ATOM      8  C   UNL A   1      34.569  32.323  28.430  1.00  0.00     0.091 A 
BRANCH   4   9
ATOM      9  C   UNL A   1      32.590  29.741  26.389  1.00  0.00    -0.008 A 
ATOM     10  C   UNL A   1      32.293  28.468  24.350  1.00  0.00     0.133 A 
ATOM     11  C   UNL A   1      31.700  27.420  25.053  1.00  0.00     0.047 A 
ATOM     12  C   UNL A   1      32.744  29.620  24.999  1.00  0.00     0.056 A 
ATOM     13  C   UNL A   1      31.565  27.517  26.432  1.00  0.00     0.004 A 
ATOM     14  C   UNL A   1      31.999  28.669  27.090  1.00  0.00     0.009 A 
BRANCH  10  15
ATOM     15  O   UNL A   1      32.262  28.366  22.948  1.00  0.00    -0.410 OA
BRANCH  15  16
ATOM     16  C   UNL A   1      31.181  27.765  22.323  1.00  0.00     0.412 C 
ATOM     17  N   UNL A   1      31.538  26.666  21.589  1.00  0.00    -0.321 N 
ATOM     18  H   UNL A   1      30.814  26.201  21.111  1.00  0.00     0.167 HD
ATOM     19  O   UNL A   1      30.018  28.143  22.376  1.00  0.00    -0.224 OA
BRANCH  17  20
ATOM     20  C   UNL A   1      32.872  26.116  21.443  1.00  0.00     0.119 C 
BRANCH  20  21
ATOM     21  C   UNL A   1      33.036  24.795  22.193  1.00  0.00     0.021 C 
BRANCH  21  22
ATOM     22  C   UNL A   1      33.958  24.859  23.417  1.00  0.00     0.002 C 
BRANCH  22  23
ATOM     23  C   UNL A   1      34.470  23.508  23.930  1.00  0.00    -0.000 C 
BRANCH  23  24
ATOM     24  C   UNL A   1      33.813  23.001  25.216  1.00  0.00    -0.003 C 
ATOM     25  C   UNL A   1      33.865  24.007  26.356  1.00  0.00     0.004 C 
ENDBRANCH  23  24
ENDBRANCH  22  23
ENDBRANCH  21  22
ENDBRANCH  20  21
ENDBRANCH  17  20
ENDBRANCH  15  16
ENDBRANCH  10  15
ENDBRANCH   4   9
BRANCH   6  26
ATOM     26  N   UNL A   1      35.170  30.024  27.911  1.00  0.00     0.063 N 
ATOM     27  O   UNL A   1      35.495  29.476  26.847  1.00  0.00    -0.258 OA
ATOM     28  O   UNL A   1      35.555  29.679  29.037  1.00  0.00    -0.258 OA
ENDBRANCH   6  26
ENDBRANCH   1   3
BRANCH   1  29
ATOM     29  C   UNL A   1      33.275  35.313  30.085  1.00  0.00     0.313 C 
ATOM     30  O   UNL A   1      32.592  36.322  29.936  1.00  0.00    -0.252 OA
BRANCH  29  31
ATOM     31  O   UNL A   1      33.293  34.562  31.215  1.00  0.00    -0.462 OA
BRANCH  31  32
ATOM     32  C   UNL A   1      33.607  35.243  32.445  1.00  0.00     0.274 C 
BRANCH  32  33
ATOM     33  C   UNL A   1      34.930  34.751  33.039  1.00  0.00     0.275 C 
BRANCH  33  34
ATOM     34  O   UNL A   1      35.278  33.443  32.546  1.00  0.00    -0.458 OA
BRANCH  34  35
ATOM     35  C   UNL A   1      36.220  32.798  33.271  1.00  0.00     0.338 C 
ATOM     36  O   UNL A   1      36.271  32.683  34.484  1.00  0.00    -0.246 OA
BRANCH  35  37
ATOM     37  C   UNL A   1      37.146  32.088  32.377  1.00  0.00     0.060 A 
ATOM     38  C   UNL A   1      38.156  31.329  32.971  1.00  0.00     0.016 A 
ATOM     39  C   UNL A   1      37.108  32.254  30.993  1.00  0.00     0.016 A 
ATOM     40  C   UNL A   1      39.160  30.765  32.195  1.00  0.00     0.010 A 
ATOM     41  C   UNL A   1      38.112  31.670  30.208  1.00  0.00     0.010 A 
ATOM     42  C   UNL A   1      39.157  30.945  30.808  1.00  0.00    -0.014 A 
BRANCH  42  43
ATOM     43  C   UNL A   1      40.300  30.428  30.018  1.00  0.00     0.031 A 
ATOM     44  C   UNL A   1      41.526  31.277  29.828  1.00  0.00     0.074 A 
ATOM     45  C   UNL A   1      40.264  29.176  29.523  1.00  0.00     0.049 A 
ATOM     46  N   UNL A   1      42.621  31.008  29.164  1.00  0.00    -0.248 NA
ATOM     47  C   UNL A   1      41.518  32.604  30.466  1.00  0.00     0.031 C 
ATOM     48  C   UNL A   1      39.150  28.238  29.674  1.00  0.00     0.029 A 
ATOM     49  N   UNL A   1      41.197  28.474  28.803  1.00  0.00    -0.354 N 
ATOM     50  C   UNL A   1      43.419  32.139  29.278  1.00  0.00     0.074 A 
ATOM     51  C   UNL A   1      42.680  33.103  30.064  1.00  0.00     0.031 C 
ATOM     52  C   UNL A   1      39.470  27.080  29.072  1.00  0.00     0.029 A 
ATOM     53  C   UNL A   1      40.790  27.207  28.463  1.00  0.00     0.049 A 
ATOM     54  H   UNL A   1      42.075  28.843  28.554  1.00  0.00     0.167 HD
ATOM     55  C   UNL A   1      44.658  32.355  28.775  1.00  0.00     0.031 A 
ATOM     56  C   UNL A   1      41.403  26.263  27.725  1.00  0.00     0.031 A 
ATOM     57  C   UNL A   1      45.409  31.387  28.022  1.00  0.00     0.049 A 
ATOM     58  C   UNL A   1      42.768  26.540  27.157  1.00  0.00     0.074 A 
ATOM     59  C   UNL A   1      46.690  31.503  27.509  1.00  0.00     0.029 A 
ATOM     60  N   UNL A   1      44.952  30.126  27.679  1.00  0.00    -0.354 N 
ATOM     61  N   UNL A   1      43.517  27.607  27.294  1.00  0.00    -0.248 NA
ATOM     62  C   UNL A   1      43.372  25.480  26.336  1.00  0.00     0.031 C 
ATOM     63  C   UNL A   1      46.990  30.326  26.814  1.00  0.00     0.029 A 
ATOM     64  C   UNL A   1      45.913  29.463  26.935  1.00  0.00     0.049 A 
ATOM     65  H   UNL A   1      44.074  29.756  27.926  1.00  0.00     0.167 HD
ATOM     66  C   UNL A   1      44.685  27.340  26.592  1.00  0.00     0.074 A 
ATOM     67  C   UNL A   1      44.554  26.003  26.050  1.00  0.00     0.031 C 
ATOM     68  C   UNL A   1      45.767  28.134  26.406  1.00  0.00     0.031 A 
BRANCH  55  69
ATOM     69  C   UNL A   1      45.272  33.707  28.991  1.00  0.00    -0.014 A 
ATOM     70  C   UNL A   1      46.097  33.970  30.095  1.00  0.00     0.009 A 
ATOM     71  C   UNL A   1      45.066  34.717  28.038  1.00  0.00     0.009 A 
ATOM     72  C   UNL A   1      46.688  35.227  30.249  1.00  0.00     0.001 A 
ATOM     73  C   UNL A   1      45.676  35.965  28.183  1.00  0.00     0.001 A 
ATOM     74  C   UNL A   1      46.481  36.220  29.291  1.00  0.00     0.000 A 
ENDBRANCH  55  69
BRANCH  56  75
ATOM     75  C   UNL A   1      40.719  24.974  27.442  1.00  0.00    -0.014 A 
ATOM     76  C   UNL A   1      41.185  23.774  27.998  1.00  0.00     0.009 A 
ATOM     77  C   UNL A   1      39.608  24.939  26.584  1.00  0.00     0.009 A 
ATOM     78  C   UNL A   1      40.572  22.561  27.676  1.00  0.00     0.001 A 
ATOM     79  C   UNL A   1      38.980  23.729  26.287  1.00  0.00     0.001 A 
ATOM     80  C   UNL A   1      39.469  22.540  26.824  1.00  0.00     0.000 A 
ENDBRANCH  56  75
BRANCH  68  81
ATOM     81  C   UNL A   1      46.903  27.566  25.603  1.00  0.00    -0.014 A 
ATOM     82  C   UNL A   1      47.880  26.758  26.203  1.00  0.00     0.009 A 
ATOM     83  C   UNL A   1      46.974  27.816  24.224  1.00  0.00     0.009 A 
ATOM     84  C   UNL A   1      48.926  26.235  25.441  1.00  0.00     0.001 A 
ATOM     85  C   UNL A   1      48.007  27.271  23.460  1.00  0.00     0.001 A 
ATOM     86  C   UNL A   1      48.987  26.489  24.070  1.00  0.00     0.000 A 
ENDBRANCH  68  81
ENDBRANCH  42  43
ENDBRANCH  35  37
ENDBRANCH  34  35
ENDBRANCH  33  34
ENDBRANCH  32  33
ENDBRANCH  31  32
ENDBRANCH  29  31
ENDBRANCH   1  29
TORSDOF 21
ENDMDL
MODEL 2
REMARK VINA RESULT:     -10.1      3.987      6.659
REMARK SMILES CCCCCCNC(=O)Oc1cccc(-c2ccc([C@@H](C)C(=O)OCCOC(=O)c3ccc(-c4c5nc(c(-c6ccccc6)c6ccc([nH]6)c(-c6ccccc6)c6nc(c(-c7ccccc7)c7ccc4[nH]7)C=C6)C=C5)cc3)cc2[N+](=O)[O-])c1
REMARK SMILES IDX 20 1 21 2 19 3 16 4 17 5 79 6 18 7 78 8 15 9 11 10 12 11
REMARK SMILES IDX 83 12 13 13 14 14 10 15 8 16 7 17 9 19 6 20 5 21 4 22 3 23
REMARK SMILES IDX 2 24 1 25 80 26 81 27 82 28 22 29 23 30 24 31 25 32 26 33
REMARK SMILES IDX 27 34 28 35 29 36 30 37 31 38 77 39 32 40 76 41 33 42 34 43
REMARK SMILES IDX 35 44 70 45 36 46 75 47 69 48 71 49 37 50 74 51 68 52 67 53
REMARK SMILES IDX 38 55 60 56 45 57 59 58 46 59 49 60 58 61 72 62 47 63 48 64
REMARK SMILES IDX 57 66 73 67 50 68 39 69 40 70 44 71 41 72 43 73 42 74 61 75
REMARK SMILES IDX 62 76 66 77 63 78 65 79 64 80 51 81 52 82 56 83 53 84 55 85
REMARK SMILES IDX 54 86
REMARK H PARENT 7 18 71 54 49 65
REMARK Flexibility Score: inf
ROOT
ATOM      1  C   UNL A   1      33.600  28.654  26.916  1.00  0.00     0.126 C 
ATOM      2  C   UNL A   1      35.102  28.896  27.054  1.00  0.00     0.025 C 
ENDROOT
BRANCH   1   3
ATOM      3  C   UNL A   1      33.286  27.364  26.171  1.00  0.00    -0.027 A 
ATOM      4  C   UNL A   1      32.667  24.885  24.864  1.00  0.00     0.060 A 
ATOM      5  C   UNL A   1      33.973  25.409  24.884  1.00  0.00     0.016 A 
ATOM      6  C   UNL A   1      31.676  25.660  25.488  1.00  0.00     0.277 A 
ATOM      7  C   UNL A   1      34.279  26.617  25.528  1.00  0.00     0.006 A 
ATOM      8  C   UNL A   1      31.971  26.875  26.135  1.00  0.00     0.091 A 
BRANCH   4   9
ATOM      9  C   UNL A   1      32.443  23.558  24.259  1.00  0.00    -0.008 A 
ATOM     10  C   UNL A   1      32.128  21.160  24.397  1.00  0.00     0.133 A 
ATOM     11  C   UNL A   1      32.122  21.049  23.008  1.00  0.00     0.047 A 
ATOM     12  C   UNL A   1      32.279  22.396  25.030  1.00  0.00     0.056 A 
ATOM     13  C   UNL A   1      32.258  22.194  22.233  1.00  0.00     0.004 A 
ATOM     14  C   UNL A   1      32.425  23.433  22.854  1.00  0.00     0.009 A 
BRANCH  10  15
ATOM     15  O   UNL A   1      32.134  19.950  25.113  1.00  0.00    -0.410 OA
BRANCH  15  16
ATOM     16  C   UNL A   1      32.984  18.926  24.730  1.00  0.00     0.412 C 
ATOM     17  N   UNL A   1      34.295  19.188  25.027  1.00  0.00    -0.321 N 
ATOM     18  H   UNL A   1      34.951  18.501  24.769  1.00  0.00     0.167 HD
ATOM     19  O   UNL A   1      32.656  17.888  24.170  1.00  0.00    -0.224 OA
BRANCH  17  20
ATOM     20  C   UNL A   1      34.816  20.372  25.683  1.00  0.00     0.119 C 
BRANCH  20  21
ATOM     21  C   UNL A   1      35.838  21.108  24.817  1.00  0.00     0.021 C 
BRANCH  21  22
ATOM     22  C   UNL A   1      36.148  22.542  25.263  1.00  0.00     0.002 C 
BRANCH  22  23
ATOM     23  C   UNL A   1      37.627  22.848  25.524  1.00  0.00    -0.000 C 
BRANCH  23  24
ATOM     24  C   UNL A   1      38.537  21.625  25.667  1.00  0.00    -0.003 C 
ATOM     25  C   UNL A   1      39.821  21.915  26.430  1.00  0.00     0.004 C 
ENDBRANCH  23  24
ENDBRANCH  22  23
ENDBRANCH  21  22
ENDBRANCH  20  21
ENDBRANCH  17  20
ENDBRANCH  15  16
ENDBRANCH  10  15
ENDBRANCH   4   9
BRANCH   6  26
ATOM     26  N   UNL A   1      30.292  25.212  25.557  1.00  0.00     0.063 N 
ATOM     27  O   UNL A   1      29.543  25.556  24.631  1.00  0.00    -0.258 OA
ATOM     28  O   UNL A   1      29.940  24.578  26.561  1.00  0.00    -0.258 OA
ENDBRANCH   6  26
ENDBRANCH   1   3
BRANCH   1  29
ATOM     29  C   UNL A   1      32.911  29.913  26.404  1.00  0.00     0.313 C 
ATOM     30  O   UNL A   1      32.670  30.083  25.213  1.00  0.00    -0.252 OA
BRANCH  29  31
ATOM     31  O   UNL A   1      32.563  30.784  27.387  1.00  0.00    -0.462 OA
BRANCH  31  32
ATOM     32  C   UNL A   1      33.423  31.924  27.580  1.00  0.00     0.274 C 
BRANCH  32  33
ATOM     33  C   UNL A   1      32.627  33.232  27.601  1.00  0.00     0.275 C 
BRANCH  33  34
ATOM     34  O   UNL A   1      33.477  34.366  27.859  1.00  0.00    -0.458 OA
BRANCH  34  35
ATOM     35  C   UNL A   1      33.522  34.754  29.154  1.00  0.00     0.338 C 
ATOM     36  O   UNL A   1      32.689  35.404  29.762  1.00  0.00    -0.246 OA
BRANCH  35  37
ATOM     37  C   UNL A   1      34.685  34.149  29.821  1.00  0.00     0.060 A 
ATOM     38  C   UNL A   1      35.944  34.415  29.281  1.00  0.00     0.016 A 
ATOM     39  C   UNL A   1      34.543  33.248  30.875  1.00  0.00     0.016 A 
ATOM     40  C   UNL A   1      37.067  33.752  29.759  1.00  0.00     0.010 A 
ATOM     41  C   UNL A   1      35.679  32.592  31.369  1.00  0.00     0.010 A 
ATOM     42  C   UNL A   1      36.943  32.821  30.795  1.00  0.00    -0.014 A 
BRANCH  42  43
ATOM     43  C   UNL A   1      38.137  32.047  31.208  1.00  0.00     0.031 A 
ATOM     44  C   UNL A   1      38.812  32.351  32.517  1.00  0.00     0.074 A 
ATOM     45  C   UNL A   1      38.579  31.032  30.442  1.00  0.00     0.049 A 
ATOM     46  N   UNL A   1      39.871  31.795  33.049  1.00  0.00    -0.248 NA
ATOM     47  C   UNL A   1      38.221  33.424  33.334  1.00  0.00     0.031 C 
ATOM     48  C   UNL A   1      37.987  30.610  29.172  1.00  0.00     0.029 A 
ATOM     49  N   UNL A   1      39.625  30.163  30.628  1.00  0.00    -0.354 N 
ATOM     50  C   UNL A   1      40.091  32.467  34.244  1.00  0.00     0.074 A 
ATOM     51  C   UNL A   1      39.064  33.480  34.357  1.00  0.00     0.031 C 
ATOM     52  C   UNL A   1      38.673  29.557  28.698  1.00  0.00     0.029 A 
ATOM     53  C   UNL A   1      39.774  29.255  29.609  1.00  0.00     0.049 A 
ATOM     54  H   UNL A   1      40.212  30.188  31.418  1.00  0.00     0.167 HD
ATOM     55  C   UNL A   1      41.059  32.257  35.167  1.00  0.00     0.031 A 
ATOM     56  C   UNL A   1      40.704  28.301  29.419  1.00  0.00     0.031 A 
ATOM     57  C   UNL A   1      42.061  31.229  35.074  1.00  0.00     0.049 A 
ATOM     58  C   UNL A   1      41.783  28.108  30.448  1.00  0.00     0.074 A 
ATOM     59  C   UNL A   1      43.057  30.914  35.983  1.00  0.00     0.029 A 
ATOM     60  N   UNL A   1      42.192  30.346  34.015  1.00  0.00    -0.354 N 
ATOM     61  N   UNL A   1      41.963  28.737  31.584  1.00  0.00    -0.248 NA
ATOM     62  C   UNL A   1      42.786  27.069  30.169  1.00  0.00     0.031 C 
ATOM     63  C   UNL A   1      43.820  29.869  35.450  1.00  0.00     0.029 A 
ATOM     64  C   UNL A   1      43.270  29.505  34.233  1.00  0.00     0.049 A 
ATOM     65  H   UNL A   1      41.605  30.321  33.224  1.00  0.00     0.167 HD
ATOM     66  C   UNL A   1      43.086  28.161  32.161  1.00  0.00     0.074 A 
ATOM     67  C   UNL A   1      43.533  27.117  31.262  1.00  0.00     0.031 C 
ATOM     68  C   UNL A   1      43.698  28.472  33.329  1.00  0.00     0.031 A 
BRANCH  55  69
ATOM     69  C   UNL A   1      41.109  33.182  36.348  1.00  0.00    -0.014 A 
ATOM     70  C   UNL A   1      41.868  34.362  36.324  1.00  0.00     0.009 A 
ATOM     71  C   UNL A   1      40.333  32.892  37.482  1.00  0.00     0.009 A 
ATOM     72  C   UNL A   1      41.863  35.223  37.423  1.00  0.00     0.001 A 
ATOM     73  C   UNL A   1      40.313  33.767  38.570  1.00  0.00     0.001 A 
ATOM     74  C   UNL A   1      41.083  34.928  38.542  1.00  0.00     0.000 A 
ENDBRANCH  55  69
BRANCH  56  75
ATOM     75  C   UNL A   1      40.685  27.474  28.184  1.00  0.00    -0.014 A 
ATOM     76  C   UNL A   1      39.987  26.258  28.143  1.00  0.00     0.009 A 
ATOM     77  C   UNL A   1      41.397  27.888  27.047  1.00  0.00     0.009 A 
ATOM     78  C   UNL A   1      40.028  25.459  26.997  1.00  0.00     0.001 A 
ATOM     79  C   UNL A   1      41.413  27.101  25.895  1.00  0.00     0.001 A 
ATOM     80  C   UNL A   1      40.738  25.882  25.875  1.00  0.00     0.000 A 
ENDBRANCH  56  75
BRANCH  68  81
ATOM     81  C   UNL A   1      44.902  27.658  33.709  1.00  0.00    -0.014 A 
ATOM     82  C   UNL A   1      46.199  28.101  33.407  1.00  0.00     0.009 A 
ATOM     83  C   UNL A   1      44.736  26.453  34.407  1.00  0.00     0.009 A 
ATOM     84  C   UNL A   1      47.307  27.334  33.771  1.00  0.00     0.001 A 
ATOM     85  C   UNL A   1      45.847  25.701  34.792  1.00  0.00     0.001 A 
ATOM     86  C   UNL A   1      47.131  26.137  34.466  1.00  0.00     0.000 A 
ENDBRANCH  68  81
ENDBRANCH  42  43
ENDBRANCH  35  37
ENDBRANCH  34  35
ENDBRANCH  33  34
ENDBRANCH  32  33
ENDBRANCH  31  32
ENDBRANCH  29  31
ENDBRANCH   1  29
TORSDOF 21
ENDMDL
MODEL 3
REMARK VINA RESULT:     -10.1      4.708     10.627
REMARK SMILES CCCCCCNC(=O)Oc1cccc(-c2ccc([C@@H](C)C(=O)OCCOC(=O)c3ccc(-c4c5nc(c(-c6ccccc6)c6ccc([nH]6)c(-c6ccccc6)c6nc(c(-c7ccccc7)c7ccc4[nH]7)C=C6)C=C5)cc3)cc2[N+](=O)[O-])c1
REMARK SMILES IDX 20 1 21 2 19 3 16 4 17 5 79 6 18 7 78 8 15 9 11 10 12 11
REMARK SMILES IDX 83 12 13 13 14 14 10 15 8 16 7 17 9 19 6 20 5 21 4 22 3 23
REMARK SMILES IDX 2 24 1 25 80 26 81 27 82 28 22 29 23 30 24 31 25 32 26 33
REMARK SMILES IDX 27 34 28 35 29 36 30 37 31 38 77 39 32 40 76 41 33 42 34 43
REMARK SMILES IDX 35 44 70 45 36 46 75 47 69 48 71 49 37 50 74 51 68 52 67 53
REMARK SMILES IDX 38 55 60 56 45 57 59 58 46 59 49 60 58 61 72 62 47 63 48 64
REMARK SMILES IDX 57 66 73 67 50 68 39 69 40 70 44 71 41 72 43 73 42 74 61 75
REMARK SMILES IDX 62 76 66 77 63 78 65 79 64 80 51 81 52 82 56 83 53 84 55 85
REMARK SMILES IDX 54 86
REMARK H PARENT 7 18 71 54 49 65
REMARK Flexibility Score: inf
ROOT
ATOM      1  C   UNL A   1      41.882  19.785  26.902  1.00  0.00     0.126 C 
ATOM      2  C   UNL A   1      41.537  18.853  28.062  1.00  0.00     0.025 C 
ENDROOT
BRANCH   1   3
ATOM      3  C   UNL A   1      40.668  20.541  26.382  1.00  0.00    -0.027 A 
ATOM      4  C   UNL A   1      38.344  21.981  25.507  1.00  0.00     0.060 A 
ATOM      5  C   UNL A   1      38.521  20.613  25.226  1.00  0.00     0.016 A 
ATOM      6  C   UNL A   1      39.385  22.611  26.209  1.00  0.00     0.277 A 
ATOM      7  C   UNL A   1      39.652  19.906  25.659  1.00  0.00     0.006 A 
ATOM      8  C   UNL A   1      40.526  21.911  26.646  1.00  0.00     0.091 A 
BRANCH   4   9
ATOM      9  C   UNL A   1      37.080  22.630  25.112  1.00  0.00    -0.008 A 
ATOM     10  C   UNL A   1      34.969  23.708  25.616  1.00  0.00     0.133 A 
ATOM     11  C   UNL A   1      34.638  23.762  24.263  1.00  0.00     0.047 A 
ATOM     12  C   UNL A   1      36.177  23.156  26.050  1.00  0.00     0.056 A 
ATOM     13  C   UNL A   1      35.533  23.268  23.323  1.00  0.00     0.004 A 
ATOM     14  C   UNL A   1      36.737  22.702  23.746  1.00  0.00     0.009 A 
BRANCH  10  15
ATOM     15  O   UNL A   1      33.958  24.089  26.515  1.00  0.00    -0.410 OA
BRANCH  15  16
ATOM     16  C   UNL A   1      33.150  23.125  27.094  1.00  0.00     0.412 C 
ATOM     17  N   UNL A   1      31.886  23.108  26.569  1.00  0.00    -0.321 N 
ATOM     18  H   UNL A   1      31.259  22.450  26.948  1.00  0.00     0.167 HD
ATOM     19  O   UNL A   1      33.475  22.356  27.990  1.00  0.00    -0.224 OA
BRANCH  17  20
ATOM     20  C   UNL A   1      31.374  23.960  25.513  1.00  0.00     0.119 C 
BRANCH  20  21
ATOM     21  C   UNL A   1      30.280  24.902  26.011  1.00  0.00     0.021 C 
BRANCH  21  22
ATOM     22  C   UNL A   1      30.667  26.386  26.032  1.00  0.00     0.002 C 
BRANCH  22  23
ATOM     23  C   UNL A   1      31.922  26.731  26.842  1.00  0.00    -0.000 C 
BRANCH  23  24
ATOM     24  C   UNL A   1      32.921  27.657  26.145  1.00  0.00    -0.003 C 
ATOM     25  C   UNL A   1      33.123  27.326  24.673  1.00  0.00     0.004 C 
ENDBRANCH  23  24
ENDBRANCH  22  23
ENDBRANCH  21  22
ENDBRANCH  20  21
ENDBRANCH  17  20
ENDBRANCH  15  16
ENDBRANCH  10  15
ENDBRANCH   4   9
BRANCH   6  26
ATOM     26  N   UNL A   1      39.308  24.016  26.583  1.00  0.00     0.063 N 
ATOM     27  O   UNL A   1      39.775  24.838  25.781  1.00  0.00    -0.258 OA
ATOM     28  O   UNL A   1      38.843  24.293  27.698  1.00  0.00    -0.258 OA
ENDBRANCH   6  26
ENDBRANCH   1   3
BRANCH   1  29
ATOM     29  C   UNL A   1      42.710  19.041  25.861  1.00  0.00     0.313 C 
ATOM     30  O   UNL A   1      42.654  17.822  25.737  1.00  0.00    -0.252 OA
BRANCH  29  31
ATOM     31  O   UNL A   1      43.464  19.856  25.078  1.00  0.00    -0.462 OA
BRANCH  31  32
ATOM     32  C   UNL A   1      44.406  20.715  25.749  1.00  0.00     0.274 C 
BRANCH  32  33
ATOM     33  C   UNL A   1      45.131  21.634  24.763  1.00  0.00     0.275 C 
BRANCH  33  34
ATOM     34  O   UNL A   1      45.052  23.014  25.169  1.00  0.00    -0.458 OA
BRANCH  34  35
ATOM     35  C   UNL A   1      43.819  23.561  25.076  1.00  0.00     0.338 C 
ATOM     36  O   UNL A   1      42.957  23.309  24.251  1.00  0.00    -0.246 OA
BRANCH  35  37
ATOM     37  C   UNL A   1      43.567  24.437  26.230  1.00  0.00     0.060 A 
ATOM     38  C   UNL A   1      42.870  23.891  27.309  1.00  0.00     0.016 A 
ATOM     39  C   UNL A   1      43.896  25.792  26.214  1.00  0.00     0.016 A 
ATOM     40  C   UNL A   1      42.457  24.699  28.360  1.00  0.00     0.010 A 
ATOM     41  C   UNL A   1      43.495  26.604  27.283  1.00  0.00     0.010 A 
ATOM     42  C   UNL A   1      42.750  26.066  28.349  1.00  0.00    -0.014 A 
BRANCH  42  43
ATOM     43  C   UNL A   1      42.201  26.924  29.426  1.00  0.00     0.031 A 
ATOM     44  C   UNL A   1      42.921  27.029  30.741  1.00  0.00     0.074 A 
ATOM     45  C   UNL A   1      41.093  27.657  29.203  1.00  0.00     0.049 A 
ATOM     46  N   UNL A   1      42.597  27.716  31.807  1.00  0.00    -0.248 NA
ATOM     47  C   UNL A   1      44.168  26.258  30.877  1.00  0.00     0.031 C 
ATOM     48  C   UNL A   1      40.327  27.675  27.957  1.00  0.00     0.029 A 
ATOM     49  N   UNL A   1      40.427  28.536  30.019  1.00  0.00    -0.354 N 
ATOM     50  C   UNL A   1      43.579  27.437  32.748  1.00  0.00     0.074 A 
ATOM     51  C   UNL A   1      44.506  26.511  32.135  1.00  0.00     0.031 C 
ATOM     52  C   UNL A   1      39.300  28.531  28.088  1.00  0.00     0.029 A 
ATOM     53  C   UNL A   1      39.314  29.091  29.436  1.00  0.00     0.049 A 
ATOM     54  H   UNL A   1      40.719  28.750  30.934  1.00  0.00     0.167 HD
ATOM     55  C   UNL A   1      43.701  27.914  34.011  1.00  0.00     0.031 A 
ATOM     56  C   UNL A   1      38.397  29.938  29.939  1.00  0.00     0.031 A 
ATOM     57  C   UNL A   1      42.801  28.860  34.612  1.00  0.00     0.049 A 
ATOM     58  C   UNL A   1      38.543  30.430  31.352  1.00  0.00     0.074 A 
ATOM     59  C   UNL A   1      42.869  29.432  35.871  1.00  0.00     0.029 A 
ATOM     60  N   UNL A   1      41.673  29.379  33.997  1.00  0.00    -0.354 N 
ATOM     61  N   UNL A   1      39.491  30.175  32.221  1.00  0.00    -0.248 NA
ATOM     62  C   UNL A   1      37.494  31.331  31.852  1.00  0.00     0.031 C 
ATOM     63  C   UNL A   1      41.755  30.263  36.035  1.00  0.00     0.029 A 
ATOM     64  C   UNL A   1      41.020  30.242  34.861  1.00  0.00     0.049 A 
ATOM     65  H   UNL A   1      41.380  29.165  33.082  1.00  0.00     0.167 HD
ATOM     66  C   UNL A   1      39.161  30.895  33.362  1.00  0.00     0.074 A 
ATOM     67  C   UNL A   1      37.939  31.614  33.067  1.00  0.00     0.031 C 
ATOM     68  C   UNL A   1      39.808  30.950  34.551  1.00  0.00     0.031 A 
BRANCH  55  69
ATOM     69  C   UNL A   1      44.832  27.391  34.847  1.00  0.00    -0.014 A 
ATOM     70  C   UNL A   1      46.015  28.125  35.022  1.00  0.00     0.009 A 
ATOM     71  C   UNL A   1      44.683  26.167  35.519  1.00  0.00     0.009 A 
ATOM     72  C   UNL A   1      47.035  27.632  35.839  1.00  0.00     0.001 A 
ATOM     73  C   UNL A   1      45.695  25.688  36.352  1.00  0.00     0.001 A 
ATOM     74  C   UNL A   1      46.873  26.417  36.506  1.00  0.00     0.000 A 
ENDBRANCH  55  69
BRANCH  56  75
ATOM     75  C   UNL A   1      37.230  30.352  29.115  1.00  0.00    -0.014 A 
ATOM     76  C   UNL A   1      37.065  31.687  28.721  1.00  0.00     0.009 A 
ATOM     77  C   UNL A   1      36.258  29.408  28.747  1.00  0.00     0.009 A 
ATOM     78  C   UNL A   1      35.932  32.075  28.000  1.00  0.00     0.001 A 
ATOM     79  C   UNL A   1      35.142  29.794  28.003  1.00  0.00     0.001 A 
ATOM     80  C   UNL A   1      34.975  31.129  27.640  1.00  0.00     0.000 A 
ENDBRANCH  56  75
BRANCH  68  81
ATOM     81  C   UNL A   1      39.218  31.836  35.611  1.00  0.00    -0.014 A 
ATOM     82  C   UNL A   1      38.292  31.335  36.538  1.00  0.00     0.009 A 
ATOM     83  C   UNL A   1      39.621  33.176  35.702  1.00  0.00     0.009 A 
ATOM     84  C   UNL A   1      37.756  32.171  37.520  1.00  0.00     0.001 A 
ATOM     85  C   UNL A   1      39.102  34.003  36.700  1.00  0.00     0.001 A 
ATOM     86  C   UNL A   1      38.164  33.503  37.602  1.00  0.00     0.000 A 
ENDBRANCH  68  81
ENDBRANCH  42  43
ENDBRANCH  35  37
ENDBRANCH  34  35
ENDBRANCH  33  34
ENDBRANCH  32  33
ENDBRANCH  31  32
ENDBRANCH  29  31
ENDBRANCH   1  29
TORSDOF 21
ENDMDL
