MODEL 1
REMARK VINA RESULT:     -11.6      0.000      0.000
REMARK SMILES CC(C)[N@@H+](C)Cc1cc2c(cc1Cl)C=C(C(=O)OCCOC(=O)c1ccc(-c3c4nc(c(-c5ccccc5)c5ccc([nH]5)c(-c5ccccc5)c5nc(c(-c6ccccc6)c6ccc3[nH]6)C=C5)C=C4)cc1)[C@@H](C(F)(F)F)O2
REMARK SMILES IDX 19 1 18 2 16 3 17 4 15 5 7 6 8 7 12 8 9 9 11 10 13 11 10 12
REMARK SMILES IDX 77 13 14 14 72 15 6 16 4 17 5 18 2 20 1 21 3 22 73 23 74 24
REMARK SMILES IDX 75 25 76 26 20 27 21 28 22 29 23 30 24 31 25 32 71 33 26 34
REMARK SMILES IDX 70 35 27 36 28 37 29 38 64 39 30 40 69 41 63 42 65 43 31 44
REMARK SMILES IDX 68 45 62 46 61 47 32 49 54 50 39 51 53 52 40 53 43 54 52 55
REMARK SMILES IDX 66 56 41 57 42 58 51 60 67 61 44 62 33 63 34 64 38 65 35 66
REMARK SMILES IDX 37 67 36 68 55 69 56 70 60 71 57 72 59 73 58 74 45 75 46 76
REMARK SMILES IDX 50 77 47 78 49 79 48 80
REMARK H PARENT 4 19 65 48 43 59
REMARK Flexibility Score: inf
ROOT
ATOM      1  C   UNL A   1      31.948  29.135  24.396  1.00  0.00     0.275 C 
ENDROOT
BRANCH   1   2
ATOM      2  O   UNL A   1      32.716  27.976  24.785  1.00  0.00    -0.459 OA
BRANCH   2   3
ATOM      3  C   UNL A   1      33.157  27.203  23.767  1.00  0.00     0.338 C 
ATOM      4  O   UNL A   1      33.507  27.589  22.660  1.00  0.00    -0.246 OA
BRANCH   3   5
ATOM      5  C   UNL A   1      33.203  25.784  24.162  1.00  0.00     0.087 C 
ATOM      6  C   UNL A   1      34.635  20.993  24.746  1.00  0.00     0.029 A 
ATOM      7  C   UNL A   1      33.405  21.672  24.640  1.00  0.00     0.058 A 
ATOM      8  C   UNL A   1      35.808  21.758  24.635  1.00  0.00     0.050 A 
ATOM      9  C   UNL A   1      33.329  23.053  24.554  1.00  0.00     0.128 A 
ATOM     10  C   UNL A   1      35.738  23.143  24.489  1.00  0.00     0.033 A 
ATOM     11  Cl  UNL A   1      37.386  21.051  24.644  1.00  0.00    -0.084 Cl
ATOM     12  C   UNL A   1      34.496  23.782  24.449  1.00  0.00     0.019 A 
ATOM     13  O   UNL A   1      32.082  23.602  24.613  1.00  0.00    -0.475 OA
ATOM     14  C   UNL A   1      34.406  25.201  24.221  1.00  0.00     0.027 C 
ATOM     15  C   UNL A   1      31.921  25.023  24.337  1.00  0.00     0.316 C 
BRANCH   6  16
ATOM     16  C   UNL A   1      34.694  19.492  24.938  1.00  0.00     0.300 C 
BRANCH  16  17
ATOM     17  N   UNL A   1      33.526  18.689  24.566  1.00  0.00    -0.332 N 
ATOM     18  C   UNL A   1      32.740  18.157  25.662  1.00  0.00     0.333 C 
ATOM     19  H   UNL A   1      32.969  19.467  24.212  1.00  0.00     0.348 HD
BRANCH  17  20
ATOM     20  C   UNL A   1      33.498  17.942  23.304  1.00  0.00     0.177 C 
ATOM     21  C   UNL A   1      33.707  16.445  23.560  1.00  0.00     0.075 C 
ATOM     22  C   UNL A   1      32.279  18.122  22.392  1.00  0.00     0.075 C 
ENDBRANCH  17  20
ENDBRANCH  16  17
ENDBRANCH   6  16
BRANCH  15  23
ATOM     23  C   UNL A   1      31.008  25.143  23.108  1.00  0.00     0.430 C 
ATOM     24  F   UNL A   1      30.174  24.080  23.013  1.00  0.00    -0.167 F 
ATOM     25  F   UNL A   1      30.226  26.246  23.163  1.00  0.00    -0.167 F 
ATOM     26  F   UNL A   1      31.718  25.206  21.958  1.00  0.00    -0.167 F 
ENDBRANCH  15  23
ENDBRANCH   3   5
ENDBRANCH   2   3
ENDBRANCH   1   2
BRANCH   1  27
ATOM     27  C   UNL A   1      31.534  29.981  25.603  1.00  0.00     0.275 C 
BRANCH  27  28
ATOM     28  O   UNL A   1      32.517  29.919  26.655  1.00  0.00    -0.458 OA
BRANCH  28  29
ATOM     29  C   UNL A   1      33.013  31.117  27.035  1.00  0.00     0.338 C 
ATOM     30  O   UNL A   1      32.408  32.171  27.138  1.00  0.00    -0.246 OA
BRANCH  29  31
ATOM     31  C   UNL A   1      34.401  30.973  27.491  1.00  0.00     0.060 A 
ATOM     32  C   UNL A   1      35.200  32.052  27.832  1.00  0.00     0.016 A 
ATOM     33  C   UNL A   1      34.823  29.689  27.790  1.00  0.00     0.016 A 
ATOM     34  C   UNL A   1      36.431  31.805  28.460  1.00  0.00     0.010 A 
ATOM     35  C   UNL A   1      35.923  29.464  28.605  1.00  0.00     0.010 A 
ATOM     36  C   UNL A   1      36.794  30.509  28.897  1.00  0.00    -0.014 A 
BRANCH  36  37
ATOM     37  C   UNL A   1      38.078  30.250  29.617  1.00  0.00     0.031 A 
ATOM     38  C   UNL A   1      38.278  30.672  31.062  1.00  0.00     0.074 A 
ATOM     39  C   UNL A   1      39.083  29.620  28.972  1.00  0.00     0.049 A 
ATOM     40  N   UNL A   1      39.268  30.378  31.872  1.00  0.00    -0.248 NA
ATOM     41  C   UNL A   1      37.277  31.564  31.675  1.00  0.00     0.031 C 
ATOM     42  C   UNL A   1      39.087  29.277  27.548  1.00  0.00     0.029 A 
ATOM     43  N   UNL A   1      40.273  29.110  29.434  1.00  0.00    -0.354 N 
ATOM     44  C   UNL A   1      39.005  31.052  33.060  1.00  0.00     0.074 A 
ATOM     45  C   UNL A   1      37.828  31.853  32.842  1.00  0.00     0.031 C 
ATOM     46  C   UNL A   1      40.153  28.508  27.283  1.00  0.00     0.029 A 
ATOM     47  C   UNL A   1      40.938  28.346  28.502  1.00  0.00     0.049 A 
ATOM     48  H   UNL A   1      40.617  29.275  30.342  1.00  0.00     0.167 HD
ATOM     49  C   UNL A   1      39.640  30.966  34.252  1.00  0.00     0.031 A 
ATOM     50  C   UNL A   1      42.030  27.564  28.619  1.00  0.00     0.031 A 
ATOM     51  C   UNL A   1      40.784  30.132  34.485  1.00  0.00     0.049 A 
ATOM     52  C   UNL A   1      42.688  27.426  29.964  1.00  0.00     0.074 A 
ATOM     53  C   UNL A   1      41.461  29.915  35.671  1.00  0.00     0.029 A 
ATOM     54  N   UNL A   1      41.409  29.367  33.514  1.00  0.00    -0.354 N 
ATOM     55  N   UNL A   1      42.353  27.980  31.105  1.00  0.00    -0.248 NA
ATOM     56  C   UNL A   1      43.854  26.536  30.049  1.00  0.00     0.031 C 
ATOM     57  C   UNL A   1      42.536  29.066  35.404  1.00  0.00     0.029 A 
ATOM     58  C   UNL A   1      42.474  28.687  34.073  1.00  0.00     0.049 A 
ATOM     59  H   UNL A   1      41.136  29.316  32.570  1.00  0.00     0.167 HD
ATOM     60  C   UNL A   1      43.246  27.483  32.047  1.00  0.00     0.074 A 
ATOM     61  C   UNL A   1      44.125  26.569  31.348  1.00  0.00     0.031 C 
ATOM     62  C   UNL A   1      43.328  27.763  33.369  1.00  0.00     0.031 A 
BRANCH  49  63
ATOM     63  C   UNL A   1      39.086  31.749  35.417  1.00  0.00    -0.014 A 
ATOM     64  C   UNL A   1      39.529  33.059  35.662  1.00  0.00     0.009 A 
ATOM     65  C   UNL A   1      38.198  31.157  36.331  1.00  0.00     0.009 A 
ATOM     66  C   UNL A   1      39.108  33.750  36.801  1.00  0.00     0.001 A 
ATOM     67  C   UNL A   1      37.749  31.863  37.449  1.00  0.00     0.001 A 
ATOM     68  C   UNL A   1      38.215  33.155  37.690  1.00  0.00     0.000 A 
ENDBRANCH  49  63
BRANCH  50  69
ATOM     69  C   UNL A   1      42.495  26.776  27.442  1.00  0.00    -0.014 A 
ATOM     70  C   UNL A   1      43.411  27.322  26.528  1.00  0.00     0.009 A 
ATOM     71  C   UNL A   1      41.970  25.499  27.186  1.00  0.00     0.009 A 
ATOM     72  C   UNL A   1      43.769  26.622  25.372  1.00  0.00     0.001 A 
ATOM     73  C   UNL A   1      42.357  24.784  26.048  1.00  0.00     0.001 A 
ATOM     74  C   UNL A   1      43.245  25.352  25.136  1.00  0.00     0.000 A 
ENDBRANCH  50  69
BRANCH  62  75
ATOM     75  C   UNL A   1      44.375  27.057  34.186  1.00  0.00    -0.014 A 
ATOM     76  C   UNL A   1      44.042  25.862  34.847  1.00  0.00     0.009 A 
ATOM     77  C   UNL A   1      45.633  27.631  34.413  1.00  0.00     0.009 A 
ATOM     78  C   UNL A   1      44.937  25.270  35.737  1.00  0.00     0.001 A 
ATOM     79  C   UNL A   1      46.543  27.016  35.277  1.00  0.00     0.001 A 
ATOM     80  C   UNL A   1      46.189  25.845  35.947  1.00  0.00     0.000 A 
ENDBRANCH  62  75
ENDBRANCH  36  37
ENDBRANCH  29  31
ENDBRANCH  28  29
ENDBRANCH  27  28
ENDBRANCH   1  27
TORSDOF 15
ENDMDL
MODEL 2
REMARK VINA RESULT:     -11.2      4.209      9.207
REMARK SMILES CC(C)[N@@H+](C)Cc1cc2c(cc1Cl)C=C(C(=O)OCCOC(=O)c1ccc(-c3c4nc(c(-c5ccccc5)c5ccc([nH]5)c(-c5ccccc5)c5nc(c(-c6ccccc6)c6ccc3[nH]6)C=C5)C=C4)cc1)[C@@H](C(F)(F)F)O2
REMARK SMILES IDX 19 1 18 2 16 3 17 4 15 5 7 6 8 7 12 8 9 9 11 10 13 11 10 12
REMARK SMILES IDX 77 13 14 14 72 15 6 16 4 17 5 18 2 20 1 21 3 22 73 23 74 24
REMARK SMILES IDX 75 25 76 26 20 27 21 28 22 29 23 30 24 31 25 32 71 33 26 34
REMARK SMILES IDX 70 35 27 36 28 37 29 38 64 39 30 40 69 41 63 42 65 43 31 44
REMARK SMILES IDX 68 45 62 46 61 47 32 49 54 50 39 51 53 52 40 53 43 54 52 55
REMARK SMILES IDX 66 56 41 57 42 58 51 60 67 61 44 62 33 63 34 64 38 65 35 66
REMARK SMILES IDX 37 67 36 68 55 69 56 70 60 71 57 72 59 73 58 74 45 75 46 76
REMARK SMILES IDX 50 77 47 78 49 79 48 80
REMARK H PARENT 4 19 65 48 43 59
REMARK Flexibility Score: inf
ROOT
ATOM      1  C   UNL A   1      35.641  22.103  24.223  1.00  0.00     0.275 C 
ENDROOT
BRANCH   1   2
ATOM      2  O   UNL A   1      35.610  23.371  24.913  1.00  0.00    -0.459 OA
BRANCH   2   3
ATOM      3  C   UNL A   1      34.504  23.600  25.657  1.00  0.00     0.338 C 
ATOM      4  O   UNL A   1      34.186  23.018  26.684  1.00  0.00    -0.246 OA
BRANCH   3   5
ATOM      5  C   UNL A   1      33.704  24.699  25.088  1.00  0.00     0.087 C 
ATOM      6  C   UNL A   1      31.073  28.956  24.543  1.00  0.00     0.029 A 
ATOM      7  C   UNL A   1      31.036  27.669  23.973  1.00  0.00     0.058 A 
ATOM      8  C   UNL A   1      32.025  29.192  25.548  1.00  0.00     0.050 A 
ATOM      9  C   UNL A   1      31.970  26.695  24.288  1.00  0.00     0.128 A 
ATOM     10  C   UNL A   1      32.931  28.196  25.913  1.00  0.00     0.033 A 
ATOM     11  Cl  UNL A   1      32.121  30.690  26.408  1.00  0.00    -0.084 Cl
ATOM     12  C   UNL A   1      32.897  26.952  25.277  1.00  0.00     0.019 A 
ATOM     13  O   UNL A   1      31.924  25.543  23.559  1.00  0.00    -0.475 OA
ATOM     14  C   UNL A   1      33.774  25.889  25.695  1.00  0.00     0.027 C 
ATOM     15  C   UNL A   1      32.748  24.414  23.966  1.00  0.00     0.316 C 
BRANCH   6  16
ATOM     16  C   UNL A   1      30.102  30.037  24.114  1.00  0.00     0.300 C 
BRANCH  16  17
ATOM     17  N   UNL A   1      29.360  29.860  22.864  1.00  0.00    -0.332 N 
ATOM     18  C   UNL A   1      30.112  30.059  21.639  1.00  0.00     0.333 C 
ATOM     19  H   UNL A   1      29.265  28.847  22.938  1.00  0.00     0.348 HD
BRANCH  17  20
ATOM     20  C   UNL A   1      27.916  30.109  22.804  1.00  0.00     0.177 C 
ATOM     21  C   UNL A   1      27.136  28.854  23.210  1.00  0.00     0.075 C 
ATOM     22  C   UNL A   1      27.364  31.308  23.582  1.00  0.00     0.075 C 
ENDBRANCH  17  20
ENDBRANCH  16  17
ENDBRANCH   6  16
BRANCH  15  23
ATOM     23  C   UNL A   1      31.795  23.258  24.301  1.00  0.00     0.430 C 
ATOM     24  F   UNL A   1      31.394  23.312  25.593  1.00  0.00    -0.167 F 
ATOM     25  F   UNL A   1      30.673  23.290  23.545  1.00  0.00    -0.167 F 
ATOM     26  F   UNL A   1      32.379  22.053  24.107  1.00  0.00    -0.167 F 
ENDBRANCH  15  23
ENDBRANCH   3   5
ENDBRANCH   2   3
ENDBRANCH   1   2
BRANCH   1  27
ATOM     27  C   UNL A   1      36.846  21.254  24.639  1.00  0.00     0.275 C 
BRANCH  27  28
ATOM     28  O   UNL A   1      37.390  21.687  25.901  1.00  0.00    -0.458 OA
BRANCH  28  29
ATOM     29  C   UNL A   1      38.716  21.477  26.046  1.00  0.00     0.338 C 
ATOM     30  O   UNL A   1      39.377  20.561  25.585  1.00  0.00    -0.246 OA
BRANCH  29  31
ATOM     31  C   UNL A   1      39.343  22.620  26.723  1.00  0.00     0.060 A 
ATOM     32  C   UNL A   1      40.457  22.498  27.536  1.00  0.00     0.016 A 
ATOM     33  C   UNL A   1      38.913  23.877  26.335  1.00  0.00     0.016 A 
ATOM     34  C   UNL A   1      41.111  23.666  27.960  1.00  0.00     0.010 A 
ATOM     35  C   UNL A   1      39.687  25.006  26.568  1.00  0.00     0.010 A 
ATOM     36  C   UNL A   1      40.763  24.938  27.446  1.00  0.00    -0.014 A 
BRANCH  36  37
ATOM     37  C   UNL A   1      41.493  26.179  27.852  1.00  0.00     0.031 A 
ATOM     38  C   UNL A   1      42.836  26.544  27.245  1.00  0.00     0.074 A 
ATOM     39  C   UNL A   1      40.945  26.999  28.773  1.00  0.00     0.049 A 
ATOM     40  N   UNL A   1      43.517  27.659  27.371  1.00  0.00    -0.248 NA
ATOM     41  C   UNL A   1      43.534  25.532  26.430  1.00  0.00     0.031 C 
ATOM     42  C   UNL A   1      39.729  26.713  29.539  1.00  0.00     0.029 A 
ATOM     43  N   UNL A   1      41.303  28.260  29.187  1.00  0.00    -0.354 N 
ATOM     44  C   UNL A   1      44.702  27.467  26.667  1.00  0.00     0.074 A 
ATOM     45  C   UNL A   1      44.706  26.104  26.205  1.00  0.00     0.031 C 
ATOM     46  C   UNL A   1      39.374  27.808  30.227  1.00  0.00     0.029 A 
ATOM     47  C   UNL A   1      40.362  28.856  29.996  1.00  0.00     0.049 A 
ATOM     48  H   UNL A   1      42.150  28.693  28.931  1.00  0.00     0.167 HD
ATOM     49  C   UNL A   1      45.674  28.360  26.368  1.00  0.00     0.031 A 
ATOM     50  C   UNL A   1      40.274  30.118  30.464  1.00  0.00     0.031 A 
ATOM     51  C   UNL A   1      45.649  29.732  26.786  1.00  0.00     0.049 A 
ATOM     52  C   UNL A   1      41.327  31.117  30.071  1.00  0.00     0.074 A 
ATOM     53  C   UNL A   1      46.545  30.740  26.480  1.00  0.00     0.029 A 
ATOM     54  N   UNL A   1      44.668  30.291  27.590  1.00  0.00    -0.354 N 
ATOM     55  N   UNL A   1      42.379  30.947  29.307  1.00  0.00    -0.248 NA
ATOM     56  C   UNL A   1      41.169  32.488  30.578  1.00  0.00     0.031 C 
ATOM     57  C   UNL A   1      46.140  31.895  27.151  1.00  0.00     0.029 A 
ATOM     58  C   UNL A   1      44.946  31.628  27.801  1.00  0.00     0.049 A 
ATOM     59  H   UNL A   1      43.892  29.808  27.955  1.00  0.00     0.167 HD
ATOM     60  C   UNL A   1      42.990  32.192  29.217  1.00  0.00     0.074 A 
ATOM     61  C   UNL A   1      42.181  33.112  29.989  1.00  0.00     0.031 C 
ATOM     62  C   UNL A   1      44.120  32.537  28.555  1.00  0.00     0.031 A 
BRANCH  49  63
ATOM     63  C   UNL A   1      46.824  27.905  25.504  1.00  0.00    -0.014 A 
ATOM     64  C   UNL A   1      48.020  27.467  26.093  1.00  0.00     0.009 A 
ATOM     65  C   UNL A   1      46.759  28.001  24.103  1.00  0.00     0.009 A 
ATOM     66  C   UNL A   1      49.128  27.151  25.303  1.00  0.00     0.001 A 
ATOM     67  C   UNL A   1      47.855  27.649  23.313  1.00  0.00     0.001 A 
ATOM     68  C   UNL A   1      49.043  27.237  23.914  1.00  0.00     0.000 A 
ENDBRANCH  49  63
BRANCH  50  69
ATOM     69  C   UNL A   1      39.086  30.517  31.271  1.00  0.00    -0.014 A 
ATOM     70  C   UNL A   1      39.085  30.377  32.668  1.00  0.00     0.009 A 
ATOM     71  C   UNL A   1      37.917  30.974  30.640  1.00  0.00     0.009 A 
ATOM     72  C   UNL A   1      37.935  30.657  33.412  1.00  0.00     0.001 A 
ATOM     73  C   UNL A   1      36.779  31.288  31.390  1.00  0.00     0.001 A 
ATOM     74  C   UNL A   1      36.785  31.117  32.773  1.00  0.00     0.000 A 
ENDBRANCH  50  69
BRANCH  62  75
ATOM     75  C   UNL A   1      44.556  33.976  28.586  1.00  0.00    -0.014 A 
ATOM     76  C   UNL A   1      44.140  34.844  27.561  1.00  0.00     0.009 A 
ATOM     77  C   UNL A   1      45.475  34.440  29.537  1.00  0.00     0.009 A 
ATOM     78  C   UNL A   1      44.653  36.137  27.474  1.00  0.00     0.001 A 
ATOM     79  C   UNL A   1      45.960  35.748  29.469  1.00  0.00     0.001 A 
ATOM     80  C   UNL A   1      45.559  36.590  28.431  1.00  0.00     0.000 A 
ENDBRANCH  62  75
ENDBRANCH  36  37
ENDBRANCH  29  31
ENDBRANCH  28  29
ENDBRANCH  27  28
ENDBRANCH   1  27
TORSDOF 15
ENDMDL
MODEL 3
REMARK VINA RESULT:     -11.0      3.584      6.692
REMARK SMILES CC(C)[N@@H+](C)Cc1cc2c(cc1Cl)C=C(C(=O)OCCOC(=O)c1ccc(-c3c4nc(c(-c5ccccc5)c5ccc([nH]5)c(-c5ccccc5)c5nc(c(-c6ccccc6)c6ccc3[nH]6)C=C5)C=C4)cc1)[C@@H](C(F)(F)F)O2
REMARK SMILES IDX 19 1 18 2 16 3 17 4 15 5 7 6 8 7 12 8 9 9 11 10 13 11 10 12
REMARK SMILES IDX 77 13 14 14 72 15 6 16 4 17 5 18 2 20 1 21 3 22 73 23 74 24
REMARK SMILES IDX 75 25 76 26 20 27 21 28 22 29 23 30 24 31 25 32 71 33 26 34
REMARK SMILES IDX 70 35 27 36 28 37 29 38 64 39 30 40 69 41 63 42 65 43 31 44
REMARK SMILES IDX 68 45 62 46 61 47 32 49 54 50 39 51 53 52 40 53 43 54 52 55
REMARK SMILES IDX 66 56 41 57 42 58 51 60 67 61 44 62 33 63 34 64 38 65 35 66
REMARK SMILES IDX 37 67 36 68 55 69 56 70 60 71 57 72 59 73 58 74 45 75 46 76
REMARK SMILES IDX 50 77 47 78 49 79 48 80
REMARK H PARENT 4 19 65 48 43 59
REMARK Flexibility Score: inf
ROOT
ATOM      1  C   UNL A   1      32.942  29.035  25.612  1.00  0.00     0.275 C 
ENDROOT
BRANCH   1   2
ATOM      2  O   UNL A   1      32.417  27.760  25.182  1.00  0.00    -0.459 OA
BRANCH   2   3
ATOM      3  C   UNL A   1      31.790  27.038  26.138  1.00  0.00     0.338 C 
ATOM      4  O   UNL A   1      31.075  27.477  27.028  1.00  0.00    -0.246 OA
BRANCH   3   5
ATOM      5  C   UNL A   1      32.048  25.597  25.966  1.00  0.00     0.087 C 
ATOM      6  C   UNL A   1      34.292  21.180  25.074  1.00  0.00     0.029 A 
ATOM      7  C   UNL A   1      32.998  21.708  24.895  1.00  0.00     0.058 A 
ATOM      8  C   UNL A   1      35.276  22.039  25.591  1.00  0.00     0.050 A 
ATOM      9  C   UNL A   1      32.656  22.982  25.318  1.00  0.00     0.128 A 
ATOM     10  C   UNL A   1      34.951  23.344  25.964  1.00  0.00     0.033 A 
ATOM     11  Cl  UNL A   1      36.928  21.563  25.771  1.00  0.00    -0.084 Cl
ATOM     12  C   UNL A   1      33.639  23.806  25.824  1.00  0.00     0.019 A 
ATOM     13  O   UNL A   1      31.338  23.323  25.230  1.00  0.00    -0.475 OA
ATOM     14  C   UNL A   1      33.305  25.172  26.132  1.00  0.00     0.027 C 
ATOM     15  C   UNL A   1      30.945  24.703  25.476  1.00  0.00     0.316 C 
BRANCH   6  16
ATOM     16  C   UNL A   1      34.621  19.751  24.694  1.00  0.00     0.300 C 
BRANCH  16  17
ATOM     17  N   UNL A   1      33.520  18.820  24.441  1.00  0.00    -0.332 N 
ATOM     18  C   UNL A   1      32.859  18.277  25.613  1.00  0.00     0.333 C 
ATOM     19  H   UNL A   1      32.867  19.519  24.086  1.00  0.00     0.348 HD
BRANCH  17  20
ATOM     20  C   UNL A   1      33.490  18.002  23.224  1.00  0.00     0.177 C 
ATOM     21  C   UNL A   1      33.815  16.540  23.549  1.00  0.00     0.075 C 
ATOM     22  C   UNL A   1      32.223  18.047  22.362  1.00  0.00     0.075 C 
ENDBRANCH  17  20
ENDBRANCH  16  17
ENDBRANCH   6  16
BRANCH  15  23
ATOM     23  C   UNL A   1      30.308  25.229  24.183  1.00  0.00     0.430 C 
ATOM     24  F   UNL A   1      29.276  26.064  24.450  1.00  0.00    -0.167 F 
ATOM     25  F   UNL A   1      31.189  25.929  23.431  1.00  0.00    -0.167 F 
ATOM     26  F   UNL A   1      29.829  24.224  23.413  1.00  0.00    -0.167 F 
ENDBRANCH  15  23
ENDBRANCH   3   5
ENDBRANCH   2   3
ENDBRANCH   1   2
BRANCH   1  27
ATOM     27  C   UNL A   1      34.352  28.906  26.195  1.00  0.00     0.275 C 
BRANCH  27  28
ATOM     28  O   UNL A   1      34.357  29.103  27.622  1.00  0.00    -0.458 OA
BRANCH  28  29
ATOM     29  C   UNL A   1      34.973  30.232  28.034  1.00  0.00     0.338 C 
ATOM     30  O   UNL A   1      34.470  31.330  28.209  1.00  0.00    -0.246 OA
BRANCH  29  31
ATOM     31  C   UNL A   1      36.360  29.946  28.422  1.00  0.00     0.060 A 
ATOM     32  C   UNL A   1      36.698  29.316  29.608  1.00  0.00     0.016 A 
ATOM     33  C   UNL A   1      37.323  30.125  27.444  1.00  0.00     0.016 A 
ATOM     34  C   UNL A   1      38.023  28.891  29.789  1.00  0.00     0.010 A 
ATOM     35  C   UNL A   1      38.563  29.509  27.534  1.00  0.00     0.010 A 
ATOM     36  C   UNL A   1      38.969  28.941  28.737  1.00  0.00    -0.014 A 
BRANCH  36  37
ATOM     37  C   UNL A   1      40.366  28.438  28.908  1.00  0.00     0.031 A 
ATOM     38  C   UNL A   1      40.750  27.016  28.536  1.00  0.00     0.074 A 
ATOM     39  C   UNL A   1      41.313  29.266  29.398  1.00  0.00     0.049 A 
ATOM     40  N   UNL A   1      41.946  26.480  28.474  1.00  0.00    -0.248 NA
ATOM     41  C   UNL A   1      39.672  26.057  28.235  1.00  0.00     0.031 C 
ATOM     42  C   UNL A   1      41.067  30.611  29.923  1.00  0.00     0.029 A 
ATOM     43  N   UNL A   1      42.678  29.125  29.488  1.00  0.00    -0.354 N 
ATOM     44  C   UNL A   1      41.750  25.143  28.141  1.00  0.00     0.074 A 
ATOM     45  C   UNL A   1      40.329  24.915  28.117  1.00  0.00     0.031 C 
ATOM     46  C   UNL A   1      42.241  31.214  30.158  1.00  0.00     0.029 A 
ATOM     47  C   UNL A   1      43.323  30.285  29.853  1.00  0.00     0.049 A 
ATOM     48  H   UNL A   1      43.147  28.277  29.311  1.00  0.00     0.167 HD
ATOM     49  C   UNL A   1      42.664  24.199  27.815  1.00  0.00     0.031 A 
ATOM     50  C   UNL A   1      44.636  30.588  29.894  1.00  0.00     0.031 A 
ATOM     51  C   UNL A   1      44.079  24.437  27.791  1.00  0.00     0.049 A 
ATOM     52  C   UNL A   1      45.638  29.551  29.466  1.00  0.00     0.074 A 
ATOM     53  C   UNL A   1      45.089  23.574  27.407  1.00  0.00     0.029 A 
ATOM     54  N   UNL A   1      44.681  25.632  28.153  1.00  0.00    -0.354 N 
ATOM     55  N   UNL A   1      45.427  28.328  29.042  1.00  0.00    -0.248 NA
ATOM     56  C   UNL A   1      47.055  29.939  29.496  1.00  0.00     0.031 C 
ATOM     57  C   UNL A   1      46.308  24.225  27.597  1.00  0.00     0.029 A 
ATOM     58  C   UNL A   1      46.051  25.522  28.014  1.00  0.00     0.049 A 
ATOM     59  H   UNL A   1      44.205  26.436  28.462  1.00  0.00     0.167 HD
ATOM     60  C   UNL A   1      46.678  27.813  28.725  1.00  0.00     0.074 A 
ATOM     61  C   UNL A   1      47.641  28.862  28.989  1.00  0.00     0.031 C 
ATOM     62  C   UNL A   1      46.996  26.582  28.260  1.00  0.00     0.031 A 
BRANCH  49  63
ATOM     63  C   UNL A   1      42.169  22.834  27.404  1.00  0.00    -0.014 A 
ATOM     64  C   UNL A   1      42.236  22.434  26.060  1.00  0.00     0.009 A 
ATOM     65  C   UNL A   1      41.546  21.981  28.331  1.00  0.00     0.009 A 
ATOM     66  C   UNL A   1      41.678  21.220  25.652  1.00  0.00     0.001 A 
ATOM     67  C   UNL A   1      41.023  20.751  27.927  1.00  0.00     0.001 A 
ATOM     68  C   UNL A   1      41.077  20.377  26.585  1.00  0.00     0.000 A 
ENDBRANCH  49  63
BRANCH  50  69
ATOM     69  C   UNL A   1      45.056  31.971  30.259  1.00  0.00    -0.014 A 
ATOM     70  C   UNL A   1      45.265  32.328  31.601  1.00  0.00     0.009 A 
ATOM     71  C   UNL A   1      45.183  32.962  29.273  1.00  0.00     0.009 A 
ATOM     72  C   UNL A   1      45.560  33.649  31.950  1.00  0.00     0.001 A 
ATOM     73  C   UNL A   1      45.514  34.275  29.620  1.00  0.00     0.001 A 
ATOM     74  C   UNL A   1      45.690  34.620  30.959  1.00  0.00     0.000 A 
ENDBRANCH  50  69
BRANCH  62  75
ATOM     75  C   UNL A   1      48.439  26.282  27.959  1.00  0.00    -0.014 A 
ATOM     76  C   UNL A   1      48.931  26.497  26.660  1.00  0.00     0.009 A 
ATOM     77  C   UNL A   1      49.270  25.667  28.906  1.00  0.00     0.009 A 
ATOM     78  C   UNL A   1      50.214  26.081  26.308  1.00  0.00     0.001 A 
ATOM     79  C   UNL A   1      50.568  25.284  28.562  1.00  0.00     0.001 A 
ATOM     80  C   UNL A   1      51.034  25.480  27.262  1.00  0.00     0.000 A 
ENDBRANCH  62  75
ENDBRANCH  36  37
ENDBRANCH  29  31
ENDBRANCH  28  29
ENDBRANCH  27  28
ENDBRANCH   1  27
TORSDOF 15
ENDMDL
