MODEL 1
REMARK VINA RESULT:     -11.8      0.000      0.000
REMARK SMILES O=C(Cn1c2ccccc2c(=O)c2ccccc21)N[C@@H](Cc1ccccc1)C(=O)OCCOC(=O)c1ccc(-c2c3nc(c(-c4ccccc4)c4ccc([nH]4)c(-c4ccccc4)c4nc(c(-c5ccccc5)c5ccc2[nH]5)C=C4)C=C3)cc1
REMARK SMILES IDX 31 1 30 2 28 3 29 4 20 5 19 6 1 7 2 8 3 10 4 11 5 12 18 13
REMARK SMILES IDX 6 14 10 15 13 16 17 17 7 18 9 19 11 20 14 21 16 22 8 23
REMARK SMILES IDX 12 24 15 25 21 26 22 27 23 28 27 29 24 30 26 31 25 32 32 33
REMARK SMILES IDX 33 34 34 35 35 36 36 37 37 38 83 39 38 40 82 41 39 42 40 43
REMARK SMILES IDX 41 44 76 45 42 46 81 47 75 48 77 49 43 50 80 51 74 52 73 53
REMARK SMILES IDX 44 55 66 56 51 57 65 58 52 59 55 60 64 61 78 62 53 63 54 64
REMARK SMILES IDX 63 66 79 67 56 68 45 69 46 70 50 71 47 72 49 73 48 74 67 75
REMARK SMILES IDX 68 76 72 77 69 78 71 79 70 80 57 81 58 82 62 83 59 84 61 85
REMARK SMILES IDX 60 86
REMARK H PARENT 19 9 77 54 55 65
REMARK Flexibility Score: inf
ROOT
ATOM      1  C   UNL A   1      32.007  28.053  26.521  1.00  0.00     0.274 C 
ENDROOT
BRANCH   1   2
ATOM      2  O   UNL A   1      31.239  26.965  27.074  1.00  0.00    -0.461 OA
BRANCH   2   3
ATOM      3  C   UNL A   1      31.312  25.778  26.408  1.00  0.00     0.329 C 
ATOM      4  O   UNL A   1      31.352  24.679  26.955  1.00  0.00    -0.250 OA
BRANCH   3   5
ATOM      5  C   UNL A   1      31.474  25.949  24.890  1.00  0.00     0.196 C 
BRANCH   5   6
ATOM      6  N   UNL A   1      32.355  24.985  24.203  1.00  0.00    -0.341 N 
ATOM      7  O   UNL A   1      34.244  25.689  25.282  1.00  0.00    -0.273 OA
ATOM      8  C   UNL A   1      33.709  24.925  24.475  1.00  0.00     0.240 C 
ATOM      9  H   UNL A   1      31.970  24.370  23.535  1.00  0.00     0.164 HD
BRANCH   8  10
ATOM     10  C   UNL A   1      34.567  23.993  23.602  1.00  0.00     0.222 C 
BRANCH  10  11
ATOM     11  N   UNL A   1      35.074  22.759  24.239  1.00  0.00    -0.331 N 
ATOM     12  C   UNL A   1      34.239  21.636  24.425  1.00  0.00     0.053 A 
ATOM     13  C   UNL A   1      36.343  22.797  24.866  1.00  0.00     0.053 A 
ATOM     14  C   UNL A   1      32.839  21.691  24.440  1.00  0.00     0.027 A 
ATOM     15  C   UNL A   1      34.828  20.379  24.678  1.00  0.00     0.046 A 
ATOM     16  C   UNL A   1      36.979  21.588  25.207  1.00  0.00     0.046 A 
ATOM     17  C   UNL A   1      36.981  23.985  25.264  1.00  0.00     0.027 A 
ATOM     18  C   UNL A   1      32.069  20.529  24.618  1.00  0.00     0.002 A 
ATOM     19  C   UNL A   1      34.068  19.210  24.812  1.00  0.00     0.014 A 
ATOM     20  C   UNL A   1      36.290  20.316  24.896  1.00  0.00     0.197 A 
ATOM     21  C   UNL A   1      38.201  21.555  25.892  1.00  0.00     0.014 A 
ATOM     22  C   UNL A   1      38.194  23.959  25.965  1.00  0.00     0.002 A 
ATOM     23  C   UNL A   1      32.681  19.287  24.772  1.00  0.00     0.001 A 
ATOM     24  O   UNL A   1      36.892  19.249  24.907  1.00  0.00    -0.288 OA
ATOM     25  C   UNL A   1      38.805  22.748  26.278  1.00  0.00     0.001 A 
ENDBRANCH  10  11
ENDBRANCH   8  10
ENDBRANCH   5   6
BRANCH   5  26
ATOM     26  C   UNL A   1      30.076  26.042  24.246  1.00  0.00     0.072 C 
BRANCH  26  27
ATOM     27  C   UNL A   1      29.802  27.356  23.548  1.00  0.00    -0.045 A 
ATOM     28  C   UNL A   1      28.489  27.825  23.392  1.00  0.00     0.004 A 
ATOM     29  C   UNL A   1      30.857  28.105  23.014  1.00  0.00     0.004 A 
ATOM     30  C   UNL A   1      28.230  28.980  22.655  1.00  0.00     0.000 A 
ATOM     31  C   UNL A   1      30.598  29.276  22.301  1.00  0.00     0.000 A 
ATOM     32  C   UNL A   1      29.286  29.703  22.106  1.00  0.00     0.000 A 
ENDBRANCH  26  27
ENDBRANCH   5  26
ENDBRANCH   3   5
ENDBRANCH   2   3
ENDBRANCH   1   2
BRANCH   1  33
ATOM     33  C   UNL A   1      33.086  28.544  27.495  1.00  0.00     0.275 C 
BRANCH  33  34
ATOM     34  O   UNL A   1      34.059  29.402  26.862  1.00  0.00    -0.458 OA
BRANCH  34  35
ATOM     35  C   UNL A   1      34.557  30.349  27.686  1.00  0.00     0.338 C 
ATOM     36  O   UNL A   1      33.956  31.337  28.083  1.00  0.00    -0.246 OA
BRANCH  35  37
ATOM     37  C   UNL A   1      35.891  30.006  28.197  1.00  0.00     0.060 A 
ATOM     38  C   UNL A   1      36.090  29.572  29.507  1.00  0.00     0.016 A 
ATOM     39  C   UNL A   1      36.957  30.046  27.290  1.00  0.00     0.016 A 
ATOM     40  C   UNL A   1      37.372  29.196  29.910  1.00  0.00     0.010 A 
ATOM     41  C   UNL A   1      38.234  29.676  27.691  1.00  0.00     0.010 A 
ATOM     42  C   UNL A   1      38.449  29.260  29.009  1.00  0.00    -0.014 A 
BRANCH  42  43
ATOM     43  C   UNL A   1      39.811  28.894  29.440  1.00  0.00     0.031 A 
ATOM     44  C   UNL A   1      40.394  27.580  29.024  1.00  0.00     0.074 A 
ATOM     45  C   UNL A   1      40.507  29.741  30.218  1.00  0.00     0.049 A 
ATOM     46  N   UNL A   1      41.615  27.136  29.182  1.00  0.00    -0.248 NA
ATOM     47  C   UNL A   1      39.491  26.637  28.344  1.00  0.00     0.031 C 
ATOM     48  C   UNL A   1      40.008  31.019  30.725  1.00  0.00     0.029 A 
ATOM     49  N   UNL A   1      41.782  29.654  30.712  1.00  0.00    -0.354 N 
ATOM     50  C   UNL A   1      41.635  25.881  28.591  1.00  0.00     0.074 A 
ATOM     51  C   UNL A   1      40.294  25.605  28.126  1.00  0.00     0.031 C 
ATOM     52  C   UNL A   1      40.979  31.612  31.439  1.00  0.00     0.029 A 
ATOM     53  C   UNL A   1      42.162  30.754  31.441  1.00  0.00     0.049 A 
ATOM     54  H   UNL A   1      42.369  28.878  30.559  1.00  0.00     0.167 HD
ATOM     55  C   UNL A   1      42.689  25.049  28.432  1.00  0.00     0.031 A 
ATOM     56  C   UNL A   1      43.341  31.045  32.022  1.00  0.00     0.031 A 
ATOM     57  C   UNL A   1      44.007  25.319  28.936  1.00  0.00     0.049 A 
ATOM     58  C   UNL A   1      44.491  30.091  31.860  1.00  0.00     0.074 A 
ATOM     59  C   UNL A   1      45.155  24.558  28.800  1.00  0.00     0.029 A 
ATOM     60  N   UNL A   1      44.348  26.433  29.689  1.00  0.00    -0.354 N 
ATOM     61  N   UNL A   1      44.530  28.954  31.205  1.00  0.00    -0.248 NA
ATOM     62  C   UNL A   1      45.762  30.466  32.493  1.00  0.00     0.031 C 
ATOM     63  C   UNL A   1      46.178  25.186  29.516  1.00  0.00     0.029 A 
ATOM     64  C   UNL A   1      45.683  26.366  30.049  1.00  0.00     0.049 A 
ATOM     65  H   UNL A   1      43.733  27.162  29.931  1.00  0.00     0.167 HD
ATOM     66  C   UNL A   1      45.833  28.490  31.328  1.00  0.00     0.074 A 
ATOM     67  C   UNL A   1      46.556  29.473  32.109  1.00  0.00     0.031 C 
ATOM     68  C   UNL A   1      46.380  27.354  30.832  1.00  0.00     0.031 A 
BRANCH  55  69
ATOM     69  C   UNL A   1      42.462  23.775  27.670  1.00  0.00    -0.014 A 
ATOM     70  C   UNL A   1      42.136  22.591  28.349  1.00  0.00     0.009 A 
ATOM     71  C   UNL A   1      42.638  23.733  26.277  1.00  0.00     0.009 A 
ATOM     72  C   UNL A   1      41.993  21.392  27.650  1.00  0.00     0.001 A 
ATOM     73  C   UNL A   1      42.470  22.537  25.577  1.00  0.00     0.001 A 
ATOM     74  C   UNL A   1      42.155  21.366  26.265  1.00  0.00     0.000 A 
ENDBRANCH  55  69
BRANCH  56  75
ATOM     75  C   UNL A   1      43.497  32.332  32.745  1.00  0.00    -0.014 A 
ATOM     76  C   UNL A   1      43.183  32.430  34.109  1.00  0.00     0.009 A 
ATOM     77  C   UNL A   1      43.905  33.486  32.058  1.00  0.00     0.009 A 
ATOM     78  C   UNL A   1      43.259  33.660  34.768  1.00  0.00     0.001 A 
ATOM     79  C   UNL A   1      44.002  34.709  32.725  1.00  0.00     0.001 A 
ATOM     80  C   UNL A   1      43.671  34.797  34.077  1.00  0.00     0.000 A 
ENDBRANCH  56  75
BRANCH  68  81
ATOM     81  C   UNL A   1      47.834  27.100  31.110  1.00  0.00    -0.014 A 
ATOM     82  C   UNL A   1      48.804  27.544  30.198  1.00  0.00     0.009 A 
ATOM     83  C   UNL A   1      48.234  26.325  32.209  1.00  0.00     0.009 A 
ATOM     84  C   UNL A   1      50.146  27.203  30.370  1.00  0.00     0.001 A 
ATOM     85  C   UNL A   1      49.580  26.006  32.392  1.00  0.00     0.001 A 
ATOM     86  C   UNL A   1      50.533  26.436  31.468  1.00  0.00     0.000 A 
ENDBRANCH  68  81
ENDBRANCH  42  43
ENDBRANCH  35  37
ENDBRANCH  34  35
ENDBRANCH  33  34
ENDBRANCH   1  33
TORSDOF 16
ENDMDL
MODEL 2
REMARK VINA RESULT:     -11.7      0.668      5.670
REMARK SMILES O=C(Cn1c2ccccc2c(=O)c2ccccc21)N[C@@H](Cc1ccccc1)C(=O)OCCOC(=O)c1ccc(-c2c3nc(c(-c4ccccc4)c4ccc([nH]4)c(-c4ccccc4)c4nc(c(-c5ccccc5)c5ccc2[nH]5)C=C4)C=C3)cc1
REMARK SMILES IDX 31 1 30 2 28 3 29 4 20 5 19 6 1 7 2 8 3 10 4 11 5 12 18 13
REMARK SMILES IDX 6 14 10 15 13 16 17 17 7 18 9 19 11 20 14 21 16 22 8 23
REMARK SMILES IDX 12 24 15 25 21 26 22 27 23 28 27 29 24 30 26 31 25 32 32 33
REMARK SMILES IDX 33 34 34 35 35 36 36 37 37 38 83 39 38 40 82 41 39 42 40 43
REMARK SMILES IDX 41 44 76 45 42 46 81 47 75 48 77 49 43 50 80 51 74 52 73 53
REMARK SMILES IDX 44 55 66 56 51 57 65 58 52 59 55 60 64 61 78 62 53 63 54 64
REMARK SMILES IDX 63 66 79 67 56 68 45 69 46 70 50 71 47 72 49 73 48 74 67 75
REMARK SMILES IDX 68 76 72 77 69 78 71 79 70 80 57 81 58 82 62 83 59 84 61 85
REMARK SMILES IDX 60 86
REMARK H PARENT 19 9 77 54 55 65
REMARK Flexibility Score: inf
ROOT
ATOM      1  C   UNL A   1      31.883  28.120  26.308  1.00  0.00     0.274 C 
ENDROOT
BRANCH   1   2
ATOM      2  O   UNL A   1      31.238  27.015  26.972  1.00  0.00    -0.461 OA
BRANCH   2   3
ATOM      3  C   UNL A   1      31.342  25.801  26.360  1.00  0.00     0.329 C 
ATOM      4  O   UNL A   1      31.439  24.732  26.957  1.00  0.00    -0.250 OA
BRANCH   3   5
ATOM      5  C   UNL A   1      31.462  25.906  24.832  1.00  0.00     0.196 C 
BRANCH   5   6
ATOM      6  N   UNL A   1      32.358  24.941  24.168  1.00  0.00    -0.341 N 
ATOM      7  O   UNL A   1      34.250  25.771  25.151  1.00  0.00    -0.273 OA
ATOM      8  C   UNL A   1      33.721  24.946  24.401  1.00  0.00     0.240 C 
ATOM      9  H   UNL A   1      31.979  24.279  23.545  1.00  0.00     0.164 HD
BRANCH   8  10
ATOM     10  C   UNL A   1      34.589  24.003  23.549  1.00  0.00     0.222 C 
BRANCH  10  11
ATOM     11  N   UNL A   1      35.068  22.765  24.201  1.00  0.00    -0.331 N 
ATOM     12  C   UNL A   1      34.205  21.668  24.409  1.00  0.00     0.053 A 
ATOM     13  C   UNL A   1      36.342  22.778  24.819  1.00  0.00     0.053 A 
ATOM     14  C   UNL A   1      32.806  21.759  24.433  1.00  0.00     0.027 A 
ATOM     15  C   UNL A   1      34.762  20.399  24.676  1.00  0.00     0.046 A 
ATOM     16  C   UNL A   1      36.948  21.557  25.173  1.00  0.00     0.046 A 
ATOM     17  C   UNL A   1      37.014  23.954  25.195  1.00  0.00     0.027 A 
ATOM     18  C   UNL A   1      32.007  20.622  24.633  1.00  0.00     0.002 A 
ATOM     19  C   UNL A   1      33.972  19.252  24.832  1.00  0.00     0.014 A 
ATOM     20  C   UNL A   1      36.223  20.300  24.885  1.00  0.00     0.197 A 
ATOM     21  C   UNL A   1      38.174  21.502  25.850  1.00  0.00     0.014 A 
ATOM     22  C   UNL A   1      38.231  23.906  25.889  1.00  0.00     0.002 A 
ATOM     23  C   UNL A   1      32.587  19.366  24.801  1.00  0.00     0.001 A 
ATOM     24  O   UNL A   1      36.797  19.217  24.907  1.00  0.00    -0.288 OA
ATOM     25  C   UNL A   1      38.812  22.683  26.214  1.00  0.00     0.001 A 
ENDBRANCH  10  11
ENDBRANCH   8  10
ENDBRANCH   5   6
BRANCH   5  26
ATOM     26  C   UNL A   1      30.046  25.922  24.220  1.00  0.00     0.072 C 
BRANCH  26  27
ATOM     27  C   UNL A   1      29.707  27.194  23.475  1.00  0.00    -0.045 A 
ATOM     28  C   UNL A   1      30.711  27.943  22.843  1.00  0.00     0.004 A 
ATOM     29  C   UNL A   1      28.388  27.661  23.439  1.00  0.00     0.004 A 
ATOM     30  C   UNL A   1      30.414  29.170  22.251  1.00  0.00     0.000 A 
ATOM     31  C   UNL A   1      28.088  28.875  22.821  1.00  0.00     0.000 A 
ATOM     32  C   UNL A   1      29.103  29.638  22.244  1.00  0.00     0.000 A 
ENDBRANCH  26  27
ENDBRANCH   5  26
ENDBRANCH   3   5
ENDBRANCH   2   3
ENDBRANCH   1   2
BRANCH   1  33
ATOM     33  C   UNL A   1      32.532  29.087  27.306  1.00  0.00     0.275 C 
BRANCH  33  34
ATOM     34  O   UNL A   1      33.811  29.580  26.855  1.00  0.00    -0.458 OA
BRANCH  34  35
ATOM     35  C   UNL A   1      34.352  30.503  27.678  1.00  0.00     0.338 C 
ATOM     36  O   UNL A   1      33.790  31.507  28.092  1.00  0.00    -0.246 OA
BRANCH  35  37
ATOM     37  C   UNL A   1      35.681  30.112  28.165  1.00  0.00     0.060 A 
ATOM     38  C   UNL A   1      35.885  29.658  29.468  1.00  0.00     0.016 A 
ATOM     39  C   UNL A   1      36.736  30.127  27.243  1.00  0.00     0.016 A 
ATOM     40  C   UNL A   1      37.161  29.237  29.849  1.00  0.00     0.010 A 
ATOM     41  C   UNL A   1      38.005  29.712  27.622  1.00  0.00     0.010 A 
ATOM     42  C   UNL A   1      38.225  29.275  28.932  1.00  0.00    -0.014 A 
BRANCH  42  43
ATOM     43  C   UNL A   1      39.581  28.861  29.339  1.00  0.00     0.031 A 
ATOM     44  C   UNL A   1      40.383  29.738  30.250  1.00  0.00     0.074 A 
ATOM     45  C   UNL A   1      40.088  27.708  28.871  1.00  0.00     0.049 A 
ATOM     46  N   UNL A   1      41.530  29.489  30.829  1.00  0.00    -0.248 NA
ATOM     47  C   UNL A   1      39.830  31.069  30.549  1.00  0.00     0.031 C 
ATOM     48  C   UNL A   1      39.411  26.811  27.934  1.00  0.00     0.029 A 
ATOM     49  N   UNL A   1      41.286  27.092  29.125  1.00  0.00    -0.354 N 
ATOM     50  C   UNL A   1      41.817  30.614  31.587  1.00  0.00     0.074 A 
ATOM     51  C   UNL A   1      40.760  31.572  31.349  1.00  0.00     0.031 C 
ATOM     52  C   UNL A   1      40.195  25.743  27.711  1.00  0.00     0.029 A 
ATOM     53  C   UNL A   1      41.425  25.885  28.486  1.00  0.00     0.049 A 
ATOM     54  H   UNL A   1      41.978  27.478  29.708  1.00  0.00     0.167 HD
ATOM     55  C   UNL A   1      42.859  30.814  32.426  1.00  0.00     0.031 A 
ATOM     56  C   UNL A   1      42.425  24.985  28.541  1.00  0.00     0.031 A 
ATOM     57  C   UNL A   1      43.924  29.869  32.621  1.00  0.00     0.049 A 
ATOM     58  C   UNL A   1      43.590  25.242  29.455  1.00  0.00     0.074 A 
ATOM     59  C   UNL A   1      45.011  29.959  33.473  1.00  0.00     0.029 A 
ATOM     60  N   UNL A   1      44.043  28.667  31.939  1.00  0.00    -0.354 N 
ATOM     61  N   UNL A   1      43.800  26.262  30.253  1.00  0.00    -0.248 NA
ATOM     62  C   UNL A   1      44.643  24.217  29.497  1.00  0.00     0.031 C 
ATOM     63  C   UNL A   1      45.815  28.835  33.268  1.00  0.00     0.029 A 
ATOM     64  C   UNL A   1      45.201  28.018  32.331  1.00  0.00     0.049 A 
ATOM     65  H   UNL A   1      43.401  28.327  31.276  1.00  0.00     0.167 HD
ATOM     66  C   UNL A   1      44.994  25.993  30.907  1.00  0.00     0.074 A 
ATOM     67  C   UNL A   1      45.457  24.708  30.423  1.00  0.00     0.031 C 
ATOM     68  C   UNL A   1      45.645  26.742  31.831  1.00  0.00     0.031 A 
BRANCH  55  69
ATOM     69  C   UNL A   1      42.890  32.098  33.205  1.00  0.00    -0.014 A 
ATOM     70  C   UNL A   1      42.211  32.200  34.429  1.00  0.00     0.009 A 
ATOM     71  C   UNL A   1      43.540  33.231  32.691  1.00  0.00     0.009 A 
ATOM     72  C   UNL A   1      42.180  33.413  35.120  1.00  0.00     0.001 A 
ATOM     73  C   UNL A   1      43.528  34.436  33.395  1.00  0.00     0.001 A 
ATOM     74  C   UNL A   1      42.843  34.528  34.606  1.00  0.00     0.000 A 
ENDBRANCH  55  69
BRANCH  56  75
ATOM     75  C   UNL A   1      42.317  23.730  27.755  1.00  0.00    -0.014 A 
ATOM     76  C   UNL A   1      41.898  22.537  28.365  1.00  0.00     0.009 A 
ATOM     77  C   UNL A   1      42.692  23.705  26.403  1.00  0.00     0.009 A 
ATOM     78  C   UNL A   1      41.870  21.342  27.641  1.00  0.00     0.001 A 
ATOM     79  C   UNL A   1      42.641  22.513  25.676  1.00  0.00     0.001 A 
ATOM     80  C   UNL A   1      42.238  21.332  26.297  1.00  0.00     0.000 A 
ENDBRANCH  56  75
BRANCH  68  81
ATOM     81  C   UNL A   1      46.929  26.201  32.390  1.00  0.00    -0.014 A 
ATOM     82  C   UNL A   1      48.138  26.448  31.719  1.00  0.00     0.009 A 
ATOM     83  C   UNL A   1      46.930  25.358  33.511  1.00  0.00     0.009 A 
ATOM     84  C   UNL A   1      49.321  25.845  32.149  1.00  0.00     0.001 A 
ATOM     85  C   UNL A   1      48.119  24.776  33.953  1.00  0.00     0.001 A 
ATOM     86  C   UNL A   1      49.310  25.012  33.266  1.00  0.00     0.000 A 
ENDBRANCH  68  81
ENDBRANCH  42  43
ENDBRANCH  35  37
ENDBRANCH  34  35
ENDBRANCH  33  34
ENDBRANCH   1  33
TORSDOF 16
ENDMDL
MODEL 3
REMARK VINA RESULT:     -11.5      2.092      8.209
REMARK SMILES O=C(Cn1c2ccccc2c(=O)c2ccccc21)N[C@@H](Cc1ccccc1)C(=O)OCCOC(=O)c1ccc(-c2c3nc(c(-c4ccccc4)c4ccc([nH]4)c(-c4ccccc4)c4nc(c(-c5ccccc5)c5ccc2[nH]5)C=C4)C=C3)cc1
REMARK SMILES IDX 31 1 30 2 28 3 29 4 20 5 19 6 1 7 2 8 3 10 4 11 5 12 18 13
REMARK SMILES IDX 6 14 10 15 13 16 17 17 7 18 9 19 11 20 14 21 16 22 8 23
REMARK SMILES IDX 12 24 15 25 21 26 22 27 23 28 27 29 24 30 26 31 25 32 32 33
REMARK SMILES IDX 33 34 34 35 35 36 36 37 37 38 83 39 38 40 82 41 39 42 40 43
REMARK SMILES IDX 41 44 76 45 42 46 81 47 75 48 77 49 43 50 80 51 74 52 73 53
REMARK SMILES IDX 44 55 66 56 51 57 65 58 52 59 55 60 64 61 78 62 53 63 54 64
REMARK SMILES IDX 63 66 79 67 56 68 45 69 46 70 50 71 47 72 49 73 48 74 67 75
REMARK SMILES IDX 68 76 72 77 69 78 71 79 70 80 57 81 58 82 62 83 59 84 61 85
REMARK SMILES IDX 60 86
REMARK H PARENT 19 9 77 54 55 65
REMARK Flexibility Score: inf
ROOT
ATOM      1  C   UNL A   1      35.788  22.007  24.869  1.00  0.00     0.274 C 
ENDROOT
BRANCH   1   2
ATOM      2  O   UNL A   1      35.503  23.112  23.989  1.00  0.00    -0.461 OA
BRANCH   2   3
ATOM      3  C   UNL A   1      34.345  23.031  23.275  1.00  0.00     0.329 C 
ATOM      4  O   UNL A   1      34.242  23.327  22.088  1.00  0.00    -0.250 OA
BRANCH   3   5
ATOM      5  C   UNL A   1      33.131  22.655  24.139  1.00  0.00     0.196 C 
BRANCH   5   6
ATOM      6  N   UNL A   1      32.340  23.771  24.694  1.00  0.00    -0.341 N 
ATOM      7  O   UNL A   1      33.557  23.892  26.626  1.00  0.00    -0.273 OA
ATOM      8  C   UNL A   1      32.637  24.323  25.926  1.00  0.00     0.240 C 
ATOM      9  H   UNL A   1      31.583  24.130  24.175  1.00  0.00     0.164 HD
BRANCH   8  10
ATOM     10  C   UNL A   1      31.665  25.376  26.484  1.00  0.00     0.222 C 
BRANCH  10  11
ATOM     11  N   UNL A   1      31.588  26.664  25.761  1.00  0.00    -0.331 N 
ATOM     12  C   UNL A   1      32.425  27.747  26.105  1.00  0.00     0.053 A 
ATOM     13  C   UNL A   1      30.507  26.872  24.870  1.00  0.00     0.053 A 
ATOM     14  C   UNL A   1      33.062  27.886  27.345  1.00  0.00     0.027 A 
ATOM     15  C   UNL A   1      32.594  28.801  25.183  1.00  0.00     0.046 A 
ATOM     16  C   UNL A   1      30.567  27.939  23.953  1.00  0.00     0.046 A 
ATOM     17  C   UNL A   1      29.315  26.129  24.903  1.00  0.00     0.027 A 
ATOM     18  C   UNL A   1      33.893  28.985  27.616  1.00  0.00     0.002 A 
ATOM     19  C   UNL A   1      33.456  29.879  25.428  1.00  0.00     0.014 A 
ATOM     20  C   UNL A   1      31.765  28.808  23.958  1.00  0.00     0.197 A 
ATOM     21  C   UNL A   1      29.503  28.244  23.092  1.00  0.00     0.014 A 
ATOM     22  C   UNL A   1      28.240  26.440  24.058  1.00  0.00     0.002 A 
ATOM     23  C   UNL A   1      34.115  29.964  26.649  1.00  0.00     0.001 A 
ATOM     24  O   UNL A   1      32.006  29.563  23.024  1.00  0.00    -0.288 OA
ATOM     25  C   UNL A   1      28.334  27.494  23.153  1.00  0.00     0.001 A 
ENDBRANCH  10  11
ENDBRANCH   8  10
ENDBRANCH   5   6
BRANCH   5  26
ATOM     26  C   UNL A   1      32.266  21.636  23.370  1.00  0.00     0.072 C 
BRANCH  26  27
ATOM     27  C   UNL A   1      32.495  20.198  23.778  1.00  0.00    -0.045 A 
ATOM     28  C   UNL A   1      32.502  19.174  22.819  1.00  0.00     0.004 A 
ATOM     29  C   UNL A   1      32.665  19.865  25.127  1.00  0.00     0.004 A 
ATOM     30  C   UNL A   1      32.603  17.838  23.208  1.00  0.00     0.000 A 
ATOM     31  C   UNL A   1      32.795  18.530  25.511  1.00  0.00     0.000 A 
ATOM     32  C   UNL A   1      32.746  17.517  24.555  1.00  0.00     0.000 A 
ENDBRANCH  26  27
ENDBRANCH   5  26
ENDBRANCH   3   5
ENDBRANCH   2   3
ENDBRANCH   1   2
BRANCH   1  33
ATOM     33  C   UNL A   1      37.285  21.901  25.189  1.00  0.00     0.275 C 
BRANCH  33  34
ATOM     34  O   UNL A   1      37.855  23.159  25.609  1.00  0.00    -0.458 OA
BRANCH  34  35
ATOM     35  C   UNL A   1      39.019  23.024  26.281  1.00  0.00     0.338 C 
ATOM     36  O   UNL A   1      39.711  22.017  26.313  1.00  0.00    -0.246 OA
BRANCH  35  37
ATOM     37  C   UNL A   1      39.470  24.284  26.883  1.00  0.00     0.060 A 
ATOM     38  C   UNL A   1      40.210  25.222  26.164  1.00  0.00     0.016 A 
ATOM     39  C   UNL A   1      39.053  24.559  28.192  1.00  0.00     0.016 A 
ATOM     40  C   UNL A   1      40.551  26.431  26.773  1.00  0.00     0.010 A 
ATOM     41  C   UNL A   1      39.394  25.759  28.800  1.00  0.00     0.010 A 
ATOM     42  C   UNL A   1      40.155  26.697  28.095  1.00  0.00    -0.014 A 
BRANCH  42  43
ATOM     43  C   UNL A   1      40.539  27.960  28.754  1.00  0.00     0.031 A 
ATOM     44  C   UNL A   1      39.562  29.093  28.816  1.00  0.00     0.074 A 
ATOM     45  C   UNL A   1      41.772  28.085  29.275  1.00  0.00     0.049 A 
ATOM     46  N   UNL A   1      39.658  30.224  29.465  1.00  0.00    -0.248 NA
ATOM     47  C   UNL A   1      38.316  28.938  28.048  1.00  0.00     0.031 C 
ATOM     48  C   UNL A   1      42.817  27.063  29.216  1.00  0.00     0.029 A 
ATOM     49  N   UNL A   1      42.350  29.121  29.960  1.00  0.00    -0.354 N 
ATOM     50  C   UNL A   1      38.472  30.900  29.214  1.00  0.00     0.074 A 
ATOM     51  C   UNL A   1      37.699  30.083  28.305  1.00  0.00     0.031 C 
ATOM     52  C   UNL A   1      43.904  27.514  29.864  1.00  0.00     0.029 A 
ATOM     53  C   UNL A   1      43.630  28.854  30.378  1.00  0.00     0.049 A 
ATOM     54  H   UNL A   1      41.891  29.975  30.134  1.00  0.00     0.167 HD
ATOM     55  C   UNL A   1      38.061  32.085  29.720  1.00  0.00     0.031 A 
ATOM     56  C   UNL A   1      44.476  29.599  31.114  1.00  0.00     0.031 A 
ATOM     57  C   UNL A   1      38.859  32.904  30.590  1.00  0.00     0.049 A 
ATOM     58  C   UNL A   1      44.011  30.928  31.640  1.00  0.00     0.074 A 
ATOM     59  C   UNL A   1      38.524  34.107  31.187  1.00  0.00     0.029 A 
ATOM     60  N   UNL A   1      40.159  32.611  30.973  1.00  0.00    -0.354 N 
ATOM     61  N   UNL A   1      42.845  31.510  31.486  1.00  0.00    -0.248 NA
ATOM     62  C   UNL A   1      44.962  31.691  32.459  1.00  0.00     0.031 C 
ATOM     63  C   UNL A   1      39.641  34.568  31.889  1.00  0.00     0.029 A 
ATOM     64  C   UNL A   1      40.652  33.625  31.776  1.00  0.00     0.049 A 
ATOM     65  H   UNL A   1      40.657  31.804  30.713  1.00  0.00     0.167 HD
ATOM     66  C   UNL A   1      42.915  32.696  32.206  1.00  0.00     0.074 A 
ATOM     67  C   UNL A   1      44.233  32.744  32.806  1.00  0.00     0.031 C 
ATOM     68  C   UNL A   1      41.969  33.654  32.359  1.00  0.00     0.031 A 
BRANCH  55  69
ATOM     69  C   UNL A   1      36.683  32.557  29.356  1.00  0.00    -0.014 A 
ATOM     70  C   UNL A   1      35.569  32.130  30.095  1.00  0.00     0.009 A 
ATOM     71  C   UNL A   1      36.482  33.377  28.235  1.00  0.00     0.009 A 
ATOM     72  C   UNL A   1      34.281  32.512  29.715  1.00  0.00     0.001 A 
ATOM     73  C   UNL A   1      35.195  33.778  27.871  1.00  0.00     0.001 A 
ATOM     74  C   UNL A   1      34.095  33.339  28.607  1.00  0.00     0.000 A 
ENDBRANCH  55  69
BRANCH  56  75
ATOM     75  C   UNL A   1      45.817  29.059  31.449  1.00  0.00    -0.014 A 
ATOM     76  C   UNL A   1      46.018  28.316  32.624  1.00  0.00     0.009 A 
ATOM     77  C   UNL A   1      46.919  29.335  30.625  1.00  0.00     0.009 A 
ATOM     78  C   UNL A   1      47.296  27.874  32.974  1.00  0.00     0.001 A 
ATOM     79  C   UNL A   1      48.192  28.871  30.966  1.00  0.00     0.001 A 
ATOM     80  C   UNL A   1      48.381  28.149  32.143  1.00  0.00     0.000 A 
ENDBRANCH  56  75
BRANCH  68  81
ATOM     81  C   UNL A   1      42.311  34.844  33.210  1.00  0.00    -0.014 A 
ATOM     82  C   UNL A   1      43.057  35.900  32.661  1.00  0.00     0.009 A 
ATOM     83  C   UNL A   1      41.996  34.868  34.576  1.00  0.00     0.009 A 
ATOM     84  C   UNL A   1      43.496  36.949  33.469  1.00  0.00     0.001 A 
ATOM     85  C   UNL A   1      42.415  35.931  35.376  1.00  0.00     0.001 A 
ATOM     86  C   UNL A   1      43.173  36.965  34.825  1.00  0.00     0.000 A 
ENDBRANCH  68  81
ENDBRANCH  42  43
ENDBRANCH  35  37
ENDBRANCH  34  35
ENDBRANCH  33  34
ENDBRANCH   1  33
TORSDOF 16
ENDMDL
