MODEL 1
REMARK VINA RESULT:     -10.8      0.000      0.000
REMARK SMILES CC[C@H]1SC[C@H](C(=O)OCCOC(=O)c2ccc(-c3c4nc(c(-c5ccccc5)c5ccc([nH]5)c(-c5ccccc5)c5nc(c(-c6ccccc6)c6ccc3[nH]6)C=C5)C=C4)cc2)N1C(=O)Cc1ccc(F)c(F)c1
REMARK SMILES IDX 10 1 9 2 7 3 8 4 6 5 3 6 4 7 63 8 5 9 2 10 1 11 64 12 65 13
REMARK SMILES IDX 66 14 67 15 68 16 74 17 69 18 72 19 70 20 73 21 71 22 11 23
REMARK SMILES IDX 12 24 13 25 14 26 15 27 16 28 62 29 17 30 61 31 18 32 19 33
REMARK SMILES IDX 20 34 55 35 21 36 60 37 54 38 56 39 22 40 59 41 53 42 52 43
REMARK SMILES IDX 23 45 45 46 30 47 44 48 31 49 34 50 43 51 57 52 32 53 33 54
REMARK SMILES IDX 42 56 58 57 35 58 24 59 25 60 29 61 26 62 28 63 27 64 46 65
REMARK SMILES IDX 47 66 51 67 48 68 50 69 49 70 36 71 37 72 41 73 38 74 40 75
REMARK SMILES IDX 39 76
REMARK H PARENT 56 44 34 55
REMARK Flexibility Score: inf
ROOT
ATOM      1  C   UNL A   1      37.763  21.580  25.036  1.00  0.00     0.274 C 
ENDROOT
BRANCH   1   2
ATOM      2  O   UNL A   1      36.543  21.437  24.291  1.00  0.00    -0.461 OA
BRANCH   2   3
ATOM      3  C   UNL A   1      35.913  22.572  23.880  1.00  0.00     0.329 C 
ATOM      4  O   UNL A   1      36.114  23.124  22.805  1.00  0.00    -0.250 OA
BRANCH   3   5
ATOM      5  C   UNL A   1      34.813  22.952  24.894  1.00  0.00     0.206 C 
ATOM      6  C   UNL A   1      32.866  24.453  24.636  1.00  0.00     0.144 C 
ATOM      7  S   UNL A   1      34.198  25.530  25.225  1.00  0.00    -0.134 SA
ATOM      8  N   UNL A   1      33.512  23.211  24.251  1.00  0.00    -0.316 N 
ATOM      9  C   UNL A   1      35.237  24.147  25.748  1.00  0.00     0.109 C 
BRANCH   6  10
ATOM     10  C   UNL A   1      31.767  24.261  25.709  1.00  0.00     0.033 C 
ATOM     11  C   UNL A   1      30.780  25.405  25.927  1.00  0.00     0.007 C 
ENDBRANCH   6  10
BRANCH   8  12
ATOM     12  C   UNL A   1      32.878  22.187  23.566  1.00  0.00     0.228 C 
ATOM     13  O   UNL A   1      32.704  22.242  22.347  1.00  0.00    -0.274 OA
BRANCH  12  14
ATOM     14  C   UNL A   1      32.310  21.033  24.388  1.00  0.00     0.135 C 
BRANCH  14  15
ATOM     15  C   UNL A   1      32.841  19.669  24.023  1.00  0.00    -0.036 A 
ATOM     16  C   UNL A   1      32.190  18.877  23.063  1.00  0.00     0.007 A 
ATOM     17  C   UNL A   1      34.004  19.177  24.638  1.00  0.00     0.046 A 
ATOM     18  C   UNL A   1      32.723  17.641  22.686  1.00  0.00     0.043 A 
ATOM     19  C   UNL A   1      34.528  17.946  24.253  1.00  0.00     0.159 A 
ATOM     20  C   UNL A   1      33.898  17.188  23.276  1.00  0.00     0.158 A 
ATOM     21  F   UNL A   1      35.662  17.511  24.821  1.00  0.00    -0.204 F 
ATOM     22  F   UNL A   1      34.419  16.015  22.892  1.00  0.00    -0.204 F 
ENDBRANCH  14  15
ENDBRANCH  12  14
ENDBRANCH   8  12
ENDBRANCH   3   5
ENDBRANCH   2   3
ENDBRANCH   1   2
BRANCH   1  23
ATOM     23  C   UNL A   1      38.496  20.233  25.029  1.00  0.00     0.275 C 
BRANCH  23  24
ATOM     24  O   UNL A   1      39.211  20.004  26.265  1.00  0.00    -0.458 OA
BRANCH  24  25
ATOM     25  C   UNL A   1      40.554  19.878  26.143  1.00  0.00     0.338 C 
ATOM     26  O   UNL A   1      41.165  18.936  25.665  1.00  0.00    -0.246 OA
BRANCH  25  27
ATOM     27  C   UNL A   1      41.242  21.098  26.605  1.00  0.00     0.060 A 
ATOM     28  C   UNL A   1      41.152  21.421  27.961  1.00  0.00     0.016 A 
ATOM     29  C   UNL A   1      41.856  21.981  25.714  1.00  0.00     0.016 A 
ATOM     30  C   UNL A   1      41.636  22.634  28.429  1.00  0.00     0.010 A 
ATOM     31  C   UNL A   1      42.354  23.201  26.188  1.00  0.00     0.010 A 
ATOM     32  C   UNL A   1      42.223  23.545  27.545  1.00  0.00    -0.014 A 
BRANCH  32  33
ATOM     33  C   UNL A   1      42.626  24.872  28.068  1.00  0.00     0.031 A 
ATOM     34  C   UNL A   1      41.588  25.928  28.319  1.00  0.00     0.074 A 
ATOM     35  C   UNL A   1      43.908  25.090  28.413  1.00  0.00     0.049 A 
ATOM     36  N   UNL A   1      41.737  27.131  28.813  1.00  0.00    -0.248 NA
ATOM     37  C   UNL A   1      40.199  25.586  27.974  1.00  0.00     0.031 C 
ATOM     38  C   UNL A   1      44.998  24.123  28.271  1.00  0.00     0.029 A 
ATOM     39  N   UNL A   1      44.503  26.188  28.979  1.00  0.00    -0.354 N 
ATOM     40  C   UNL A   1      40.469  27.698  28.817  1.00  0.00     0.074 A 
ATOM     41  C   UNL A   1      39.564  26.713  28.264  1.00  0.00     0.031 C 
ATOM     42  C   UNL A   1      46.125  24.662  28.762  1.00  0.00     0.029 A 
ATOM     43  C   UNL A   1      45.846  26.022  29.214  1.00  0.00     0.049 A 
ATOM     44  H   UNL A   1      44.016  27.016  29.195  1.00  0.00     0.167 HD
ATOM     45  C   UNL A   1      40.092  28.926  29.245  1.00  0.00     0.031 A 
ATOM     46  C   UNL A   1      46.752  26.873  29.728  1.00  0.00     0.031 A 
ATOM     47  C   UNL A   1      40.987  29.903  29.806  1.00  0.00     0.049 A 
ATOM     48  C   UNL A   1      46.314  28.242  30.161  1.00  0.00     0.074 A 
ATOM     49  C   UNL A   1      40.695  31.174  30.271  1.00  0.00     0.029 A 
ATOM     50  N   UNL A   1      42.348  29.715  29.981  1.00  0.00    -0.354 N 
ATOM     51  N   UNL A   1      45.113  28.768  30.150  1.00  0.00    -0.248 NA
ATOM     52  C   UNL A   1      47.359  29.135  30.680  1.00  0.00     0.031 C 
ATOM     53  C   UNL A   1      41.891  31.771  30.690  1.00  0.00     0.029 A 
ATOM     54  C   UNL A   1      42.916  30.854  30.530  1.00  0.00     0.049 A 
ATOM     55  H   UNL A   1      42.840  28.894  29.751  1.00  0.00     0.167 HD
ATOM     56  C   UNL A   1      45.255  30.046  30.671  1.00  0.00     0.074 A 
ATOM     57  C   UNL A   1      46.654  30.208  31.011  1.00  0.00     0.031 C 
ATOM     58  C   UNL A   1      44.312  31.002  30.852  1.00  0.00     0.031 A 
BRANCH  45  59
ATOM     59  C   UNL A   1      38.646  29.295  29.077  1.00  0.00    -0.014 A 
ATOM     60  C   UNL A   1      37.743  29.225  30.150  1.00  0.00     0.009 A 
ATOM     61  C   UNL A   1      38.186  29.737  27.828  1.00  0.00     0.009 A 
ATOM     62  C   UNL A   1      36.399  29.559  29.963  1.00  0.00     0.001 A 
ATOM     63  C   UNL A   1      36.848  30.093  27.650  1.00  0.00     0.001 A 
ATOM     64  C   UNL A   1      35.953  29.995  28.715  1.00  0.00     0.000 A 
ENDBRANCH  45  59
BRANCH  46  65
ATOM     65  C   UNL A   1      48.173  26.457  29.842  1.00  0.00    -0.014 A 
ATOM     66  C   UNL A   1      49.067  26.659  28.781  1.00  0.00     0.009 A 
ATOM     67  C   UNL A   1      48.638  25.853  31.020  1.00  0.00     0.009 A 
ATOM     68  C   UNL A   1      50.397  26.247  28.893  1.00  0.00     0.001 A 
ATOM     69  C   UNL A   1      49.974  25.465  31.138  1.00  0.00     0.001 A 
ATOM     70  C   UNL A   1      50.851  25.656  30.072  1.00  0.00     0.000 A 
ENDBRANCH  46  65
BRANCH  58  71
ATOM     71  C   UNL A   1      44.765  32.299  31.458  1.00  0.00    -0.014 A 
ATOM     72  C   UNL A   1      45.198  33.364  30.654  1.00  0.00     0.009 A 
ATOM     73  C   UNL A   1      44.747  32.459  32.852  1.00  0.00     0.009 A 
ATOM     74  C   UNL A   1      45.638  34.554  31.237  1.00  0.00     0.001 A 
ATOM     75  C   UNL A   1      45.164  33.660  33.430  1.00  0.00     0.001 A 
ATOM     76  C   UNL A   1      45.618  34.701  32.623  1.00  0.00     0.000 A 
ENDBRANCH  58  71
ENDBRANCH  32  33
ENDBRANCH  25  27
ENDBRANCH  24  25
ENDBRANCH  23  24
ENDBRANCH   1  23
TORSDOF 15
ENDMDL
MODEL 2
REMARK VINA RESULT:     -10.6      1.026      6.060
REMARK SMILES CC[C@H]1SC[C@H](C(=O)OCCOC(=O)c2ccc(-c3c4nc(c(-c5ccccc5)c5ccc([nH]5)c(-c5ccccc5)c5nc(c(-c6ccccc6)c6ccc3[nH]6)C=C5)C=C4)cc2)N1C(=O)Cc1ccc(F)c(F)c1
REMARK SMILES IDX 10 1 9 2 7 3 8 4 6 5 3 6 4 7 63 8 5 9 2 10 1 11 64 12 65 13
REMARK SMILES IDX 66 14 67 15 68 16 74 17 69 18 72 19 70 20 73 21 71 22 11 23
REMARK SMILES IDX 12 24 13 25 14 26 15 27 16 28 62 29 17 30 61 31 18 32 19 33
REMARK SMILES IDX 20 34 55 35 21 36 60 37 54 38 56 39 22 40 59 41 53 42 52 43
REMARK SMILES IDX 23 45 45 46 30 47 44 48 31 49 34 50 43 51 57 52 32 53 33 54
REMARK SMILES IDX 42 56 58 57 35 58 24 59 25 60 29 61 26 62 28 63 27 64 46 65
REMARK SMILES IDX 47 66 51 67 48 68 50 69 49 70 36 71 37 72 41 73 38 74 40 75
REMARK SMILES IDX 39 76
REMARK H PARENT 56 44 34 55
REMARK Flexibility Score: inf
ROOT
ATOM      1  C   UNL A   1      37.714  20.884  24.958  1.00  0.00     0.274 C 
ENDROOT
BRANCH   1   2
ATOM      2  O   UNL A   1      36.710  21.716  25.562  1.00  0.00    -0.461 OA
BRANCH   2   3
ATOM      3  C   UNL A   1      35.857  22.384  24.737  1.00  0.00     0.329 C 
ATOM      4  O   UNL A   1      35.833  22.259  23.519  1.00  0.00    -0.250 OA
BRANCH   3   5
ATOM      5  C   UNL A   1      34.841  23.184  25.580  1.00  0.00     0.206 C 
ATOM      6  C   UNL A   1      32.421  23.545  25.226  1.00  0.00     0.144 C 
ATOM      7  S   UNL A   1      33.220  24.911  24.346  1.00  0.00    -0.134 SA
ATOM      8  N   UNL A   1      33.486  22.607  25.535  1.00  0.00    -0.316 N 
ATOM      9  C   UNL A   1      34.812  24.654  25.161  1.00  0.00     0.109 C 
BRANCH   6  10
ATOM     10  C   UNL A   1      31.660  24.038  26.481  1.00  0.00     0.033 C 
ATOM     11  C   UNL A   1      30.326  23.373  26.808  1.00  0.00     0.007 C 
ENDBRANCH   6  10
BRANCH   8  12
ATOM     12  C   UNL A   1      33.275  21.331  26.033  1.00  0.00     0.228 C 
ATOM     13  O   UNL A   1      33.707  20.994  27.137  1.00  0.00    -0.274 OA
BRANCH  12  14
ATOM     14  C   UNL A   1      32.576  20.324  25.122  1.00  0.00     0.135 C 
BRANCH  14  15
ATOM     15  C   UNL A   1      33.223  18.962  25.067  1.00  0.00    -0.036 A 
ATOM     16  C   UNL A   1      34.499  18.793  24.507  1.00  0.00     0.007 A 
ATOM     17  C   UNL A   1      32.552  17.841  25.584  1.00  0.00     0.046 A 
ATOM     18  C   UNL A   1      35.116  17.539  24.515  1.00  0.00     0.043 A 
ATOM     19  C   UNL A   1      33.176  16.597  25.591  1.00  0.00     0.159 A 
ATOM     20  C   UNL A   1      34.453  16.449  25.068  1.00  0.00     0.158 A 
ATOM     21  F   UNL A   1      32.537  15.547  26.126  1.00  0.00    -0.204 F 
ATOM     22  F   UNL A   1      35.060  15.254  25.098  1.00  0.00    -0.204 F 
ENDBRANCH  14  15
ENDBRANCH  12  14
ENDBRANCH   8  12
ENDBRANCH   3   5
ENDBRANCH   2   3
ENDBRANCH   1   2
BRANCH   1  23
ATOM     23  C   UNL A   1      39.038  21.107  25.697  1.00  0.00     0.275 C 
BRANCH  23  24
ATOM     24  O   UNL A   1      39.654  19.858  26.084  1.00  0.00    -0.458 OA
BRANCH  24  25
ATOM     25  C   UNL A   1      41.007  19.832  26.015  1.00  0.00     0.338 C 
ATOM     26  O   UNL A   1      41.703  18.961  25.519  1.00  0.00    -0.246 OA
BRANCH  25  27
ATOM     27  C   UNL A   1      41.587  21.071  26.565  1.00  0.00     0.060 A 
ATOM     28  C   UNL A   1      41.432  21.310  27.933  1.00  0.00     0.016 A 
ATOM     29  C   UNL A   1      42.158  22.046  25.744  1.00  0.00     0.016 A 
ATOM     30  C   UNL A   1      41.809  22.527  28.482  1.00  0.00     0.010 A 
ATOM     31  C   UNL A   1      42.548  23.271  26.300  1.00  0.00     0.010 A 
ATOM     32  C   UNL A   1      42.352  23.527  27.668  1.00  0.00    -0.014 A 
BRANCH  32  33
ATOM     33  C   UNL A   1      42.637  24.849  28.275  1.00  0.00     0.031 A 
ATOM     34  C   UNL A   1      44.047  25.223  28.632  1.00  0.00     0.074 A 
ATOM     35  C   UNL A   1      41.645  25.748  28.409  1.00  0.00     0.049 A 
ATOM     36  N   UNL A   1      44.502  26.345  29.130  1.00  0.00    -0.248 NA
ATOM     37  C   UNL A   1      45.083  24.205  28.396  1.00  0.00     0.031 C 
ATOM     38  C   UNL A   1      40.245  25.523  28.044  1.00  0.00     0.029 A 
ATOM     39  N   UNL A   1      41.672  27.041  28.864  1.00  0.00    -0.354 N 
ATOM     40  C   UNL A   1      45.870  26.162  29.287  1.00  0.00     0.074 A 
ATOM     41  C   UNL A   1      46.170  24.816  28.846  1.00  0.00     0.031 C 
ATOM     42  C   UNL A   1      39.551  26.650  28.265  1.00  0.00     0.029 A 
ATOM     43  C   UNL A   1      40.447  27.660  28.823  1.00  0.00     0.049 A 
ATOM     44  H   UNL A   1      42.489  27.484  29.188  1.00  0.00     0.167 HD
ATOM     45  C   UNL A   1      46.794  27.035  29.755  1.00  0.00     0.031 A 
ATOM     46  C   UNL A   1      40.083  28.899  29.202  1.00  0.00     0.031 A 
ATOM     47  C   UNL A   1      46.501  28.377  30.184  1.00  0.00     0.049 A 
ATOM     48  C   UNL A   1      41.120  29.835  29.752  1.00  0.00     0.074 A 
ATOM     49  C   UNL A   1      47.372  29.336  30.671  1.00  0.00     0.029 A 
ATOM     50  N   UNL A   1      45.239  28.949  30.175  1.00  0.00    -0.354 N 
ATOM     51  N   UNL A   1      42.409  29.644  29.904  1.00  0.00    -0.248 NA
ATOM     52  C   UNL A   1      40.652  31.161  30.180  1.00  0.00     0.031 C 
ATOM     53  C   UNL A   1      46.629  30.478  30.994  1.00  0.00     0.029 A 
ATOM     54  C   UNL A   1      45.304  30.244  30.665  1.00  0.00     0.049 A 
ATOM     55  H   UNL A   1      44.418  28.503  29.866  1.00  0.00     0.167 HD
ATOM     56  C   UNL A   1      42.907  30.827  30.432  1.00  0.00     0.074 A 
ATOM     57  C   UNL A   1      41.786  31.737  30.552  1.00  0.00     0.031 C 
ATOM     58  C   UNL A   1      44.178  31.133  30.788  1.00  0.00     0.031 A 
BRANCH  45  59
ATOM     59  C   UNL A   1      48.208  26.541  29.867  1.00  0.00    -0.014 A 
ATOM     60  C   UNL A   1      48.656  25.860  31.009  1.00  0.00     0.009 A 
ATOM     61  C   UNL A   1      49.099  26.748  28.804  1.00  0.00     0.009 A 
ATOM     62  C   UNL A   1      49.981  25.425  31.095  1.00  0.00     0.001 A 
ATOM     63  C   UNL A   1      50.415  26.292  28.883  1.00  0.00     0.001 A 
ATOM     64  C   UNL A   1      50.858  25.639  30.032  1.00  0.00     0.000 A 
ENDBRANCH  45  59
BRANCH  46  65
ATOM     65  C   UNL A   1      38.663  29.317  29.092  1.00  0.00    -0.014 A 
ATOM     66  C   UNL A   1      37.785  29.172  30.176  1.00  0.00     0.009 A 
ATOM     67  C   UNL A   1      38.181  29.865  27.893  1.00  0.00     0.009 A 
ATOM     68  C   UNL A   1      36.446  29.552  30.054  1.00  0.00     0.001 A 
ATOM     69  C   UNL A   1      36.848  30.268  27.783  1.00  0.00     0.001 A 
ATOM     70  C   UNL A   1      35.981  30.104  28.861  1.00  0.00     0.000 A 
ENDBRANCH  46  65
BRANCH  58  71
ATOM     71  C   UNL A   1      44.420  32.514  31.324  1.00  0.00    -0.014 A 
ATOM     72  C   UNL A   1      44.733  33.580  30.467  1.00  0.00     0.009 A 
ATOM     73  C   UNL A   1      44.321  32.753  32.703  1.00  0.00     0.009 A 
ATOM     74  C   UNL A   1      44.977  34.853  30.986  1.00  0.00     0.001 A 
ATOM     75  C   UNL A   1      44.542  34.033  33.216  1.00  0.00     0.001 A 
ATOM     76  C   UNL A   1      44.880  35.078  32.358  1.00  0.00     0.000 A 
ENDBRANCH  58  71
ENDBRANCH  32  33
ENDBRANCH  25  27
ENDBRANCH  24  25
ENDBRANCH  23  24
ENDBRANCH   1  23
TORSDOF 15
ENDMDL
MODEL 3
REMARK VINA RESULT:     -10.6      2.774      7.214
REMARK SMILES CC[C@H]1SC[C@H](C(=O)OCCOC(=O)c2ccc(-c3c4nc(c(-c5ccccc5)c5ccc([nH]5)c(-c5ccccc5)c5nc(c(-c6ccccc6)c6ccc3[nH]6)C=C5)C=C4)cc2)N1C(=O)Cc1ccc(F)c(F)c1
REMARK SMILES IDX 10 1 9 2 7 3 8 4 6 5 3 6 4 7 63 8 5 9 2 10 1 11 64 12 65 13
REMARK SMILES IDX 66 14 67 15 68 16 74 17 69 18 72 19 70 20 73 21 71 22 11 23
REMARK SMILES IDX 12 24 13 25 14 26 15 27 16 28 62 29 17 30 61 31 18 32 19 33
REMARK SMILES IDX 20 34 55 35 21 36 60 37 54 38 56 39 22 40 59 41 53 42 52 43
REMARK SMILES IDX 23 45 45 46 30 47 44 48 31 49 34 50 43 51 57 52 32 53 33 54
REMARK SMILES IDX 42 56 58 57 35 58 24 59 25 60 29 61 26 62 28 63 27 64 46 65
REMARK SMILES IDX 47 66 51 67 48 68 50 69 49 70 36 71 37 72 41 73 38 74 40 75
REMARK SMILES IDX 39 76
REMARK H PARENT 56 44 34 55
REMARK Flexibility Score: inf
ROOT
ATOM      1  C   UNL A   1      31.680  29.742  25.798  1.00  0.00     0.274 C 
ENDROOT
BRANCH   1   2
ATOM      2  O   UNL A   1      32.250  28.424  25.846  1.00  0.00    -0.461 OA
BRANCH   2   3
ATOM      3  C   UNL A   1      31.520  27.437  26.434  1.00  0.00     0.329 C 
ATOM      4  O   UNL A   1      31.089  27.483  27.579  1.00  0.00    -0.250 OA
BRANCH   3   5
ATOM      5  C   UNL A   1      31.195  26.344  25.393  1.00  0.00     0.206 C 
ATOM      6  C   UNL A   1      32.424  25.677  23.355  1.00  0.00     0.144 C 
ATOM      7  S   UNL A   1      31.283  26.968  22.798  1.00  0.00    -0.134 SA
ATOM      8  N   UNL A   1      32.404  25.740  24.806  1.00  0.00    -0.316 N 
ATOM      9  C   UNL A   1      30.277  26.882  24.296  1.00  0.00     0.109 C 
BRANCH   6  10
ATOM     10  C   UNL A   1      32.032  24.286  22.800  1.00  0.00     0.033 C 
ATOM     11  C   UNL A   1      33.015  23.593  21.862  1.00  0.00     0.007 C 
ENDBRANCH   6  10
BRANCH   8  12
ATOM     12  C   UNL A   1      33.285  25.052  25.624  1.00  0.00     0.228 C 
ATOM     13  O   UNL A   1      32.882  24.345  26.550  1.00  0.00    -0.274 OA
BRANCH  12  14
ATOM     14  C   UNL A   1      34.779  25.282  25.405  1.00  0.00     0.135 C 
BRANCH  14  15
ATOM     15  C   UNL A   1      35.605  24.025  25.286  1.00  0.00    -0.036 A 
ATOM     16  C   UNL A   1      35.159  22.941  24.511  1.00  0.00     0.007 A 
ATOM     17  C   UNL A   1      36.840  23.927  25.948  1.00  0.00     0.046 A 
ATOM     18  C   UNL A   1      35.959  21.806  24.356  1.00  0.00     0.043 A 
ATOM     19  C   UNL A   1      37.630  22.793  25.784  1.00  0.00     0.159 A 
ATOM     20  C   UNL A   1      37.197  21.743  24.987  1.00  0.00     0.158 A 
ATOM     21  F   UNL A   1      38.824  22.734  26.391  1.00  0.00    -0.204 F 
ATOM     22  F   UNL A   1      37.971  20.663  24.813  1.00  0.00    -0.204 F 
ENDBRANCH  14  15
ENDBRANCH  12  14
ENDBRANCH   8  12
ENDBRANCH   3   5
ENDBRANCH   2   3
ENDBRANCH   1   2
BRANCH   1  23
ATOM     23  C   UNL A   1      32.359  30.605  26.867  1.00  0.00     0.275 C 
BRANCH  23  24
ATOM     24  O   UNL A   1      33.797  30.451  26.848  1.00  0.00    -0.458 OA
BRANCH  24  25
ATOM     25  C   UNL A   1      34.450  30.958  27.921  1.00  0.00     0.338 C 
ATOM     26  O   UNL A   1      34.052  31.822  28.685  1.00  0.00    -0.246 OA
BRANCH  25  27
ATOM     27  C   UNL A   1      35.735  30.266  28.131  1.00  0.00     0.060 A 
ATOM     28  C   UNL A   1      35.987  29.732  29.396  1.00  0.00     0.016 A 
ATOM     29  C   UNL A   1      36.733  30.250  27.153  1.00  0.00     0.016 A 
ATOM     30  C   UNL A   1      37.237  29.215  29.707  1.00  0.00     0.010 A 
ATOM     31  C   UNL A   1      37.991  29.718  27.462  1.00  0.00     0.010 A 
ATOM     32  C   UNL A   1      38.257  29.221  28.750  1.00  0.00    -0.014 A 
BRANCH  32  33
ATOM     33  C   UNL A   1      39.605  28.760  29.157  1.00  0.00     0.031 A 
ATOM     34  C   UNL A   1      40.425  29.583  30.109  1.00  0.00     0.074 A 
ATOM     35  C   UNL A   1      40.047  27.555  28.753  1.00  0.00     0.049 A 
ATOM     36  N   UNL A   1      41.605  29.328  30.616  1.00  0.00    -0.248 NA
ATOM     37  C   UNL A   1      39.842  30.859  30.553  1.00  0.00     0.031 C 
ATOM     38  C   UNL A   1      39.319  26.638  27.875  1.00  0.00     0.029 A 
ATOM     39  N   UNL A   1      41.206  26.886  29.052  1.00  0.00    -0.354 N 
ATOM     40  C   UNL A   1      41.915  30.418  31.419  1.00  0.00     0.074 A 
ATOM     41  C   UNL A   1      40.807  31.344  31.322  1.00  0.00     0.031 C 
ATOM     42  C   UNL A   1      40.036  25.513  27.727  1.00  0.00     0.029 A 
ATOM     43  C   UNL A   1      41.289  25.647  28.465  1.00  0.00     0.049 A 
ATOM     44  H   UNL A   1      41.911  27.257  29.630  1.00  0.00     0.167 HD
ATOM     45  C   UNL A   1      43.022  30.628  32.171  1.00  0.00     0.031 A 
ATOM     46  C   UNL A   1      42.269  24.727  28.508  1.00  0.00     0.031 A 
ATOM     47  C   UNL A   1      44.120  29.704  32.279  1.00  0.00     0.049 A 
ATOM     48  C   UNL A   1      43.502  25.000  29.320  1.00  0.00     0.074 A 
ATOM     49  C   UNL A   1      45.283  29.830  33.019  1.00  0.00     0.029 A 
ATOM     50  N   UNL A   1      44.189  28.483  31.628  1.00  0.00    -0.354 N 
ATOM     51  N   UNL A   1      43.785  26.040  30.067  1.00  0.00    -0.248 NA
ATOM     52  C   UNL A   1      44.549  23.970  29.297  1.00  0.00     0.031 C 
ATOM     53  C   UNL A   1      46.075  28.699  32.784  1.00  0.00     0.029 A 
ATOM     54  C   UNL A   1      45.384  27.851  31.935  1.00  0.00     0.049 A 
ATOM     55  H   UNL A   1      43.493  28.117  31.037  1.00  0.00     0.167 HD
ATOM     56  C   UNL A   1      45.036  25.784  30.612  1.00  0.00     0.074 A 
ATOM     57  C   UNL A   1      45.446  24.481  30.129  1.00  0.00     0.031 C 
ATOM     58  C   UNL A   1      45.781  26.559  31.437  1.00  0.00     0.031 A 
BRANCH  45  59
ATOM     59  C   UNL A   1      43.114  31.936  32.903  1.00  0.00    -0.014 A 
ATOM     60  C   UNL A   1      42.709  32.056  34.242  1.00  0.00     0.009 A 
ATOM     61  C   UNL A   1      43.631  33.061  32.245  1.00  0.00     0.009 A 
ATOM     62  C   UNL A   1      42.790  33.288  34.895  1.00  0.00     0.001 A 
ATOM     63  C   UNL A   1      43.733  34.286  32.906  1.00  0.00     0.001 A 
ATOM     64  C   UNL A   1      43.304  34.401  34.228  1.00  0.00     0.000 A 
ENDBRANCH  45  59
BRANCH  46  65
ATOM     65  C   UNL A   1      42.130  23.464  27.739  1.00  0.00    -0.014 A 
ATOM     66  C   UNL A   1      41.550  22.329  28.321  1.00  0.00     0.009 A 
ATOM     67  C   UNL A   1      42.581  23.395  26.411  1.00  0.00     0.009 A 
ATOM     68  C   UNL A   1      41.442  21.141  27.594  1.00  0.00     0.001 A 
ATOM     69  C   UNL A   1      42.448  22.214  25.679  1.00  0.00     0.001 A 
ATOM     70  C   UNL A   1      41.885  21.086  26.273  1.00  0.00     0.000 A 
ENDBRANCH  46  65
BRANCH  58  71
ATOM     71  C   UNL A   1      47.104  26.005  31.880  1.00  0.00    -0.014 A 
ATOM     72  C   UNL A   1      48.252  26.145  31.084  1.00  0.00     0.009 A 
ATOM     73  C   UNL A   1      47.206  25.347  33.115  1.00  0.00     0.009 A 
ATOM     74  C   UNL A   1      49.469  25.603  31.501  1.00  0.00     0.001 A 
ATOM     75  C   UNL A   1      48.430  24.829  33.540  1.00  0.00     0.001 A 
ATOM     76  C   UNL A   1      49.557  24.948  32.729  1.00  0.00     0.000 A 
ENDBRANCH  58  71
ENDBRANCH  32  33
ENDBRANCH  25  27
ENDBRANCH  24  25
ENDBRANCH  23  24
ENDBRANCH   1  23
TORSDOF 15
ENDMDL
