MODEL 1
REMARK VINA RESULT:      -8.8      0.000      0.000
REMARK SMILES CCCCC[NH2+][C@](C)(C(=O)OCCOC(=O)c1ccc(-c2c3nc(c(-c4ccccc4)c4ccc([nH]4)c(-c4ccccc4)c4nc(c(-c5ccccc5)c5ccc2[nH]5)C=C4)C=C3)cc1)C(F)(F)F
REMARK SMILES IDX 11 1 9 2 10 3 7 4 8 5 6 6 5 9 4 10 3 11 2 12 1 13 65 14
REMARK SMILES IDX 66 15 67 16 68 17 12 18 13 19 14 20 15 21 16 22 17 23 18 24
REMARK SMILES IDX 64 25 19 26 63 27 20 28 21 29 22 30 57 31 23 32 62 33 56 34
REMARK SMILES IDX 58 35 24 36 61 37 55 38 54 39 25 41 47 42 32 43 46 44 33 45
REMARK SMILES IDX 36 46 45 47 59 48 34 49 35 50 44 52 60 53 37 54 26 55 27 56
REMARK SMILES IDX 31 57 28 58 30 59 29 60 48 61 49 62 53 63 50 64 52 65 51 66
REMARK SMILES IDX 38 67 39 68 43 69 40 70 42 71 41 72
REMARK H PARENT 6 7 6 8 58 40 36 51
REMARK Flexibility Score: inf
ROOT
ATOM      1  O   UNL A   1      33.350  34.427  30.122  1.00  0.00    -0.457 OA
ENDROOT
BRANCH   1   2
ATOM      2  C   UNL A   1      33.199  35.597  30.812  1.00  0.00     0.377 C 
ATOM      3  O   UNL A   1      32.712  36.607  30.316  1.00  0.00    -0.244 OA
BRANCH   2   4
ATOM      4  C   UNL A   1      33.875  35.555  32.194  1.00  0.00     0.287 C 
ATOM      5  C   UNL A   1      33.467  34.283  32.967  1.00  0.00     0.103 C 
BRANCH   4   6
ATOM      6  N   UNL A   1      35.381  35.513  32.063  1.00  0.00    -0.325 N 
ATOM      7  H   UNL A   1      35.611  35.104  31.158  1.00  0.00     0.347 HD
ATOM      8  H   UNL A   1      35.708  36.474  32.160  1.00  0.00     0.347 HD
BRANCH   6   9
ATOM      9  C   UNL A   1      36.057  34.734  33.103  1.00  0.00     0.261 C 
BRANCH   9  10
ATOM     10  C   UNL A   1      37.488  34.355  32.709  1.00  0.00     0.061 C 
BRANCH  10  11
ATOM     11  C   UNL A   1      37.646  33.559  31.407  1.00  0.00     0.006 C 
BRANCH  11  12
ATOM     12  C   UNL A   1      38.155  34.331  30.185  1.00  0.00    -0.003 C 
ATOM     13  C   UNL A   1      38.501  33.448  29.001  1.00  0.00     0.004 C 
ENDBRANCH  11  12
ENDBRANCH  10  11
ENDBRANCH   9  10
ENDBRANCH   6   9
ENDBRANCH   4   6
BRANCH   4  14
ATOM     14  C   UNL A   1      33.336  36.763  32.995  1.00  0.00     0.455 C 
ATOM     15  F   UNL A   1      33.580  37.929  32.349  1.00  0.00    -0.164 F 
ATOM     16  F   UNL A   1      31.986  36.692  33.135  1.00  0.00    -0.164 F 
ATOM     17  F   UNL A   1      33.850  36.870  34.238  1.00  0.00    -0.164 F 
ENDBRANCH   4  14
ENDBRANCH   2   4
ENDBRANCH   1   2
BRANCH   1  18
ATOM     18  C   UNL A   1      33.687  34.554  28.722  1.00  0.00     0.274 C 
BRANCH  18  19
ATOM     19  C   UNL A   1      34.879  33.677  28.350  1.00  0.00     0.275 C 
BRANCH  19  20
ATOM     20  O   UNL A   1      34.881  32.489  29.160  1.00  0.00    -0.458 OA
BRANCH  20  21
ATOM     21  C   UNL A   1      34.720  31.324  28.500  1.00  0.00     0.338 C 
ATOM     22  O   UNL A   1      33.739  30.952  27.869  1.00  0.00    -0.246 OA
BRANCH  21  23
ATOM     23  C   UNL A   1      35.949  30.522  28.602  1.00  0.00     0.060 A 
ATOM     24  C   UNL A   1      36.258  29.907  29.812  1.00  0.00     0.016 A 
ATOM     25  C   UNL A   1      36.867  30.506  27.554  1.00  0.00     0.016 A 
ATOM     26  C   UNL A   1      37.520  29.365  30.022  1.00  0.00     0.010 A 
ATOM     27  C   UNL A   1      38.104  29.876  27.734  1.00  0.00     0.010 A 
ATOM     28  C   UNL A   1      38.461  29.341  28.986  1.00  0.00    -0.014 A 
BRANCH  28  29
ATOM     29  C   UNL A   1      39.834  28.835  29.248  1.00  0.00     0.031 A 
ATOM     30  C   UNL A   1      40.789  29.653  30.076  1.00  0.00     0.074 A 
ATOM     31  C   UNL A   1      40.213  27.619  28.806  1.00  0.00     0.049 A 
ATOM     32  N   UNL A   1      42.065  29.457  30.300  1.00  0.00    -0.248 NA
ATOM     33  C   UNL A   1      40.242  30.853  30.729  1.00  0.00     0.031 C 
ATOM     34  C   UNL A   1      39.370  26.684  28.059  1.00  0.00     0.029 A 
ATOM     35  N   UNL A   1      41.402  26.951  28.952  1.00  0.00    -0.354 N 
ATOM     36  C   UNL A   1      42.485  30.540  31.062  1.00  0.00     0.074 A 
ATOM     37  C   UNL A   1      41.329  31.385  31.271  1.00  0.00     0.031 C 
ATOM     38  C   UNL A   1      40.049  25.542  27.865  1.00  0.00     0.029 A 
ATOM     39  C   UNL A   1      41.396  25.693  28.400  1.00  0.00     0.049 A 
ATOM     40  H   UNL A   1      42.186  27.336  29.408  1.00  0.00     0.167 HD
ATOM     41  C   UNL A   1      43.723  30.812  31.537  1.00  0.00     0.031 A 
ATOM     42  C   UNL A   1      42.373  24.772  28.311  1.00  0.00     0.031 A 
ATOM     43  C   UNL A   1      44.862  29.950  31.377  1.00  0.00     0.049 A 
ATOM     44  C   UNL A   1      43.739  25.095  28.843  1.00  0.00     0.074 A 
ATOM     45  C   UNL A   1      46.166  30.151  31.793  1.00  0.00     0.029 A 
ATOM     46  N   UNL A   1      44.821  28.701  30.776  1.00  0.00    -0.354 N 
ATOM     47  N   UNL A   1      44.149  26.175  29.461  1.00  0.00    -0.248 NA
ATOM     48  C   UNL A   1      44.782  24.080  28.640  1.00  0.00     0.031 C 
ATOM     49  C   UNL A   1      46.920  29.030  31.428  1.00  0.00     0.029 A 
ATOM     50  C   UNL A   1      46.076  28.119  30.814  1.00  0.00     0.049 A 
ATOM     51  H   UNL A   1      44.018  28.290  30.382  1.00  0.00     0.167 HD
ATOM     52  C   UNL A   1      45.498  25.974  29.717  1.00  0.00     0.074 A 
ATOM     53  C   UNL A   1      45.830  24.656  29.214  1.00  0.00     0.031 C 
ATOM     54  C   UNL A   1      46.386  26.812  30.302  1.00  0.00     0.031 A 
BRANCH  41  55
ATOM     55  C   UNL A   1      43.916  32.128  32.233  1.00  0.00    -0.014 A 
ATOM     56  C   UNL A   1      43.772  32.253  33.622  1.00  0.00     0.009 A 
ATOM     57  C   UNL A   1      44.262  33.260  31.477  1.00  0.00     0.009 A 
ATOM     58  C   UNL A   1      43.941  33.496  34.237  1.00  0.00     0.001 A 
ATOM     59  C   UNL A   1      44.451  34.495  32.098  1.00  0.00     0.001 A 
ATOM     60  C   UNL A   1      44.282  34.614  33.477  1.00  0.00     0.000 A 
ENDBRANCH  41  55
BRANCH  42  61
ATOM     61  C   UNL A   1      42.105  23.470  27.651  1.00  0.00    -0.014 A 
ATOM     62  C   UNL A   1      41.536  22.411  28.373  1.00  0.00     0.009 A 
ATOM     63  C   UNL A   1      42.411  23.284  26.294  1.00  0.00     0.009 A 
ATOM     64  C   UNL A   1      41.290  21.185  27.750  1.00  0.00     0.001 A 
ATOM     65  C   UNL A   1      42.139  22.066  25.668  1.00  0.00     0.001 A 
ATOM     66  C   UNL A   1      41.585  21.016  26.398  1.00  0.00     0.000 A 
ENDBRANCH  42  61
BRANCH  54  67
ATOM     67  C   UNL A   1      47.795  26.315  30.434  1.00  0.00    -0.014 A 
ATOM     68  C   UNL A   1      48.247  25.752  31.638  1.00  0.00     0.009 A 
ATOM     69  C   UNL A   1      48.672  26.398  29.343  1.00  0.00     0.009 A 
ATOM     70  C   UNL A   1      49.566  25.309  31.754  1.00  0.00     0.001 A 
ATOM     71  C   UNL A   1      49.984  25.937  29.457  1.00  0.00     0.001 A 
ATOM     72  C   UNL A   1      50.431  25.401  30.664  1.00  0.00     0.000 A 
ENDBRANCH  54  67
ENDBRANCH  28  29
ENDBRANCH  21  23
ENDBRANCH  20  21
ENDBRANCH  19  20
ENDBRANCH  18  19
ENDBRANCH   1  18
TORSDOF 17
ENDMDL
MODEL 2
REMARK VINA RESULT:      -8.7      6.034     10.965
REMARK SMILES CCCCC[NH2+][C@](C)(C(=O)OCCOC(=O)c1ccc(-c2c3nc(c(-c4ccccc4)c4ccc([nH]4)c(-c4ccccc4)c4nc(c(-c5ccccc5)c5ccc2[nH]5)C=C4)C=C3)cc1)C(F)(F)F
REMARK SMILES IDX 11 1 9 2 10 3 7 4 8 5 6 6 5 9 4 10 3 11 2 12 1 13 65 14
REMARK SMILES IDX 66 15 67 16 68 17 12 18 13 19 14 20 15 21 16 22 17 23 18 24
REMARK SMILES IDX 64 25 19 26 63 27 20 28 21 29 22 30 57 31 23 32 62 33 56 34
REMARK SMILES IDX 58 35 24 36 61 37 55 38 54 39 25 41 47 42 32 43 46 44 33 45
REMARK SMILES IDX 36 46 45 47 59 48 34 49 35 50 44 52 60 53 37 54 26 55 27 56
REMARK SMILES IDX 31 57 28 58 30 59 29 60 48 61 49 62 53 63 50 64 52 65 51 66
REMARK SMILES IDX 38 67 39 68 43 69 40 70 42 71 41 72
REMARK H PARENT 6 7 6 8 58 40 36 51
REMARK Flexibility Score: inf
ROOT
ATOM      1  O   UNL A   1      35.540  21.373  25.448  1.00  0.00    -0.457 OA
ENDROOT
BRANCH   1   2
ATOM      2  C   UNL A   1      34.288  21.605  24.948  1.00  0.00     0.377 C 
ATOM      3  O   UNL A   1      34.091  22.163  23.874  1.00  0.00    -0.244 OA
BRANCH   2   4
ATOM      4  C   UNL A   1      33.180  21.264  25.959  1.00  0.00     0.287 C 
ATOM      5  C   UNL A   1      31.787  21.587  25.379  1.00  0.00     0.103 C 
BRANCH   4   6
ATOM      6  N   UNL A   1      33.176  19.789  26.288  1.00  0.00    -0.325 N 
ATOM      7  H   UNL A   1      34.103  19.536  26.630  1.00  0.00     0.347 HD
ATOM      8  H   UNL A   1      32.444  19.648  26.984  1.00  0.00     0.347 HD
BRANCH   6   9
ATOM      9  C   UNL A   1      32.851  18.917  25.157  1.00  0.00     0.261 C 
BRANCH   9  10
ATOM     10  C   UNL A   1      32.416  17.518  25.605  1.00  0.00     0.061 C 
BRANCH  10  11
ATOM     11  C   UNL A   1      33.228  16.343  25.045  1.00  0.00     0.006 C 
BRANCH  11  12
ATOM     12  C   UNL A   1      34.688  16.627  24.677  1.00  0.00    -0.003 C 
ATOM     13  C   UNL A   1      35.689  15.749  25.404  1.00  0.00     0.004 C 
ENDBRANCH  11  12
ENDBRANCH  10  11
ENDBRANCH   9  10
ENDBRANCH   6   9
ENDBRANCH   4   6
BRANCH   4  14
ATOM     14  C   UNL A   1      33.386  22.191  27.180  1.00  0.00     0.455 C 
ATOM     15  F   UNL A   1      34.245  21.643  28.073  1.00  0.00    -0.164 F 
ATOM     16  F   UNL A   1      33.944  23.372  26.807  1.00  0.00    -0.164 F 
ATOM     17  F   UNL A   1      32.248  22.490  27.841  1.00  0.00    -0.164 F 
ENDBRANCH   4  14
ENDBRANCH   2   4
ENDBRANCH   1   2
BRANCH   1  18
ATOM     18  C   UNL A   1      36.237  20.227  24.910  1.00  0.00     0.274 C 
BRANCH  18  19
ATOM     19  C   UNL A   1      37.740  20.473  24.826  1.00  0.00     0.275 C 
BRANCH  19  20
ATOM     20  O   UNL A   1      38.127  21.458  25.799  1.00  0.00    -0.458 OA
BRANCH  20  21
ATOM     21  C   UNL A   1      39.377  21.344  26.292  1.00  0.00     0.338 C 
ATOM     22  O   UNL A   1      40.093  20.351  26.287  1.00  0.00    -0.246 OA
BRANCH  21  23
ATOM     23  C   UNL A   1      39.817  22.638  26.833  1.00  0.00     0.060 A 
ATOM     24  C   UNL A   1      39.221  23.806  26.368  1.00  0.00     0.016 A 
ATOM     25  C   UNL A   1      40.920  22.706  27.683  1.00  0.00     0.016 A 
ATOM     26  C   UNL A   1      39.780  25.045  26.657  1.00  0.00     0.010 A 
ATOM     27  C   UNL A   1      41.426  23.958  28.052  1.00  0.00     0.010 A 
ATOM     28  C   UNL A   1      40.891  25.139  27.504  1.00  0.00    -0.014 A 
BRANCH  28  29
ATOM     29  C   UNL A   1      41.529  26.460  27.739  1.00  0.00     0.031 A 
ATOM     30  C   UNL A   1      42.814  26.807  27.035  1.00  0.00     0.074 A 
ATOM     31  C   UNL A   1      40.936  27.378  28.527  1.00  0.00     0.049 A 
ATOM     32  N   UNL A   1      43.599  27.842  27.210  1.00  0.00    -0.248 NA
ATOM     33  C   UNL A   1      43.285  25.864  26.008  1.00  0.00     0.031 C 
ATOM     34  C   UNL A   1      39.653  27.212  29.211  1.00  0.00     0.029 A 
ATOM     35  N   UNL A   1      41.326  28.652  28.858  1.00  0.00    -0.354 N 
ATOM     36  C   UNL A   1      44.683  27.640  26.366  1.00  0.00     0.074 A 
ATOM     37  C   UNL A   1      44.453  26.391  25.671  1.00  0.00     0.031 C 
ATOM     38  C   UNL A   1      39.334  28.359  29.831  1.00  0.00     0.029 A 
ATOM     39  C   UNL A   1      40.423  29.312  29.655  1.00  0.00     0.049 A 
ATOM     40  H   UNL A   1      42.172  29.054  28.553  1.00  0.00     0.167 HD
ATOM     41  C   UNL A   1      45.776  28.420  26.190  1.00  0.00     0.031 A 
ATOM     42  C   UNL A   1      40.477  30.539  30.207  1.00  0.00     0.031 A 
ATOM     43  C   UNL A   1      45.983  29.685  26.838  1.00  0.00     0.049 A 
ATOM     44  C   UNL A   1      41.699  31.385  30.000  1.00  0.00     0.074 A 
ATOM     45  C   UNL A   1      47.073  30.535  26.752  1.00  0.00     0.029 A 
ATOM     46  N   UNL A   1      45.061  30.301  27.670  1.00  0.00    -0.354 N 
ATOM     47  N   UNL A   1      42.768  31.129  29.289  1.00  0.00    -0.248 NA
ATOM     48  C   UNL A   1      41.729  32.679  30.696  1.00  0.00     0.031 C 
ATOM     49  C   UNL A   1      46.816  31.658  27.547  1.00  0.00     0.029 A 
ATOM     50  C   UNL A   1      45.554  31.520  28.100  1.00  0.00     0.049 A 
ATOM     51  H   UNL A   1      44.185  29.926  27.917  1.00  0.00     0.167 HD
ATOM     52  C   UNL A   1      43.602  32.226  29.455  1.00  0.00     0.074 A 
ATOM     53  C   UNL A   1      42.902  33.162  30.310  1.00  0.00     0.031 C 
ATOM     54  C   UNL A   1      44.845  32.432  28.956  1.00  0.00     0.031 A 
BRANCH  41  55
ATOM     55  C   UNL A   1      46.859  27.890  25.295  1.00  0.00    -0.014 A 
ATOM     56  C   UNL A   1      46.836  28.104  23.910  1.00  0.00     0.009 A 
ATOM     57  C   UNL A   1      47.926  27.172  25.858  1.00  0.00     0.009 A 
ATOM     58  C   UNL A   1      47.850  27.583  23.101  1.00  0.00     0.001 A 
ATOM     59  C   UNL A   1      48.948  26.671  25.051  1.00  0.00     0.001 A 
ATOM     60  C   UNL A   1      48.904  26.870  23.672  1.00  0.00     0.000 A 
ENDBRANCH  41  55
BRANCH  42  61
ATOM     61  C   UNL A   1      39.352  31.023  31.045  1.00  0.00    -0.014 A 
ATOM     62  C   UNL A   1      38.291  31.736  30.468  1.00  0.00     0.009 A 
ATOM     63  C   UNL A   1      39.331  30.767  32.425  1.00  0.00     0.009 A 
ATOM     64  C   UNL A   1      37.236  32.194  31.262  1.00  0.00     0.001 A 
ATOM     65  C   UNL A   1      38.263  31.204  33.210  1.00  0.00     0.001 A 
ATOM     66  C   UNL A   1      37.220  31.923  32.629  1.00  0.00     0.000 A 
ENDBRANCH  42  61
BRANCH  54  67
ATOM     67  C   UNL A   1      45.511  33.725  29.320  1.00  0.00    -0.014 A 
ATOM     68  C   UNL A   1      45.340  34.869  28.525  1.00  0.00     0.009 A 
ATOM     69  C   UNL A   1      46.304  33.804  30.474  1.00  0.00     0.009 A 
ATOM     70  C   UNL A   1      45.979  36.063  28.864  1.00  0.00     0.001 A 
ATOM     71  C   UNL A   1      46.926  35.003  30.820  1.00  0.00     0.001 A 
ATOM     72  C   UNL A   1      46.770  36.129  30.012  1.00  0.00     0.000 A 
ENDBRANCH  54  67
ENDBRANCH  28  29
ENDBRANCH  21  23
ENDBRANCH  20  21
ENDBRANCH  19  20
ENDBRANCH  18  19
ENDBRANCH   1  18
TORSDOF 17
ENDMDL
MODEL 3
REMARK VINA RESULT:      -8.7      1.910      2.572
REMARK SMILES CCCCC[NH2+][C@](C)(C(=O)OCCOC(=O)c1ccc(-c2c3nc(c(-c4ccccc4)c4ccc([nH]4)c(-c4ccccc4)c4nc(c(-c5ccccc5)c5ccc2[nH]5)C=C4)C=C3)cc1)C(F)(F)F
REMARK SMILES IDX 11 1 9 2 10 3 7 4 8 5 6 6 5 9 4 10 3 11 2 12 1 13 65 14
REMARK SMILES IDX 66 15 67 16 68 17 12 18 13 19 14 20 15 21 16 22 17 23 18 24
REMARK SMILES IDX 64 25 19 26 63 27 20 28 21 29 22 30 57 31 23 32 62 33 56 34
REMARK SMILES IDX 58 35 24 36 61 37 55 38 54 39 25 41 47 42 32 43 46 44 33 45
REMARK SMILES IDX 36 46 45 47 59 48 34 49 35 50 44 52 60 53 37 54 26 55 27 56
REMARK SMILES IDX 31 57 28 58 30 59 29 60 48 61 49 62 53 63 50 64 52 65 51 66
REMARK SMILES IDX 38 67 39 68 43 69 40 70 42 71 41 72
REMARK H PARENT 6 7 6 8 58 40 36 51
REMARK Flexibility Score: inf
ROOT
ATOM      1  O   UNL A   1      34.461  34.805  30.019  1.00  0.00    -0.457 OA
ENDROOT
BRANCH   1   2
ATOM      2  C   UNL A   1      34.174  34.542  31.330  1.00  0.00     0.377 C 
ATOM      3  O   UNL A   1      33.128  34.889  31.867  1.00  0.00    -0.244 OA
BRANCH   2   4
ATOM      4  C   UNL A   1      35.375  33.945  32.085  1.00  0.00     0.287 C 
ATOM      5  C   UNL A   1      35.634  32.489  31.642  1.00  0.00     0.103 C 
BRANCH   4   6
ATOM      6  N   UNL A   1      36.642  34.715  31.791  1.00  0.00    -0.325 N 
ATOM      7  H   UNL A   1      36.409  35.484  31.164  1.00  0.00     0.347 HD
ATOM      8  H   UNL A   1      37.005  35.031  32.690  1.00  0.00     0.347 HD
BRANCH   6   9
ATOM      9  C   UNL A   1      37.703  33.920  31.168  1.00  0.00     0.261 C 
BRANCH   9  10
ATOM     10  C   UNL A   1      38.202  34.539  29.859  1.00  0.00     0.061 C 
BRANCH  10  11
ATOM     11  C   UNL A   1      39.722  34.547  29.648  1.00  0.00     0.006 C 
BRANCH  11  12
ATOM     12  C   UNL A   1      40.576  33.943  30.768  1.00  0.00    -0.003 C 
ATOM     13  C   UNL A   1      41.710  33.066  30.272  1.00  0.00     0.004 C 
ENDBRANCH  11  12
ENDBRANCH  10  11
ENDBRANCH   9  10
ENDBRANCH   6   9
ENDBRANCH   4   6
BRANCH   4  14
ATOM     14  C   UNL A   1      34.987  33.899  33.581  1.00  0.00     0.455 C 
ATOM     15  F   UNL A   1      35.947  33.289  34.318  1.00  0.00    -0.164 F 
ATOM     16  F   UNL A   1      34.868  35.153  34.093  1.00  0.00    -0.164 F 
ATOM     17  F   UNL A   1      33.821  33.267  33.827  1.00  0.00    -0.164 F 
ENDBRANCH   4  14
ENDBRANCH   2   4
ENDBRANCH   1   2
BRANCH   1  18
ATOM     18  C   UNL A   1      33.331  34.856  29.119  1.00  0.00     0.274 C 
BRANCH  18  19
ATOM     19  C   UNL A   1      33.345  33.692  28.133  1.00  0.00     0.275 C 
BRANCH  19  20
ATOM     20  O   UNL A   1      34.103  32.600  28.682  1.00  0.00    -0.458 OA
BRANCH  20  21
ATOM     21  C   UNL A   1      34.231  31.514  27.893  1.00  0.00     0.338 C 
ATOM     22  O   UNL A   1      33.428  31.088  27.073  1.00  0.00    -0.246 OA
BRANCH  21  23
ATOM     23  C   UNL A   1      35.542  30.888  28.118  1.00  0.00     0.060 A 
ATOM     24  C   UNL A   1      35.599  29.545  28.479  1.00  0.00     0.016 A 
ATOM     25  C   UNL A   1      36.700  31.663  28.124  1.00  0.00     0.016 A 
ATOM     26  C   UNL A   1      36.785  28.992  28.948  1.00  0.00     0.010 A 
ATOM     27  C   UNL A   1      37.915  31.081  28.505  1.00  0.00     0.010 A 
ATOM     28  C   UNL A   1      37.960  29.752  28.967  1.00  0.00    -0.014 A 
BRANCH  28  29
ATOM     29  C   UNL A   1      39.201  29.177  29.548  1.00  0.00     0.031 A 
ATOM     30  C   UNL A   1      39.719  29.689  30.866  1.00  0.00     0.074 A 
ATOM     31  C   UNL A   1      39.833  28.155  28.939  1.00  0.00     0.049 A 
ATOM     32  N   UNL A   1      40.851  29.420  31.470  1.00  0.00    -0.248 NA
ATOM     33  C   UNL A   1      38.858  30.632  31.597  1.00  0.00     0.031 C 
ATOM     34  C   UNL A   1      39.405  27.505  27.699  1.00  0.00     0.029 A 
ATOM     35  N   UNL A   1      40.961  27.462  29.304  1.00  0.00    -0.354 N 
ATOM     36  C   UNL A   1      40.865  30.210  32.613  1.00  0.00     0.074 A 
ATOM     37  C   UNL A   1      39.627  30.959  32.626  1.00  0.00     0.031 C 
ATOM     38  C   UNL A   1      40.223  26.474  27.439  1.00  0.00     0.029 A 
ATOM     39  C   UNL A   1      41.278  26.438  28.445  1.00  0.00     0.049 A 
ATOM     40  H   UNL A   1      41.493  27.679  30.104  1.00  0.00     0.167 HD
ATOM     41  C   UNL A   1      41.826  30.309  33.561  1.00  0.00     0.031 A 
ATOM     42  C   UNL A   1      42.315  25.581  28.451  1.00  0.00     0.031 A 
ATOM     43  C   UNL A   1      43.032  29.528  33.579  1.00  0.00     0.049 A 
ATOM     44  C   UNL A   1      43.369  25.710  29.511  1.00  0.00     0.074 A 
ATOM     45  C   UNL A   1      44.083  29.578  34.479  1.00  0.00     0.029 A 
ATOM     46  N   UNL A   1      43.333  28.528  32.668  1.00  0.00    -0.354 N 
ATOM     47  N   UNL A   1      43.425  26.541  30.522  1.00  0.00    -0.248 NA
ATOM     48  C   UNL A   1      44.517  24.797  29.412  1.00  0.00     0.031 C 
ATOM     49  C   UNL A   1      45.029  28.618  34.102  1.00  0.00     0.029 A 
ATOM     50  C   UNL A   1      44.550  27.950  32.986  1.00  0.00     0.049 A 
ATOM     51  H   UNL A   1      42.764  28.266  31.908  1.00  0.00     0.167 HD
ATOM     52  C   UNL A   1      44.614  26.257  31.178  1.00  0.00     0.074 A 
ATOM     53  C   UNL A   1      45.235  25.157  30.468  1.00  0.00     0.031 C 
ATOM     54  C   UNL A   1      45.152  26.864  32.263  1.00  0.00     0.031 A 
BRANCH  41  55
ATOM     55  C   UNL A   1      41.628  31.343  34.632  1.00  0.00    -0.014 A 
ATOM     56  C   UNL A   1      41.026  31.024  35.858  1.00  0.00     0.009 A 
ATOM     57  C   UNL A   1      42.065  32.657  34.406  1.00  0.00     0.009 A 
ATOM     58  C   UNL A   1      40.840  32.013  36.827  1.00  0.00     0.001 A 
ATOM     59  C   UNL A   1      41.897  33.638  35.385  1.00  0.00     0.001 A 
ATOM     60  C   UNL A   1      41.277  33.316  36.591  1.00  0.00     0.000 A 
ENDBRANCH  41  55
BRANCH  42  61
ATOM     61  C   UNL A   1      42.429  24.551  27.389  1.00  0.00    -0.014 A 
ATOM     62  C   UNL A   1      43.154  24.814  26.217  1.00  0.00     0.009 A 
ATOM     63  C   UNL A   1      41.820  23.296  27.546  1.00  0.00     0.009 A 
ATOM     64  C   UNL A   1      43.255  23.843  25.218  1.00  0.00     0.001 A 
ATOM     65  C   UNL A   1      41.944  22.319  26.557  1.00  0.00     0.001 A 
ATOM     66  C   UNL A   1      42.656  22.596  25.391  1.00  0.00     0.000 A 
ENDBRANCH  42  61
BRANCH  54  67
ATOM     67  C   UNL A   1      46.471  26.337  32.745  1.00  0.00    -0.014 A 
ATOM     68  C   UNL A   1      47.676  26.874  32.268  1.00  0.00     0.009 A 
ATOM     69  C   UNL A   1      46.508  25.307  33.695  1.00  0.00     0.009 A 
ATOM     70  C   UNL A   1      48.898  26.364  32.712  1.00  0.00     0.001 A 
ATOM     71  C   UNL A   1      47.730  24.812  34.151  1.00  0.00     0.001 A 
ATOM     72  C   UNL A   1      48.923  25.335  33.653  1.00  0.00     0.000 A 
ENDBRANCH  54  67
ENDBRANCH  28  29
ENDBRANCH  21  23
ENDBRANCH  20  21
ENDBRANCH  19  20
ENDBRANCH  18  19
ENDBRANCH   1  18
TORSDOF 17
ENDMDL
