MODEL 1
REMARK VINA RESULT:     -13.5      0.000      0.000
REMARK SMILES Cc1cccc(-n2c(C)cc(/C=N\c3ccc(O)c(C(=O)OCCOC(=O)c4ccc(-c5c6nc(c(-c7ccccc7)c7ccc([nH]7)c(-c7ccccc7)c7nc(c(-c8ccccc8)c8ccc5[nH]8)C=C7)C=C6)cc4)c3)c2C)c1
REMARK SMILES IDX 23 1 22 2 20 3 21 4 19 5 14 6 15 7 76 8 16 9 17 10 13 11
REMARK SMILES IDX 12 12 11 13 7 14 8 15 77 16 9 17 10 18 78 19 6 20 1 21 2 22
REMARK SMILES IDX 3 23 79 24 4 25 5 26 18 27 24 29 25 30 26 31 27 32 28 33
REMARK SMILES IDX 29 34 75 35 30 36 74 37 31 38 32 39 33 40 68 41 34 42 73 43
REMARK SMILES IDX 67 44 69 45 35 46 72 47 66 48 65 49 36 51 58 52 43 53 57 54
REMARK SMILES IDX 44 55 47 56 56 57 70 58 45 59 46 60 55 62 71 63 48 64 37 65
REMARK SMILES IDX 38 66 42 67 39 68 41 69 40 70 59 71 60 72 64 73 61 74 63 75
REMARK SMILES IDX 62 76 49 77 50 78 54 79 51 80 53 81 52 82
REMARK H PARENT 18 28 69 50 47 61
REMARK Flexibility Score: inf
ROOT
ATOM      1  C   UNL A   1      39.500  21.761  26.607  1.00  0.00     0.275 C 
ENDROOT
BRANCH   1   2
ATOM      2  O   UNL A   1      38.771  21.903  25.375  1.00  0.00    -0.458 OA
BRANCH   2   3
ATOM      3  C   UNL A   1      37.599  22.843  25.378  1.00  0.00     0.342 C 
ATOM      4  O   UNL A   1      38.158  23.859  25.890  1.00  0.00    -0.246 OA
BRANCH   3   5
ATOM      5  C   UNL A   1      35.609  22.476  24.635  1.00  0.00     0.103 A 
ATOM      6  C   UNL A   1      33.658  22.886  22.726  1.00  0.00     0.064 A 
ATOM      7  C   UNL A   1      32.918  21.803  23.104  1.00  0.00     0.032 A 
ATOM      8  C   UNL A   1      34.903  23.122  23.389  1.00  0.00     0.048 A 
ATOM      9  C   UNL A   1      33.283  21.170  24.276  1.00  0.00     0.049 A 
ATOM     10  C   UNL A   1      34.451  21.545  25.036  1.00  0.00     0.130 A 
BRANCH   6  11
ATOM     11  N   UNL A   1      33.297  23.712  21.658  1.00  0.00    -0.256 NA
ATOM     12  C   UNL A   1      32.817  24.920  21.748  1.00  0.00     0.121 C 
BRANCH  12  13
ATOM     13  C   UNL A   1      32.490  25.797  22.875  1.00  0.00     0.014 A 
ATOM     14  N   UNL A   1      32.383  27.403  24.469  1.00  0.00    -0.318 N 
ATOM     15  C   UNL A   1      31.524  26.400  24.871  1.00  0.00     0.021 A 
ATOM     16  C   UNL A   1      32.884  27.091  23.205  1.00  0.00     0.029 A 
ATOM     17  C   UNL A   1      30.711  26.474  26.118  1.00  0.00     0.065 C 
ATOM     18  C   UNL A   1      31.557  25.420  23.899  1.00  0.00     0.033 A 
ATOM     19  C   UNL A   1      33.771  28.039  22.485  1.00  0.00     0.065 C 
BRANCH  14  20
ATOM     20  C   UNL A   1      32.834  28.492  25.259  1.00  0.00     0.046 A 
ATOM     21  C   UNL A   1      31.401  31.784  26.505  1.00  0.00     0.044 C 
ATOM     22  C   UNL A   1      32.268  30.570  26.356  1.00  0.00    -0.049 A 
ATOM     23  C   UNL A   1      33.301  30.340  27.277  1.00  0.00     0.003 A 
ATOM     24  C   UNL A   1      32.035  29.637  25.337  1.00  0.00     0.030 A 
ATOM     25  C   UNL A   1      34.133  29.228  27.152  1.00  0.00     0.002 A 
ATOM     26  C   UNL A   1      33.915  28.313  26.127  1.00  0.00     0.026 A 
ENDBRANCH  14  20
ENDBRANCH  12  13
ENDBRANCH   6  11
BRANCH  10  27
ATOM     27  O   UNL A   1      34.212  21.027  26.323  1.00  0.00    -0.507 OA
ATOM     28  H   UNL A   1      33.504  20.431  26.462  1.00  0.00     0.293 HD
ENDBRANCH  10  27
ENDBRANCH   3   5
ENDBRANCH   2   3
ENDBRANCH   1   2
BRANCH   1  29
ATOM     29  C   UNL A   1      40.995  21.671  26.270  1.00  0.00     0.275 C 
BRANCH  29  30
ATOM     30  O   UNL A   1      41.630  22.938  25.936  1.00  0.00    -0.458 OA
BRANCH  30  31
ATOM     31  C   UNL A   1      41.790  23.897  26.894  1.00  0.00     0.338 C 
ATOM     32  O   UNL A   1      42.565  23.837  27.829  1.00  0.00    -0.246 OA
BRANCH  31  33
ATOM     33  C   UNL A   1      40.728  24.928  26.819  1.00  0.00     0.060 A 
ATOM     34  C   UNL A   1      41.155  26.406  25.864  1.00  0.00     0.016 A 
ATOM     35  C   UNL A   1      39.753  25.071  28.326  1.00  0.00     0.016 A 
ATOM     36  C   UNL A   1      40.652  28.078  26.491  1.00  0.00     0.010 A 
ATOM     37  C   UNL A   1      39.279  26.736  28.952  1.00  0.00     0.010 A 
ATOM     38  C   UNL A   1      39.749  28.223  28.044  1.00  0.00    -0.014 A 
BRANCH  38  39
ATOM     39  C   UNL A   1      40.000  29.351  28.945  1.00  0.00     0.031 A 
ATOM     40  C   UNL A   1      38.933  30.353  29.131  1.00  0.00     0.074 A 
ATOM     41  C   UNL A   1      41.120  29.354  29.718  1.00  0.00     0.049 A 
ATOM     42  N   UNL A   1      39.161  31.547  29.549  1.00  0.00    -0.248 NA
ATOM     43  C   UNL A   1      37.521  30.132  28.823  1.00  0.00     0.031 C 
ATOM     44  C   UNL A   1      41.445  30.216  30.855  1.00  0.00     0.029 A 
ATOM     45  N   UNL A   1      42.298  28.624  29.581  1.00  0.00    -0.354 N 
ATOM     46  C   UNL A   1      37.954  32.132  29.846  1.00  0.00     0.074 A 
ATOM     47  C   UNL A   1      36.958  31.246  29.304  1.00  0.00     0.031 C 
ATOM     48  C   UNL A   1      42.777  30.189  31.055  1.00  0.00     0.029 A 
ATOM     49  C   UNL A   1      43.370  29.409  29.982  1.00  0.00     0.049 A 
ATOM     50  H   UNL A   1      42.360  27.699  29.253  1.00  0.00     0.167 HD
ATOM     51  C   UNL A   1      37.951  33.246  30.625  1.00  0.00     0.031 A 
ATOM     52  C   UNL A   1      44.317  29.833  29.090  1.00  0.00     0.031 A 
ATOM     53  C   UNL A   1      39.322  33.641  30.958  1.00  0.00     0.049 A 
ATOM     54  C   UNL A   1      44.202  31.334  28.845  1.00  0.00     0.074 A 
ATOM     55  C   UNL A   1      40.133  33.440  32.063  1.00  0.00     0.029 A 
ATOM     56  N   UNL A   1      40.175  33.969  29.917  1.00  0.00    -0.354 N 
ATOM     57  N   UNL A   1      43.290  32.093  29.396  1.00  0.00    -0.248 NA
ATOM     58  C   UNL A   1      45.039  32.093  27.918  1.00  0.00     0.031 C 
ATOM     59  C   UNL A   1      41.489  33.632  31.653  1.00  0.00     0.029 A 
ATOM     60  C   UNL A   1      41.496  34.000  30.319  1.00  0.00     0.049 A 
ATOM     61  H   UNL A   1      39.874  34.159  29.000  1.00  0.00     0.167 HD
ATOM     62  C   UNL A   1      43.371  33.371  28.924  1.00  0.00     0.074 A 
ATOM     63  C   UNL A   1      44.472  33.314  27.973  1.00  0.00     0.031 C 
ATOM     64  C   UNL A   1      42.516  34.358  29.336  1.00  0.00     0.031 A 
BRANCH  51  65
ATOM     65  C   UNL A   1      36.725  33.843  31.264  1.00  0.00    -0.014 A 
ATOM     66  C   UNL A   1      35.537  33.926  30.514  1.00  0.00     0.009 A 
ATOM     67  C   UNL A   1      36.665  34.362  32.570  1.00  0.00     0.009 A 
ATOM     68  C   UNL A   1      34.386  34.554  31.006  1.00  0.00     0.001 A 
ATOM     69  C   UNL A   1      35.525  35.016  33.061  1.00  0.00     0.001 A 
ATOM     70  C   UNL A   1      34.386  35.119  32.273  1.00  0.00     0.000 A 
ENDBRANCH  51  65
BRANCH  52  71
ATOM     71  C   UNL A   1      44.741  28.787  28.099  1.00  0.00    -0.014 A 
ATOM     72  C   UNL A   1      45.242  27.572  28.623  1.00  0.00     0.009 A 
ATOM     73  C   UNL A   1      44.381  28.808  26.746  1.00  0.00     0.009 A 
ATOM     74  C   UNL A   1      45.211  26.386  27.883  1.00  0.00     0.001 A 
ATOM     75  C   UNL A   1      44.378  27.617  25.992  1.00  0.00     0.001 A 
ATOM     76  C   UNL A   1      44.749  26.404  26.574  1.00  0.00     0.000 A 
ENDBRANCH  52  71
BRANCH  64  77
ATOM     77  C   UNL A   1      42.531  35.778  28.819  1.00  0.00    -0.014 A 
ATOM     78  C   UNL A   1      41.906  36.170  27.632  1.00  0.00     0.009 A 
ATOM     79  C   UNL A   1      43.277  36.775  29.489  1.00  0.00     0.009 A 
ATOM     80  C   UNL A   1      41.922  37.507  27.210  1.00  0.00     0.001 A 
ATOM     81  C   UNL A   1      43.319  38.102  29.064  1.00  0.00     0.001 A 
ATOM     82  C   UNL A   1      42.614  38.474  27.934  1.00  0.00     0.000 A 
ENDBRANCH  64  77
ENDBRANCH  38  39
ENDBRANCH  31  33
ENDBRANCH  30  31
ENDBRANCH  29  30
ENDBRANCH   1  29
TORSDOF 15
ENDMDL
MODEL 2
REMARK VINA RESULT:     -13.3      3.789      9.473
REMARK SMILES Cc1cccc(-n2c(C)cc(/C=N\c3ccc(O)c(C(=O)OCCOC(=O)c4ccc(-c5c6nc(c(-c7ccccc7)c7ccc([nH]7)c(-c7ccccc7)c7nc(c(-c8ccccc8)c8ccc5[nH]8)C=C7)C=C6)cc4)c3)c2C)c1
REMARK SMILES IDX 23 1 22 2 20 3 21 4 19 5 14 6 15 7 76 8 16 9 17 10 13 11
REMARK SMILES IDX 12 12 11 13 7 14 8 15 77 16 9 17 10 18 78 19 6 20 1 21 2 22
REMARK SMILES IDX 3 23 79 24 4 25 5 26 18 27 24 29 25 30 26 31 27 32 28 33
REMARK SMILES IDX 29 34 75 35 30 36 74 37 31 38 32 39 33 40 68 41 34 42 73 43
REMARK SMILES IDX 67 44 69 45 35 46 72 47 66 48 65 49 36 51 58 52 43 53 57 54
REMARK SMILES IDX 44 55 47 56 56 57 70 58 45 59 46 60 55 62 71 63 48 64 37 65
REMARK SMILES IDX 38 66 42 67 39 68 41 69 40 70 59 71 60 72 64 73 61 74 63 75
REMARK SMILES IDX 62 76 49 77 50 78 54 79 51 80 53 81 52 82
REMARK H PARENT 18 28 69 50 47 61
REMARK Flexibility Score: inf
ROOT
ATOM      1  C   UNL A   1      34.043  31.547  27.480  1.00  0.00     0.275 C 
ENDROOT
BRANCH   1   2
ATOM      2  O   UNL A   1      33.184  30.401  27.620  1.00  0.00    -0.458 OA
BRANCH   2   3
ATOM      3  C   UNL A   1      33.418  29.252  26.681  1.00  0.00     0.342 C 
ATOM      4  O   UNL A   1      34.685  29.228  26.704  1.00  0.00    -0.246 OA
BRANCH   3   5
ATOM      5  C   UNL A   1      31.941  28.031  25.694  1.00  0.00     0.103 A 
ATOM      6  C   UNL A   1      30.203  25.887  25.730  1.00  0.00     0.064 A 
ATOM      7  C   UNL A   1      29.479  26.327  24.659  1.00  0.00     0.032 A 
ATOM      8  C   UNL A   1      31.262  26.714  26.217  1.00  0.00     0.048 A 
ATOM      9  C   UNL A   1      29.988  27.399  23.953  1.00  0.00     0.049 A 
ATOM     10  C   UNL A   1      31.173  28.112  24.363  1.00  0.00     0.130 A 
BRANCH   6  11
ATOM     11  N   UNL A   1      29.889  24.716  26.424  1.00  0.00    -0.256 NA
ATOM     12  C   UNL A   1      30.608  23.630  26.466  1.00  0.00     0.121 C 
BRANCH  12  13
ATOM     13  C   UNL A   1      31.885  23.240  25.864  1.00  0.00     0.014 A 
ATOM     14  N   UNL A   1      34.020  22.641  25.400  1.00  0.00    -0.318 N 
ATOM     15  C   UNL A   1      33.443  22.987  24.194  1.00  0.00     0.021 A 
ATOM     16  C   UNL A   1      33.046  22.685  26.397  1.00  0.00     0.029 A 
ATOM     17  C   UNL A   1      34.168  22.916  22.894  1.00  0.00     0.065 C 
ATOM     18  C   UNL A   1      32.132  23.332  24.453  1.00  0.00     0.033 A 
ATOM     19  C   UNL A   1      33.365  22.276  27.788  1.00  0.00     0.065 C 
BRANCH  14  20
ATOM     20  C   UNL A   1      35.403  22.440  25.644  1.00  0.00     0.046 A 
ATOM     21  C   UNL A   1      37.956  19.701  24.990  1.00  0.00     0.044 C 
ATOM     22  C   UNL A   1      37.337  21.032  25.299  1.00  0.00    -0.049 A 
ATOM     23  C   UNL A   1      38.158  22.160  25.445  1.00  0.00     0.003 A 
ATOM     24  C   UNL A   1      35.947  21.174  25.403  1.00  0.00     0.030 A 
ATOM     25  C   UNL A   1      37.609  23.406  25.750  1.00  0.00     0.002 A 
ATOM     26  C   UNL A   1      36.230  23.543  25.873  1.00  0.00     0.026 A 
ENDBRANCH  14  20
ENDBRANCH  12  13
ENDBRANCH   6  11
BRANCH  10  27
ATOM     27  O   UNL A   1      31.607  28.769  23.195  1.00  0.00    -0.507 OA
ATOM     28  H   UNL A   1      31.577  28.326  22.371  1.00  0.00     0.293 HD
ENDBRANCH  10  27
ENDBRANCH   3   5
ENDBRANCH   2   3
ENDBRANCH   1   2
BRANCH   1  29
ATOM     29  C   UNL A   1      34.438  32.023  28.884  1.00  0.00     0.275 C 
BRANCH  29  30
ATOM     30  O   UNL A   1      35.733  32.685  28.971  1.00  0.00    -0.458 OA
BRANCH  30  31
ATOM     31  C   UNL A   1      36.744  32.119  29.692  1.00  0.00     0.338 C 
ATOM     32  O   UNL A   1      37.576  32.728  30.338  1.00  0.00    -0.246 OA
BRANCH  31  33
ATOM     33  C   UNL A   1      36.878  30.672  29.403  1.00  0.00     0.060 A 
ATOM     34  C   UNL A   1      37.115  29.615  30.854  1.00  0.00     0.016 A 
ATOM     35  C   UNL A   1      37.757  30.320  27.871  1.00  0.00     0.016 A 
ATOM     36  C   UNL A   1      38.330  28.215  30.780  1.00  0.00     0.010 A 
ATOM     37  C   UNL A   1      38.977  28.943  27.814  1.00  0.00     0.010 A 
ATOM     38  C   UNL A   1      39.269  27.919  29.271  1.00  0.00    -0.014 A 
BRANCH  38  39
ATOM     39  C   UNL A   1      40.660  27.460  29.341  1.00  0.00     0.031 A 
ATOM     40  C   UNL A   1      40.991  26.133  28.790  1.00  0.00     0.074 A 
ATOM     41  C   UNL A   1      41.630  28.328  29.739  1.00  0.00     0.049 A 
ATOM     42  N   UNL A   1      42.037  25.473  29.140  1.00  0.00    -0.248 NA
ATOM     43  C   UNL A   1      40.164  25.398  27.834  1.00  0.00     0.031 C 
ATOM     44  C   UNL A   1      43.083  28.184  29.638  1.00  0.00     0.029 A 
ATOM     45  N   UNL A   1      41.521  29.525  30.440  1.00  0.00    -0.354 N 
ATOM     46  C   UNL A   1      42.182  24.415  28.275  1.00  0.00     0.074 A 
ATOM     47  C   UNL A   1      40.952  24.360  27.531  1.00  0.00     0.031 C 
ATOM     48  C   UNL A   1      43.666  29.031  30.509  1.00  0.00     0.029 A 
ATOM     49  C   UNL A   1      42.613  29.659  31.287  1.00  0.00     0.049 A 
ATOM     50  H   UNL A   1      40.786  30.174  30.350  1.00  0.00     0.167 HD
ATOM     51  C   UNL A   1      43.386  23.786  28.221  1.00  0.00     0.031 A 
ATOM     52  C   UNL A   1      42.468  29.625  32.647  1.00  0.00     0.031 A 
ATOM     53  C   UNL A   1      44.313  24.371  29.192  1.00  0.00     0.049 A 
ATOM     54  C   UNL A   1      43.056  28.341  33.224  1.00  0.00     0.074 A 
ATOM     55  C   UNL A   1      45.326  25.311  29.101  1.00  0.00     0.029 A 
ATOM     56  N   UNL A   1      43.972  24.312  30.534  1.00  0.00    -0.354 N 
ATOM     57  N   UNL A   1      43.589  27.394  32.497  1.00  0.00    -0.248 NA
ATOM     58  C   UNL A   1      43.029  27.977  34.640  1.00  0.00     0.031 C 
ATOM     59  C   UNL A   1      45.566  25.829  30.412  1.00  0.00     0.029 A 
ATOM     60  C   UNL A   1      44.738  25.167  31.302  1.00  0.00     0.049 A 
ATOM     61  H   UNL A   1      43.267  23.729  30.896  1.00  0.00     0.167 HD
ATOM     62  C   UNL A   1      43.944  26.328  33.272  1.00  0.00     0.074 A 
ATOM     63  C   UNL A   1      43.546  26.733  34.612  1.00  0.00     0.031 C 
ATOM     64  C   UNL A   1      44.512  25.199  32.745  1.00  0.00     0.031 A 
BRANCH  51  65
ATOM     65  C   UNL A   1      43.795  22.806  27.152  1.00  0.00    -0.014 A 
ATOM     66  C   UNL A   1      45.032  22.980  26.505  1.00  0.00     0.009 A 
ATOM     67  C   UNL A   1      43.018  21.718  26.715  1.00  0.00     0.009 A 
ATOM     68  C   UNL A   1      45.436  22.168  25.437  1.00  0.00     0.001 A 
ATOM     69  C   UNL A   1      43.403  20.916  25.629  1.00  0.00     0.001 A 
ATOM     70  C   UNL A   1      44.612  21.148  24.985  1.00  0.00     0.000 A 
ENDBRANCH  51  65
BRANCH  52  71
ATOM     71  C   UNL A   1      41.278  30.384  33.160  1.00  0.00    -0.014 A 
ATOM     72  C   UNL A   1      41.199  31.756  32.825  1.00  0.00     0.009 A 
ATOM     73  C   UNL A   1      40.119  29.770  33.653  1.00  0.00     0.009 A 
ATOM     74  C   UNL A   1      39.977  32.437  32.807  1.00  0.00     0.001 A 
ATOM     75  C   UNL A   1      38.894  30.467  33.661  1.00  0.00     0.001 A 
ATOM     76  C   UNL A   1      38.818  31.780  33.196  1.00  0.00     0.000 A 
ENDBRANCH  52  71
BRANCH  64  77
ATOM     77  C   UNL A   1      44.889  23.973  33.546  1.00  0.00    -0.014 A 
ATOM     78  C   UNL A   1      46.190  23.712  33.985  1.00  0.00     0.009 A 
ATOM     79  C   UNL A   1      43.930  22.968  33.810  1.00  0.00     0.009 A 
ATOM     80  C   UNL A   1      46.484  22.576  34.751  1.00  0.00     0.001 A 
ATOM     81  C   UNL A   1      44.218  21.824  34.551  1.00  0.00     0.001 A 
ATOM     82  C   UNL A   1      45.495  21.642  35.047  1.00  0.00     0.000 A 
ENDBRANCH  64  77
ENDBRANCH  38  39
ENDBRANCH  31  33
ENDBRANCH  30  31
ENDBRANCH  29  30
ENDBRANCH   1  29
TORSDOF 15
ENDMDL
MODEL 3
REMARK VINA RESULT:     -12.8      1.457      2.507
REMARK SMILES Cc1cccc(-n2c(C)cc(/C=N\c3ccc(O)c(C(=O)OCCOC(=O)c4ccc(-c5c6nc(c(-c7ccccc7)c7ccc([nH]7)c(-c7ccccc7)c7nc(c(-c8ccccc8)c8ccc5[nH]8)C=C7)C=C6)cc4)c3)c2C)c1
REMARK SMILES IDX 23 1 22 2 20 3 21 4 19 5 14 6 15 7 76 8 16 9 17 10 13 11
REMARK SMILES IDX 12 12 11 13 7 14 8 15 77 16 9 17 10 18 78 19 6 20 1 21 2 22
REMARK SMILES IDX 3 23 79 24 4 25 5 26 18 27 24 29 25 30 26 31 27 32 28 33
REMARK SMILES IDX 29 34 75 35 30 36 74 37 31 38 32 39 33 40 68 41 34 42 73 43
REMARK SMILES IDX 67 44 69 45 35 46 72 47 66 48 65 49 36 51 58 52 43 53 57 54
REMARK SMILES IDX 44 55 47 56 56 57 70 58 45 59 46 60 55 62 71 63 48 64 37 65
REMARK SMILES IDX 38 66 42 67 39 68 41 69 40 70 59 71 60 72 64 73 61 74 63 75
REMARK SMILES IDX 62 76 49 77 50 78 54 79 51 80 53 81 52 82
REMARK H PARENT 18 28 69 50 47 61
REMARK Flexibility Score: inf
ROOT
ATOM      1  C   UNL A   1      42.566  20.728  25.969  1.00  0.00     0.275 C 
ENDROOT
BRANCH   1   2
ATOM      2  O   UNL A   1      41.346  20.547  26.710  1.00  0.00    -0.458 OA
BRANCH   2   3
ATOM      3  C   UNL A   1      40.151  20.049  25.949  1.00  0.00     0.342 C 
ATOM      4  O   UNL A   1      40.572  18.891  25.648  1.00  0.00    -0.246 OA
BRANCH   3   5
ATOM      5  C   UNL A   1      38.288  21.075  25.595  1.00  0.00     0.103 A 
ATOM      6  C   UNL A   1      35.584  20.997  25.046  1.00  0.00     0.064 A 
ATOM      7  C   UNL A   1      35.362  22.282  25.449  1.00  0.00     0.032 A 
ATOM      8  C   UNL A   1      36.900  20.458  25.191  1.00  0.00     0.048 A 
ATOM      9  C   UNL A   1      36.473  23.059  25.712  1.00  0.00     0.049 A 
ATOM     10  C   UNL A   1      37.818  22.538  25.674  1.00  0.00     0.130 A 
BRANCH   6  11
ATOM     11  N   UNL A   1      34.561  20.161  24.591  1.00  0.00    -0.256 NA
ATOM     12  C   UNL A   1      33.324  20.507  24.372  1.00  0.00     0.121 C 
BRANCH  12  13
ATOM     13  C   UNL A   1      32.589  21.767  24.508  1.00  0.00     0.014 A 
ATOM     14  N   UNL A   1      31.758  23.870  24.365  1.00  0.00    -0.318 N 
ATOM     15  C   UNL A   1      31.239  23.325  25.522  1.00  0.00     0.021 A 
ATOM     16  C   UNL A   1      32.486  22.890  23.690  1.00  0.00     0.029 A 
ATOM     17  C   UNL A   1      30.299  24.058  26.416  1.00  0.00     0.065 C 
ATOM     18  C   UNL A   1      31.714  22.032  25.614  1.00  0.00     0.033 A 
ATOM     19  C   UNL A   1      33.091  23.171  22.364  1.00  0.00     0.065 C 
BRANCH  14  20
ATOM     20  C   UNL A   1      31.721  25.237  23.987  1.00  0.00     0.046 A 
ATOM     21  C   UNL A   1      34.065  28.222  24.177  1.00  0.00     0.044 C 
ATOM     22  C   UNL A   1      32.936  27.316  23.786  1.00  0.00    -0.049 A 
ATOM     23  C   UNL A   1      32.071  27.696  22.749  1.00  0.00     0.003 A 
ATOM     24  C   UNL A   1      32.756  26.076  24.411  1.00  0.00     0.030 A 
ATOM     25  C   UNL A   1      31.003  26.881  22.377  1.00  0.00     0.002 A 
ATOM     26  C   UNL A   1      30.811  25.658  23.013  1.00  0.00     0.026 A 
ENDBRANCH  14  20
ENDBRANCH  12  13
ENDBRANCH   6  11
BRANCH  10  27
ATOM     27  O   UNL A   1      38.631  23.678  25.525  1.00  0.00    -0.507 OA
ATOM     28  H   UNL A   1      38.301  24.522  25.762  1.00  0.00     0.293 HD
ENDBRANCH  10  27
ENDBRANCH   3   5
ENDBRANCH   2   3
ENDBRANCH   1   2
BRANCH   1  29
ATOM     29  C   UNL A   1      42.779  22.234  25.760  1.00  0.00     0.275 C 
BRANCH  29  30
ATOM     30  O   UNL A   1      41.675  23.079  26.196  1.00  0.00    -0.458 OA
BRANCH  30  31
ATOM     31  C   UNL A   1      41.913  24.144  27.016  1.00  0.00     0.338 C 
ATOM     32  O   UNL A   1      42.775  24.195  27.873  1.00  0.00    -0.246 OA
BRANCH  31  33
ATOM     33  C   UNL A   1      40.835  25.157  26.924  1.00  0.00     0.060 A 
ATOM     34  C   UNL A   1      41.244  26.630  25.953  1.00  0.00     0.016 A 
ATOM     35  C   UNL A   1      39.852  25.304  28.425  1.00  0.00     0.016 A 
ATOM     36  C   UNL A   1      40.711  28.301  26.557  1.00  0.00     0.010 A 
ATOM     37  C   UNL A   1      39.349  26.969  29.029  1.00  0.00     0.010 A 
ATOM     38  C   UNL A   1      39.800  28.451  28.105  1.00  0.00    -0.014 A 
BRANCH  38  39
ATOM     39  C   UNL A   1      40.029  29.594  28.993  1.00  0.00     0.031 A 
ATOM     40  C   UNL A   1      38.945  30.580  29.164  1.00  0.00     0.074 A 
ATOM     41  C   UNL A   1      41.147  29.625  29.768  1.00  0.00     0.049 A 
ATOM     42  N   UNL A   1      39.152  31.782  29.568  1.00  0.00    -0.248 NA
ATOM     43  C   UNL A   1      37.537  30.331  28.855  1.00  0.00     0.031 C 
ATOM     44  C   UNL A   1      41.454  30.505  30.896  1.00  0.00     0.029 A 
ATOM     45  N   UNL A   1      42.337  28.914  29.643  1.00  0.00    -0.354 N 
ATOM     46  C   UNL A   1      37.934  32.350  29.856  1.00  0.00     0.074 A 
ATOM     47  C   UNL A   1      36.954  31.441  29.322  1.00  0.00     0.031 C 
ATOM     48  C   UNL A   1      42.786  30.504  31.099  1.00  0.00     0.029 A 
ATOM     49  C   UNL A   1      43.394  29.722  30.038  1.00  0.00     0.049 A 
ATOM     50  H   UNL A   1      42.416  27.986  29.326  1.00  0.00     0.167 HD
ATOM     51  C   UNL A   1      37.910  33.473  30.622  1.00  0.00     0.031 A 
ATOM     52  C   UNL A   1      44.337  30.150  29.142  1.00  0.00     0.031 A 
ATOM     53  C   UNL A   1      39.273  33.895  30.953  1.00  0.00     0.049 A 
ATOM     54  C   UNL A   1      44.197  31.647  28.880  1.00  0.00     0.074 A 
ATOM     55  C   UNL A   1      40.084  33.721  32.062  1.00  0.00     0.029 A 
ATOM     56  N   UNL A   1      40.123  34.226  29.911  1.00  0.00    -0.354 N 
ATOM     57  N   UNL A   1      43.271  32.397  29.420  1.00  0.00    -0.248 NA
ATOM     58  C   UNL A   1      45.023  32.408  27.945  1.00  0.00     0.031 C 
ATOM     59  C   UNL A   1      41.438  33.931  31.653  1.00  0.00     0.029 A 
ATOM     60  C   UNL A   1      41.442  34.284  30.315  1.00  0.00     0.049 A 
ATOM     61  H   UNL A   1      39.822  34.400  28.990  1.00  0.00     0.167 HD
ATOM     62  C   UNL A   1      43.332  33.670  28.932  1.00  0.00     0.074 A 
ATOM     63  C   UNL A   1      44.435  33.620  27.985  1.00  0.00     0.031 C 
ATOM     64  C   UNL A   1      42.458  34.647  29.330  1.00  0.00     0.031 A 
BRANCH  51  65
ATOM     65  C   UNL A   1      36.672  34.057  31.250  1.00  0.00    -0.014 A 
ATOM     66  C   UNL A   1      35.481  34.095  30.502  1.00  0.00     0.009 A 
ATOM     67  C   UNL A   1      36.604  34.605  32.544  1.00  0.00     0.009 A 
ATOM     68  C   UNL A   1      34.316  34.708  30.983  1.00  0.00     0.001 A 
ATOM     69  C   UNL A   1      35.451  35.244  33.023  1.00  0.00     0.001 A 
ATOM     70  C   UNL A   1      34.307  35.302  32.237  1.00  0.00     0.000 A 
ENDBRANCH  51  65
BRANCH  52  71
ATOM     71  C   UNL A   1      44.781  29.101  28.165  1.00  0.00    -0.014 A 
ATOM     72  C   UNL A   1      45.335  27.915  28.705  1.00  0.00     0.009 A 
ATOM     73  C   UNL A   1      44.397  29.080  26.818  1.00  0.00     0.009 A 
ATOM     74  C   UNL A   1      45.335  26.714  27.988  1.00  0.00     0.001 A 
ATOM     75  C   UNL A   1      44.424  27.874  26.089  1.00  0.00     0.001 A 
ATOM     76  C   UNL A   1      44.849  26.688  26.688  1.00  0.00     0.000 A 
ENDBRANCH  52  71
BRANCH  64  77
ATOM     77  C   UNL A   1      42.451  36.061  28.797  1.00  0.00    -0.014 A 
ATOM     78  C   UNL A   1      41.858  36.421  27.583  1.00  0.00     0.009 A 
ATOM     79  C   UNL A   1      43.144  37.087  29.480  1.00  0.00     0.009 A 
ATOM     80  C   UNL A   1      41.850  37.753  27.146  1.00  0.00     0.001 A 
ATOM     81  C   UNL A   1      43.161  38.410  29.040  1.00  0.00     0.001 A 
ATOM     82  C   UNL A   1      42.487  38.748  27.881  1.00  0.00     0.000 A 
ENDBRANCH  64  77
ENDBRANCH  38  39
ENDBRANCH  31  33
ENDBRANCH  30  31
ENDBRANCH  29  30
ENDBRANCH   1  29
TORSDOF 15
ENDMDL
