MODEL 1
REMARK VINA RESULT:     -10.8      0.000      0.000
REMARK SMILES CCc1ccsc1CNC(=O)N1[C@H]2CC[C@@H]1[C@H](C(=O)OCCOC(=O)c1ccc(-c3c4nc(c(-c5ccccc5)c5ccc([nH]5)c(-c5ccccc5)c5nc(c(-c6ccccc6)c6ccc3[nH]6)C=C5)C=C4)cc1)C2
REMARK SMILES IDX 21 1 20 2 18 3 19 4 17 5 12 6 13 7 16 8 14 9 74 10 15 11
REMARK SMILES IDX 10 12 9 13 11 15 8 16 7 17 3 18 4 19 5 20 6 21 2 22 1 23
REMARK SMILES IDX 22 24 23 25 24 26 25 27 26 28 27 29 73 30 28 31 72 32 29 33
REMARK SMILES IDX 30 34 31 35 66 36 32 37 71 38 65 39 67 40 33 41 70 42 64 43
REMARK SMILES IDX 63 44 34 46 56 47 41 48 55 49 42 50 45 51 54 52 68 53 43 54
REMARK SMILES IDX 44 55 53 57 69 58 46 59 35 60 36 61 40 62 37 63 39 64 38 65
REMARK SMILES IDX 57 66 58 67 62 68 59 69 61 70 60 71 47 72 48 73 52 74 49 75
REMARK SMILES IDX 51 76 50 77
REMARK H PARENT 9 14 67 45 45 56
REMARK Flexibility Score: inf
ROOT
ATOM      1  C   UNL A   1      35.792  20.550  24.985  1.00  0.00     0.274 C 
ENDROOT
BRANCH   1   2
ATOM      2  O   UNL A   1      35.561  21.786  24.280  1.00  0.00    -0.462 OA
BRANCH   2   3
ATOM      3  C   UNL A   1      35.002  22.785  24.999  1.00  0.00     0.311 C 
ATOM      4  O   UNL A   1      35.047  22.864  26.223  1.00  0.00    -0.252 OA
BRANCH   3   5
ATOM      5  C   UNL A   1      34.271  23.805  24.172  1.00  0.00     0.124 C 
ATOM      6  N   UNL A   1      32.978  24.681  22.565  1.00  0.00    -0.318 N 
ATOM      7  C   UNL A   1      32.049  24.549  23.671  1.00  0.00     0.088 C 
ATOM      8  C   UNL A   1      33.767  23.475  22.754  1.00  0.00     0.101 C 
ATOM      9  C   UNL A   1      31.464  23.153  23.380  1.00  0.00     0.027 C 
ATOM     10  C   UNL A   1      33.021  24.407  24.858  1.00  0.00     0.042 C 
ATOM     11  C   UNL A   1      32.649  22.425  22.710  1.00  0.00     0.028 C 
BRANCH   6  12
ATOM     12  C   UNL A   1      33.058  25.508  21.505  1.00  0.00     0.318 C 
ATOM     13  N   UNL A   1      33.169  26.841  21.704  1.00  0.00    -0.333 N 
ATOM     14  H   UNL A   1      32.828  27.414  20.979  1.00  0.00     0.165 HD
ATOM     15  O   UNL A   1      33.092  25.089  20.348  1.00  0.00    -0.249 OA
BRANCH  13  16
ATOM     16  C   UNL A   1      33.726  27.532  22.845  1.00  0.00     0.165 C 
BRANCH  16  17
ATOM     17  C   UNL A   1      32.666  28.293  23.602  1.00  0.00     0.027 A 
ATOM     18  C   UNL A   1      32.726  28.775  24.907  1.00  0.00    -0.033 A 
ATOM     19  C   UNL A   1      31.529  29.485  25.255  1.00  0.00     0.016 A 
ATOM     20  C   UNL A   1      30.626  29.549  24.220  1.00  0.00     0.065 A 
ATOM     21  S   UNL A   1      31.212  28.779  22.821  1.00  0.00    -0.147 S 
BRANCH  18  22
ATOM     22  C   UNL A   1      33.885  28.605  25.850  1.00  0.00     0.033 C 
ATOM     23  C   UNL A   1      33.591  29.157  27.236  1.00  0.00     0.009 C 
ENDBRANCH  18  22
ENDBRANCH  16  17
ENDBRANCH  13  16
ENDBRANCH   6  12
ENDBRANCH   3   5
ENDBRANCH   2   3
ENDBRANCH   1   2
BRANCH   1  24
ATOM     24  C   UNL A   1      37.276  20.169  24.972  1.00  0.00     0.275 C 
BRANCH  24  25
ATOM     25  O   UNL A   1      38.132  21.311  25.173  1.00  0.00    -0.458 OA
BRANCH  25  26
ATOM     26  C   UNL A   1      39.205  21.077  25.964  1.00  0.00     0.338 C 
ATOM     27  O   UNL A   1      39.807  20.022  26.082  1.00  0.00    -0.246 OA
BRANCH  26  28
ATOM     28  C   UNL A   1      39.668  22.323  26.603  1.00  0.00     0.060 A 
ATOM     29  C   UNL A   1      39.106  23.526  26.162  1.00  0.00     0.016 A 
ATOM     30  C   UNL A   1      40.707  22.332  27.536  1.00  0.00     0.016 A 
ATOM     31  C   UNL A   1      39.595  24.742  26.628  1.00  0.00     0.010 A 
ATOM     32  C   UNL A   1      41.204  23.557  28.000  1.00  0.00     0.010 A 
ATOM     33  C   UNL A   1      40.668  24.767  27.526  1.00  0.00    -0.014 A 
BRANCH  33  34
ATOM     34  C   UNL A   1      41.283  26.072  27.861  1.00  0.00     0.031 A 
ATOM     35  C   UNL A   1      42.606  26.444  27.251  1.00  0.00     0.074 A 
ATOM     36  C   UNL A   1      40.629  26.952  28.639  1.00  0.00     0.049 A 
ATOM     37  N   UNL A   1      43.296  27.549  27.381  1.00  0.00    -0.248 NA
ATOM     38  C   UNL A   1      43.231  25.441  26.375  1.00  0.00     0.031 C 
ATOM     39  C   UNL A   1      39.318  26.730  29.250  1.00  0.00     0.029 A 
ATOM     40  N   UNL A   1      40.973  28.220  29.031  1.00  0.00    -0.354 N 
ATOM     41  C   UNL A   1      44.439  27.371  26.612  1.00  0.00     0.074 A 
ATOM     42  C   UNL A   1      44.364  26.043  26.041  1.00  0.00     0.031 C 
ATOM     43  C   UNL A   1      38.962  27.833  29.930  1.00  0.00     0.029 A 
ATOM     44  C   UNL A   1      40.029  28.826  29.823  1.00  0.00     0.049 A 
ATOM     45  H   UNL A   1      41.817  28.655  28.770  1.00  0.00     0.167 HD
ATOM     46  C   UNL A   1      45.458  28.236  26.393  1.00  0.00     0.031 A 
ATOM     47  C   UNL A   1      40.027  30.042  30.399  1.00  0.00     0.031 A 
ATOM     48  C   UNL A   1      45.538  29.558  26.956  1.00  0.00     0.049 A 
ATOM     49  C   UNL A   1      41.191  30.967  30.177  1.00  0.00     0.074 A 
ATOM     50  C   UNL A   1      46.534  30.507  26.797  1.00  0.00     0.029 A 
ATOM     51  N   UNL A   1      44.580  30.118  27.785  1.00  0.00    -0.354 N 
ATOM     52  N   UNL A   1      42.267  30.785  29.449  1.00  0.00    -0.248 NA
ATOM     53  C   UNL A   1      41.134  32.273  30.850  1.00  0.00     0.031 C 
ATOM     54  C   UNL A   1      46.195  31.628  27.561  1.00  0.00     0.029 A 
ATOM     55  C   UNL A   1      44.967  31.395  28.158  1.00  0.00     0.049 A 
ATOM     56  H   UNL A   1      43.748  29.675  28.068  1.00  0.00     0.167 HD
ATOM     57  C   UNL A   1      43.001  31.958  29.558  1.00  0.00     0.074 A 
ATOM     58  C   UNL A   1      42.241  32.853  30.406  1.00  0.00     0.031 C 
ATOM     59  C   UNL A   1      44.199  32.269  29.004  1.00  0.00     0.031 A 
BRANCH  46  60
ATOM     60  C   UNL A   1      46.588  27.758  25.526  1.00  0.00    -0.014 A 
ATOM     61  C   UNL A   1      46.620  28.036  24.151  1.00  0.00     0.009 A 
ATOM     62  C   UNL A   1      47.643  27.030  26.099  1.00  0.00     0.009 A 
ATOM     63  C   UNL A   1      47.670  27.564  23.360  1.00  0.00     0.001 A 
ATOM     64  C   UNL A   1      48.703  26.581  25.310  1.00  0.00     0.001 A 
ATOM     65  C   UNL A   1      48.712  26.841  23.941  1.00  0.00     0.000 A 
ENDBRANCH  46  60
BRANCH  47  66
ATOM     66  C   UNL A   1      38.885  30.460  31.250  1.00  0.00    -0.014 A 
ATOM     67  C   UNL A   1      37.845  31.240  30.722  1.00  0.00     0.009 A 
ATOM     68  C   UNL A   1      38.839  30.093  32.604  1.00  0.00     0.009 A 
ATOM     69  C   UNL A   1      36.797  31.666  31.540  1.00  0.00     0.001 A 
ATOM     70  C   UNL A   1      37.776  30.499  33.412  1.00  0.00     0.001 A 
ATOM     71  C   UNL A   1      36.761  31.292  32.883  1.00  0.00     0.000 A 
ENDBRANCH  47  66
BRANCH  59  72
ATOM     72  C   UNL A   1      44.738  33.645  29.276  1.00  0.00    -0.014 A 
ATOM     73  C   UNL A   1      45.580  33.893  30.372  1.00  0.00     0.009 A 
ATOM     74  C   UNL A   1      44.412  34.703  28.414  1.00  0.00     0.009 A 
ATOM     75  C   UNL A   1      46.052  35.185  30.619  1.00  0.00     0.001 A 
ATOM     76  C   UNL A   1      44.905  35.986  28.649  1.00  0.00     0.001 A 
ATOM     77  C   UNL A   1      45.716  36.229  29.758  1.00  0.00     0.000 A 
ENDBRANCH  59  72
ENDBRANCH  33  34
ENDBRANCH  26  28
ENDBRANCH  25  26
ENDBRANCH  24  25
ENDBRANCH   1  24
TORSDOF 15
ENDMDL
MODEL 2
REMARK VINA RESULT:     -10.6      2.341      3.101
REMARK SMILES CCc1ccsc1CNC(=O)N1[C@H]2CC[C@@H]1[C@H](C(=O)OCCOC(=O)c1ccc(-c3c4nc(c(-c5ccccc5)c5ccc([nH]5)c(-c5ccccc5)c5nc(c(-c6ccccc6)c6ccc3[nH]6)C=C5)C=C4)cc1)C2
REMARK SMILES IDX 21 1 20 2 18 3 19 4 17 5 12 6 13 7 16 8 14 9 74 10 15 11
REMARK SMILES IDX 10 12 9 13 11 15 8 16 7 17 3 18 4 19 5 20 6 21 2 22 1 23
REMARK SMILES IDX 22 24 23 25 24 26 25 27 26 28 27 29 73 30 28 31 72 32 29 33
REMARK SMILES IDX 30 34 31 35 66 36 32 37 71 38 65 39 67 40 33 41 70 42 64 43
REMARK SMILES IDX 63 44 34 46 56 47 41 48 55 49 42 50 45 51 54 52 68 53 43 54
REMARK SMILES IDX 44 55 53 57 69 58 46 59 35 60 36 61 40 62 37 63 39 64 38 65
REMARK SMILES IDX 57 66 58 67 62 68 59 69 61 70 60 71 47 72 48 73 52 74 49 75
REMARK SMILES IDX 51 76 50 77
REMARK H PARENT 9 14 67 45 45 56
REMARK Flexibility Score: inf
ROOT
ATOM      1  C   UNL A   1      38.402  21.313  25.576  1.00  0.00     0.274 C 
ENDROOT
BRANCH   1   2
ATOM      2  O   UNL A   1      37.544  21.650  24.468  1.00  0.00    -0.462 OA
BRANCH   2   3
ATOM      3  C   UNL A   1      36.215  21.546  24.692  1.00  0.00     0.311 C 
ATOM      4  O   UNL A   1      35.692  20.646  25.343  1.00  0.00    -0.252 OA
BRANCH   3   5
ATOM      5  C   UNL A   1      35.394  22.625  24.042  1.00  0.00     0.124 C 
ATOM      6  N   UNL A   1      33.628  23.895  23.508  1.00  0.00    -0.318 N 
ATOM      7  C   UNL A   1      34.256  24.667  24.563  1.00  0.00     0.088 C 
ATOM      8  C   UNL A   1      33.856  22.550  24.011  1.00  0.00     0.101 C 
ATOM      9  C   UNL A   1      33.498  24.130  25.792  1.00  0.00     0.027 C 
ATOM     10  C   UNL A   1      35.667  24.049  24.581  1.00  0.00     0.042 C 
ATOM     11  C   UNL A   1      33.190  22.673  25.387  1.00  0.00     0.028 C 
BRANCH   6  12
ATOM     12  C   UNL A   1      32.861  24.212  22.447  1.00  0.00     0.318 C 
ATOM     13  N   UNL A   1      31.551  24.493  22.630  1.00  0.00    -0.333 N 
ATOM     14  H   UNL A   1      30.963  24.322  21.859  1.00  0.00     0.165 HD
ATOM     15  O   UNL A   1      33.323  24.312  21.310  1.00  0.00    -0.249 OA
BRANCH  13  16
ATOM     16  C   UNL A   1      30.905  25.015  23.812  1.00  0.00     0.165 C 
BRANCH  16  17
ATOM     17  C   UNL A   1      30.934  26.524  23.838  1.00  0.00     0.027 A 
ATOM     18  C   UNL A   1      31.052  27.358  24.946  1.00  0.00    -0.033 A 
ATOM     19  C   UNL A   1      31.082  28.739  24.557  1.00  0.00     0.016 A 
ATOM     20  C   UNL A   1      31.017  28.912  23.195  1.00  0.00     0.065 A 
ATOM     21  S   UNL A   1      30.942  27.424  22.371  1.00  0.00    -0.147 S 
BRANCH  18  22
ATOM     22  C   UNL A   1      31.155  26.905  26.376  1.00  0.00     0.033 C 
ATOM     23  C   UNL A   1      32.005  27.840  27.222  1.00  0.00     0.009 C 
ENDBRANCH  18  22
ENDBRANCH  16  17
ENDBRANCH  13  16
ENDBRANCH   6  12
ENDBRANCH   3   5
ENDBRANCH   2   3
ENDBRANCH   1   2
BRANCH   1  24
ATOM     24  C   UNL A   1      39.186  20.025  25.304  1.00  0.00     0.275 C 
BRANCH  24  25
ATOM     25  O   UNL A   1      40.116  19.720  26.363  1.00  0.00    -0.458 OA
BRANCH  25  26
ATOM     26  C   UNL A   1      41.419  19.862  26.026  1.00  0.00     0.338 C 
ATOM     27  O   UNL A   1      42.068  19.124  25.304  1.00  0.00    -0.246 OA
BRANCH  26  28
ATOM     28  C   UNL A   1      41.961  21.131  26.547  1.00  0.00     0.060 A 
ATOM     29  C   UNL A   1      41.946  21.323  27.933  1.00  0.00     0.016 A 
ATOM     30  C   UNL A   1      42.375  22.160  25.699  1.00  0.00     0.016 A 
ATOM     31  C   UNL A   1      42.316  22.548  28.476  1.00  0.00     0.010 A 
ATOM     32  C   UNL A   1      42.741  23.396  26.245  1.00  0.00     0.010 A 
ATOM     33  C   UNL A   1      42.687  23.604  27.635  1.00  0.00    -0.014 A 
BRANCH  33  34
ATOM     34  C   UNL A   1      42.898  24.944  28.228  1.00  0.00     0.031 A 
ATOM     35  C   UNL A   1      44.289  25.377  28.601  1.00  0.00     0.074 A 
ATOM     36  C   UNL A   1      41.868  25.799  28.358  1.00  0.00     0.049 A 
ATOM     37  N   UNL A   1      44.695  26.519  29.097  1.00  0.00    -0.248 NA
ATOM     38  C   UNL A   1      45.364  24.396  28.384  1.00  0.00     0.031 C 
ATOM     39  C   UNL A   1      40.483  25.516  27.986  1.00  0.00     0.029 A 
ATOM     40  N   UNL A   1      41.837  27.089  28.821  1.00  0.00    -0.354 N 
ATOM     41  C   UNL A   1      46.069  26.391  29.258  1.00  0.00     0.074 A 
ATOM     42  C   UNL A   1      46.423  25.053  28.834  1.00  0.00     0.031 C 
ATOM     43  C   UNL A   1      39.737  26.608  28.224  1.00  0.00     0.029 A 
ATOM     44  C   UNL A   1      40.587  27.655  28.787  1.00  0.00     0.049 A 
ATOM     45  H   UNL A   1      42.635  27.564  29.148  1.00  0.00     0.167 HD
ATOM     46  C   UNL A   1      46.960  27.307  29.710  1.00  0.00     0.031 A 
ATOM     47  C   UNL A   1      40.174  28.878  29.168  1.00  0.00     0.031 A 
ATOM     48  C   UNL A   1      46.614  28.639  30.131  1.00  0.00     0.049 A 
ATOM     49  C   UNL A   1      41.175  29.860  29.710  1.00  0.00     0.074 A 
ATOM     50  C   UNL A   1      47.445  29.637  30.609  1.00  0.00     0.029 A 
ATOM     51  N   UNL A   1      45.330  29.159  30.117  1.00  0.00    -0.354 N 
ATOM     52  N   UNL A   1      42.471  29.725  29.859  1.00  0.00    -0.248 NA
ATOM     53  C   UNL A   1      40.655  31.171  30.125  1.00  0.00     0.031 C 
ATOM     54  C   UNL A   1      46.657  30.750  30.921  1.00  0.00     0.029 A 
ATOM     55  C   UNL A   1      45.343  30.460  30.593  1.00  0.00     0.049 A 
ATOM     56  H   UNL A   1      44.528  28.676  29.815  1.00  0.00     0.167 HD
ATOM     57  C   UNL A   1      42.923  30.938  30.363  1.00  0.00     0.074 A 
ATOM     58  C   UNL A   1      41.766  31.803  30.476  1.00  0.00     0.031 C 
ATOM     59  C   UNL A   1      44.183  31.304  30.701  1.00  0.00     0.031 A 
BRANCH  46  60
ATOM     60  C   UNL A   1      48.396  26.876  29.802  1.00  0.00    -0.014 A 
ATOM     61  C   UNL A   1      48.885  26.209  30.937  1.00  0.00     0.009 A 
ATOM     62  C   UNL A   1      49.267  27.130  28.732  1.00  0.00     0.009 A 
ATOM     63  C   UNL A   1      50.229  25.835  31.010  1.00  0.00     0.001 A 
ATOM     64  C   UNL A   1      50.604  26.733  28.799  1.00  0.00     0.001 A 
ATOM     65  C   UNL A   1      51.085  26.094  29.940  1.00  0.00     0.000 A 
ENDBRANCH  46  60
BRANCH  47  66
ATOM     66  C   UNL A   1      38.740  29.246  29.059  1.00  0.00    -0.014 A 
ATOM     67  C   UNL A   1      37.889  29.151  30.169  1.00  0.00     0.009 A 
ATOM     68  C   UNL A   1      38.212  29.678  27.832  1.00  0.00     0.009 A 
ATOM     69  C   UNL A   1      36.532  29.456  30.047  1.00  0.00     0.001 A 
ATOM     70  C   UNL A   1      36.860  30.007  27.720  1.00  0.00     0.001 A 
ATOM     71  C   UNL A   1      36.019  29.888  28.824  1.00  0.00     0.000 A 
ENDBRANCH  47  66
BRANCH  59  72
ATOM     72  C   UNL A   1      44.374  32.710  31.194  1.00  0.00    -0.014 A 
ATOM     73  C   UNL A   1      44.640  33.764  30.305  1.00  0.00     0.009 A 
ATOM     74  C   UNL A   1      44.271  32.986  32.566  1.00  0.00     0.009 A 
ATOM     75  C   UNL A   1      44.837  35.060  30.786  1.00  0.00     0.001 A 
ATOM     76  C   UNL A   1      44.443  34.286  33.042  1.00  0.00     0.001 A 
ATOM     77  C   UNL A   1      44.738  35.321  32.153  1.00  0.00     0.000 A 
ENDBRANCH  59  72
ENDBRANCH  33  34
ENDBRANCH  26  28
ENDBRANCH  25  26
ENDBRANCH  24  25
ENDBRANCH   1  24
TORSDOF 15
ENDMDL
MODEL 3
REMARK VINA RESULT:     -10.6      1.466      2.387
REMARK SMILES CCc1ccsc1CNC(=O)N1[C@H]2CC[C@@H]1[C@H](C(=O)OCCOC(=O)c1ccc(-c3c4nc(c(-c5ccccc5)c5ccc([nH]5)c(-c5ccccc5)c5nc(c(-c6ccccc6)c6ccc3[nH]6)C=C5)C=C4)cc1)C2
REMARK SMILES IDX 21 1 20 2 18 3 19 4 17 5 12 6 13 7 16 8 14 9 74 10 15 11
REMARK SMILES IDX 10 12 9 13 11 15 8 16 7 17 3 18 4 19 5 20 6 21 2 22 1 23
REMARK SMILES IDX 22 24 23 25 24 26 25 27 26 28 27 29 73 30 28 31 72 32 29 33
REMARK SMILES IDX 30 34 31 35 66 36 32 37 71 38 65 39 67 40 33 41 70 42 64 43
REMARK SMILES IDX 63 44 34 46 56 47 41 48 55 49 42 50 45 51 54 52 68 53 43 54
REMARK SMILES IDX 44 55 53 57 69 58 46 59 35 60 36 61 40 62 37 63 39 64 38 65
REMARK SMILES IDX 57 66 58 67 62 68 59 69 61 70 60 71 47 72 48 73 52 74 49 75
REMARK SMILES IDX 51 76 50 77
REMARK H PARENT 9 14 67 45 45 56
REMARK Flexibility Score: inf
ROOT
ATOM      1  C   UNL A   1      36.809  22.496  23.510  1.00  0.00     0.274 C 
ENDROOT
BRANCH   1   2
ATOM      2  O   UNL A   1      35.915  23.370  24.228  1.00  0.00    -0.462 OA
BRANCH   2   3
ATOM      3  C   UNL A   1      34.660  23.471  23.736  1.00  0.00     0.311 C 
ATOM      4  O   UNL A   1      34.368  23.333  22.552  1.00  0.00    -0.252 OA
BRANCH   3   5
ATOM      5  C   UNL A   1      33.619  23.808  24.767  1.00  0.00     0.124 C 
ATOM      6  N   UNL A   1      32.011  23.540  26.303  1.00  0.00    -0.318 N 
ATOM      7  C   UNL A   1      33.206  23.635  27.121  1.00  0.00     0.088 C 
ATOM      8  C   UNL A   1      32.538  22.790  25.175  1.00  0.00     0.101 C 
ATOM      9  C   UNL A   1      33.577  22.145  27.249  1.00  0.00     0.027 C 
ATOM     10  C   UNL A   1      34.193  24.275  26.126  1.00  0.00     0.042 C 
ATOM     11  C   UNL A   1      33.077  21.558  25.913  1.00  0.00     0.028 C 
BRANCH   6  12
ATOM     12  C   UNL A   1      30.713  23.833  26.508  1.00  0.00     0.318 C 
ATOM     13  N   UNL A   1      30.161  24.898  25.883  1.00  0.00    -0.333 N 
ATOM     14  H   UNL A   1      29.391  25.311  26.336  1.00  0.00     0.165 HD
ATOM     15  O   UNL A   1      29.984  23.128  27.207  1.00  0.00    -0.249 OA
BRANCH  13  16
ATOM     16  C   UNL A   1      30.559  25.506  24.634  1.00  0.00     0.165 C 
BRANCH  16  17
ATOM     17  C   UNL A   1      30.958  26.949  24.823  1.00  0.00     0.027 A 
ATOM     18  C   UNL A   1      30.495  28.063  24.128  1.00  0.00    -0.033 A 
ATOM     19  C   UNL A   1      31.085  29.271  24.629  1.00  0.00     0.016 A 
ATOM     20  C   UNL A   1      31.937  29.051  25.685  1.00  0.00     0.065 A 
ATOM     21  S   UNL A   1      32.021  27.403  26.098  1.00  0.00    -0.147 S 
BRANCH  18  22
ATOM     22  C   UNL A   1      29.494  28.041  23.006  1.00  0.00     0.033 C 
ATOM     23  C   UNL A   1      29.032  29.435  22.612  1.00  0.00     0.009 C 
ENDBRANCH  18  22
ENDBRANCH  16  17
ENDBRANCH  13  16
ENDBRANCH   6  12
ENDBRANCH   3   5
ENDBRANCH   2   3
ENDBRANCH   1   2
BRANCH   1  24
ATOM     24  C   UNL A   1      37.222  21.294  24.365  1.00  0.00     0.275 C 
BRANCH  24  25
ATOM     25  O   UNL A   1      37.544  21.674  25.718  1.00  0.00    -0.458 OA
BRANCH  25  26
ATOM     26  C   UNL A   1      38.843  21.499  26.058  1.00  0.00     0.338 C 
ATOM     27  O   UNL A   1      39.535  20.527  25.805  1.00  0.00    -0.246 OA
BRANCH  26  28
ATOM     28  C   UNL A   1      39.391  22.716  26.685  1.00  0.00     0.060 A 
ATOM     29  C   UNL A   1      38.854  23.947  26.292  1.00  0.00     0.016 A 
ATOM     30  C   UNL A   1      40.480  22.670  27.557  1.00  0.00     0.016 A 
ATOM     31  C   UNL A   1      39.417  25.135  26.744  1.00  0.00     0.010 A 
ATOM     32  C   UNL A   1      41.052  23.866  28.006  1.00  0.00     0.010 A 
ATOM     33  C   UNL A   1      40.539  25.104  27.580  1.00  0.00    -0.014 A 
BRANCH  33  34
ATOM     34  C   UNL A   1      41.225  26.378  27.895  1.00  0.00     0.031 A 
ATOM     35  C   UNL A   1      42.577  26.658  27.299  1.00  0.00     0.074 A 
ATOM     36  C   UNL A   1      40.611  27.313  28.641  1.00  0.00     0.049 A 
ATOM     37  N   UNL A   1      43.329  27.723  27.417  1.00  0.00    -0.248 NA
ATOM     38  C   UNL A   1      43.156  25.599  26.458  1.00  0.00     0.031 C 
ATOM     39  C   UNL A   1      39.280  27.183  29.234  1.00  0.00     0.029 A 
ATOM     40  N   UNL A   1      41.023  28.568  29.010  1.00  0.00    -0.354 N 
ATOM     41  C   UNL A   1      44.472  27.460  26.672  1.00  0.00     0.074 A 
ATOM     42  C   UNL A   1      44.327  26.126  26.130  1.00  0.00     0.031 C 
ATOM     43  C   UNL A   1      38.979  28.321  29.882  1.00  0.00     0.029 A 
ATOM     44  C   UNL A   1      40.104  29.247  29.771  1.00  0.00     0.049 A 
ATOM     45  H   UNL A   1      41.895  28.946  28.754  1.00  0.00     0.167 HD
ATOM     46  C   UNL A   1      45.543  28.259  26.450  1.00  0.00     0.031 A 
ATOM     47  C   UNL A   1      40.164  30.475  30.319  1.00  0.00     0.031 A 
ATOM     48  C   UNL A   1      45.692  29.587  26.984  1.00  0.00     0.049 A 
ATOM     49  C   UNL A   1      41.384  31.325  30.096  1.00  0.00     0.074 A 
ATOM     50  C   UNL A   1      46.743  30.472  26.821  1.00  0.00     0.029 A 
ATOM     51  N   UNL A   1      44.755  30.222  27.783  1.00  0.00    -0.354 N 
ATOM     52  N   UNL A   1      42.459  31.062  29.391  1.00  0.00    -0.248 NA
ATOM     53  C   UNL A   1      41.393  32.647  30.737  1.00  0.00     0.031 C 
ATOM     54  C   UNL A   1      46.459  31.629  27.553  1.00  0.00     0.029 A 
ATOM     55  C   UNL A   1      45.210  31.483  28.134  1.00  0.00     0.049 A 
ATOM     56  H   UNL A   1      43.894  29.835  28.062  1.00  0.00     0.167 HD
ATOM     57  C   UNL A   1      43.259  32.193  29.486  1.00  0.00     0.074 A 
ATOM     58  C   UNL A   1      42.539  33.151  30.300  1.00  0.00     0.031 C 
ATOM     59  C   UNL A   1      44.482  32.420  28.946  1.00  0.00     0.031 A 
BRANCH  46  60
ATOM     60  C   UNL A   1      46.657  27.695  25.615  1.00  0.00    -0.014 A 
ATOM     61  C   UNL A   1      47.644  26.871  26.178  1.00  0.00     0.009 A 
ATOM     62  C   UNL A   1      46.709  27.980  24.242  1.00  0.00     0.009 A 
ATOM     63  C   UNL A   1      48.682  26.372  25.388  1.00  0.00     0.001 A 
ATOM     64  C   UNL A   1      47.734  27.460  23.450  1.00  0.00     0.001 A 
ATOM     65  C   UNL A   1      48.723  26.664  24.024  1.00  0.00     0.000 A 
ENDBRANCH  46  60
BRANCH  47  66
ATOM     66  C   UNL A   1      39.035  30.979  31.140  1.00  0.00    -0.014 A 
ATOM     67  C   UNL A   1      38.967  30.701  32.513  1.00  0.00     0.009 A 
ATOM     68  C   UNL A   1      38.006  31.726  30.545  1.00  0.00     0.009 A 
ATOM     69  C   UNL A   1      37.879  31.140  33.269  1.00  0.00     0.001 A 
ATOM     70  C   UNL A   1      36.932  32.186  31.310  1.00  0.00     0.001 A 
ATOM     71  C   UNL A   1      36.865  31.885  32.669  1.00  0.00     0.000 A 
ENDBRANCH  47  66
BRANCH  59  72
ATOM     72  C   UNL A   1      45.096  33.768  29.196  1.00  0.00    -0.014 A 
ATOM     73  C   UNL A   1      44.888  34.838  28.311  1.00  0.00     0.009 A 
ATOM     74  C   UNL A   1      45.882  33.973  30.341  1.00  0.00     0.009 A 
ATOM     75  C   UNL A   1      45.488  36.077  28.550  1.00  0.00     0.001 A 
ATOM     76  C   UNL A   1      46.459  35.218  30.590  1.00  0.00     0.001 A 
ATOM     77  C   UNL A   1      46.271  36.267  29.689  1.00  0.00     0.000 A 
ENDBRANCH  59  72
ENDBRANCH  33  34
ENDBRANCH  26  28
ENDBRANCH  25  26
ENDBRANCH  24  25
ENDBRANCH   1  24
TORSDOF 15
ENDMDL
