MODEL 1
REMARK VINA RESULT:     -11.7      0.000      0.000
REMARK SMILES O=C(OCCOC(=O)c1cc(S(=O)(=O)Nc2ccc(F)c(C(F)(F)F)c2)c[nH]1)c1ccc(-c2c3nc(c(-c4ccccc4)c4ccc([nH]4)c(-c4ccccc4)c4nc(c(-c5ccccc5)c5ccc2[nH]5)C=C4)C=C3)cc1
REMARK SMILES IDX 5 1 4 2 3 3 2 4 1 5 29 6 30 7 76 8 31 9 75 10 32 11 33 12
REMARK SMILES IDX 34 13 69 14 35 15 74 16 68 17 70 18 36 19 73 20 67 21 66 22
REMARK SMILES IDX 37 24 59 25 44 26 58 27 45 28 48 29 57 30 71 31 46 32 47 33
REMARK SMILES IDX 56 35 72 36 49 37 38 38 39 39 43 40 40 41 42 42 41 43 60 44
REMARK SMILES IDX 61 45 65 46 62 47 64 48 63 49 50 50 51 51 55 52 52 53 54 54
REMARK SMILES IDX 53 55 6 56 7 57 8 58 9 59 10 60 28 61 11 62 27 63 12 65
REMARK SMILES IDX 13 66 14 67 15 68 16 70 17 71 26 72 18 73 21 74 19 75 20 76
REMARK SMILES IDX 22 77 23 78 24 79 25 80
REMARK H PARENT 70 23 48 34 28 64 15 69
REMARK Flexibility Score: inf
ROOT
ATOM      1  C   UNL A   1      33.889  31.256  27.895  1.00  0.00     0.275 C 
ENDROOT
BRANCH   1   2
ATOM      2  C   UNL A   1      34.847  30.065  27.799  1.00  0.00     0.275 C 
BRANCH   2   3
ATOM      3  O   UNL A   1      36.212  30.354  28.170  1.00  0.00    -0.458 OA
BRANCH   3   4
ATOM      4  C   UNL A   1      36.888  29.660  29.115  1.00  0.00     0.338 C 
ATOM      5  O   UNL A   1      36.369  29.309  30.170  1.00  0.00    -0.246 OA
BRANCH   4   6
ATOM      6  C   UNL A   1      38.191  29.071  28.723  1.00  0.00     0.060 A 
ATOM      7  C   UNL A   1      38.800  29.285  27.487  1.00  0.00     0.016 A 
ATOM      8  C   UNL A   1      38.865  28.328  29.708  1.00  0.00     0.016 A 
ATOM      9  C   UNL A   1      40.027  28.696  27.203  1.00  0.00     0.010 A 
ATOM     10  C   UNL A   1      40.112  27.766  29.442  1.00  0.00     0.010 A 
ATOM     11  C   UNL A   1      40.686  27.943  28.180  1.00  0.00    -0.014 A 
BRANCH  11  12
ATOM     12  C   UNL A   1      42.048  27.461  27.867  1.00  0.00     0.031 A 
ATOM     13  C   UNL A   1      43.074  28.580  27.761  1.00  0.00     0.074 A 
ATOM     14  C   UNL A   1      42.201  26.128  27.632  1.00  0.00     0.049 A 
ATOM     15  N   UNL A   1      44.160  28.636  27.053  1.00  0.00    -0.248 NA
ATOM     16  C   UNL A   1      42.820  29.851  28.487  1.00  0.00     0.031 C 
ATOM     17  C   UNL A   1      41.111  25.145  27.767  1.00  0.00     0.029 A 
ATOM     18  N   UNL A   1      43.256  25.335  27.228  1.00  0.00    -0.354 N 
ATOM     19  C   UNL A   1      44.793  29.857  27.355  1.00  0.00     0.074 A 
ATOM     20  C   UNL A   1      43.871  30.605  28.161  1.00  0.00     0.031 C 
ATOM     21  C   UNL A   1      41.533  23.918  27.408  1.00  0.00     0.029 A 
ATOM     22  C   UNL A   1      42.927  23.977  27.011  1.00  0.00     0.049 A 
ATOM     23  H   UNL A   1      44.166  25.687  27.102  1.00  0.00     0.167 HD
ATOM     24  C   UNL A   1      46.092  30.128  27.042  1.00  0.00     0.031 A 
ATOM     25  C   UNL A   1      43.694  22.962  26.512  1.00  0.00     0.031 A 
ATOM     26  C   UNL A   1      46.670  29.082  26.265  1.00  0.00     0.049 A 
ATOM     27  C   UNL A   1      45.055  23.488  26.302  1.00  0.00     0.074 A 
ATOM     28  C   UNL A   1      46.522  28.644  24.975  1.00  0.00     0.029 A 
ATOM     29  N   UNL A   1      47.398  28.145  26.955  1.00  0.00    -0.354 N 
ATOM     30  N   UNL A   1      45.903  23.758  27.245  1.00  0.00    -0.248 NA
ATOM     31  C   UNL A   1      45.511  23.774  24.935  1.00  0.00     0.031 C 
ATOM     32  C   UNL A   1      46.811  27.258  25.033  1.00  0.00     0.029 A 
ATOM     33  C   UNL A   1      47.172  26.937  26.344  1.00  0.00     0.049 A 
ATOM     34  H   UNL A   1      47.973  28.308  27.738  1.00  0.00     0.167 HD
ATOM     35  C   UNL A   1      46.804  24.585  26.616  1.00  0.00     0.074 A 
ATOM     36  C   UNL A   1      46.703  24.305  25.202  1.00  0.00     0.031 C 
ATOM     37  C   UNL A   1      47.139  25.766  27.193  1.00  0.00     0.031 A 
BRANCH  24  38
ATOM     38  C   UNL A   1      47.022  31.169  27.611  1.00  0.00    -0.014 A 
ATOM     39  C   UNL A   1      47.652  32.053  26.703  1.00  0.00     0.009 A 
ATOM     40  C   UNL A   1      47.534  31.128  28.913  1.00  0.00     0.009 A 
ATOM     41  C   UNL A   1      48.798  32.774  27.044  1.00  0.00     0.001 A 
ATOM     42  C   UNL A   1      48.660  31.885  29.271  1.00  0.00     0.001 A 
ATOM     43  C   UNL A   1      49.310  32.678  28.329  1.00  0.00     0.000 A 
ENDBRANCH  24  38
BRANCH  25  44
ATOM     44  C   UNL A   1      43.455  21.535  26.094  1.00  0.00    -0.014 A 
ATOM     45  C   UNL A   1      44.333  20.750  25.341  1.00  0.00     0.009 A 
ATOM     46  C   UNL A   1      42.263  20.884  26.511  1.00  0.00     0.009 A 
ATOM     47  C   UNL A   1      44.079  19.387  25.095  1.00  0.00     0.001 A 
ATOM     48  C   UNL A   1      42.016  19.524  26.295  1.00  0.00     0.001 A 
ATOM     49  C   UNL A   1      42.936  18.768  25.593  1.00  0.00     0.000 A 
ENDBRANCH  25  44
BRANCH  37  50
ATOM     50  C   UNL A   1      46.917  25.813  28.697  1.00  0.00    -0.014 A 
ATOM     51  C   UNL A   1      45.671  26.167  29.230  1.00  0.00     0.009 A 
ATOM     52  C   UNL A   1      47.975  25.625  29.603  1.00  0.00     0.009 A 
ATOM     53  C   UNL A   1      45.499  26.344  30.610  1.00  0.00     0.001 A 
ATOM     54  C   UNL A   1      47.808  25.790  30.982  1.00  0.00     0.001 A 
ATOM     55  C   UNL A   1      46.567  26.157  31.485  1.00  0.00     0.000 A 
ENDBRANCH  37  50
ENDBRANCH  11  12
ENDBRANCH   4   6
ENDBRANCH   3   4
ENDBRANCH   2   3
ENDBRANCH   1   2
BRANCH   1  56
ATOM     56  O   UNL A   1      34.375  32.265  28.795  1.00  0.00    -0.457 OA
BRANCH  56  57
ATOM     57  C   UNL A   1      34.836  33.396  28.191  1.00  0.00     0.354 C 
ATOM     58  O   UNL A   1      35.727  33.442  27.350  1.00  0.00    -0.244 OA
BRANCH  57  59
ATOM     59  C   UNL A   1      34.124  34.549  28.665  1.00  0.00     0.126 A 
ATOM     60  C   UNL A   1      33.411  34.744  29.835  1.00  0.00     0.057 A 
ATOM     61  N   UNL A   1      34.144  35.758  28.002  1.00  0.00    -0.354 N 
ATOM     62  C   UNL A   1      33.337  36.150  30.027  1.00  0.00     0.106 A 
ATOM     63  C   UNL A   1      33.701  36.750  28.839  1.00  0.00     0.105 A 
ATOM     64  H   UNL A   1      34.433  35.890  27.070  1.00  0.00     0.166 HD
BRANCH  62  65
ATOM     65  S   UNL A   1      33.023  36.909  31.551  1.00  0.00     0.263 S 
ATOM     66  O   UNL A   1      32.946  38.330  31.263  1.00  0.00    -0.201 OA
ATOM     67  O   UNL A   1      31.907  36.184  32.104  1.00  0.00    -0.201 OA
BRANCH  65  68
ATOM     68  N   UNL A   1      34.376  36.677  32.576  1.00  0.00    -0.280 N 
ATOM     69  H   UNL A   1      34.787  37.421  33.074  1.00  0.00     0.180 HD
BRANCH  68  70
ATOM     70  C   UNL A   1      34.874  35.339  32.667  1.00  0.00     0.050 A 
ATOM     71  C   UNL A   1      34.135  34.405  33.398  1.00  0.00     0.030 A 
ATOM     72  C   UNL A   1      36.126  34.994  32.156  1.00  0.00     0.043 A 
ATOM     73  C   UNL A   1      34.659  33.136  33.641  1.00  0.00     0.042 A 
ATOM     74  C   UNL A   1      36.658  33.709  32.389  1.00  0.00     0.093 A 
ATOM     75  C   UNL A   1      35.912  32.799  33.136  1.00  0.00     0.135 A 
ATOM     76  F   UNL A   1      36.395  31.579  33.400  1.00  0.00    -0.206 F 
BRANCH  74  77
ATOM     77  C   UNL A   1      37.993  33.325  31.822  1.00  0.00     0.419 C 
ATOM     78  F   UNL A   1      37.892  32.292  30.941  1.00  0.00    -0.166 F 
ATOM     79  F   UNL A   1      38.569  34.347  31.126  1.00  0.00    -0.166 F 
ATOM     80  F   UNL A   1      38.920  32.946  32.742  1.00  0.00    -0.166 F 
ENDBRANCH  74  77
ENDBRANCH  68  70
ENDBRANCH  65  68
ENDBRANCH  62  65
ENDBRANCH  57  59
ENDBRANCH  56  57
ENDBRANCH   1  56
TORSDOF 15
ENDMDL
MODEL 2
REMARK VINA RESULT:     -11.7      4.874      7.031
REMARK SMILES O=C(OCCOC(=O)c1cc(S(=O)(=O)Nc2ccc(F)c(C(F)(F)F)c2)c[nH]1)c1ccc(-c2c3nc(c(-c4ccccc4)c4ccc([nH]4)c(-c4ccccc4)c4nc(c(-c5ccccc5)c5ccc2[nH]5)C=C4)C=C3)cc1
REMARK SMILES IDX 5 1 4 2 3 3 2 4 1 5 29 6 30 7 76 8 31 9 75 10 32 11 33 12
REMARK SMILES IDX 34 13 69 14 35 15 74 16 68 17 70 18 36 19 73 20 67 21 66 22
REMARK SMILES IDX 37 24 59 25 44 26 58 27 45 28 48 29 57 30 71 31 46 32 47 33
REMARK SMILES IDX 56 35 72 36 49 37 38 38 39 39 43 40 40 41 42 42 41 43 60 44
REMARK SMILES IDX 61 45 65 46 62 47 64 48 63 49 50 50 51 51 55 52 52 53 54 54
REMARK SMILES IDX 53 55 6 56 7 57 8 58 9 59 10 60 28 61 11 62 27 63 12 65
REMARK SMILES IDX 13 66 14 67 15 68 16 70 17 71 26 72 18 73 21 74 19 75 20 76
REMARK SMILES IDX 22 77 23 78 24 79 25 80
REMARK H PARENT 70 23 48 34 28 64 15 69
REMARK Flexibility Score: inf
ROOT
ATOM      1  C   UNL A   1      33.711  30.519  27.327  1.00  0.00     0.275 C 
ENDROOT
BRANCH   1   2
ATOM      2  C   UNL A   1      35.081  31.084  27.711  1.00  0.00     0.275 C 
BRANCH   2   3
ATOM      3  O   UNL A   1      36.170  30.139  27.629  1.00  0.00    -0.458 OA
BRANCH   3   4
ATOM      4  C   UNL A   1      36.848  29.691  28.711  1.00  0.00     0.338 C 
ATOM      5  O   UNL A   1      36.297  29.463  29.784  1.00  0.00    -0.246 OA
BRANCH   4   6
ATOM      6  C   UNL A   1      38.227  29.195  28.492  1.00  0.00     0.060 A 
ATOM      7  C   UNL A   1      38.987  28.550  29.468  1.00  0.00     0.016 A 
ATOM      8  C   UNL A   1      38.740  29.322  27.189  1.00  0.00     0.016 A 
ATOM      9  C   UNL A   1      40.273  28.113  29.175  1.00  0.00     0.010 A 
ATOM     10  C   UNL A   1      40.015  28.854  26.879  1.00  0.00     0.010 A 
ATOM     11  C   UNL A   1      40.786  28.258  27.881  1.00  0.00    -0.014 A 
BRANCH  11  12
ATOM     12  C   UNL A   1      42.102  27.649  27.596  1.00  0.00     0.031 A 
ATOM     13  C   UNL A   1      43.202  28.674  27.358  1.00  0.00     0.074 A 
ATOM     14  C   UNL A   1      42.153  26.291  27.497  1.00  0.00     0.049 A 
ATOM     15  N   UNL A   1      44.272  28.577  26.630  1.00  0.00    -0.248 NA
ATOM     16  C   UNL A   1      43.057  30.026  27.954  1.00  0.00     0.031 C 
ATOM     17  C   UNL A   1      41.000  25.410  27.750  1.00  0.00     0.029 A 
ATOM     18  N   UNL A   1      43.139  25.386  27.159  1.00  0.00    -0.354 N 
ATOM     19  C   UNL A   1      44.998  29.773  26.795  1.00  0.00     0.074 A 
ATOM     20  C   UNL A   1      44.152  30.664  27.534  1.00  0.00     0.031 C 
ATOM     21  C   UNL A   1      41.324  24.125  27.513  1.00  0.00     0.029 A 
ATOM     22  C   UNL A   1      42.710  24.041  27.089  1.00  0.00     0.049 A 
ATOM     23  H   UNL A   1      44.069  25.655  26.982  1.00  0.00     0.167 HD
ATOM     24  C   UNL A   1      46.305  29.914  26.433  1.00  0.00     0.031 A 
ATOM     25  C   UNL A   1      43.390  22.927  26.684  1.00  0.00     0.031 A 
ATOM     26  C   UNL A   1      46.788  28.756  25.758  1.00  0.00     0.049 A 
ATOM     27  C   UNL A   1      44.779  23.328  26.398  1.00  0.00     0.074 A 
ATOM     28  C   UNL A   1      46.577  28.201  24.523  1.00  0.00     0.029 A 
ATOM     29  N   UNL A   1      47.463  27.842  26.529  1.00  0.00    -0.354 N 
ATOM     30  N   UNL A   1      45.667  23.629  27.294  1.00  0.00    -0.248 NA
ATOM     31  C   UNL A   1      45.221  23.440  25.001  1.00  0.00     0.031 C 
ATOM     32  C   UNL A   1      46.768  26.811  24.719  1.00  0.00     0.029 A 
ATOM     33  C   UNL A   1      47.137  26.598  26.049  1.00  0.00     0.049 A 
ATOM     34  H   UNL A   1      48.067  28.041  27.281  1.00  0.00     0.167 HD
ATOM     35  C   UNL A   1      46.609  24.320  26.568  1.00  0.00     0.074 A 
ATOM     36  C   UNL A   1      46.454  23.905  25.192  1.00  0.00     0.031 C 
ATOM     37  C   UNL A   1      47.041  25.525  27.015  1.00  0.00     0.031 A 
BRANCH  24  38
ATOM     38  C   UNL A   1      47.321  30.937  26.877  1.00  0.00    -0.014 A 
ATOM     39  C   UNL A   1      47.064  32.293  26.567  1.00  0.00     0.009 A 
ATOM     40  C   UNL A   1      48.618  30.616  27.293  1.00  0.00     0.009 A 
ATOM     41  C   UNL A   1      48.074  33.257  26.566  1.00  0.00     0.001 A 
ATOM     42  C   UNL A   1      49.624  31.593  27.335  1.00  0.00     0.001 A 
ATOM     43  C   UNL A   1      49.361  32.901  26.938  1.00  0.00     0.000 A 
ENDBRANCH  24  38
BRANCH  25  44
ATOM     44  C   UNL A   1      43.040  21.486  26.419  1.00  0.00    -0.014 A 
ATOM     45  C   UNL A   1      43.660  20.657  25.479  1.00  0.00     0.009 A 
ATOM     46  C   UNL A   1      42.021  20.870  27.194  1.00  0.00     0.009 A 
ATOM     47  C   UNL A   1      43.345  19.289  25.380  1.00  0.00     0.001 A 
ATOM     48  C   UNL A   1      41.722  19.505  27.122  1.00  0.00     0.001 A 
ATOM     49  C   UNL A   1      42.397  18.708  26.217  1.00  0.00     0.000 A 
ENDBRANCH  25  44
BRANCH  37  50
ATOM     50  C   UNL A   1      46.860  25.740  28.509  1.00  0.00    -0.014 A 
ATOM     51  C   UNL A   1      45.647  26.217  29.026  1.00  0.00     0.009 A 
ATOM     52  C   UNL A   1      47.929  25.590  29.410  1.00  0.00     0.009 A 
ATOM     53  C   UNL A   1      45.520  26.546  30.383  1.00  0.00     0.001 A 
ATOM     54  C   UNL A   1      47.805  25.907  30.767  1.00  0.00     0.001 A 
ATOM     55  C   UNL A   1      46.598  26.392  31.253  1.00  0.00     0.000 A 
ENDBRANCH  37  50
ENDBRANCH  11  12
ENDBRANCH   4   6
ENDBRANCH   3   4
ENDBRANCH   2   3
ENDBRANCH   1   2
BRANCH   1  56
ATOM     56  O   UNL A   1      33.758  29.790  26.090  1.00  0.00    -0.457 OA
BRANCH  56  57
ATOM     57  C   UNL A   1      33.511  28.455  26.202  1.00  0.00     0.354 C 
ATOM     58  O   UNL A   1      33.282  27.859  27.248  1.00  0.00    -0.244 OA
BRANCH  57  59
ATOM     59  C   UNL A   1      33.542  27.825  24.913  1.00  0.00     0.126 A 
ATOM     60  C   UNL A   1      33.100  26.575  24.515  1.00  0.00     0.057 A 
ATOM     61  N   UNL A   1      33.959  28.483  23.775  1.00  0.00    -0.354 N 
ATOM     62  C   UNL A   1      32.917  26.647  23.107  1.00  0.00     0.106 A 
ATOM     63  C   UNL A   1      33.549  27.790  22.664  1.00  0.00     0.105 A 
ATOM     64  H   UNL A   1      34.474  29.323  23.761  1.00  0.00     0.166 HD
BRANCH  62  65
ATOM     65  S   UNL A   1      31.915  25.565  22.200  1.00  0.00     0.263 S 
ATOM     66  O   UNL A   1      31.035  24.949  23.175  1.00  0.00    -0.201 OA
ATOM     67  O   UNL A   1      31.405  26.358  21.109  1.00  0.00    -0.201 OA
BRANCH  65  68
ATOM     68  N   UNL A   1      32.892  24.319  21.546  1.00  0.00    -0.280 N 
ATOM     69  H   UNL A   1      33.115  24.280  20.588  1.00  0.00     0.180 HD
BRANCH  68  70
ATOM     70  C   UNL A   1      33.365  23.338  22.475  1.00  0.00     0.050 A 
ATOM     71  C   UNL A   1      32.529  22.262  22.785  1.00  0.00     0.030 A 
ATOM     72  C   UNL A   1      34.570  23.507  23.158  1.00  0.00     0.043 A 
ATOM     73  C   UNL A   1      32.885  21.371  23.797  1.00  0.00     0.042 A 
ATOM     74  C   UNL A   1      34.941  22.604  24.175  1.00  0.00     0.093 A 
ATOM     75  C   UNL A   1      34.084  21.548  24.481  1.00  0.00     0.135 A 
ATOM     76  F   UNL A   1      34.390  20.686  25.459  1.00  0.00    -0.206 F 
BRANCH  74  77
ATOM     77  C   UNL A   1      36.247  22.767  24.896  1.00  0.00     0.419 C 
ATOM     78  F   UNL A   1      36.068  22.968  26.231  1.00  0.00    -0.166 F 
ATOM     79  F   UNL A   1      37.034  21.658  24.792  1.00  0.00    -0.166 F 
ATOM     80  F   UNL A   1      37.017  23.800  24.461  1.00  0.00    -0.166 F 
ENDBRANCH  74  77
ENDBRANCH  68  70
ENDBRANCH  65  68
ENDBRANCH  62  65
ENDBRANCH  57  59
ENDBRANCH  56  57
ENDBRANCH   1  56
TORSDOF 15
ENDMDL
MODEL 3
REMARK VINA RESULT:     -11.6      4.719      6.629
REMARK SMILES O=C(OCCOC(=O)c1cc(S(=O)(=O)Nc2ccc(F)c(C(F)(F)F)c2)c[nH]1)c1ccc(-c2c3nc(c(-c4ccccc4)c4ccc([nH]4)c(-c4ccccc4)c4nc(c(-c5ccccc5)c5ccc2[nH]5)C=C4)C=C3)cc1
REMARK SMILES IDX 5 1 4 2 3 3 2 4 1 5 29 6 30 7 76 8 31 9 75 10 32 11 33 12
REMARK SMILES IDX 34 13 69 14 35 15 74 16 68 17 70 18 36 19 73 20 67 21 66 22
REMARK SMILES IDX 37 24 59 25 44 26 58 27 45 28 48 29 57 30 71 31 46 32 47 33
REMARK SMILES IDX 56 35 72 36 49 37 38 38 39 39 43 40 40 41 42 42 41 43 60 44
REMARK SMILES IDX 61 45 65 46 62 47 64 48 63 49 50 50 51 51 55 52 52 53 54 54
REMARK SMILES IDX 53 55 6 56 7 57 8 58 9 59 10 60 28 61 11 62 27 63 12 65
REMARK SMILES IDX 13 66 14 67 15 68 16 70 17 71 26 72 18 73 21 74 19 75 20 76
REMARK SMILES IDX 22 77 23 78 24 79 25 80
REMARK H PARENT 70 23 48 34 28 64 15 69
REMARK Flexibility Score: inf
ROOT
ATOM      1  C   UNL A   1      35.558  31.080  27.669  1.00  0.00     0.275 C 
ENDROOT
BRANCH   1   2
ATOM      2  C   UNL A   1      35.820  31.499  29.118  1.00  0.00     0.275 C 
BRANCH   2   3
ATOM      3  O   UNL A   1      37.118  31.127  29.631  1.00  0.00    -0.458 OA
BRANCH   3   4
ATOM      4  C   UNL A   1      37.409  29.887  30.088  1.00  0.00     0.338 C 
ATOM      5  O   UNL A   1      36.608  29.220  30.734  1.00  0.00    -0.246 OA
BRANCH   4   6
ATOM      6  C   UNL A   1      38.616  29.226  29.537  1.00  0.00     0.060 A 
ATOM      7  C   UNL A   1      38.968  29.247  28.188  1.00  0.00     0.016 A 
ATOM      8  C   UNL A   1      39.481  28.623  30.468  1.00  0.00     0.016 A 
ATOM      9  C   UNL A   1      40.122  28.603  27.758  1.00  0.00     0.010 A 
ATOM     10  C   UNL A   1      40.657  28.007  30.047  1.00  0.00     0.010 A 
ATOM     11  C   UNL A   1      40.970  27.989  28.685  1.00  0.00    -0.014 A 
BRANCH  11  12
ATOM     12  C   UNL A   1      42.250  27.444  28.184  1.00  0.00     0.031 A 
ATOM     13  C   UNL A   1      43.279  28.519  27.866  1.00  0.00     0.074 A 
ATOM     14  C   UNL A   1      42.322  26.098  27.989  1.00  0.00     0.049 A 
ATOM     15  N   UNL A   1      44.241  28.506  26.995  1.00  0.00    -0.248 NA
ATOM     16  C   UNL A   1      43.183  29.827  28.565  1.00  0.00     0.031 C 
ATOM     17  C   UNL A   1      41.238  25.163  28.339  1.00  0.00     0.029 A 
ATOM     18  N   UNL A   1      43.275  25.250  27.461  1.00  0.00    -0.354 N 
ATOM     19  C   UNL A   1      44.951  29.713  27.138  1.00  0.00     0.074 A 
ATOM     20  C   UNL A   1      44.192  30.527  28.043  1.00  0.00     0.031 C 
ATOM     21  C   UNL A   1      41.560  23.907  27.975  1.00  0.00     0.029 A 
ATOM     22  C   UNL A   1      42.874  23.898  27.361  1.00  0.00     0.049 A 
ATOM     23  H   UNL A   1      44.164  25.562  27.177  1.00  0.00     0.167 HD
ATOM     24  C   UNL A   1      46.191  29.922  26.612  1.00  0.00     0.031 A 
ATOM     25  C   UNL A   1      43.521  22.836  26.795  1.00  0.00     0.031 A 
ATOM     26  C   UNL A   1      46.606  28.825  25.802  1.00  0.00     0.049 A 
ATOM     27  C   UNL A   1      44.846  23.302  26.349  1.00  0.00     0.074 A 
ATOM     28  C   UNL A   1      46.241  28.341  24.573  1.00  0.00     0.029 A 
ATOM     29  N   UNL A   1      47.405  27.890  26.412  1.00  0.00    -0.354 N 
ATOM     30  N   UNL A   1      45.842  23.577  27.134  1.00  0.00    -0.248 NA
ATOM     31  C   UNL A   1      45.088  23.515  24.916  1.00  0.00     0.031 C 
ATOM     32  C   UNL A   1      46.493  26.949  24.648  1.00  0.00     0.029 A 
ATOM     33  C   UNL A   1      47.048  26.667  25.899  1.00  0.00     0.049 A 
ATOM     34  H   UNL A   1      48.102  28.062  27.086  1.00  0.00     0.167 HD
ATOM     35  C   UNL A   1      46.656  24.344  26.334  1.00  0.00     0.074 A 
ATOM     36  C   UNL A   1      46.323  24.011  24.967  1.00  0.00     0.031 C 
ATOM     37  C   UNL A   1      47.114  25.534  26.796  1.00  0.00     0.031 A 
BRANCH  24  38
ATOM     38  C   UNL A   1      47.232  30.950  26.980  1.00  0.00    -0.014 A 
ATOM     39  C   UNL A   1      46.959  32.302  26.661  1.00  0.00     0.009 A 
ATOM     40  C   UNL A   1      48.550  30.634  27.327  1.00  0.00     0.009 A 
ATOM     41  C   UNL A   1      47.969  33.263  26.586  1.00  0.00     0.001 A 
ATOM     42  C   UNL A   1      49.558  31.609  27.295  1.00  0.00     0.001 A 
ATOM     43  C   UNL A   1      49.275  32.910  26.891  1.00  0.00     0.000 A 
ENDBRANCH  24  38
BRANCH  25  44
ATOM     44  C   UNL A   1      43.175  21.403  26.485  1.00  0.00    -0.014 A 
ATOM     45  C   UNL A   1      43.729  20.636  25.456  1.00  0.00     0.009 A 
ATOM     46  C   UNL A   1      42.235  20.727  27.308  1.00  0.00     0.009 A 
ATOM     47  C   UNL A   1      43.431  19.267  25.313  1.00  0.00     0.001 A 
ATOM     48  C   UNL A   1      41.955  19.361  27.190  1.00  0.00     0.001 A 
ATOM     49  C   UNL A   1      42.566  18.625  26.193  1.00  0.00     0.000 A 
ENDBRANCH  25  44
BRANCH  37  50
ATOM     50  C   UNL A   1      47.136  25.650  28.312  1.00  0.00    -0.014 A 
ATOM     51  C   UNL A   1      45.991  26.038  29.020  1.00  0.00     0.009 A 
ATOM     52  C   UNL A   1      48.325  25.494  29.046  1.00  0.00     0.009 A 
ATOM     53  C   UNL A   1      46.042  26.277  30.401  1.00  0.00     0.001 A 
ATOM     54  C   UNL A   1      48.381  25.722  30.425  1.00  0.00     0.001 A 
ATOM     55  C   UNL A   1      47.236  26.121  31.102  1.00  0.00     0.000 A 
ENDBRANCH  37  50
ENDBRANCH  11  12
ENDBRANCH   4   6
ENDBRANCH   3   4
ENDBRANCH   2   3
ENDBRANCH   1   2
BRANCH   1  56
ATOM     56  O   UNL A   1      34.907  29.803  27.588  1.00  0.00    -0.457 OA
BRANCH  56  57
ATOM     57  C   UNL A   1      33.803  29.773  26.791  1.00  0.00     0.354 C 
ATOM     58  O   UNL A   1      32.831  30.513  26.892  1.00  0.00    -0.244 OA
BRANCH  57  59
ATOM     59  C   UNL A   1      33.930  28.753  25.788  1.00  0.00     0.126 A 
ATOM     60  C   UNL A   1      33.795  27.379  25.884  1.00  0.00     0.057 A 
ATOM     61  N   UNL A   1      34.121  29.044  24.454  1.00  0.00    -0.354 N 
ATOM     62  C   UNL A   1      33.536  26.911  24.567  1.00  0.00     0.106 A 
ATOM     63  C   UNL A   1      33.846  27.935  23.696  1.00  0.00     0.105 A 
ATOM     64  H   UNL A   1      34.411  29.916  24.099  1.00  0.00     0.166 HD
BRANCH  62  65
ATOM     65  S   UNL A   1      32.793  25.391  24.203  1.00  0.00     0.263 S 
ATOM     66  O   UNL A   1      33.872  24.537  23.742  1.00  0.00    -0.201 OA
ATOM     67  O   UNL A   1      32.015  25.068  25.373  1.00  0.00    -0.201 OA
BRANCH  65  68
ATOM     68  N   UNL A   1      31.719  25.599  22.884  1.00  0.00    -0.280 N 
ATOM     69  H   UNL A   1      31.875  25.170  22.012  1.00  0.00     0.180 HD
BRANCH  68  70
ATOM     70  C   UNL A   1      30.582  26.433  23.125  1.00  0.00     0.050 A 
ATOM     71  C   UNL A   1      29.510  25.900  23.846  1.00  0.00     0.030 A 
ATOM     72  C   UNL A   1      30.476  27.701  22.551  1.00  0.00     0.043 A 
ATOM     73  C   UNL A   1      28.324  26.622  23.970  1.00  0.00     0.042 A 
ATOM     74  C   UNL A   1      29.284  28.442  22.681  1.00  0.00     0.093 A 
ATOM     75  C   UNL A   1      28.221  27.883  23.389  1.00  0.00     0.135 A 
ATOM     76  F   UNL A   1      27.063  28.545  23.511  1.00  0.00    -0.206 F 
BRANCH  74  77
ATOM     77  C   UNL A   1      29.174  29.814  22.086  1.00  0.00     0.419 C 
ATOM     78  F   UNL A   1      29.065  30.776  23.044  1.00  0.00    -0.166 F 
ATOM     79  F   UNL A   1      30.275  30.147  21.354  1.00  0.00    -0.166 F 
ATOM     80  F   UNL A   1      28.116  29.995  21.251  1.00  0.00    -0.166 F 
ENDBRANCH  74  77
ENDBRANCH  68  70
ENDBRANCH  65  68
ENDBRANCH  62  65
ENDBRANCH  57  59
ENDBRANCH  56  57
ENDBRANCH   1  56
TORSDOF 15
ENDMDL
