MODEL 1
REMARK VINA RESULT:     -12.3      0.000      0.000
REMARK SMILES CS(=O)(=O)c1ccc(-n2nc(C(F)(F)F)cc2-c2ccc(CC(=O)OCCOC(=O)c3ccc(-c4c5nc(c(-c6ccccc6)c6ccc([nH]6)c(-c6ccccc6)c6nc(c(-c7ccccc7)c7ccc4[nH]7)C=C6)C=C5)cc3)cc2)cc1
REMARK SMILES IDX 26 1 25 2 23 3 24 4 22 5 21 6 18 7 19 8 80 9 20 10 79 11
REMARK SMILES IDX 17 12 9 13 10 14 11 15 16 16 8 17 5 18 6 19 82 20 7 21 81 22
REMARK SMILES IDX 2 23 1 24 3 25 4 26 12 27 13 28 14 29 15 30 27 31 28 32
REMARK SMILES IDX 29 33 30 34 31 35 32 36 78 37 33 38 77 39 34 40 35 41 36 42
REMARK SMILES IDX 71 43 37 44 76 45 70 46 72 47 38 48 75 49 69 50 68 51 39 53
REMARK SMILES IDX 61 54 46 55 60 56 47 57 50 58 59 59 73 60 48 61 49 62 58 64
REMARK SMILES IDX 74 65 51 66 40 67 41 68 45 69 42 70 44 71 43 72 62 73 63 74
REMARK SMILES IDX 67 75 64 76 66 77 65 78 52 79 53 80 57 81 54 82 56 83 55 84
REMARK H PARENT 72 52 50 63
REMARK Flexibility Score: inf
ROOT
ATOM      1  C   UNL A   1      34.589  33.658  30.117  1.00  0.00     0.274 C 
ENDROOT
BRANCH   1   2
ATOM      2  O   UNL A   1      34.656  32.222  30.020  1.00  0.00    -0.462 OA
BRANCH   2   3
ATOM      3  C   UNL A   1      35.009  31.716  28.806  1.00  0.00     0.310 C 
ATOM      4  O   UNL A   1      36.167  31.565  28.428  1.00  0.00    -0.252 OA
BRANCH   3   5
ATOM      5  C   UNL A   1      33.824  31.475  27.894  1.00  0.00     0.158 C 
BRANCH   5   6
ATOM      6  C   UNL A   1      33.692  30.092  27.301  1.00  0.00    -0.037 A 
ATOM      7  C   UNL A   1      33.394  27.539  26.143  1.00  0.00     0.000 A 
ATOM      8  C   UNL A   1      32.325  28.144  26.812  1.00  0.00     0.010 A 
ATOM      9  C   UNL A   1      34.628  28.194  26.100  1.00  0.00     0.010 A 
ATOM     10  C   UNL A   1      32.480  29.402  27.396  1.00  0.00     0.005 A 
ATOM     11  C   UNL A   1      34.771  29.469  26.662  1.00  0.00     0.005 A 
BRANCH   7  12
ATOM     12  C   UNL A   1      33.198  26.251  25.479  1.00  0.00     0.075 A 
ATOM     13  N   UNL A   1      32.110  25.922  24.674  1.00  0.00    -0.233 N 
ATOM     14  N   UNL A   1      32.027  24.580  24.470  1.00  0.00    -0.163 NA
ATOM     15  C   UNL A   1      33.177  24.078  24.961  1.00  0.00     0.167 A 
ATOM     16  C   UNL A   1      33.930  25.089  25.608  1.00  0.00     0.064 A 
BRANCH  13  17
ATOM     17  C   UNL A   1      31.145  26.794  24.095  1.00  0.00     0.065 A 
ATOM     18  C   UNL A   1      29.239  28.573  23.101  1.00  0.00     0.067 A 
ATOM     19  C   UNL A   1      30.596  28.879  22.989  1.00  0.00     0.022 A 
ATOM     20  C   UNL A   1      28.827  27.360  23.662  1.00  0.00     0.022 A 
ATOM     21  C   UNL A   1      31.547  27.991  23.488  1.00  0.00     0.030 A 
ATOM     22  C   UNL A   1      29.785  26.460  24.144  1.00  0.00     0.030 A 
BRANCH  18  23
ATOM     23  S   UNL A   1      28.062  29.782  22.545  1.00  0.00     0.175 S 
ATOM     24  C   UNL A   1      28.575  31.325  23.246  1.00  0.00     0.163 C 
ATOM     25  O   UNL A   1      26.784  29.421  23.129  1.00  0.00    -0.224 OA
ATOM     26  O   UNL A   1      28.215  29.910  21.107  1.00  0.00    -0.224 OA
ENDBRANCH  18  23
ENDBRANCH  13  17
BRANCH  15  27
ATOM     27  C   UNL A   1      33.560  22.627  24.842  1.00  0.00     0.435 C 
ATOM     28  F   UNL A   1      32.535  21.778  25.110  1.00  0.00    -0.164 F 
ATOM     29  F   UNL A   1      34.016  22.323  23.597  1.00  0.00    -0.164 F 
ATOM     30  F   UNL A   1      34.564  22.302  25.704  1.00  0.00    -0.164 F 
ENDBRANCH  15  27
ENDBRANCH   7  12
ENDBRANCH   5   6
ENDBRANCH   3   5
ENDBRANCH   2   3
ENDBRANCH   1   2
BRANCH   1  31
ATOM     31  C   UNL A   1      35.556  34.249  31.140  1.00  0.00     0.275 C 
BRANCH  31  32
ATOM     32  O   UNL A   1      36.519  33.299  31.616  1.00  0.00    -0.458 OA
BRANCH  32  33
ATOM     33  C   UNL A   1      37.732  33.427  31.040  1.00  0.00     0.338 C 
ATOM     34  O   UNL A   1      38.122  34.343  30.340  1.00  0.00    -0.246 OA
BRANCH  33  35
ATOM     35  C   UNL A   1      38.544  32.222  31.246  1.00  0.00     0.060 A 
ATOM     36  C   UNL A   1      39.850  32.225  30.742  1.00  0.00     0.016 A 
ATOM     37  C   UNL A   1      37.956  31.043  31.725  1.00  0.00     0.016 A 
ATOM     38  C   UNL A   1      40.536  31.030  30.627  1.00  0.00     0.010 A 
ATOM     39  C   UNL A   1      38.645  29.847  31.608  1.00  0.00     0.010 A 
ATOM     40  C   UNL A   1      39.909  29.839  31.011  1.00  0.00    -0.014 A 
BRANCH  40  41
ATOM     41  C   UNL A   1      40.641  28.599  30.792  1.00  0.00     0.031 A 
ATOM     42  C   UNL A   1      41.479  28.135  31.922  1.00  0.00     0.074 A 
ATOM     43  C   UNL A   1      40.500  27.840  29.688  1.00  0.00     0.049 A 
ATOM     44  N   UNL A   1      42.750  27.899  31.924  1.00  0.00    -0.248 NA
ATOM     45  C   UNL A   1      40.821  27.953  33.224  1.00  0.00     0.031 C 
ATOM     46  C   UNL A   1      39.488  27.995  28.641  1.00  0.00     0.029 A 
ATOM     47  N   UNL A   1      41.157  26.693  29.332  1.00  0.00    -0.354 N 
ATOM     48  C   UNL A   1      43.032  27.382  33.184  1.00  0.00     0.074 A 
ATOM     49  C   UNL A   1      41.839  27.539  33.978  1.00  0.00     0.031 C 
ATOM     50  C   UNL A   1      39.448  26.869  27.897  1.00  0.00     0.029 A 
ATOM     51  C   UNL A   1      40.518  25.981  28.330  1.00  0.00     0.049 A 
ATOM     52  H   UNL A   1      42.001  26.403  29.746  1.00  0.00     0.167 HD
ATOM     53  C   UNL A   1      44.147  26.642  33.422  1.00  0.00     0.031 A 
ATOM     54  C   UNL A   1      40.797  24.730  27.900  1.00  0.00     0.031 A 
ATOM     55  C   UNL A   1      45.124  26.745  32.378  1.00  0.00     0.049 A 
ATOM     56  C   UNL A   1      42.180  24.377  28.275  1.00  0.00     0.074 A 
ATOM     57  C   UNL A   1      46.105  27.629  31.992  1.00  0.00     0.029 A 
ATOM     58  N   UNL A   1      44.954  25.851  31.358  1.00  0.00    -0.354 N 
ATOM     59  N   UNL A   1      43.233  24.933  27.748  1.00  0.00    -0.248 NA
ATOM     60  C   UNL A   1      42.435  23.539  29.441  1.00  0.00     0.031 C 
ATOM     61  C   UNL A   1      46.387  27.340  30.623  1.00  0.00     0.029 A 
ATOM     62  C   UNL A   1      45.561  26.296  30.213  1.00  0.00     0.049 A 
ATOM     63  H   UNL A   1      44.462  25.002  31.436  1.00  0.00     0.167 HD
ATOM     64  C   UNL A   1      44.190  24.862  28.740  1.00  0.00     0.074 A 
ATOM     65  C   UNL A   1      43.719  23.840  29.660  1.00  0.00     0.031 C 
ATOM     66  C   UNL A   1      45.097  25.866  28.911  1.00  0.00     0.031 A 
BRANCH  53  67
ATOM     67  C   UNL A   1      44.165  25.465  34.365  1.00  0.00    -0.014 A 
ATOM     68  C   UNL A   1      45.267  25.304  35.223  1.00  0.00     0.009 A 
ATOM     69  C   UNL A   1      43.307  24.357  34.214  1.00  0.00     0.009 A 
ATOM     70  C   UNL A   1      45.518  24.085  35.866  1.00  0.00     0.001 A 
ATOM     71  C   UNL A   1      43.533  23.152  34.883  1.00  0.00     0.001 A 
ATOM     72  C   UNL A   1      44.652  23.009  35.692  1.00  0.00     0.000 A 
ENDBRANCH  53  67
BRANCH  54  73
ATOM     73  C   UNL A   1      39.880  23.751  27.287  1.00  0.00    -0.014 A 
ATOM     74  C   UNL A   1      38.637  24.150  26.779  1.00  0.00     0.009 A 
ATOM     75  C   UNL A   1      40.330  22.451  26.989  1.00  0.00     0.009 A 
ATOM     76  C   UNL A   1      37.881  23.288  25.975  1.00  0.00     0.001 A 
ATOM     77  C   UNL A   1      39.572  21.587  26.195  1.00  0.00     0.001 A 
ATOM     78  C   UNL A   1      38.354  22.012  25.676  1.00  0.00     0.000 A 
ENDBRANCH  54  73
BRANCH  66  79
ATOM     79  C   UNL A   1      45.411  26.726  27.723  1.00  0.00    -0.014 A 
ATOM     80  C   UNL A   1      44.817  27.979  27.506  1.00  0.00     0.009 A 
ATOM     81  C   UNL A   1      46.382  26.278  26.815  1.00  0.00     0.009 A 
ATOM     82  C   UNL A   1      45.156  28.743  26.386  1.00  0.00     0.001 A 
ATOM     83  C   UNL A   1      46.739  27.052  25.711  1.00  0.00     0.001 A 
ATOM     84  C   UNL A   1      46.118  28.280  25.490  1.00  0.00     0.000 A 
ENDBRANCH  66  79
ENDBRANCH  40  41
ENDBRANCH  33  35
ENDBRANCH  32  33
ENDBRANCH  31  32
ENDBRANCH   1  31
TORSDOF 16
ENDMDL
MODEL 2
REMARK VINA RESULT:     -12.2      2.912      3.765
REMARK SMILES CS(=O)(=O)c1ccc(-n2nc(C(F)(F)F)cc2-c2ccc(CC(=O)OCCOC(=O)c3ccc(-c4c5nc(c(-c6ccccc6)c6ccc([nH]6)c(-c6ccccc6)c6nc(c(-c7ccccc7)c7ccc4[nH]7)C=C6)C=C5)cc3)cc2)cc1
REMARK SMILES IDX 26 1 25 2 23 3 24 4 22 5 21 6 18 7 19 8 80 9 20 10 79 11
REMARK SMILES IDX 17 12 9 13 10 14 11 15 16 16 8 17 5 18 6 19 82 20 7 21 81 22
REMARK SMILES IDX 2 23 1 24 3 25 4 26 12 27 13 28 14 29 15 30 27 31 28 32
REMARK SMILES IDX 29 33 30 34 31 35 32 36 78 37 33 38 77 39 34 40 35 41 36 42
REMARK SMILES IDX 71 43 37 44 76 45 70 46 72 47 38 48 75 49 69 50 68 51 39 53
REMARK SMILES IDX 61 54 46 55 60 56 47 57 50 58 59 59 73 60 48 61 49 62 58 64
REMARK SMILES IDX 74 65 51 66 40 67 41 68 45 69 42 70 44 71 43 72 62 73 63 74
REMARK SMILES IDX 67 75 64 76 66 77 65 78 52 79 53 80 57 81 54 82 56 83 55 84
REMARK H PARENT 72 52 50 63
REMARK Flexibility Score: inf
ROOT
ATOM      1  C   UNL A   1      36.046  33.001  28.000  1.00  0.00     0.274 C 
ENDROOT
BRANCH   1   2
ATOM      2  O   UNL A   1      35.320  31.768  28.175  1.00  0.00    -0.462 OA
BRANCH   2   3
ATOM      3  C   UNL A   1      36.054  30.623  28.108  1.00  0.00     0.310 C 
ATOM      4  O   UNL A   1      37.280  30.588  28.066  1.00  0.00    -0.252 OA
BRANCH   3   5
ATOM      5  C   UNL A   1      35.204  29.379  27.955  1.00  0.00     0.158 C 
BRANCH   5   6
ATOM      6  C   UNL A   1      34.076  29.444  26.954  1.00  0.00    -0.037 A 
ATOM      7  C   UNL A   1      31.971  29.487  25.078  1.00  0.00     0.000 A 
ATOM      8  C   UNL A   1      33.247  29.054  24.704  1.00  0.00     0.010 A 
ATOM      9  C   UNL A   1      31.765  29.948  26.382  1.00  0.00     0.010 A 
ATOM     10  C   UNL A   1      34.290  29.046  25.630  1.00  0.00     0.005 A 
ATOM     11  C   UNL A   1      32.807  29.911  27.316  1.00  0.00     0.005 A 
BRANCH   7  12
ATOM     12  C   UNL A   1      30.873  29.427  24.115  1.00  0.00     0.075 A 
ATOM     13  N   UNL A   1      30.620  28.361  23.255  1.00  0.00    -0.233 N 
ATOM     14  N   UNL A   1      29.758  28.713  22.263  1.00  0.00    -0.163 NA
ATOM     15  C   UNL A   1      29.296  29.929  22.614  1.00  0.00     0.167 A 
ATOM     16  C   UNL A   1      29.976  30.413  23.760  1.00  0.00     0.064 A 
BRANCH  13  17
ATOM     17  C   UNL A   1      31.146  27.040  23.308  1.00  0.00     0.065 A 
ATOM     18  C   UNL A   1      32.302  24.506  23.490  1.00  0.00     0.067 A 
ATOM     19  C   UNL A   1      31.396  24.925  24.465  1.00  0.00     0.022 A 
ATOM     20  C   UNL A   1      32.599  25.325  22.396  1.00  0.00     0.022 A 
ATOM     21  C   UNL A   1      30.820  26.191  24.374  1.00  0.00     0.030 A 
ATOM     22  C   UNL A   1      32.004  26.588  22.296  1.00  0.00     0.030 A 
BRANCH  18  23
ATOM     23  S   UNL A   1      33.088  22.928  23.703  1.00  0.00     0.175 S 
ATOM     24  C   UNL A   1      33.905  22.994  25.273  1.00  0.00     0.163 C 
ATOM     25  O   UNL A   1      34.100  22.820  22.669  1.00  0.00    -0.224 OA
ATOM     26  O   UNL A   1      32.039  21.931  23.825  1.00  0.00    -0.224 OA
ENDBRANCH  18  23
ENDBRANCH  13  17
BRANCH  15  27
ATOM     27  C   UNL A   1      28.223  30.655  21.849  1.00  0.00     0.435 C 
ATOM     28  F   UNL A   1      27.208  31.098  22.635  1.00  0.00    -0.164 F 
ATOM     29  F   UNL A   1      28.715  31.736  21.185  1.00  0.00    -0.164 F 
ATOM     30  F   UNL A   1      27.654  29.856  20.902  1.00  0.00    -0.164 F 
ENDBRANCH  15  27
ENDBRANCH   7  12
ENDBRANCH   5   6
ENDBRANCH   3   5
ENDBRANCH   2   3
ENDBRANCH   1   2
BRANCH   1  31
ATOM     31  C   UNL A   1      36.156  33.833  29.275  1.00  0.00     0.275 C 
BRANCH  31  32
ATOM     32  O   UNL A   1      36.714  33.103  30.375  1.00  0.00    -0.458 OA
BRANCH  32  33
ATOM     33  C   UNL A   1      37.995  33.429  30.644  1.00  0.00     0.338 C 
ATOM     34  O   UNL A   1      38.491  34.540  30.629  1.00  0.00    -0.246 OA
BRANCH  33  35
ATOM     35  C   UNL A   1      38.815  32.229  30.848  1.00  0.00     0.060 A 
ATOM     36  C   UNL A   1      40.066  32.184  30.221  1.00  0.00     0.016 A 
ATOM     37  C   UNL A   1      38.268  31.090  31.454  1.00  0.00     0.016 A 
ATOM     38  C   UNL A   1      40.729  30.975  30.117  1.00  0.00     0.010 A 
ATOM     39  C   UNL A   1      38.934  29.880  31.347  1.00  0.00     0.010 A 
ATOM     40  C   UNL A   1      40.133  29.818  30.632  1.00  0.00    -0.014 A 
BRANCH  40  41
ATOM     41  C   UNL A   1      40.832  28.557  30.423  1.00  0.00     0.031 A 
ATOM     42  C   UNL A   1      41.709  28.112  31.532  1.00  0.00     0.074 A 
ATOM     43  C   UNL A   1      40.630  27.767  29.351  1.00  0.00     0.049 A 
ATOM     44  N   UNL A   1      42.974  27.851  31.488  1.00  0.00    -0.248 NA
ATOM     45  C   UNL A   1      41.104  27.984  32.865  1.00  0.00     0.031 C 
ATOM     46  C   UNL A   1      39.578  27.910  28.343  1.00  0.00     0.029 A 
ATOM     47  N   UNL A   1      41.250  26.596  29.005  1.00  0.00    -0.354 N 
ATOM     48  C   UNL A   1      43.299  27.368  32.750  1.00  0.00     0.074 A 
ATOM     49  C   UNL A   1      42.145  27.574  33.589  1.00  0.00     0.031 C 
ATOM     50  C   UNL A   1      39.485  26.762  27.638  1.00  0.00     0.029 A 
ATOM     51  C   UNL A   1      40.555  25.867  28.053  1.00  0.00     0.049 A 
ATOM     52  H   UNL A   1      42.105  26.303  29.392  1.00  0.00     0.167 HD
ATOM     53  C   UNL A   1      44.409  26.613  32.965  1.00  0.00     0.031 A 
ATOM     54  C   UNL A   1      40.792  24.598  27.653  1.00  0.00     0.031 A 
ATOM     55  C   UNL A   1      45.344  26.664  31.878  1.00  0.00     0.049 A 
ATOM     56  C   UNL A   1      42.183  24.228  27.980  1.00  0.00     0.074 A 
ATOM     57  C   UNL A   1      46.323  27.515  31.423  1.00  0.00     0.029 A 
ATOM     58  N   UNL A   1      45.114  25.743  30.895  1.00  0.00    -0.354 N 
ATOM     59  N   UNL A   1      43.223  24.746  27.392  1.00  0.00    -0.248 NA
ATOM     60  C   UNL A   1      42.472  23.423  29.161  1.00  0.00     0.031 C 
ATOM     61  C   UNL A   1      46.541  27.179  30.054  1.00  0.00     0.029 A 
ATOM     62  C   UNL A   1      45.679  26.139  29.712  1.00  0.00     0.049 A 
ATOM     63  H   UNL A   1      44.609  24.906  31.021  1.00  0.00     0.167 HD
ATOM     64  C   UNL A   1      44.220  24.688  28.345  1.00  0.00     0.074 A 
ATOM     65  C   UNL A   1      43.769  23.704  29.316  1.00  0.00     0.031 C 
ATOM     66  C   UNL A   1      45.152  25.678  28.446  1.00  0.00     0.031 A 
BRANCH  53  67
ATOM     67  C   UNL A   1      44.446  25.466  33.943  1.00  0.00    -0.014 A 
ATOM     68  C   UNL A   1      44.095  24.181  33.492  1.00  0.00     0.009 A 
ATOM     69  C   UNL A   1      44.502  25.659  35.338  1.00  0.00     0.009 A 
ATOM     70  C   UNL A   1      43.779  23.155  34.391  1.00  0.00     0.001 A 
ATOM     71  C   UNL A   1      44.223  24.627  36.238  1.00  0.00     0.001 A 
ATOM     72  C   UNL A   1      43.841  23.380  35.763  1.00  0.00     0.000 A 
ENDBRANCH  53  67
BRANCH  54  73
ATOM     73  C   UNL A   1      39.832  23.619  27.110  1.00  0.00    -0.014 A 
ATOM     74  C   UNL A   1      38.600  24.034  26.588  1.00  0.00     0.009 A 
ATOM     75  C   UNL A   1      40.227  22.286  26.893  1.00  0.00     0.009 A 
ATOM     76  C   UNL A   1      37.803  23.153  25.846  1.00  0.00     0.001 A 
ATOM     77  C   UNL A   1      39.429  21.404  26.161  1.00  0.00     0.001 A 
ATOM     78  C   UNL A   1      38.223  21.843  25.625  1.00  0.00     0.000 A 
ENDBRANCH  54  73
BRANCH  66  79
ATOM     79  C   UNL A   1      45.431  26.494  27.218  1.00  0.00    -0.014 A 
ATOM     80  C   UNL A   1      45.046  27.838  27.088  1.00  0.00     0.009 A 
ATOM     81  C   UNL A   1      46.156  25.899  26.175  1.00  0.00     0.009 A 
ATOM     82  C   UNL A   1      45.343  28.553  25.924  1.00  0.00     0.001 A 
ATOM     83  C   UNL A   1      46.474  26.622  25.024  1.00  0.00     0.001 A 
ATOM     84  C   UNL A   1      46.058  27.946  24.894  1.00  0.00     0.000 A 
ENDBRANCH  66  79
ENDBRANCH  40  41
ENDBRANCH  33  35
ENDBRANCH  32  33
ENDBRANCH  31  32
ENDBRANCH   1  31
TORSDOF 16
ENDMDL
MODEL 3
REMARK VINA RESULT:     -12.1      3.960      8.783
REMARK SMILES CS(=O)(=O)c1ccc(-n2nc(C(F)(F)F)cc2-c2ccc(CC(=O)OCCOC(=O)c3ccc(-c4c5nc(c(-c6ccccc6)c6ccc([nH]6)c(-c6ccccc6)c6nc(c(-c7ccccc7)c7ccc4[nH]7)C=C6)C=C5)cc3)cc2)cc1
REMARK SMILES IDX 26 1 25 2 23 3 24 4 22 5 21 6 18 7 19 8 80 9 20 10 79 11
REMARK SMILES IDX 17 12 9 13 10 14 11 15 16 16 8 17 5 18 6 19 82 20 7 21 81 22
REMARK SMILES IDX 2 23 1 24 3 25 4 26 12 27 13 28 14 29 15 30 27 31 28 32
REMARK SMILES IDX 29 33 30 34 31 35 32 36 78 37 33 38 77 39 34 40 35 41 36 42
REMARK SMILES IDX 71 43 37 44 76 45 70 46 72 47 38 48 75 49 69 50 68 51 39 53
REMARK SMILES IDX 61 54 46 55 60 56 47 57 50 58 59 59 73 60 48 61 49 62 58 64
REMARK SMILES IDX 74 65 51 66 40 67 41 68 45 69 42 70 44 71 43 72 62 73 63 74
REMARK SMILES IDX 67 75 64 76 66 77 65 78 52 79 53 80 57 81 54 82 56 83 55 84
REMARK H PARENT 72 52 50 63
REMARK Flexibility Score: inf
ROOT
ATOM      1  C   UNL A   1      42.550  23.232  27.830  1.00  0.00     0.274 C 
ENDROOT
BRANCH   1   2
ATOM      2  O   UNL A   1      42.597  24.102  26.682  1.00  0.00    -0.462 OA
BRANCH   2   3
ATOM      3  C   UNL A   1      41.429  24.714  26.342  1.00  0.00     0.310 C 
ATOM      4  O   UNL A   1      41.320  25.549  25.449  1.00  0.00    -0.252 OA
BRANCH   3   5
ATOM      5  C   UNL A   1      40.282  24.365  27.266  1.00  0.00     0.158 C 
BRANCH   5   6
ATOM      6  C   UNL A   1      39.106  23.646  26.650  1.00  0.00    -0.037 A 
ATOM      7  C   UNL A   1      36.911  22.254  25.557  1.00  0.00     0.000 A 
ATOM      8  C   UNL A   1      38.166  21.643  25.648  1.00  0.00     0.010 A 
ATOM      9  C   UNL A   1      36.771  23.583  25.969  1.00  0.00     0.010 A 
ATOM     10  C   UNL A   1      39.253  22.339  26.177  1.00  0.00     0.005 A 
ATOM     11  C   UNL A   1      37.858  24.268  26.525  1.00  0.00     0.005 A 
BRANCH   7  12
ATOM     12  C   UNL A   1      35.766  21.490  25.063  1.00  0.00     0.075 A 
ATOM     13  N   UNL A   1      34.515  22.024  24.765  1.00  0.00    -0.233 N 
ATOM     14  N   UNL A   1      33.571  21.052  24.650  1.00  0.00    -0.163 NA
ATOM     15  C   UNL A   1      34.258  19.893  24.658  1.00  0.00     0.167 A 
ATOM     16  C   UNL A   1      35.631  20.124  24.924  1.00  0.00     0.064 A 
BRANCH  13  17
ATOM     17  C   UNL A   1      34.158  23.391  24.592  1.00  0.00     0.065 A 
ATOM     18  C   UNL A   1      33.313  26.024  24.212  1.00  0.00     0.067 A 
ATOM     19  C   UNL A   1      33.253  25.455  25.485  1.00  0.00     0.022 A 
ATOM     20  C   UNL A   1      33.839  25.304  23.134  1.00  0.00     0.022 A 
ATOM     21  C   UNL A   1      33.674  24.140  25.673  1.00  0.00     0.030 A 
ATOM     22  C   UNL A   1      34.280  23.990  23.330  1.00  0.00     0.030 A 
BRANCH  18  23
ATOM     23  S   UNL A   1      32.670  27.666  24.001  1.00  0.00     0.175 S 
ATOM     24  C   UNL A   1      31.640  27.608  22.562  1.00  0.00     0.163 C 
ATOM     25  O   UNL A   1      33.802  28.526  23.715  1.00  0.00    -0.224 OA
ATOM     26  O   UNL A   1      31.793  27.938  25.126  1.00  0.00    -0.224 OA
ENDBRANCH  18  23
ENDBRANCH  13  17
BRANCH  15  27
ATOM     27  C   UNL A   1      33.612  18.551  24.439  1.00  0.00     0.435 C 
ATOM     28  F   UNL A   1      33.280  17.920  25.595  1.00  0.00    -0.164 F 
ATOM     29  F   UNL A   1      32.476  18.650  23.697  1.00  0.00    -0.164 F 
ATOM     30  F   UNL A   1      34.436  17.703  23.761  1.00  0.00    -0.164 F 
ENDBRANCH  15  27
ENDBRANCH   7  12
ENDBRANCH   5   6
ENDBRANCH   3   5
ENDBRANCH   2   3
ENDBRANCH   1   2
BRANCH   1  31
ATOM     31  C   UNL A   1      43.923  22.922  28.422  1.00  0.00     0.275 C 
BRANCH  31  32
ATOM     32  O   UNL A   1      44.704  24.098  28.672  1.00  0.00    -0.458 OA
BRANCH  32  33
ATOM     33  C   UNL A   1      44.485  24.641  29.887  1.00  0.00     0.338 C 
ATOM     34  O   UNL A   1      44.528  24.078  30.965  1.00  0.00    -0.246 OA
BRANCH  33  35
ATOM     35  C   UNL A   1      44.038  26.035  29.770  1.00  0.00     0.060 A 
ATOM     36  C   UNL A   1      43.698  26.708  30.949  1.00  0.00     0.016 A 
ATOM     37  C   UNL A   1      43.750  26.584  28.513  1.00  0.00     0.016 A 
ATOM     38  C   UNL A   1      42.982  27.889  30.873  1.00  0.00     0.010 A 
ATOM     39  C   UNL A   1      43.033  27.767  28.440  1.00  0.00     0.010 A 
ATOM     40  C   UNL A   1      42.606  28.384  29.619  1.00  0.00    -0.014 A 
BRANCH  40  41
ATOM     41  C   UNL A   1      41.782  29.585  29.595  1.00  0.00     0.031 A 
ATOM     42  C   UNL A   1      42.505  30.862  29.389  1.00  0.00     0.074 A 
ATOM     43  C   UNL A   1      40.436  29.562  29.644  1.00  0.00     0.049 A 
ATOM     44  N   UNL A   1      42.516  31.902  30.156  1.00  0.00    -0.248 NA
ATOM     45  C   UNL A   1      43.356  30.973  28.196  1.00  0.00     0.031 C 
ATOM     46  C   UNL A   1      39.576  28.382  29.529  1.00  0.00     0.029 A 
ATOM     47  N   UNL A   1      39.549  30.603  29.683  1.00  0.00    -0.354 N 
ATOM     48  C   UNL A   1      43.245  32.865  29.468  1.00  0.00     0.074 A 
ATOM     49  C   UNL A   1      43.831  32.211  28.325  1.00  0.00     0.031 C 
ATOM     50  C   UNL A   1      38.310  28.783  29.281  1.00  0.00     0.029 A 
ATOM     51  C   UNL A   1      38.253  30.236  29.357  1.00  0.00     0.049 A 
ATOM     52  H   UNL A   1      39.806  31.522  29.921  1.00  0.00     0.167 HD
ATOM     53  C   UNL A   1      43.127  34.190  29.748  1.00  0.00     0.031 A 
ATOM     54  C   UNL A   1      37.202  31.050  29.115  1.00  0.00     0.031 A 
ATOM     55  C   UNL A   1      42.472  34.444  30.998  1.00  0.00     0.049 A 
ATOM     56  C   UNL A   1      37.453  32.374  29.717  1.00  0.00     0.074 A 
ATOM     57  C   UNL A   1      42.804  34.454  32.333  1.00  0.00     0.029 A 
ATOM     58  N   UNL A   1      41.109  34.513  30.915  1.00  0.00    -0.354 N 
ATOM     59  N   UNL A   1      37.487  32.586  31.001  1.00  0.00    -0.248 NA
ATOM     60  C   UNL A   1      37.915  33.483  28.890  1.00  0.00     0.031 C 
ATOM     61  C   UNL A   1      41.575  34.344  33.052  1.00  0.00     0.029 A 
ATOM     62  C   UNL A   1      40.532  34.260  32.132  1.00  0.00     0.049 A 
ATOM     63  H   UNL A   1      40.609  34.717  30.092  1.00  0.00     0.167 HD
ATOM     64  C   UNL A   1      38.347  33.655  31.149  1.00  0.00     0.074 A 
ATOM     65  C   UNL A   1      38.418  34.279  29.838  1.00  0.00     0.031 C 
ATOM     66  C   UNL A   1      39.186  33.735  32.221  1.00  0.00     0.031 A 
BRANCH  53  67
ATOM     67  C   UNL A   1      43.181  35.262  28.689  1.00  0.00    -0.014 A 
ATOM     68  C   UNL A   1      44.341  36.050  28.584  1.00  0.00     0.009 A 
ATOM     69  C   UNL A   1      42.032  35.726  28.018  1.00  0.00     0.009 A 
ATOM     70  C   UNL A   1      44.338  37.258  27.876  1.00  0.00     0.001 A 
ATOM     71  C   UNL A   1      42.037  36.912  27.280  1.00  0.00     0.001 A 
ATOM     72  C   UNL A   1      43.185  37.690  27.228  1.00  0.00     0.000 A 
ENDBRANCH  53  67
BRANCH  54  73
ATOM     73  C   UNL A   1      36.025  30.790  28.265  1.00  0.00    -0.014 A 
ATOM     74  C   UNL A   1      35.805  29.522  27.709  1.00  0.00     0.009 A 
ATOM     75  C   UNL A   1      34.985  31.735  28.188  1.00  0.00     0.009 A 
ATOM     76  C   UNL A   1      34.575  29.201  27.123  1.00  0.00     0.001 A 
ATOM     77  C   UNL A   1      33.761  31.418  27.595  1.00  0.00     0.001 A 
ATOM     78  C   UNL A   1      33.552  30.145  27.075  1.00  0.00     0.000 A 
ENDBRANCH  54  73
BRANCH  66  79
ATOM     79  C   UNL A   1      38.786  33.006  33.470  1.00  0.00    -0.014 A 
ATOM     80  C   UNL A   1      39.177  31.685  33.743  1.00  0.00     0.009 A 
ATOM     81  C   UNL A   1      38.031  33.694  34.430  1.00  0.00     0.009 A 
ATOM     82  C   UNL A   1      38.785  31.058  34.929  1.00  0.00     0.001 A 
ATOM     83  C   UNL A   1      37.660  33.076  35.625  1.00  0.00     0.001 A 
ATOM     84  C   UNL A   1      38.028  31.754  35.870  1.00  0.00     0.000 A 
ENDBRANCH  66  79
ENDBRANCH  40  41
ENDBRANCH  33  35
ENDBRANCH  32  33
ENDBRANCH  31  32
ENDBRANCH   1  31
TORSDOF 16
ENDMDL
