MODEL 1
REMARK VINA RESULT:     -11.9      0.000      0.000
REMARK SMILES O=C(OCCOC(=O)c1ccc(-c2c3nc(c(-c4ccccc4)c4ccc([nH]4)c(-c4ccccc4)c4nc(c(-c5ccccc5)c5ccc2[nH]5)C=C4)C=C3)cc1)C1=Cc2cc(S(F)(F)(F)(F)F)cc(Br)c2O[C@@H]1C(F)(F)F
REMARK SMILES IDX 5 1 4 2 3 3 2 4 1 5 57 6 58 7 73 8 59 9 72 10 60 11 71 12
REMARK SMILES IDX 61 13 69 14 68 15 70 16 74 17 75 18 76 19 77 20 62 21 63 22
REMARK SMILES IDX 64 23 65 24 66 25 67 26 6 27 7 28 8 29 9 30 10 31 56 32
REMARK SMILES IDX 11 33 55 34 12 35 13 36 14 37 49 38 15 39 54 40 48 41 50 42
REMARK SMILES IDX 16 43 53 44 47 45 46 46 17 48 39 49 24 50 38 51 25 52 28 53
REMARK SMILES IDX 37 54 51 55 26 56 27 57 36 59 52 60 29 61 18 62 19 63 23 64
REMARK SMILES IDX 20 65 22 66 21 67 40 68 41 69 45 70 42 71 44 72 43 73 30 74
REMARK SMILES IDX 31 75 35 76 32 77 34 78 33 79
REMARK H PARENT 50 47 28 58
REMARK Flexibility Score: inf
ROOT
ATOM      1  C   UNL A   1      32.766  25.696  22.472  1.00  0.00     0.275 C 
ENDROOT
BRANCH   1   2
ATOM      2  C   UNL A   1      34.054  25.118  23.034  1.00  0.00     0.275 C 
BRANCH   2   3
ATOM      3  O   UNL A   1      33.744  24.144  24.020  1.00  0.00    -0.459 OA
BRANCH   3   4
ATOM      4  C   UNL A   1      32.935  23.026  23.683  1.00  0.00     0.338 C 
ATOM      5  O   UNL A   1      33.168  22.370  22.619  1.00  0.00    -0.246 OA
BRANCH   4   6
ATOM      6  C   UNL A   1      31.790  22.613  24.594  1.00  0.00     0.087 C 
ATOM      7  C   UNL A   1      31.786  21.380  25.166  1.00  0.00     0.027 C 
ATOM      8  C   UNL A   1      30.649  23.580  24.865  1.00  0.00     0.316 C 
ATOM      9  C   UNL A   1      32.928  20.413  24.894  1.00  0.00     0.020 A 
ATOM     10  O   UNL A   1      34.440  22.234  25.108  1.00  0.00    -0.474 OA
ATOM     11  C   UNL A   1      32.635  19.097  24.579  1.00  0.00     0.036 A 
ATOM     12  C   UNL A   1      34.182  20.848  24.940  1.00  0.00     0.142 A 
ATOM     13  C   UNL A   1      33.758  18.236  24.608  1.00  0.00     0.109 A 
ATOM     14  C   UNL A   1      35.231  19.969  24.826  1.00  0.00     0.062 A 
ATOM     15  C   UNL A   1      35.014  18.642  24.573  1.00  0.00     0.044 A 
ATOM     16  Br  UNL A   1      37.066  20.625  25.030  1.00  0.00    -0.047 Br
BRANCH   8  17
ATOM     17  C   UNL A   1      30.571  23.867  26.356  1.00  0.00     0.430 C 
ATOM     18  F   UNL A   1      31.794  24.088  26.829  1.00  0.00    -0.167 F 
ATOM     19  F   UNL A   1      29.815  24.941  26.562  1.00  0.00    -0.167 F 
ATOM     20  F   UNL A   1      30.037  22.822  26.981  1.00  0.00    -0.167 F 
ENDBRANCH   8  17
BRANCH  13  21
ATOM     21  S   UNL A   1      33.452  16.455  24.702  1.00  0.00     0.310 S 
ATOM     22  F   UNL A   1      34.954  16.156  25.117  1.00  0.00    -0.094 F 
ATOM     23  F   UNL A   1      33.913  16.325  23.202  1.00  0.00    -0.094 F 
ATOM     24  F   UNL A   1      33.190  14.925  24.783  1.00  0.00    -0.094 F 
ATOM     25  F   UNL A   1      33.129  16.583  26.243  1.00  0.00    -0.094 F 
ATOM     26  F   UNL A   1      33.823  17.991  24.667  1.00  0.00    -0.094 F 
ENDBRANCH  13  21
ENDBRANCH   4   6
ENDBRANCH   3   4
ENDBRANCH   2   3
ENDBRANCH   1   2
BRANCH   1  27
ATOM     27  O   UNL A   1      32.593  27.023  22.948  1.00  0.00    -0.458 OA
BRANCH  27  28
ATOM     28  C   UNL A   1      32.242  27.249  24.305  1.00  0.00     0.338 C 
ATOM     29  O   UNL A   1      31.108  26.874  24.739  1.00  0.00    -0.246 OA
BRANCH  28  30
ATOM     30  C   UNL A   1      33.222  27.939  25.239  1.00  0.00     0.060 A 
ATOM     31  C   UNL A   1      33.261  27.567  26.573  1.00  0.00     0.016 A 
ATOM     32  C   UNL A   1      33.994  28.915  24.773  1.00  0.00     0.016 A 
ATOM     33  C   UNL A   1      33.945  28.486  27.405  1.00  0.00     0.010 A 
ATOM     34  C   UNL A   1      34.741  29.686  25.631  1.00  0.00     0.010 A 
ATOM     35  C   UNL A   1      34.779  29.412  26.970  1.00  0.00    -0.014 A 
BRANCH  35  36
ATOM     36  C   UNL A   1      35.733  30.135  27.908  1.00  0.00     0.031 A 
ATOM     37  C   UNL A   1      35.254  31.233  28.625  1.00  0.00     0.074 A 
ATOM     38  C   UNL A   1      37.014  29.627  28.034  1.00  0.00     0.049 A 
ATOM     39  N   UNL A   1      35.900  31.945  29.549  1.00  0.00    -0.248 NA
ATOM     40  C   UNL A   1      33.904  31.796  28.467  1.00  0.00     0.031 C 
ATOM     41  C   UNL A   1      37.501  28.514  27.321  1.00  0.00     0.029 A 
ATOM     42  N   UNL A   1      38.029  30.084  28.845  1.00  0.00    -0.354 N 
ATOM     43  C   UNL A   1      35.107  32.908  30.026  1.00  0.00     0.074 A 
ATOM     44  C   UNL A   1      33.815  32.829  29.333  1.00  0.00     0.031 C 
ATOM     45  C   UNL A   1      38.794  28.312  27.687  1.00  0.00     0.029 A 
ATOM     46  C   UNL A   1      39.136  29.293  28.636  1.00  0.00     0.049 A 
ATOM     47  H   UNL A   1      37.972  30.847  29.466  1.00  0.00     0.167 HD
ATOM     48  C   UNL A   1      35.412  33.846  31.015  1.00  0.00     0.031 A 
ATOM     49  C   UNL A   1      40.384  29.406  29.230  1.00  0.00     0.031 A 
ATOM     50  C   UNL A   1      36.646  33.930  31.639  1.00  0.00     0.049 A 
ATOM     51  C   UNL A   1      40.707  30.382  30.176  1.00  0.00     0.074 A 
ATOM     52  C   UNL A   1      36.968  34.866  32.642  1.00  0.00     0.029 A 
ATOM     53  N   UNL A   1      37.762  33.155  31.413  1.00  0.00    -0.354 N 
ATOM     54  N   UNL A   1      39.902  31.318  30.682  1.00  0.00    -0.248 NA
ATOM     55  C   UNL A   1      42.034  30.531  30.787  1.00  0.00     0.031 C 
ATOM     56  C   UNL A   1      38.261  34.663  33.010  1.00  0.00     0.029 A 
ATOM     57  C   UNL A   1      38.769  33.599  32.241  1.00  0.00     0.049 A 
ATOM     58  H   UNL A   1      37.827  32.412  30.770  1.00  0.00     0.167 HD
ATOM     59  C   UNL A   1      40.562  32.057  31.576  1.00  0.00     0.074 A 
ATOM     60  C   UNL A   1      41.946  31.566  31.651  1.00  0.00     0.031 C 
ATOM     61  C   UNL A   1      40.066  33.117  32.336  1.00  0.00     0.031 A 
BRANCH  48  62
ATOM     62  C   UNL A   1      34.329  34.829  31.428  1.00  0.00    -0.014 A 
ATOM     63  C   UNL A   1      33.708  34.594  32.644  1.00  0.00     0.009 A 
ATOM     64  C   UNL A   1      34.005  35.876  30.681  1.00  0.00     0.009 A 
ATOM     65  C   UNL A   1      32.544  35.370  32.853  1.00  0.00     0.001 A 
ATOM     66  C   UNL A   1      32.937  36.673  31.018  1.00  0.00     0.001 A 
ATOM     67  C   UNL A   1      32.241  36.463  32.176  1.00  0.00     0.000 A 
ENDBRANCH  48  62
BRANCH  49  68
ATOM     68  C   UNL A   1      41.461  28.412  28.829  1.00  0.00    -0.014 A 
ATOM     69  C   UNL A   1      42.260  28.686  27.731  1.00  0.00     0.009 A 
ATOM     70  C   UNL A   1      41.576  27.270  29.497  1.00  0.00     0.009 A 
ATOM     71  C   UNL A   1      42.959  27.559  27.236  1.00  0.00     0.001 A 
ATOM     72  C   UNL A   1      42.384  26.263  29.027  1.00  0.00     0.001 A 
ATOM     73  C   UNL A   1      43.157  26.443  27.914  1.00  0.00     0.000 A 
ENDBRANCH  49  68
BRANCH  61  74
ATOM     74  C   UNL A   1      41.005  33.786  33.327  1.00  0.00    -0.014 A 
ATOM     75  C   UNL A   1      41.063  33.314  34.627  1.00  0.00     0.009 A 
ATOM     76  C   UNL A   1      41.722  34.835  32.941  1.00  0.00     0.009 A 
ATOM     77  C   UNL A   1      41.697  34.199  35.531  1.00  0.00     0.001 A 
ATOM     78  C   UNL A   1      42.427  35.575  33.860  1.00  0.00     0.001 A 
ATOM     79  C   UNL A   1      42.481  35.201  35.174  1.00  0.00     0.000 A 
ENDBRANCH  61  74
ENDBRANCH  35  36
ENDBRANCH  28  30
ENDBRANCH  27  28
ENDBRANCH   1  27
TORSDOF 13
ENDMDL
MODEL 2
REMARK VINA RESULT:     -11.8      3.935      8.567
REMARK SMILES O=C(OCCOC(=O)c1ccc(-c2c3nc(c(-c4ccccc4)c4ccc([nH]4)c(-c4ccccc4)c4nc(c(-c5ccccc5)c5ccc2[nH]5)C=C4)C=C3)cc1)C1=Cc2cc(S(F)(F)(F)(F)F)cc(Br)c2O[C@@H]1C(F)(F)F
REMARK SMILES IDX 5 1 4 2 3 3 2 4 1 5 57 6 58 7 73 8 59 9 72 10 60 11 71 12
REMARK SMILES IDX 61 13 69 14 68 15 70 16 74 17 75 18 76 19 77 20 62 21 63 22
REMARK SMILES IDX 64 23 65 24 66 25 67 26 6 27 7 28 8 29 9 30 10 31 56 32
REMARK SMILES IDX 11 33 55 34 12 35 13 36 14 37 49 38 15 39 54 40 48 41 50 42
REMARK SMILES IDX 16 43 53 44 47 45 46 46 17 48 39 49 24 50 38 51 25 52 28 53
REMARK SMILES IDX 37 54 51 55 26 56 27 57 36 59 52 60 29 61 18 62 19 63 23 64
REMARK SMILES IDX 20 65 22 66 21 67 40 68 41 69 45 70 42 71 44 72 43 73 30 74
REMARK SMILES IDX 31 75 35 76 32 77 34 78 33 79
REMARK H PARENT 50 47 28 58
REMARK Flexibility Score: inf
ROOT
ATOM      1  C   UNL A   1      33.653  29.594  26.459  1.00  0.00     0.275 C 
ENDROOT
BRANCH   1   2
ATOM      2  C   UNL A   1      34.329  28.257  26.203  1.00  0.00     0.275 C 
BRANCH   2   3
ATOM      3  O   UNL A   1      33.445  27.205  26.558  1.00  0.00    -0.459 OA
BRANCH   3   4
ATOM      4  C   UNL A   1      32.397  26.829  25.676  1.00  0.00     0.338 C 
ATOM      5  O   UNL A   1      31.218  26.670  26.122  1.00  0.00    -0.246 OA
BRANCH   4   6
ATOM      6  C   UNL A   1      32.686  26.617  24.199  1.00  0.00     0.087 C 
ATOM      7  C   UNL A   1      33.467  25.576  23.801  1.00  0.00     0.027 C 
ATOM      8  C   UNL A   1      32.103  27.567  23.167  1.00  0.00     0.316 C 
ATOM      9  C   UNL A   1      34.049  24.625  24.835  1.00  0.00     0.020 A 
ATOM     10  O   UNL A   1      31.960  24.673  25.968  1.00  0.00    -0.474 OA
ATOM     11  C   UNL A   1      35.385  24.272  24.747  1.00  0.00     0.036 A 
ATOM     12  C   UNL A   1      33.278  24.168  25.814  1.00  0.00     0.142 A 
ATOM     13  C   UNL A   1      35.750  23.192  25.586  1.00  0.00     0.109 A 
ATOM     14  C   UNL A   1      33.745  23.211  26.682  1.00  0.00     0.062 A 
ATOM     15  C   UNL A   1      35.039  22.771  26.616  1.00  0.00     0.044 A 
ATOM     16  Br  UNL A   1      32.539  22.462  28.033  1.00  0.00    -0.047 Br
BRANCH   8  17
ATOM     17  C   UNL A   1      31.218  26.791  22.205  1.00  0.00     0.430 C 
ATOM     18  F   UNL A   1      31.957  26.316  21.207  1.00  0.00    -0.167 F 
ATOM     19  F   UNL A   1      30.642  25.780  22.850  1.00  0.00    -0.167 F 
ATOM     20  F   UNL A   1      30.279  27.597  21.717  1.00  0.00    -0.167 F 
ENDBRANCH   8  17
BRANCH  13  21
ATOM     21  S   UNL A   1      37.296  22.326  25.221  1.00  0.00     0.310 S 
ATOM     22  F   UNL A   1      37.438  23.043  23.813  1.00  0.00    -0.094 F 
ATOM     23  F   UNL A   1      36.465  21.206  24.490  1.00  0.00    -0.094 F 
ATOM     24  F   UNL A   1      38.625  21.583  24.907  1.00  0.00    -0.094 F 
ATOM     25  F   UNL A   1      38.121  23.525  25.833  1.00  0.00    -0.094 F 
ATOM     26  F   UNL A   1      35.964  23.147  25.446  1.00  0.00    -0.094 F 
ENDBRANCH  13  21
ENDBRANCH   4   6
ENDBRANCH   3   4
ENDBRANCH   2   3
ENDBRANCH   1   2
BRANCH   1  27
ATOM     27  O   UNL A   1      33.664  29.873  27.851  1.00  0.00    -0.458 OA
BRANCH  27  28
ATOM     28  C   UNL A   1      34.618  30.779  28.386  1.00  0.00     0.338 C 
ATOM     29  O   UNL A   1      34.274  31.969  28.669  1.00  0.00    -0.246 OA
BRANCH  28  30
ATOM     30  C   UNL A   1      36.049  30.326  28.620  1.00  0.00     0.060 A 
ATOM     31  C   UNL A   1      36.995  30.534  27.630  1.00  0.00     0.016 A 
ATOM     32  C   UNL A   1      36.361  29.701  29.751  1.00  0.00     0.016 A 
ATOM     33  C   UNL A   1      38.183  29.784  27.805  1.00  0.00     0.010 A 
ATOM     34  C   UNL A   1      37.591  29.108  29.905  1.00  0.00     0.010 A 
ATOM     35  C   UNL A   1      38.553  29.222  28.941  1.00  0.00    -0.014 A 
BRANCH  35  36
ATOM     36  C   UNL A   1      39.973  28.729  29.165  1.00  0.00     0.031 A 
ATOM     37  C   UNL A   1      40.290  27.423  28.790  1.00  0.00     0.074 A 
ATOM     38  C   UNL A   1      40.888  29.629  29.685  1.00  0.00     0.049 A 
ATOM     39  N   UNL A   1      41.485  26.833  28.828  1.00  0.00    -0.248 NA
ATOM     40  C   UNL A   1      39.312  26.454  28.270  1.00  0.00     0.031 C 
ATOM     41  C   UNL A   1      40.578  30.951  30.057  1.00  0.00     0.029 A 
ATOM     42  N   UNL A   1      42.227  29.424  29.934  1.00  0.00    -0.354 N 
ATOM     43  C   UNL A   1      41.396  25.581  28.371  1.00  0.00     0.074 A 
ATOM     44  C   UNL A   1      39.997  25.319  28.011  1.00  0.00     0.031 C 
ATOM     45  C   UNL A   1      41.711  31.531  30.535  1.00  0.00     0.029 A 
ATOM     46  C   UNL A   1      42.747  30.581  30.467  1.00  0.00     0.049 A 
ATOM     47  H   UNL A   1      42.726  28.592  29.760  1.00  0.00     0.167 HD
ATOM     48  C   UNL A   1      42.429  24.651  28.237  1.00  0.00     0.031 A 
ATOM     49  C   UNL A   1      44.050  30.815  30.881  1.00  0.00     0.031 A 
ATOM     50  C   UNL A   1      43.740  24.900  28.610  1.00  0.00     0.049 A 
ATOM     51  C   UNL A   1      45.071  29.865  30.802  1.00  0.00     0.074 A 
ATOM     52  C   UNL A   1      44.794  23.975  28.476  1.00  0.00     0.029 A 
ATOM     53  N   UNL A   1      44.256  26.049  29.168  1.00  0.00    -0.354 N 
ATOM     54  N   UNL A   1      44.990  28.628  30.308  1.00  0.00    -0.248 NA
ATOM     55  C   UNL A   1      46.446  30.090  31.266  1.00  0.00     0.031 C 
ATOM     56  C   UNL A   1      45.928  24.555  28.953  1.00  0.00     0.029 A 
ATOM     57  C   UNL A   1      45.600  25.851  29.395  1.00  0.00     0.049 A 
ATOM     58  H   UNL A   1      43.750  26.870  29.368  1.00  0.00     0.167 HD
ATOM     59  C   UNL A   1      46.177  28.024  30.385  1.00  0.00     0.074 A 
ATOM     60  C   UNL A   1      47.130  28.953  31.010  1.00  0.00     0.031 C 
ATOM     61  C   UNL A   1      46.507  26.737  29.956  1.00  0.00     0.031 A 
BRANCH  48  62
ATOM     62  C   UNL A   1      42.096  23.289  27.651  1.00  0.00    -0.014 A 
ATOM     63  C   UNL A   1      42.335  23.120  26.297  1.00  0.00     0.009 A 
ATOM     64  C   UNL A   1      41.622  22.297  28.395  1.00  0.00     0.009 A 
ATOM     65  C   UNL A   1      41.767  21.943  25.756  1.00  0.00     0.001 A 
ATOM     66  C   UNL A   1      41.210  21.122  27.815  1.00  0.00     0.001 A 
ATOM     67  C   UNL A   1      41.362  20.909  26.472  1.00  0.00     0.000 A 
ENDBRANCH  48  62
BRANCH  49  68
ATOM     68  C   UNL A   1      44.387  32.183  31.452  1.00  0.00    -0.014 A 
ATOM     69  C   UNL A   1      44.246  32.402  32.811  1.00  0.00     0.009 A 
ATOM     70  C   UNL A   1      44.750  33.161  30.629  1.00  0.00     0.009 A 
ATOM     71  C   UNL A   1      44.229  33.771  33.172  1.00  0.00     0.001 A 
ATOM     72  C   UNL A   1      44.845  34.455  31.081  1.00  0.00     0.001 A 
ATOM     73  C   UNL A   1      44.660  34.754  32.403  1.00  0.00     0.000 A 
ENDBRANCH  49  68
BRANCH  61  74
ATOM     74  C   UNL A   1      47.948  26.279  30.114  1.00  0.00    -0.014 A 
ATOM     75  C   UNL A   1      48.772  26.245  29.002  1.00  0.00     0.009 A 
ATOM     76  C   UNL A   1      48.380  25.882  31.305  1.00  0.00     0.009 A 
ATOM     77  C   UNL A   1      49.960  25.500  29.191  1.00  0.00     0.001 A 
ATOM     78  C   UNL A   1      49.610  25.282  31.438  1.00  0.00     0.001 A 
ATOM     79  C   UNL A   1      50.453  25.162  30.369  1.00  0.00     0.000 A 
ENDBRANCH  61  74
ENDBRANCH  35  36
ENDBRANCH  28  30
ENDBRANCH  27  28
ENDBRANCH   1  27
TORSDOF 13
ENDMDL
MODEL 3
REMARK VINA RESULT:     -11.8      3.535      6.465
REMARK SMILES O=C(OCCOC(=O)c1ccc(-c2c3nc(c(-c4ccccc4)c4ccc([nH]4)c(-c4ccccc4)c4nc(c(-c5ccccc5)c5ccc2[nH]5)C=C4)C=C3)cc1)C1=Cc2cc(S(F)(F)(F)(F)F)cc(Br)c2O[C@@H]1C(F)(F)F
REMARK SMILES IDX 5 1 4 2 3 3 2 4 1 5 57 6 58 7 73 8 59 9 72 10 60 11 71 12
REMARK SMILES IDX 61 13 69 14 68 15 70 16 74 17 75 18 76 19 77 20 62 21 63 22
REMARK SMILES IDX 64 23 65 24 66 25 67 26 6 27 7 28 8 29 9 30 10 31 56 32
REMARK SMILES IDX 11 33 55 34 12 35 13 36 14 37 49 38 15 39 54 40 48 41 50 42
REMARK SMILES IDX 16 43 53 44 47 45 46 46 17 48 39 49 24 50 38 51 25 52 28 53
REMARK SMILES IDX 37 54 51 55 26 56 27 57 36 59 52 60 29 61 18 62 19 63 23 64
REMARK SMILES IDX 20 65 22 66 21 67 40 68 41 69 45 70 42 71 44 72 43 73 30 74
REMARK SMILES IDX 31 75 35 76 32 77 34 78 33 79
REMARK H PARENT 50 47 28 58
REMARK Flexibility Score: inf
ROOT
ATOM      1  C   UNL A   1      38.022  22.248  25.424  1.00  0.00     0.275 C 
ENDROOT
BRANCH   1   2
ATOM      2  C   UNL A   1      37.084  23.370  25.840  1.00  0.00     0.275 C 
BRANCH   2   3
ATOM      3  O   UNL A   1      36.430  23.890  24.692  1.00  0.00    -0.459 OA
BRANCH   3   4
ATOM      4  C   UNL A   1      35.513  23.081  23.970  1.00  0.00     0.338 C 
ATOM      5  O   UNL A   1      35.631  22.957  22.710  1.00  0.00    -0.246 OA
BRANCH   4   6
ATOM      6  C   UNL A   1      34.391  22.363  24.702  1.00  0.00     0.087 C 
ATOM      7  C   UNL A   1      33.363  23.075  25.237  1.00  0.00     0.027 C 
ATOM      8  C   UNL A   1      34.419  20.850  24.837  1.00  0.00     0.316 C 
ATOM      9  C   UNL A   1      33.337  24.589  25.102  1.00  0.00     0.020 A 
ATOM     10  O   UNL A   1      34.067  24.340  22.853  1.00  0.00    -0.474 OA
ATOM     11  C   UNL A   1      33.044  25.359  26.214  1.00  0.00     0.036 A 
ATOM     12  C   UNL A   1      33.616  25.148  23.929  1.00  0.00     0.142 A 
ATOM     13  C   UNL A   1      32.786  26.720  25.918  1.00  0.00     0.109 A 
ATOM     14  C   UNL A   1      33.473  26.503  23.750  1.00  0.00     0.062 A 
ATOM     15  C   UNL A   1      33.127  27.319  24.792  1.00  0.00     0.044 A 
ATOM     16  Br  UNL A   1      33.766  27.277  21.974  1.00  0.00    -0.047 Br
BRANCH   8  17
ATOM     17  C   UNL A   1      33.182  20.259  24.179  1.00  0.00     0.430 C 
ATOM     18  F   UNL A   1      32.846  20.997  23.125  1.00  0.00    -0.167 F 
ATOM     19  F   UNL A   1      33.440  19.015  23.786  1.00  0.00    -0.167 F 
ATOM     20  F   UNL A   1      32.177  20.250  25.051  1.00  0.00    -0.167 F 
ENDBRANCH   8  17
BRANCH  13  21
ATOM     21  S   UNL A   1      31.929  27.706  27.170  1.00  0.00     0.310 S 
ATOM     22  F   UNL A   1      31.755  28.930  26.176  1.00  0.00    -0.094 F 
ATOM     23  F   UNL A   1      33.314  28.331  27.586  1.00  0.00    -0.094 F 
ATOM     24  F   UNL A   1      31.193  28.554  28.246  1.00  0.00    -0.094 F 
ATOM     25  F   UNL A   1      30.537  27.176  26.647  1.00  0.00    -0.094 F 
ATOM     26  F   UNL A   1      32.650  26.926  26.000  1.00  0.00    -0.094 F 
ENDBRANCH  13  21
ENDBRANCH   4   6
ENDBRANCH   3   4
ENDBRANCH   2   3
ENDBRANCH   1   2
BRANCH   1  27
ATOM     27  O   UNL A   1      38.913  21.955  26.490  1.00  0.00    -0.458 OA
BRANCH  27  28
ATOM     28  C   UNL A   1      40.263  22.390  26.426  1.00  0.00     0.338 C 
ATOM     29  O   UNL A   1      41.164  21.605  25.995  1.00  0.00    -0.246 OA
BRANCH  28  30
ATOM     30  C   UNL A   1      40.630  23.795  26.873  1.00  0.00     0.060 A 
ATOM     31  C   UNL A   1      41.080  23.998  28.167  1.00  0.00     0.016 A 
ATOM     32  C   UNL A   1      40.474  24.811  26.030  1.00  0.00     0.016 A 
ATOM     33  C   UNL A   1      41.064  25.353  28.574  1.00  0.00     0.010 A 
ATOM     34  C   UNL A   1      40.607  26.107  26.467  1.00  0.00     0.010 A 
ATOM     35  C   UNL A   1      40.991  26.382  27.750  1.00  0.00    -0.014 A 
BRANCH  35  36
ATOM     36  C   UNL A   1      41.317  27.795  28.203  1.00  0.00     0.031 A 
ATOM     37  C   UNL A   1      40.268  28.623  28.606  1.00  0.00     0.074 A 
ATOM     38  C   UNL A   1      42.651  28.165  28.238  1.00  0.00     0.049 A 
ATOM     39  N   UNL A   1      40.350  29.855  29.108  1.00  0.00    -0.248 NA
ATOM     40  C   UNL A   1      38.847  28.245  28.537  1.00  0.00     0.031 C 
ATOM     41  C   UNL A   1      43.716  27.332  27.842  1.00  0.00     0.029 A 
ATOM     42  N   UNL A   1      43.185  29.367  28.647  1.00  0.00    -0.354 N 
ATOM     43  C   UNL A   1      39.131  30.320  29.393  1.00  0.00     0.074 A 
ATOM     44  C   UNL A   1      38.148  29.294  29.024  1.00  0.00     0.031 C 
ATOM     45  C   UNL A   1      44.874  28.027  27.998  1.00  0.00     0.029 A 
ATOM     46  C   UNL A   1      44.552  29.303  28.496  1.00  0.00     0.049 A 
ATOM     47  H   UNL A   1      42.676  30.138  28.988  1.00  0.00     0.167 HD
ATOM     48  C   UNL A   1      38.803  31.558  29.948  1.00  0.00     0.031 A 
ATOM     49  C   UNL A   1      45.483  30.293  28.770  1.00  0.00     0.031 A 
ATOM     50  C   UNL A   1      39.738  32.531  30.263  1.00  0.00     0.049 A 
ATOM     51  C   UNL A   1      45.149  31.554  29.271  1.00  0.00     0.074 A 
ATOM     52  C   UNL A   1      39.424  33.782  30.829  1.00  0.00     0.029 A 
ATOM     53  N   UNL A   1      41.103  32.478  30.088  1.00  0.00    -0.354 N 
ATOM     54  N   UNL A   1      43.935  32.003  29.592  1.00  0.00    -0.248 NA
ATOM     55  C   UNL A   1      46.123  32.622  29.534  1.00  0.00     0.031 C 
ATOM     56  C   UNL A   1      40.583  34.477  30.986  1.00  0.00     0.029 A 
ATOM     57  C   UNL A   1      41.639  33.672  30.520  1.00  0.00     0.049 A 
ATOM     58  H   UNL A   1      41.608  31.717  29.720  1.00  0.00     0.167 HD
ATOM     59  C   UNL A   1      44.014  33.252  30.056  1.00  0.00     0.074 A 
ATOM     60  C   UNL A   1      45.423  33.670  30.018  1.00  0.00     0.031 C 
ATOM     61  C   UNL A   1      42.970  34.057  30.513  1.00  0.00     0.031 A 
BRANCH  48  62
ATOM     62  C   UNL A   1      37.338  31.855  30.223  1.00  0.00    -0.014 A 
ATOM     63  C   UNL A   1      36.618  32.438  29.193  1.00  0.00     0.009 A 
ATOM     64  C   UNL A   1      36.762  31.553  31.380  1.00  0.00     0.009 A 
ATOM     65  C   UNL A   1      35.352  32.931  29.584  1.00  0.00     0.001 A 
ATOM     66  C   UNL A   1      35.473  31.949  31.644  1.00  0.00     0.001 A 
ATOM     67  C   UNL A   1      34.722  32.582  30.693  1.00  0.00     0.000 A 
ENDBRANCH  48  62
BRANCH  49  68
ATOM     68  C   UNL A   1      46.950  29.990  28.512  1.00  0.00    -0.014 A 
ATOM     69  C   UNL A   1      47.475  30.216  27.251  1.00  0.00     0.009 A 
ATOM     70  C   UNL A   1      47.685  29.455  29.480  1.00  0.00     0.009 A 
ATOM     71  C   UNL A   1      48.715  29.570  27.023  1.00  0.00     0.001 A 
ATOM     72  C   UNL A   1      48.942  28.968  29.215  1.00  0.00     0.001 A 
ATOM     73  C   UNL A   1      49.502  29.103  27.975  1.00  0.00     0.000 A 
ENDBRANCH  49  68
BRANCH  61  74
ATOM     74  C   UNL A   1      43.314  35.443  31.036  1.00  0.00    -0.014 A 
ATOM     75  C   UNL A   1      43.434  36.493  30.141  1.00  0.00     0.009 A 
ATOM     76  C   UNL A   1      43.531  35.616  32.335  1.00  0.00     0.009 A 
ATOM     77  C   UNL A   1      44.074  37.635  30.678  1.00  0.00     0.001 A 
ATOM     78  C   UNL A   1      44.031  36.806  32.807  1.00  0.00     0.001 A 
ATOM     79  C   UNL A   1      44.230  37.868  31.969  1.00  0.00     0.000 A 
ENDBRANCH  61  74
ENDBRANCH  35  36
ENDBRANCH  28  30
ENDBRANCH  27  28
ENDBRANCH   1  27
TORSDOF 13
ENDMDL
