MODEL 1
REMARK VINA RESULT:     -11.5      0.000      0.000
REMARK SMILES C[C@@H](C(=O)OCCOC(=O)c1ccc(-c2c3nc(c(-c4ccccc4)c4ccc([nH]4)c(-c4ccccc4)c4nc(c(-c5ccccc5)c5ccc2[nH]5)C=C4)C=C3)cc1)N1C(=O)/C(=C/c2ccc(-c3ccc([N+](=O)[O-])cc3Cl)o2)SC1=S
REMARK SMILES IDX 6 1 5 2 3 3 4 4 2 5 1 6 59 7 60 8 80 9 61 10 62 11 79 12
REMARK SMILES IDX 81 13 63 14 64 15 65 16 78 17 66 18 67 19 68 20 69 21 76 22
REMARK SMILES IDX 70 23 75 24 77 25 71 26 72 27 73 28 74 29 7 30 8 31 9 32
REMARK SMILES IDX 10 33 11 34 12 35 58 36 13 37 57 38 14 39 15 40 16 41 51 42
REMARK SMILES IDX 17 43 56 44 50 45 52 46 18 47 55 48 49 49 48 50 19 52 41 53
REMARK SMILES IDX 26 54 40 55 27 56 30 57 39 58 53 59 28 60 29 61 38 63 54 64
REMARK SMILES IDX 31 65 20 66 21 67 25 68 22 69 24 70 23 71 42 72 43 73 47 74
REMARK SMILES IDX 44 75 46 76 45 77 32 78 33 79 37 80 34 81 36 82 35 83
REMARK H PARENT 52 51 30 62
REMARK Flexibility Score: inf
ROOT
ATOM      1  C   UNL A   1      35.648  21.989  25.516  1.00  0.00     0.274 C 
ENDROOT
BRANCH   1   2
ATOM      2  O   UNL A   1      34.406  21.334  25.885  1.00  0.00    -0.461 OA
BRANCH   2   3
ATOM      3  C   UNL A   1      33.866  20.429  25.014  1.00  0.00     0.329 C 
ATOM      4  O   UNL A   1      34.442  19.398  24.686  1.00  0.00    -0.250 OA
BRANCH   3   5
ATOM      5  C   UNL A   1      32.464  20.857  24.452  1.00  0.00     0.199 C 
ATOM      6  C   UNL A   1      32.126  20.015  23.210  1.00  0.00     0.044 C 
BRANCH   5   7
ATOM      7  N   UNL A   1      32.184  22.355  24.317  1.00  0.00    -0.279 N 
ATOM      8  C   UNL A   1      31.282  22.970  25.209  1.00  0.00     0.267 C 
ATOM      9  C   UNL A   1      32.679  23.221  23.350  1.00  0.00     0.149 C 
ATOM     10  O   UNL A   1      30.676  22.415  26.114  1.00  0.00    -0.268 OA
ATOM     11  C   UNL A   1      31.164  24.460  24.929  1.00  0.00     0.084 C 
ATOM     12  S   UNL A   1      31.751  24.716  23.336  1.00  0.00    -0.054 SA
ATOM     13  S   UNL A   1      33.948  23.098  22.280  1.00  0.00    -0.052 S 
ATOM     14  C   UNL A   1      30.864  25.442  25.811  1.00  0.00     0.068 C 
BRANCH  14  15
ATOM     15  C   UNL A   1      31.013  26.856  25.504  1.00  0.00     0.128 A 
ATOM     16  C   UNL A   1      30.302  27.661  24.624  1.00  0.00     0.051 A 
ATOM     17  O   UNL A   1      31.946  27.706  26.095  1.00  0.00    -0.457 OA
ATOM     18  C   UNL A   1      30.916  28.951  24.592  1.00  0.00     0.051 A 
ATOM     19  C   UNL A   1      31.970  28.958  25.498  1.00  0.00     0.136 A 
BRANCH  19  20
ATOM     20  C   UNL A   1      32.683  30.136  26.217  1.00  0.00     0.036 A 
ATOM     21  C   UNL A   1      31.515  31.396  26.129  1.00  0.00     0.020 A 
ATOM     22  C   UNL A   1      34.230  30.296  27.230  1.00  0.00     0.058 A 
ATOM     23  C   UNL A   1      31.852  32.819  27.037  1.00  0.00     0.086 A 
ATOM     24  C   UNL A   1      34.627  31.571  28.271  1.00  0.00     0.106 A 
ATOM     25  Cl  UNL A   1      35.724  29.350  27.424  1.00  0.00    -0.083 Cl
ATOM     26  C   UNL A   1      33.565  32.900  28.254  1.00  0.00     0.270 A 
BRANCH  26  27
ATOM     27  N   UNL A   1      34.294  33.920  29.249  1.00  0.00     0.062 N 
ATOM     28  O   UNL A   1      35.255  34.607  28.867  1.00  0.00    -0.258 OA
ATOM     29  O   UNL A   1      33.757  34.060  30.359  1.00  0.00    -0.258 OA
ENDBRANCH  26  27
ENDBRANCH  19  20
ENDBRANCH  14  15
ENDBRANCH   5   7
ENDBRANCH   3   5
ENDBRANCH   2   3
ENDBRANCH   1   2
BRANCH   1  30
ATOM     30  C   UNL A   1      36.862  21.079  25.726  1.00  0.00     0.275 C 
BRANCH  30  31
ATOM     31  O   UNL A   1      38.070  21.746  25.335  1.00  0.00    -0.458 OA
BRANCH  31  32
ATOM     32  C   UNL A   1      39.143  21.421  26.089  1.00  0.00     0.338 C 
ATOM     33  O   UNL A   1      39.732  20.356  26.139  1.00  0.00    -0.246 OA
BRANCH  32  34
ATOM     34  C   UNL A   1      39.671  22.639  26.690  1.00  0.00     0.060 A 
ATOM     35  C   UNL A   1      39.153  23.827  26.203  1.00  0.00     0.016 A 
ATOM     36  C   UNL A   1      40.720  22.642  27.600  1.00  0.00     0.016 A 
ATOM     37  C   UNL A   1      39.729  25.022  26.529  1.00  0.00     0.010 A 
ATOM     38  C   UNL A   1      41.251  23.868  28.001  1.00  0.00     0.010 A 
ATOM     39  C   UNL A   1      40.773  25.056  27.429  1.00  0.00    -0.014 A 
BRANCH  39  40
ATOM     40  C   UNL A   1      41.285  26.387  27.745  1.00  0.00     0.031 A 
ATOM     41  C   UNL A   1      42.600  26.895  26.898  1.00  0.00     0.074 A 
ATOM     42  C   UNL A   1      40.551  27.052  28.701  1.00  0.00     0.049 A 
ATOM     43  N   UNL A   1      43.211  28.072  26.801  1.00  0.00    -0.248 NA
ATOM     44  C   UNL A   1      43.307  25.887  26.090  1.00  0.00     0.031 C 
ATOM     45  C   UNL A   1      39.275  26.910  29.407  1.00  0.00     0.029 A 
ATOM     46  N   UNL A   1      40.890  28.275  29.132  1.00  0.00    -0.354 N 
ATOM     47  C   UNL A   1      44.489  27.886  26.229  1.00  0.00     0.074 A 
ATOM     48  C   UNL A   1      44.427  26.514  25.731  1.00  0.00     0.031 C 
ATOM     49  C   UNL A   1      38.979  28.083  30.058  1.00  0.00     0.029 A 
ATOM     50  C   UNL A   1      40.077  29.064  29.898  1.00  0.00     0.049 A 
ATOM     51  H   UNL A   1      41.774  28.626  28.882  1.00  0.00     0.167 HD
ATOM     52  C   UNL A   1      45.644  28.656  26.206  1.00  0.00     0.031 A 
ATOM     53  C   UNL A   1      40.240  30.382  30.318  1.00  0.00     0.031 A 
ATOM     54  C   UNL A   1      45.958  29.992  26.811  1.00  0.00     0.049 A 
ATOM     55  C   UNL A   1      41.516  31.498  30.093  1.00  0.00     0.074 A 
ATOM     56  C   UNL A   1      47.187  30.660  26.806  1.00  0.00     0.029 A 
ATOM     57  N   UNL A   1      45.128  30.879  27.507  1.00  0.00    -0.354 N 
ATOM     58  N   UNL A   1      43.014  31.595  29.075  1.00  0.00    -0.248 NA
ATOM     59  C   UNL A   1      41.583  33.253  31.150  1.00  0.00     0.031 C 
ATOM     60  C   UNL A   1      47.115  31.843  27.575  1.00  0.00     0.029 A 
ATOM     61  C   UNL A   1      45.818  32.007  28.027  1.00  0.00     0.049 A 
ATOM     62  H   UNL A   1      44.161  30.735  27.627  1.00  0.00     0.167 HD
ATOM     63  C   UNL A   1      44.005  33.083  29.368  1.00  0.00     0.074 A 
ATOM     64  C   UNL A   1      42.993  34.084  30.678  1.00  0.00     0.031 C 
ATOM     65  C   UNL A   1      45.267  33.093  28.877  1.00  0.00     0.031 A 
BRANCH  52  66
ATOM     66  C   UNL A   1      46.848  27.992  25.496  1.00  0.00    -0.014 A 
ATOM     67  C   UNL A   1      47.007  28.076  24.100  1.00  0.00     0.009 A 
ATOM     68  C   UNL A   1      47.869  27.346  26.227  1.00  0.00     0.009 A 
ATOM     69  C   UNL A   1      48.125  27.518  23.460  1.00  0.00     0.001 A 
ATOM     70  C   UNL A   1      49.010  26.831  25.590  1.00  0.00     0.001 A 
ATOM     71  C   UNL A   1      49.132  26.908  24.205  1.00  0.00     0.000 A 
ENDBRANCH  52  66
BRANCH  53  72
ATOM     72  C   UNL A   1      39.141  30.986  31.135  1.00  0.00    -0.014 A 
ATOM     73  C   UNL A   1      39.073  30.749  32.517  1.00  0.00     0.009 A 
ATOM     74  C   UNL A   1      38.122  31.743  30.539  1.00  0.00     0.009 A 
ATOM     75  C   UNL A   1      37.992  31.216  33.273  1.00  0.00     0.001 A 
ATOM     76  C   UNL A   1      37.067  32.251  31.302  1.00  0.00     0.001 A 
ATOM     77  C   UNL A   1      36.993  31.972  32.664  1.00  0.00     0.000 A 
ENDBRANCH  53  72
BRANCH  65  78
ATOM     78  C   UNL A   1      46.083  34.233  29.338  1.00  0.00    -0.014 A 
ATOM     79  C   UNL A   1      46.182  35.414  28.588  1.00  0.00     0.009 A 
ATOM     80  C   UNL A   1      46.795  34.125  30.533  1.00  0.00     0.009 A 
ATOM     81  C   UNL A   1      47.060  36.424  28.967  1.00  0.00     0.001 A 
ATOM     82  C   UNL A   1      47.652  35.150  30.930  1.00  0.00     0.001 A 
ATOM     83  C   UNL A   1      47.806  36.285  30.133  1.00  0.00     0.000 A 
ENDBRANCH  65  78
ENDBRANCH  39  40
ENDBRANCH  32  34
ENDBRANCH  31  32
ENDBRANCH  30  31
ENDBRANCH   1  30
TORSDOF 15
ENDMDL
MODEL 2
REMARK VINA RESULT:     -11.3      5.330     10.602
REMARK SMILES C[C@@H](C(=O)OCCOC(=O)c1ccc(-c2c3nc(c(-c4ccccc4)c4ccc([nH]4)c(-c4ccccc4)c4nc(c(-c5ccccc5)c5ccc2[nH]5)C=C4)C=C3)cc1)N1C(=O)/C(=C/c2ccc(-c3ccc([N+](=O)[O-])cc3Cl)o2)SC1=S
REMARK SMILES IDX 6 1 5 2 3 3 4 4 2 5 1 6 59 7 60 8 80 9 61 10 62 11 79 12
REMARK SMILES IDX 81 13 63 14 64 15 65 16 78 17 66 18 67 19 68 20 69 21 76 22
REMARK SMILES IDX 70 23 75 24 77 25 71 26 72 27 73 28 74 29 7 30 8 31 9 32
REMARK SMILES IDX 10 33 11 34 12 35 58 36 13 37 57 38 14 39 15 40 16 41 51 42
REMARK SMILES IDX 17 43 56 44 50 45 52 46 18 47 55 48 49 49 48 50 19 52 41 53
REMARK SMILES IDX 26 54 40 55 27 56 30 57 39 58 53 59 28 60 29 61 38 63 54 64
REMARK SMILES IDX 31 65 20 66 21 67 25 68 22 69 24 70 23 71 42 72 43 73 47 74
REMARK SMILES IDX 44 75 46 76 45 77 32 78 33 79 37 80 34 81 36 82 35 83
REMARK H PARENT 52 51 30 62
REMARK Flexibility Score: inf
ROOT
ATOM      1  C   UNL A   1      34.465  34.886  32.520  1.00  0.00     0.274 C 
ENDROOT
BRANCH   1   2
ATOM      2  O   UNL A   1      35.152  34.255  31.408  1.00  0.00    -0.461 OA
BRANCH   2   3
ATOM      3  C   UNL A   1      34.512  34.194  30.201  1.00  0.00     0.329 C 
ATOM      4  O   UNL A   1      33.291  34.192  30.096  1.00  0.00    -0.250 OA
BRANCH   3   5
ATOM      5  C   UNL A   1      35.489  34.091  28.977  1.00  0.00     0.199 C 
ATOM      6  C   UNL A   1      34.809  34.666  27.723  1.00  0.00     0.044 C 
BRANCH   5   7
ATOM      7  N   UNL A   1      36.221  32.764  28.767  1.00  0.00    -0.279 N 
ATOM      8  C   UNL A   1      37.578  32.661  29.136  1.00  0.00     0.267 C 
ATOM      9  C   UNL A   1      35.720  31.609  28.181  1.00  0.00     0.149 C 
ATOM     10  O   UNL A   1      38.259  33.551  29.623  1.00  0.00    -0.268 OA
ATOM     11  C   UNL A   1      38.112  31.260  28.876  1.00  0.00     0.084 C 
ATOM     12  S   UNL A   1      37.035  30.514  27.767  1.00  0.00    -0.054 SA
ATOM     13  S   UNL A   1      34.170  31.103  27.845  1.00  0.00    -0.052 S 
ATOM     14  C   UNL A   1      39.109  30.625  29.535  1.00  0.00     0.068 C 
BRANCH  14  15
ATOM     15  C   UNL A   1      39.385  29.205  29.377  1.00  0.00     0.128 A 
ATOM     16  C   UNL A   1      38.616  28.102  29.719  1.00  0.00     0.051 A 
ATOM     17  O   UNL A   1      40.538  28.676  28.801  1.00  0.00    -0.457 OA
ATOM     18  C   UNL A   1      39.383  26.920  29.476  1.00  0.00     0.051 A 
ATOM     19  C   UNL A   1      40.604  27.296  28.928  1.00  0.00     0.136 A 
BRANCH  19  20
ATOM     20  C   UNL A   1      41.621  26.496  28.068  1.00  0.00     0.036 A 
ATOM     21  C   UNL A   1      41.318  27.085  26.480  1.00  0.00     0.020 A 
ATOM     22  C   UNL A   1      43.060  25.388  28.450  1.00  0.00     0.058 A 
ATOM     23  C   UNL A   1      42.427  26.598  25.257  1.00  0.00     0.086 A 
ATOM     24  C   UNL A   1      44.297  24.939  27.385  1.00  0.00     0.106 A 
ATOM     25  Cl  UNL A   1      43.593  24.438  29.857  1.00  0.00    -0.083 Cl
ATOM     26  C   UNL A   1      44.102  25.433  25.769  1.00  0.00     0.270 A 
BRANCH  26  27
ATOM     27  N   UNL A   1      45.368  24.760  25.060  1.00  0.00     0.062 N 
ATOM     28  O   UNL A   1      45.222  23.884  24.191  1.00  0.00    -0.258 OA
ATOM     29  O   UNL A   1      46.469  25.257  25.346  1.00  0.00    -0.258 OA
ENDBRANCH  26  27
ENDBRANCH  19  20
ENDBRANCH  14  15
ENDBRANCH   5   7
ENDBRANCH   3   5
ENDBRANCH   2   3
ENDBRANCH   1   2
BRANCH   1  30
ATOM     30  C   UNL A   1      35.304  34.863  33.802  1.00  0.00     0.275 C 
BRANCH  30  31
ATOM     31  O   UNL A   1      35.737  33.529  34.101  1.00  0.00    -0.458 OA
BRANCH  31  32
ATOM     32  C   UNL A   1      36.746  33.472  34.998  1.00  0.00     0.338 C 
ATOM     33  O   UNL A   1      36.675  33.497  36.213  1.00  0.00    -0.246 OA
BRANCH  32  34
ATOM     34  C   UNL A   1      37.973  33.125  34.291  1.00  0.00     0.060 A 
ATOM     35  C   UNL A   1      37.824  32.296  33.192  1.00  0.00     0.016 A 
ATOM     36  C   UNL A   1      39.236  33.480  34.746  1.00  0.00     0.016 A 
ATOM     37  C   UNL A   1      38.913  31.730  32.594  1.00  0.00     0.010 A 
ATOM     38  C   UNL A   1      40.352  32.971  34.080  1.00  0.00     0.010 A 
ATOM     39  C   UNL A   1      40.181  32.063  33.025  1.00  0.00    -0.014 A 
BRANCH  39  40
ATOM     40  C   UNL A   1      41.276  31.439  32.289  1.00  0.00     0.031 A 
ATOM     41  C   UNL A   1      41.652  29.890  32.691  1.00  0.00     0.074 A 
ATOM     42  C   UNL A   1      41.822  32.246  31.315  1.00  0.00     0.049 A 
ATOM     43  N   UNL A   1      42.449  28.981  32.136  1.00  0.00    -0.248 NA
ATOM     44  C   UNL A   1      41.043  29.349  33.919  1.00  0.00     0.031 C 
ATOM     45  C   UNL A   1      41.532  33.518  30.647  1.00  0.00     0.029 A 
ATOM     46  N   UNL A   1      42.853  31.847  30.559  1.00  0.00    -0.354 N 
ATOM     47  C   UNL A   1      42.690  27.945  33.065  1.00  0.00     0.074 A 
ATOM     48  C   UNL A   1      41.702  28.207  34.109  1.00  0.00     0.031 C 
ATOM     49  C   UNL A   1      42.337  33.647  29.542  1.00  0.00     0.029 A 
ATOM     50  C   UNL A   1      43.277  32.508  29.439  1.00  0.00     0.049 A 
ATOM     51  H   UNL A   1      43.333  31.029  30.824  1.00  0.00     0.167 HD
ATOM     52  C   UNL A   1      43.664  26.962  33.165  1.00  0.00     0.031 A 
ATOM     53  C   UNL A   1      44.243  32.157  28.499  1.00  0.00     0.031 A 
ATOM     54  C   UNL A   1      44.853  26.652  32.304  1.00  0.00     0.049 A 
ATOM     55  C   UNL A   1      45.299  30.816  28.399  1.00  0.00     0.074 A 
ATOM     56  C   UNL A   1      45.838  25.685  32.530  1.00  0.00     0.029 A 
ATOM     57  N   UNL A   1      45.261  27.232  31.096  1.00  0.00    -0.354 N 
ATOM     58  N   UNL A   1      45.477  29.217  29.239  1.00  0.00    -0.248 NA
ATOM     59  C   UNL A   1      46.848  30.787  27.057  1.00  0.00     0.031 C 
ATOM     60  C   UNL A   1      46.856  25.772  31.553  1.00  0.00     0.029 A 
ATOM     61  C   UNL A   1      46.511  26.742  30.630  1.00  0.00     0.049 A 
ATOM     62  H   UNL A   1      44.735  27.913  30.617  1.00  0.00     0.167 HD
ATOM     63  C   UNL A   1      46.897  28.245  28.672  1.00  0.00     0.074 A 
ATOM     64  C   UNL A   1      47.681  29.317  27.264  1.00  0.00     0.031 C 
ATOM     65  C   UNL A   1      47.272  27.192  29.437  1.00  0.00     0.031 A 
BRANCH  52  66
ATOM     66  C   UNL A   1      43.556  26.071  34.426  1.00  0.00    -0.014 A 
ATOM     67  C   UNL A   1      44.032  26.514  35.673  1.00  0.00     0.009 A 
ATOM     68  C   UNL A   1      42.910  24.816  34.387  1.00  0.00     0.009 A 
ATOM     69  C   UNL A   1      43.890  25.729  36.828  1.00  0.00     0.001 A 
ATOM     70  C   UNL A   1      42.726  24.053  35.552  1.00  0.00     0.001 A 
ATOM     71  C   UNL A   1      43.226  24.505  36.770  1.00  0.00     0.000 A 
ENDBRANCH  52  66
BRANCH  53  72
ATOM     72  C   UNL A   1      44.459  33.091  27.350  1.00  0.00    -0.014 A 
ATOM     73  C   UNL A   1      43.904  32.806  26.092  1.00  0.00     0.009 A 
ATOM     74  C   UNL A   1      45.268  34.229  27.478  1.00  0.00     0.009 A 
ATOM     75  C   UNL A   1      44.187  33.612  24.984  1.00  0.00     0.001 A 
ATOM     76  C   UNL A   1      45.512  35.061  26.382  1.00  0.00     0.001 A 
ATOM     77  C   UNL A   1      44.988  34.741  25.132  1.00  0.00     0.000 A 
ENDBRANCH  53  72
BRANCH  65  78
ATOM     78  C   UNL A   1      48.556  26.586  29.038  1.00  0.00    -0.014 A 
ATOM     79  C   UNL A   1      49.782  27.146  29.423  1.00  0.00     0.009 A 
ATOM     80  C   UNL A   1      48.553  25.444  28.236  1.00  0.00     0.009 A 
ATOM     81  C   UNL A   1      50.981  26.643  28.927  1.00  0.00     0.001 A 
ATOM     82  C   UNL A   1      49.755  24.919  27.763  1.00  0.00     0.001 A 
ATOM     83  C   UNL A   1      50.964  25.536  28.084  1.00  0.00     0.000 A 
ENDBRANCH  65  78
ENDBRANCH  39  40
ENDBRANCH  32  34
ENDBRANCH  31  32
ENDBRANCH  30  31
ENDBRANCH   1  30
TORSDOF 15
ENDMDL
MODEL 3
REMARK VINA RESULT:     -11.2      4.335      8.920
REMARK SMILES C[C@@H](C(=O)OCCOC(=O)c1ccc(-c2c3nc(c(-c4ccccc4)c4ccc([nH]4)c(-c4ccccc4)c4nc(c(-c5ccccc5)c5ccc2[nH]5)C=C4)C=C3)cc1)N1C(=O)/C(=C/c2ccc(-c3ccc([N+](=O)[O-])cc3Cl)o2)SC1=S
REMARK SMILES IDX 6 1 5 2 3 3 4 4 2 5 1 6 59 7 60 8 80 9 61 10 62 11 79 12
REMARK SMILES IDX 81 13 63 14 64 15 65 16 78 17 66 18 67 19 68 20 69 21 76 22
REMARK SMILES IDX 70 23 75 24 77 25 71 26 72 27 73 28 74 29 7 30 8 31 9 32
REMARK SMILES IDX 10 33 11 34 12 35 58 36 13 37 57 38 14 39 15 40 16 41 51 42
REMARK SMILES IDX 17 43 56 44 50 45 52 46 18 47 55 48 49 49 48 50 19 52 41 53
REMARK SMILES IDX 26 54 40 55 27 56 30 57 39 58 53 59 28 60 29 61 38 63 54 64
REMARK SMILES IDX 31 65 20 66 21 67 25 68 22 69 24 70 23 71 42 72 43 73 47 74
REMARK SMILES IDX 44 75 46 76 45 77 32 78 33 79 37 80 34 81 36 82 35 83
REMARK H PARENT 52 51 30 62
REMARK Flexibility Score: inf
ROOT
ATOM      1  C   UNL A   1      43.491  23.157  25.773  1.00  0.00     0.274 C 
ENDROOT
BRANCH   1   2
ATOM      2  O   UNL A   1      42.512  22.277  25.161  1.00  0.00    -0.461 OA
BRANCH   2   3
ATOM      3  C   UNL A   1      42.261  21.072  25.758  1.00  0.00     0.329 C 
ATOM      4  O   UNL A   1      42.899  20.058  25.500  1.00  0.00    -0.250 OA
BRANCH   3   5
ATOM      5  C   UNL A   1      41.061  21.110  26.769  1.00  0.00     0.199 C 
ATOM      6  C   UNL A   1      41.177  19.933  27.753  1.00  0.00     0.044 C 
BRANCH   5   7
ATOM      7  N   UNL A   1      39.661  21.341  26.196  1.00  0.00    -0.279 N 
ATOM      8  C   UNL A   1      38.983  20.268  25.583  1.00  0.00     0.267 C 
ATOM      9  C   UNL A   1      38.958  22.538  26.147  1.00  0.00     0.149 C 
ATOM     10  O   UNL A   1      39.408  19.130  25.453  1.00  0.00    -0.268 OA
ATOM     11  C   UNL A   1      37.602  20.693  25.107  1.00  0.00     0.084 C 
ATOM     12  S   UNL A   1      37.609  22.407  25.025  1.00  0.00    -0.054 SA
ATOM     13  S   UNL A   1      39.152  23.986  26.945  1.00  0.00    -0.052 S 
ATOM     14  C   UNL A   1      36.503  19.914  24.975  1.00  0.00     0.068 C 
BRANCH  14  15
ATOM     15  C   UNL A   1      35.171  20.456  24.748  1.00  0.00     0.128 A 
ATOM     16  C   UNL A   1      33.933  19.831  24.787  1.00  0.00     0.051 A 
ATOM     17  O   UNL A   1      34.893  21.789  24.451  1.00  0.00    -0.457 OA
ATOM     18  C   UNL A   1      32.937  20.767  24.368  1.00  0.00     0.051 A 
ATOM     19  C   UNL A   1      33.558  21.988  24.128  1.00  0.00     0.136 A 
BRANCH  19  20
ATOM     20  C   UNL A   1      32.984  23.431  24.100  1.00  0.00     0.036 A 
ATOM     21  C   UNL A   1      33.654  24.076  22.653  1.00  0.00     0.020 A 
ATOM     22  C   UNL A   1      31.689  24.336  25.074  1.00  0.00     0.058 A 
ATOM     23  C   UNL A   1      33.055  25.608  22.146  1.00  0.00     0.086 A 
ATOM     24  C   UNL A   1      30.916  25.775  24.631  1.00  0.00     0.106 A 
ATOM     25  Cl  UNL A   1      30.914  24.122  26.661  1.00  0.00    -0.083 Cl
ATOM     26  C   UNL A   1      31.508  26.534  23.228  1.00  0.00     0.270 A 
BRANCH  26  27
ATOM     27  N   UNL A   1      30.635  27.875  23.182  1.00  0.00     0.062 N 
ATOM     28  O   UNL A   1      30.703  28.712  24.097  1.00  0.00    -0.258 OA
ATOM     29  O   UNL A   1      30.003  28.066  22.132  1.00  0.00    -0.258 OA
ENDBRANCH  26  27
ENDBRANCH  19  20
ENDBRANCH  14  15
ENDBRANCH   5   7
ENDBRANCH   3   5
ENDBRANCH   2   3
ENDBRANCH   1   2
BRANCH   1  30
ATOM     30  C   UNL A   1      43.924  24.281  24.826  1.00  0.00     0.275 C 
BRANCH  30  31
ATOM     31  O   UNL A   1      43.974  25.537  25.519  1.00  0.00    -0.458 OA
BRANCH  31  32
ATOM     32  C   UNL A   1      42.769  26.133  25.654  1.00  0.00     0.338 C 
ATOM     33  O   UNL A   1      41.751  25.925  25.020  1.00  0.00    -0.246 OA
BRANCH  32  34
ATOM     34  C   UNL A   1      42.785  26.932  26.873  1.00  0.00     0.060 A 
ATOM     35  C   UNL A   1      42.251  26.330  27.998  1.00  0.00     0.016 A 
ATOM     36  C   UNL A   1      43.183  28.263  26.902  1.00  0.00     0.016 A 
ATOM     37  C   UNL A   1      42.010  27.056  29.129  1.00  0.00     0.010 A 
ATOM     38  C   UNL A   1      43.019  28.982  28.086  1.00  0.00     0.010 A 
ATOM     39  C   UNL A   1      42.393  28.380  29.187  1.00  0.00    -0.014 A 
BRANCH  39  40
ATOM     40  C   UNL A   1      42.133  29.052  30.457  1.00  0.00     0.031 A 
ATOM     41  C   UNL A   1      40.637  29.704  30.658  1.00  0.00     0.074 A 
ATOM     42  C   UNL A   1      43.192  29.008  31.336  1.00  0.00     0.049 A 
ATOM     43  N   UNL A   1      40.012  30.223  31.710  1.00  0.00    -0.248 NA
ATOM     44  C   UNL A   1      39.777  29.790  29.464  1.00  0.00     0.031 C 
ATOM     45  C   UNL A   1      44.485  28.331  31.472  1.00  0.00     0.029 A 
ATOM     46  N   UNL A   1      43.140  29.595  32.540  1.00  0.00    -0.354 N 
ATOM     47  C   UNL A   1      38.890  30.959  31.270  1.00  0.00     0.074 A 
ATOM     48  C   UNL A   1      38.766  30.556  29.871  1.00  0.00     0.031 C 
ATOM     49  C   UNL A   1      44.963  28.510  32.747  1.00  0.00     0.029 A 
ATOM     50  C   UNL A   1      44.062  29.387  33.529  1.00  0.00     0.049 A 
ATOM     51  H   UNL A   1      42.395  30.211  32.723  1.00  0.00     0.167 HD
ATOM     52  C   UNL A   1      38.109  31.947  31.853  1.00  0.00     0.031 A 
ATOM     53  C   UNL A   1      44.077  29.827  34.850  1.00  0.00     0.031 A 
ATOM     54  C   UNL A   1      38.193  32.615  33.193  1.00  0.00     0.049 A 
ATOM     55  C   UNL A   1      43.002  30.823  35.730  1.00  0.00     0.074 A 
ATOM     56  C   UNL A   1      37.406  33.671  33.667  1.00  0.00     0.029 A 
ATOM     57  N   UNL A   1      39.048  32.359  34.272  1.00  0.00    -0.354 N 
ATOM     58  N   UNL A   1      41.341  31.510  35.479  1.00  0.00    -0.248 NA
ATOM     59  C   UNL A   1      43.513  31.560  37.573  1.00  0.00     0.031 C 
ATOM     60  C   UNL A   1      37.861  34.102  34.934  1.00  0.00     0.029 A 
ATOM     61  C   UNL A   1      38.898  33.282  35.341  1.00  0.00     0.049 A 
ATOM     62  H   UNL A   1      39.692  31.614  34.287  1.00  0.00     0.167 HD
ATOM     63  C   UNL A   1      40.777  32.577  36.829  1.00  0.00     0.074 A 
ATOM     64  C   UNL A   1      42.215  32.516  38.123  1.00  0.00     0.031 C 
ATOM     65  C   UNL A   1      39.694  33.355  36.593  1.00  0.00     0.031 A 
BRANCH  52  66
ATOM     66  C   UNL A   1      37.001  32.518  30.936  1.00  0.00    -0.014 A 
ATOM     67  C   UNL A   1      35.669  32.078  31.044  1.00  0.00     0.009 A 
ATOM     68  C   UNL A   1      37.269  33.554  30.015  1.00  0.00     0.009 A 
ATOM     69  C   UNL A   1      34.653  32.631  30.248  1.00  0.00     0.001 A 
ATOM     70  C   UNL A   1      36.244  34.140  29.255  1.00  0.00     0.001 A 
ATOM     71  C   UNL A   1      34.937  33.670  29.364  1.00  0.00     0.000 A 
ENDBRANCH  52  66
BRANCH  53  72
ATOM     72  C   UNL A   1      45.227  29.398  35.706  1.00  0.00    -0.014 A 
ATOM     73  C   UNL A   1      46.415  30.148  35.724  1.00  0.00     0.009 A 
ATOM     74  C   UNL A   1      45.178  28.213  36.454  1.00  0.00     0.009 A 
ATOM     75  C   UNL A   1      47.535  29.701  36.432  1.00  0.00     0.001 A 
ATOM     76  C   UNL A   1      46.281  27.791  37.201  1.00  0.00     0.001 A 
ATOM     77  C   UNL A   1      47.464  28.525  37.175  1.00  0.00     0.000 A 
ENDBRANCH  53  72
BRANCH  65  78
ATOM     78  C   UNL A   1      39.425  34.349  37.649  1.00  0.00    -0.014 A 
ATOM     79  C   UNL A   1      39.761  35.701  37.485  1.00  0.00     0.009 A 
ATOM     80  C   UNL A   1      38.849  33.933  38.850  1.00  0.00     0.009 A 
ATOM     81  C   UNL A   1      39.627  36.599  38.540  1.00  0.00     0.001 A 
ATOM     82  C   UNL A   1      38.686  34.839  39.897  1.00  0.00     0.001 A 
ATOM     83  C   UNL A   1      39.101  36.163  39.751  1.00  0.00     0.000 A 
ENDBRANCH  65  78
ENDBRANCH  39  40
ENDBRANCH  32  34
ENDBRANCH  31  32
ENDBRANCH  30  31
ENDBRANCH   1  30
TORSDOF 15
ENDMDL
