MODEL 1
REMARK VINA RESULT:     -11.9      0.000      0.000
REMARK SMILES Cc1ccc(CN2/C(=[NH+]/C(=O)CCC(=O)OCCOC(=O)c3ccc(-c4c5nc(c(-c6ccccc6)c6ccc([nH]6)c(-c6ccccc6)c6nc(c(-c7ccccc7)c7ccc4[nH]7)C=C6)C=C5)cc3)S[C@H]3CS(=O)(=O)C[C@@H]32)cc1
REMARK SMILES IDX 17 1 16 2 14 3 15 4 13 5 12 6 10 7 7 8 8 9 77 10 9 11 70 12
REMARK SMILES IDX 71 13 76 14 72 16 73 17 11 18 74 19 75 20 6 21 5 22 1 23
REMARK SMILES IDX 2 24 3 25 79 26 4 27 78 28 18 29 19 30 20 31 21 32 22 33
REMARK SMILES IDX 23 34 69 35 24 36 68 37 25 38 26 39 27 40 62 41 28 42 67 43
REMARK SMILES IDX 61 44 63 45 29 46 66 47 60 48 59 49 30 51 52 52 37 53 51 54
REMARK SMILES IDX 38 55 41 56 50 57 64 58 39 59 40 60 49 62 65 63 42 64 31 65
REMARK SMILES IDX 32 66 36 67 33 68 35 69 34 70 53 71 54 72 58 73 55 74 57 75
REMARK SMILES IDX 56 76 43 77 44 78 48 79 45 80 47 81 46 82
REMARK H PARENT 9 15 63 50 41 61
REMARK Flexibility Score: inf
ROOT
ATOM      1  C   UNL A   1      33.460  30.997  27.432  1.00  0.00     0.274 C 
ENDROOT
BRANCH   1   2
ATOM      2  O   UNL A   1      32.512  30.224  26.714  1.00  0.00    -0.462 OA
BRANCH   2   3
ATOM      3  C   UNL A   1      32.444  28.905  27.063  1.00  0.00     0.306 C 
ATOM      4  O   UNL A   1      31.590  28.357  27.741  1.00  0.00    -0.252 OA
BRANCH   3   5
ATOM      5  C   UNL A   1      33.721  28.261  26.661  1.00  0.00     0.135 C 
BRANCH   5   6
ATOM      6  C   UNL A   1      33.636  28.066  25.156  1.00  0.00     0.139 C 
BRANCH   6   7
ATOM      7  C   UNL A   1      33.283  26.643  24.696  1.00  0.00     0.308 C 
ATOM      8  N   UNL A   1      34.936  23.343  24.828  1.00  0.00    -0.247 N 
ATOM      9  C   UNL A   1      34.183  24.526  25.044  1.00  0.00     0.314 C 
ATOM     10  C   UNL A   1      33.957  22.268  24.638  1.00  0.00     0.206 C 
ATOM     11  N   UNL A   1      34.315  25.713  24.541  1.00  0.00    -0.205 N 
ATOM     12  S   UNL A   1      32.759  24.098  26.072  1.00  0.00    -0.030 SA
ATOM     13  C   UNL A   1      33.039  22.341  25.860  1.00  0.00     0.120 C 
ATOM     14  C   UNL A   1      34.306  20.808  24.567  1.00  0.00     0.187 C 
ATOM     15  H   UNL A   1      35.135  25.958  24.054  1.00  0.00     0.316 HD
ATOM     16  C   UNL A   1      31.871  21.448  25.511  1.00  0.00     0.156 C 
ATOM     17  S   UNL A   1      32.693  20.041  24.746  1.00  0.00     0.155 S 
ATOM     18  O   UNL A   1      32.134  26.436  24.306  1.00  0.00    -0.247 OA
ATOM     19  O   UNL A   1      32.815  18.976  25.731  1.00  0.00    -0.229 OA
ATOM     20  O   UNL A   1      32.147  19.824  23.434  1.00  0.00    -0.229 OA
BRANCH   8  21
ATOM     21  C   UNL A   1      36.277  23.208  24.229  1.00  0.00     0.273 C 
BRANCH  21  22
ATOM     22  C   UNL A   1      37.434  23.076  25.236  1.00  0.00    -0.007 A 
ATOM     23  C   UNL A   1      41.075  22.879  27.611  1.00  0.00     0.044 C 
ATOM     24  C   UNL A   1      39.743  22.878  26.925  1.00  0.00    -0.051 A 
ATOM     25  C   UNL A   1      39.299  21.785  26.189  1.00  0.00     0.004 A 
ATOM     26  C   UNL A   1      38.941  24.009  26.945  1.00  0.00     0.004 A 
ATOM     27  C   UNL A   1      38.160  21.885  25.364  1.00  0.00     0.008 A 
ATOM     28  C   UNL A   1      37.786  24.077  26.150  1.00  0.00     0.008 A 
ENDBRANCH  21  22
ENDBRANCH   8  21
ENDBRANCH   6   7
ENDBRANCH   5   6
ENDBRANCH   3   5
ENDBRANCH   2   3
ENDBRANCH   1   2
BRANCH   1  29
ATOM     29  C   UNL A   1      33.022  32.454  27.556  1.00  0.00     0.275 C 
BRANCH  29  30
ATOM     30  O   UNL A   1      33.893  33.454  28.165  1.00  0.00    -0.458 OA
BRANCH  30  31
ATOM     31  C   UNL A   1      34.243  33.485  29.479  1.00  0.00     0.338 C 
ATOM     32  O   UNL A   1      33.695  34.203  30.301  1.00  0.00    -0.246 OA
BRANCH  31  33
ATOM     33  C   UNL A   1      35.434  32.675  29.816  1.00  0.00     0.060 A 
ATOM     34  C   UNL A   1      35.363  31.510  30.606  1.00  0.00     0.016 A 
ATOM     35  C   UNL A   1      36.619  33.021  29.202  1.00  0.00     0.016 A 
ATOM     36  C   UNL A   1      36.493  30.684  30.735  1.00  0.00     0.010 A 
ATOM     37  C   UNL A   1      37.573  32.058  29.086  1.00  0.00     0.010 A 
ATOM     38  C   UNL A   1      37.601  30.967  29.943  1.00  0.00    -0.014 A 
BRANCH  38  39
ATOM     39  C   UNL A   1      38.948  30.407  30.020  1.00  0.00     0.031 A 
ATOM     40  C   UNL A   1      39.333  29.178  29.323  1.00  0.00     0.074 A 
ATOM     41  C   UNL A   1      39.859  31.200  30.647  1.00  0.00     0.049 A 
ATOM     42  N   UNL A   1      40.124  28.291  29.816  1.00  0.00    -0.248 NA
ATOM     43  C   UNL A   1      38.890  28.863  27.969  1.00  0.00     0.031 C 
ATOM     44  C   UNL A   1      41.285  31.041  30.842  1.00  0.00     0.029 A 
ATOM     45  N   UNL A   1      39.582  32.366  31.372  1.00  0.00    -0.354 N 
ATOM     46  C   UNL A   1      40.574  27.534  28.753  1.00  0.00     0.074 A 
ATOM     47  C   UNL A   1      39.655  27.802  27.672  1.00  0.00     0.031 C 
ATOM     48  C   UNL A   1      41.667  31.823  31.878  1.00  0.00     0.029 A 
ATOM     49  C   UNL A   1      40.466  32.438  32.435  1.00  0.00     0.049 A 
ATOM     50  H   UNL A   1      38.879  33.023  31.163  1.00  0.00     0.167 HD
ATOM     51  C   UNL A   1      41.808  26.953  28.818  1.00  0.00     0.031 A 
ATOM     52  C   UNL A   1      39.962  32.298  33.698  1.00  0.00     0.031 A 
ATOM     53  C   UNL A   1      42.509  27.391  30.030  1.00  0.00     0.049 A 
ATOM     54  C   UNL A   1      40.415  30.953  34.220  1.00  0.00     0.074 A 
ATOM     55  C   UNL A   1      43.538  28.300  30.227  1.00  0.00     0.029 A 
ATOM     56  N   UNL A   1      41.933  27.175  31.278  1.00  0.00    -0.354 N 
ATOM     57  N   UNL A   1      40.701  29.937  33.445  1.00  0.00    -0.248 NA
ATOM     58  C   UNL A   1      40.718  30.691  35.622  1.00  0.00     0.031 C 
ATOM     59  C   UNL A   1      43.508  28.701  31.593  1.00  0.00     0.029 A 
ATOM     60  C   UNL A   1      42.468  28.032  32.222  1.00  0.00     0.049 A 
ATOM     61  H   UNL A   1      41.239  26.503  31.465  1.00  0.00     0.167 HD
ATOM     62  C   UNL A   1      41.382  29.001  34.167  1.00  0.00     0.074 A 
ATOM     63  C   UNL A   1      41.301  29.482  35.539  1.00  0.00     0.031 C 
ATOM     64  C   UNL A   1      42.042  27.944  33.612  1.00  0.00     0.031 A 
BRANCH  51  65
ATOM     65  C   UNL A   1      42.513  26.256  27.671  1.00  0.00    -0.014 A 
ATOM     66  C   UNL A   1      42.064  26.460  26.350  1.00  0.00     0.009 A 
ATOM     67  C   UNL A   1      43.640  25.426  27.808  1.00  0.00     0.009 A 
ATOM     68  C   UNL A   1      42.658  25.834  25.244  1.00  0.00     0.001 A 
ATOM     69  C   UNL A   1      44.228  24.777  26.707  1.00  0.00     0.001 A 
ATOM     70  C   UNL A   1      43.734  24.979  25.424  1.00  0.00     0.000 A 
ENDBRANCH  51  65
BRANCH  52  71
ATOM     71  C   UNL A   1      38.615  32.957  33.871  1.00  0.00    -0.014 A 
ATOM     72  C   UNL A   1      38.462  34.244  33.295  1.00  0.00     0.009 A 
ATOM     73  C   UNL A   1      37.441  32.242  34.166  1.00  0.00     0.009 A 
ATOM     74  C   UNL A   1      37.209  34.734  32.900  1.00  0.00     0.001 A 
ATOM     75  C   UNL A   1      36.181  32.758  33.802  1.00  0.00     0.001 A 
ATOM     76  C   UNL A   1      36.068  33.978  33.135  1.00  0.00     0.000 A 
ENDBRANCH  52  71
BRANCH  64  77
ATOM     77  C   UNL A   1      42.434  26.704  34.366  1.00  0.00    -0.014 A 
ATOM     78  C   UNL A   1      41.529  25.956  35.127  1.00  0.00     0.009 A 
ATOM     79  C   UNL A   1      43.710  26.138  34.144  1.00  0.00     0.009 A 
ATOM     80  C   UNL A   1      41.897  24.727  35.678  1.00  0.00     0.001 A 
ATOM     81  C   UNL A   1      44.057  24.883  34.635  1.00  0.00     0.001 A 
ATOM     82  C   UNL A   1      43.152  24.184  35.418  1.00  0.00     0.000 A 
ENDBRANCH  64  77
ENDBRANCH  38  39
ENDBRANCH  31  33
ENDBRANCH  30  31
ENDBRANCH  29  30
ENDBRANCH   1  29
TORSDOF 15
ENDMDL
MODEL 2
REMARK VINA RESULT:     -11.4      3.110      9.183
REMARK SMILES Cc1ccc(CN2/C(=[NH+]/C(=O)CCC(=O)OCCOC(=O)c3ccc(-c4c5nc(c(-c6ccccc6)c6ccc([nH]6)c(-c6ccccc6)c6nc(c(-c7ccccc7)c7ccc4[nH]7)C=C6)C=C5)cc3)S[C@H]3CS(=O)(=O)C[C@@H]32)cc1
REMARK SMILES IDX 17 1 16 2 14 3 15 4 13 5 12 6 10 7 7 8 8 9 77 10 9 11 70 12
REMARK SMILES IDX 71 13 76 14 72 16 73 17 11 18 74 19 75 20 6 21 5 22 1 23
REMARK SMILES IDX 2 24 3 25 79 26 4 27 78 28 18 29 19 30 20 31 21 32 22 33
REMARK SMILES IDX 23 34 69 35 24 36 68 37 25 38 26 39 27 40 62 41 28 42 67 43
REMARK SMILES IDX 61 44 63 45 29 46 66 47 60 48 59 49 30 51 52 52 37 53 51 54
REMARK SMILES IDX 38 55 41 56 50 57 64 58 39 59 40 60 49 62 65 63 42 64 31 65
REMARK SMILES IDX 32 66 36 67 33 68 35 69 34 70 53 71 54 72 58 73 55 74 57 75
REMARK SMILES IDX 56 76 43 77 44 78 48 79 45 80 47 81 46 82
REMARK H PARENT 9 15 63 50 41 61
REMARK Flexibility Score: inf
ROOT
ATOM      1  C   UNL A   1      37.330  20.740  25.161  1.00  0.00     0.274 C 
ENDROOT
BRANCH   1   2
ATOM      2  O   UNL A   1      36.123  21.224  25.726  1.00  0.00    -0.462 OA
BRANCH   2   3
ATOM      3  C   UNL A   1      35.592  22.328  25.121  1.00  0.00     0.306 C 
ATOM      4  O   UNL A   1      35.425  22.515  23.927  1.00  0.00    -0.252 OA
BRANCH   3   5
ATOM      5  C   UNL A   1      35.443  23.385  26.154  1.00  0.00     0.135 C 
BRANCH   5   6
ATOM      6  C   UNL A   1      34.061  23.190  26.758  1.00  0.00     0.139 C 
BRANCH   6   7
ATOM      7  C   UNL A   1      32.937  24.009  26.106  1.00  0.00     0.308 C 
ATOM      8  N   UNL A   1      32.187  27.602  25.701  1.00  0.00    -0.247 N 
ATOM      9  C   UNL A   1      32.619  26.255  25.591  1.00  0.00     0.314 C 
ATOM     10  C   UNL A   1      31.219  27.809  24.618  1.00  0.00     0.206 C 
ATOM     11  N   UNL A   1      32.764  25.339  26.496  1.00  0.00    -0.205 N 
ATOM     12  S   UNL A   1      32.787  25.868  23.833  1.00  0.00    -0.030 SA
ATOM     13  C   UNL A   1      31.944  27.372  23.344  1.00  0.00     0.120 C 
ATOM     14  C   UNL A   1      30.646  29.145  24.238  1.00  0.00     0.187 C 
ATOM     15  H   UNL A   1      32.753  25.580  27.451  1.00  0.00     0.316 HD
ATOM     16  C   UNL A   1      30.857  27.297  22.297  1.00  0.00     0.156 C 
ATOM     17  S   UNL A   1      29.897  28.779  22.649  1.00  0.00     0.155 S 
ATOM     18  O   UNL A   1      32.122  23.407  25.406  1.00  0.00    -0.247 OA
ATOM     19  O   UNL A   1      30.293  29.827  21.719  1.00  0.00    -0.229 OA
ATOM     20  O   UNL A   1      28.524  28.417  22.869  1.00  0.00    -0.229 OA
BRANCH   8  21
ATOM     21  C   UNL A   1      32.099  28.440  26.913  1.00  0.00     0.273 C 
BRANCH  21  22
ATOM     22  C   UNL A   1      33.300  29.374  27.151  1.00  0.00    -0.007 A 
ATOM     23  C   UNL A   1      36.571  31.940  28.435  1.00  0.00     0.044 C 
ATOM     24  C   UNL A   1      35.480  31.106  27.836  1.00  0.00    -0.051 A 
ATOM     25  C   UNL A   1      34.203  31.612  27.625  1.00  0.00     0.004 A 
ATOM     26  C   UNL A   1      35.698  29.769  27.542  1.00  0.00     0.004 A 
ATOM     27  C   UNL A   1      33.134  30.758  27.283  1.00  0.00     0.008 A 
ATOM     28  C   UNL A   1      34.631  28.939  27.161  1.00  0.00     0.008 A 
ENDBRANCH  21  22
ENDBRANCH   8  21
ENDBRANCH   6   7
ENDBRANCH   5   6
ENDBRANCH   3   5
ENDBRANCH   2   3
ENDBRANCH   1   2
BRANCH   1  29
ATOM     29  C   UNL A   1      38.526  21.596  25.569  1.00  0.00     0.275 C 
BRANCH  29  30
ATOM     30  O   UNL A   1      39.655  21.019  26.292  1.00  0.00    -0.458 OA
BRANCH  30  31
ATOM     31  C   UNL A   1      40.949  21.415  26.159  1.00  0.00     0.338 C 
ATOM     32  O   UNL A   1      41.844  20.668  25.795  1.00  0.00    -0.246 OA
BRANCH  31  33
ATOM     33  C   UNL A   1      41.219  22.795  26.620  1.00  0.00     0.060 A 
ATOM     34  C   UNL A   1      40.924  23.929  25.838  1.00  0.00     0.016 A 
ATOM     35  C   UNL A   1      41.644  22.947  27.923  1.00  0.00     0.016 A 
ATOM     36  C   UNL A   1      41.027  25.212  26.401  1.00  0.00     0.010 A 
ATOM     37  C   UNL A   1      41.428  24.150  28.519  1.00  0.00     0.010 A 
ATOM     38  C   UNL A   1      41.268  25.306  27.768  1.00  0.00    -0.014 A 
BRANCH  38  39
ATOM     39  C   UNL A   1      41.614  26.485  28.558  1.00  0.00     0.031 A 
ATOM     40  C   UNL A   1      40.616  27.461  29.000  1.00  0.00     0.074 A 
ATOM     41  C   UNL A   1      42.903  26.520  28.993  1.00  0.00     0.049 A 
ATOM     42  N   UNL A   1      40.821  28.730  29.040  1.00  0.00    -0.248 NA
ATOM     43  C   UNL A   1      39.295  27.078  29.488  1.00  0.00     0.031 C 
ATOM     44  C   UNL A   1      43.591  27.456  29.857  1.00  0.00     0.029 A 
ATOM     45  N   UNL A   1      43.936  25.660  28.596  1.00  0.00    -0.354 N 
ATOM     46  C   UNL A   1      39.859  29.256  29.878  1.00  0.00     0.074 A 
ATOM     47  C   UNL A   1      38.841  28.238  29.982  1.00  0.00     0.031 C 
ATOM     48  C   UNL A   1      44.922  27.342  29.643  1.00  0.00     0.029 A 
ATOM     49  C   UNL A   1      45.115  26.383  28.558  1.00  0.00     0.049 A 
ATOM     50  H   UNL A   1      43.839  24.704  28.380  1.00  0.00     0.167 HD
ATOM     51  C   UNL A   1      40.135  30.389  30.588  1.00  0.00     0.031 A 
ATOM     52  C   UNL A   1      45.693  26.602  27.339  1.00  0.00     0.031 A 
ATOM     53  C   UNL A   1      41.541  30.769  30.408  1.00  0.00     0.049 A 
ATOM     54  C   UNL A   1      45.512  28.068  27.009  1.00  0.00     0.074 A 
ATOM     55  C   UNL A   1      42.647  30.646  31.236  1.00  0.00     0.029 A 
ATOM     56  N   UNL A   1      42.035  31.006  29.129  1.00  0.00    -0.354 N 
ATOM     57  N   UNL A   1      44.533  28.797  27.480  1.00  0.00    -0.248 NA
ATOM     58  C   UNL A   1      46.481  28.850  26.252  1.00  0.00     0.031 C 
ATOM     59  C   UNL A   1      43.811  30.715  30.419  1.00  0.00     0.029 A 
ATOM     60  C   UNL A   1      43.411  30.885  29.102  1.00  0.00     0.049 A 
ATOM     61  H   UNL A   1      41.479  31.231  28.349  1.00  0.00     0.167 HD
ATOM     62  C   UNL A   1      44.822  30.116  27.280  1.00  0.00     0.074 A 
ATOM     63  C   UNL A   1      46.012  30.096  26.442  1.00  0.00     0.031 C 
ATOM     64  C   UNL A   1      44.142  31.142  27.868  1.00  0.00     0.031 A 
BRANCH  51  65
ATOM     65  C   UNL A   1      39.262  30.977  31.679  1.00  0.00    -0.014 A 
ATOM     66  C   UNL A   1      39.363  30.482  32.996  1.00  0.00     0.009 A 
ATOM     67  C   UNL A   1      38.357  32.038  31.498  1.00  0.00     0.009 A 
ATOM     68  C   UNL A   1      38.575  30.968  34.050  1.00  0.00     0.001 A 
ATOM     69  C   UNL A   1      37.547  32.517  32.544  1.00  0.00     0.001 A 
ATOM     70  C   UNL A   1      37.654  31.978  33.820  1.00  0.00     0.000 A 
ENDBRANCH  51  65
BRANCH  52  71
ATOM     71  C   UNL A   1      45.576  25.419  26.410  1.00  0.00    -0.014 A 
ATOM     72  C   UNL A   1      46.102  24.189  26.883  1.00  0.00     0.009 A 
ATOM     73  C   UNL A   1      44.648  25.356  25.357  1.00  0.00     0.009 A 
ATOM     74  C   UNL A   1      45.621  22.954  26.428  1.00  0.00     0.001 A 
ATOM     75  C   UNL A   1      44.197  24.110  24.875  1.00  0.00     0.001 A 
ATOM     76  C   UNL A   1      44.649  22.915  25.437  1.00  0.00     0.000 A 
ENDBRANCH  52  71
BRANCH  64  77
ATOM     77  C   UNL A   1      44.154  32.559  27.368  1.00  0.00    -0.014 A 
ATOM     78  C   UNL A   1      43.952  32.895  26.025  1.00  0.00     0.009 A 
ATOM     79  C   UNL A   1      44.161  33.619  28.303  1.00  0.00     0.009 A 
ATOM     80  C   UNL A   1      43.812  34.227  25.631  1.00  0.00     0.001 A 
ATOM     81  C   UNL A   1      43.954  34.941  27.921  1.00  0.00     0.001 A 
ATOM     82  C   UNL A   1      43.795  35.246  26.579  1.00  0.00     0.000 A 
ENDBRANCH  64  77
ENDBRANCH  38  39
ENDBRANCH  31  33
ENDBRANCH  30  31
ENDBRANCH  29  30
ENDBRANCH   1  29
TORSDOF 15
ENDMDL
MODEL 3
REMARK VINA RESULT:     -11.3      1.881      2.950
REMARK SMILES Cc1ccc(CN2/C(=[NH+]/C(=O)CCC(=O)OCCOC(=O)c3ccc(-c4c5nc(c(-c6ccccc6)c6ccc([nH]6)c(-c6ccccc6)c6nc(c(-c7ccccc7)c7ccc4[nH]7)C=C6)C=C5)cc3)S[C@H]3CS(=O)(=O)C[C@@H]32)cc1
REMARK SMILES IDX 17 1 16 2 14 3 15 4 13 5 12 6 10 7 7 8 8 9 77 10 9 11 70 12
REMARK SMILES IDX 71 13 76 14 72 16 73 17 11 18 74 19 75 20 6 21 5 22 1 23
REMARK SMILES IDX 2 24 3 25 79 26 4 27 78 28 18 29 19 30 20 31 21 32 22 33
REMARK SMILES IDX 23 34 69 35 24 36 68 37 25 38 26 39 27 40 62 41 28 42 67 43
REMARK SMILES IDX 61 44 63 45 29 46 66 47 60 48 59 49 30 51 52 52 37 53 51 54
REMARK SMILES IDX 38 55 41 56 50 57 64 58 39 59 40 60 49 62 65 63 42 64 31 65
REMARK SMILES IDX 32 66 36 67 33 68 35 69 34 70 53 71 54 72 58 73 55 74 57 75
REMARK SMILES IDX 56 76 43 77 44 78 48 79 45 80 47 81 46 82
REMARK H PARENT 9 15 63 50 41 61
REMARK Flexibility Score: inf
ROOT
ATOM      1  C   UNL A   1      32.725  30.090  26.404  1.00  0.00     0.274 C 
ENDROOT
BRANCH   1   2
ATOM      2  O   UNL A   1      33.280  29.010  25.671  1.00  0.00    -0.462 OA
BRANCH   2   3
ATOM      3  C   UNL A   1      32.932  28.955  24.352  1.00  0.00     0.306 C 
ATOM      4  O   UNL A   1      31.928  29.408  23.827  1.00  0.00    -0.252 OA
BRANCH   3   5
ATOM      5  C   UNL A   1      33.886  28.045  23.667  1.00  0.00     0.135 C 
BRANCH   5   6
ATOM      6  C   UNL A   1      33.144  27.490  22.461  1.00  0.00     0.139 C 
BRANCH   6   7
ATOM      7  C   UNL A   1      32.875  25.978  22.493  1.00  0.00     0.308 C 
ATOM      8  N   UNL A   1      34.642  23.013  23.805  1.00  0.00    -0.247 N 
ATOM      9  C   UNL A   1      33.833  24.155  23.575  1.00  0.00     0.314 C 
ATOM     10  C   UNL A   1      33.719  21.881  23.944  1.00  0.00     0.206 C 
ATOM     11  N   UNL A   1      33.949  25.110  22.707  1.00  0.00    -0.205 N 
ATOM     12  S   UNL A   1      32.364  24.015  24.621  1.00  0.00    -0.030 SA
ATOM     13  C   UNL A   1      32.725  22.306  25.027  1.00  0.00     0.120 C 
ATOM     14  C   UNL A   1      34.128  20.504  24.386  1.00  0.00     0.187 C 
ATOM     15  H   UNL A   1      34.788  25.224  22.205  1.00  0.00     0.316 HD
ATOM     16  C   UNL A   1      31.616  21.283  24.946  1.00  0.00     0.156 C 
ATOM     17  S   UNL A   1      32.538  19.751  24.739  1.00  0.00     0.155 S 
ATOM     18  O   UNL A   1      31.761  25.587  22.143  1.00  0.00    -0.247 OA
ATOM     19  O   UNL A   1      32.638  19.085  26.030  1.00  0.00    -0.229 OA
ATOM     20  O   UNL A   1      32.083  19.076  23.554  1.00  0.00    -0.229 OA
BRANCH   8  21
ATOM     21  C   UNL A   1      36.022  22.762  23.348  1.00  0.00     0.273 C 
BRANCH  21  22
ATOM     22  C   UNL A   1      37.040  22.473  24.467  1.00  0.00    -0.007 A 
ATOM     23  C   UNL A   1      40.354  21.800  27.206  1.00  0.00     0.044 C 
ATOM     24  C   UNL A   1      39.114  21.970  26.384  1.00  0.00    -0.051 A 
ATOM     25  C   UNL A   1      38.629  20.953  25.570  1.00  0.00     0.004 A 
ATOM     26  C   UNL A   1      38.450  23.187  26.355  1.00  0.00     0.004 A 
ATOM     27  C   UNL A   1      37.605  21.203  24.632  1.00  0.00     0.008 A 
ATOM     28  C   UNL A   1      37.403  23.407  25.445  1.00  0.00     0.008 A 
ENDBRANCH  21  22
ENDBRANCH   8  21
ENDBRANCH   6   7
ENDBRANCH   5   6
ENDBRANCH   3   5
ENDBRANCH   2   3
ENDBRANCH   1   2
BRANCH   1  29
ATOM     29  C   UNL A   1      33.557  30.420  27.641  1.00  0.00     0.275 C 
BRANCH  29  30
ATOM     30  O   UNL A   1      34.998  30.192  27.662  1.00  0.00    -0.458 OA
BRANCH  30  31
ATOM     31  C   UNL A   1      35.877  30.844  28.470  1.00  0.00     0.338 C 
ATOM     32  O   UNL A   1      35.711  31.993  28.851  1.00  0.00    -0.246 OA
BRANCH  31  33
ATOM     33  C   UNL A   1      37.125  30.099  28.746  1.00  0.00     0.060 A 
ATOM     34  C   UNL A   1      37.194  29.056  29.691  1.00  0.00     0.016 A 
ATOM     35  C   UNL A   1      38.206  30.366  27.933  1.00  0.00     0.016 A 
ATOM     36  C   UNL A   1      38.353  28.265  29.774  1.00  0.00     0.010 A 
ATOM     37  C   UNL A   1      39.161  29.404  27.819  1.00  0.00     0.010 A 
ATOM     38  C   UNL A   1      39.335  28.444  28.805  1.00  0.00    -0.014 A 
BRANCH  38  39
ATOM     39  C   UNL A   1      40.695  27.911  28.771  1.00  0.00     0.031 A 
ATOM     40  C   UNL A   1      41.028  26.638  28.129  1.00  0.00     0.074 A 
ATOM     41  C   UNL A   1      41.651  28.763  29.230  1.00  0.00     0.049 A 
ATOM     42  N   UNL A   1      41.889  25.803  28.594  1.00  0.00    -0.248 NA
ATOM     43  C   UNL A   1      40.445  26.213  26.861  1.00  0.00     0.031 C 
ATOM     44  C   UNL A   1      43.094  28.641  29.274  1.00  0.00     0.029 A 
ATOM     45  N   UNL A   1      41.431  29.978  29.893  1.00  0.00    -0.354 N 
ATOM     46  C   UNL A   1      42.236  24.974  27.547  1.00  0.00     0.074 A 
ATOM     47  C   UNL A   1      41.196  25.144  26.560  1.00  0.00     0.031 C 
ATOM     48  C   UNL A   1      43.571  29.505  30.199  1.00  0.00     0.029 A 
ATOM     49  C   UNL A   1      42.425  30.144  30.841  1.00  0.00     0.049 A 
ATOM     50  H   UNL A   1      40.693  30.606  29.716  1.00  0.00     0.167 HD
ATOM     51  C   UNL A   1      43.482  24.417  27.516  1.00  0.00     0.031 A 
ATOM     52  C   UNL A   1      42.068  30.094  32.160  1.00  0.00     0.031 A 
ATOM     53  C   UNL A   1      44.304  24.957  28.605  1.00  0.00     0.049 A 
ATOM     54  C   UNL A   1      42.609  28.799  32.726  1.00  0.00     0.074 A 
ATOM     55  C   UNL A   1      45.327  25.893  28.616  1.00  0.00     0.029 A 
ATOM     56  N   UNL A   1      43.876  24.830  29.923  1.00  0.00    -0.354 N 
ATOM     57  N   UNL A   1      42.829  27.732  32.002  1.00  0.00    -0.248 NA
ATOM     58  C   UNL A   1      43.071  28.651  34.100  1.00  0.00     0.031 C 
ATOM     59  C   UNL A   1      45.440  26.398  29.942  1.00  0.00     0.029 A 
ATOM     60  C   UNL A   1      44.493  25.764  30.733  1.00  0.00     0.049 A 
ATOM     61  H   UNL A   1      43.223  24.164  30.236  1.00  0.00     0.167 HD
ATOM     62  C   UNL A   1      43.608  26.864  32.711  1.00  0.00     0.074 A 
ATOM     63  C   UNL A   1      43.669  27.448  34.043  1.00  0.00     0.031 C 
ATOM     64  C   UNL A   1      44.227  25.776  32.165  1.00  0.00     0.031 A 
BRANCH  51  65
ATOM     65  C   UNL A   1      44.071  23.644  26.352  1.00  0.00    -0.014 A 
ATOM     66  C   UNL A   1      43.884  22.248  26.277  1.00  0.00     0.009 A 
ATOM     67  C   UNL A   1      44.775  24.220  25.280  1.00  0.00     0.009 A 
ATOM     68  C   UNL A   1      44.414  21.468  25.239  1.00  0.00     0.001 A 
ATOM     69  C   UNL A   1      45.329  23.444  24.246  1.00  0.00     0.001 A 
ATOM     70  C   UNL A   1      45.151  22.066  24.228  1.00  0.00     0.000 A 
ENDBRANCH  51  65
BRANCH  52  71
ATOM     71  C   UNL A   1      40.734  30.744  32.434  1.00  0.00    -0.014 A 
ATOM     72  C   UNL A   1      40.454  31.938  31.720  1.00  0.00     0.009 A 
ATOM     73  C   UNL A   1      39.641  30.054  32.984  1.00  0.00     0.009 A 
ATOM     74  C   UNL A   1      39.141  32.346  31.447  1.00  0.00     0.001 A 
ATOM     75  C   UNL A   1      38.323  30.492  32.739  1.00  0.00     0.001 A 
ATOM     76  C   UNL A   1      38.073  31.607  31.939  1.00  0.00     0.000 A 
ENDBRANCH  52  71
BRANCH  64  77
ATOM     77  C   UNL A   1      44.728  24.605  32.960  1.00  0.00    -0.014 A 
ATOM     78  C   UNL A   1      46.004  24.560  33.532  1.00  0.00     0.009 A 
ATOM     79  C   UNL A   1      43.820  23.587  33.332  1.00  0.00     0.009 A 
ATOM     80  C   UNL A   1      46.370  23.525  34.394  1.00  0.00     0.001 A 
ATOM     81  C   UNL A   1      44.160  22.592  34.244  1.00  0.00     0.001 A 
ATOM     82  C   UNL A   1      45.445  22.553  34.763  1.00  0.00     0.000 A 
ENDBRANCH  64  77
ENDBRANCH  38  39
ENDBRANCH  31  33
ENDBRANCH  30  31
ENDBRANCH  29  30
ENDBRANCH   1  29
TORSDOF 15
ENDMDL
