MODEL 1
REMARK VINA RESULT:     -10.8      0.000      0.000
REMARK SMILES CC(C)CN(C)c1cc2c(cc1Cl)C=C(C(=O)OCCOC(=O)c1ccc(-c3c4nc(c(-c5ccccc5)c5ccc([nH]5)c(-c5ccccc5)c5nc(c(-c6ccccc6)c6ccc3[nH]6)C=C5)C=C4)cc1)[C@H](C(F)(F)F)O2
REMARK SMILES IDX 19 1 18 2 16 3 17 4 15 5 7 6 8 7 12 8 9 9 11 10 13 11 10 12
REMARK SMILES IDX 77 13 14 14 72 15 5 16 6 17 4 18 2 19 1 20 3 21 73 22 74 23
REMARK SMILES IDX 75 24 76 25 20 26 21 27 22 28 23 29 24 30 25 31 71 32 26 33
REMARK SMILES IDX 70 34 27 35 28 36 29 37 64 38 30 39 69 40 63 41 65 42 31 43
REMARK SMILES IDX 68 44 62 45 61 46 32 48 54 49 39 50 53 51 40 52 43 53 52 54
REMARK SMILES IDX 66 55 41 56 42 57 51 59 67 60 44 61 33 62 34 63 38 64 35 65
REMARK SMILES IDX 37 66 36 67 55 68 56 69 60 70 57 71 59 72 58 73 45 74 46 75
REMARK SMILES IDX 50 76 47 77 49 78 48 79
REMARK H PARENT 65 47 43 58
REMARK Flexibility Score: inf
ROOT
ATOM      1  C   UNL A   1      37.983  21.418  25.430  1.00  0.00     0.275 C 
ENDROOT
BRANCH   1   2
ATOM      2  O   UNL A   1      37.006  21.757  24.419  1.00  0.00    -0.459 OA
BRANCH   2   3
ATOM      3  C   UNL A   1      35.734  21.437  24.727  1.00  0.00     0.338 C 
ATOM      4  O   UNL A   1      35.303  20.294  24.816  1.00  0.00    -0.246 OA
BRANCH   3   5
ATOM      5  C   UNL A   1      34.899  22.623  25.032  1.00  0.00     0.087 C 
ATOM      6  C   UNL A   1      33.040  27.306  24.485  1.00  0.00     0.059 A 
ATOM      7  C   UNL A   1      33.114  26.392  25.564  1.00  0.00     0.074 A 
ATOM      8  C   UNL A   1      33.593  26.897  23.253  1.00  0.00     0.065 A 
ATOM      9  C   UNL A   1      33.699  25.127  25.416  1.00  0.00     0.130 A 
ATOM     10  C   UNL A   1      34.087  25.608  23.083  1.00  0.00     0.034 A 
ATOM     11  Cl  UNL A   1      33.826  27.972  21.916  1.00  0.00    -0.082 Cl
ATOM     12  C   UNL A   1      34.150  24.736  24.166  1.00  0.00     0.019 A 
ATOM     13  O   UNL A   1      33.843  24.350  26.532  1.00  0.00    -0.475 OA
ATOM     14  C   UNL A   1      34.785  23.456  23.990  1.00  0.00     0.027 C 
ATOM     15  C   UNL A   1      34.419  22.998  26.414  1.00  0.00     0.316 C 
BRANCH   6  16
ATOM     16  N   UNL A   1      32.479  28.578  24.654  1.00  0.00    -0.373 N 
ATOM     17  C   UNL A   1      33.174  29.465  25.580  1.00  0.00     0.143 C 
BRANCH  16  18
ATOM     18  C   UNL A   1      31.009  28.708  24.578  1.00  0.00     0.119 C 
BRANCH  18  19
ATOM     19  C   UNL A   1      30.435  28.260  23.217  1.00  0.00     0.002 C 
ATOM     20  C   UNL A   1      29.017  27.699  23.357  1.00  0.00     0.009 C 
ATOM     21  C   UNL A   1      30.419  29.406  22.201  1.00  0.00     0.009 C 
ENDBRANCH  18  19
ENDBRANCH  16  18
ENDBRANCH   6  16
BRANCH  15  22
ATOM     22  C   UNL A   1      33.473  22.022  27.151  1.00  0.00     0.430 C 
ATOM     23  F   UNL A   1      32.598  22.614  27.986  1.00  0.00    -0.167 F 
ATOM     24  F   UNL A   1      32.744  21.315  26.246  1.00  0.00    -0.167 F 
ATOM     25  F   UNL A   1      34.154  21.112  27.892  1.00  0.00    -0.167 F 
ENDBRANCH  15  22
ENDBRANCH   3   5
ENDBRANCH   2   3
ENDBRANCH   1   2
BRANCH   1  26
ATOM     26  C   UNL A   1      38.795  20.183  25.030  1.00  0.00     0.275 C 
BRANCH  26  27
ATOM     27  O   UNL A   1      39.544  19.674  26.154  1.00  0.00    -0.458 OA
BRANCH  27  28
ATOM     28  C   UNL A   1      40.892  19.692  26.022  1.00  0.00     0.338 C 
ATOM     29  O   UNL A   1      41.600  18.845  25.510  1.00  0.00    -0.246 OA
BRANCH  28  30
ATOM     30  C   UNL A   1      41.435  20.943  26.581  1.00  0.00     0.060 A 
ATOM     31  C   UNL A   1      41.852  21.973  25.742  1.00  0.00     0.016 A 
ATOM     32  C   UNL A   1      41.385  21.145  27.955  1.00  0.00     0.016 A 
ATOM     33  C   UNL A   1      42.241  23.199  26.302  1.00  0.00     0.010 A 
ATOM     34  C   UNL A   1      41.668  22.398  28.501  1.00  0.00     0.010 A 
ATOM     35  C   UNL A   1      42.125  23.442  27.686  1.00  0.00    -0.014 A 
BRANCH  35  36
ATOM     36  C   UNL A   1      42.467  24.774  28.273  1.00  0.00     0.031 A 
ATOM     37  C   UNL A   1      43.898  25.140  28.602  1.00  0.00     0.074 A 
ATOM     38  C   UNL A   1      41.488  25.665  28.539  1.00  0.00     0.049 A 
ATOM     39  N   UNL A   1      44.370  26.263  29.091  1.00  0.00    -0.248 NA
ATOM     40  C   UNL A   1      44.929  24.111  28.390  1.00  0.00     0.031 C 
ATOM     41  C   UNL A   1      40.054  25.431  28.354  1.00  0.00     0.029 A 
ATOM     42  N   UNL A   1      41.551  26.960  28.999  1.00  0.00    -0.354 N 
ATOM     43  C   UNL A   1      45.733  26.058  29.273  1.00  0.00     0.074 A 
ATOM     44  C   UNL A   1      46.008  24.692  28.894  1.00  0.00     0.031 C 
ATOM     45  C   UNL A   1      39.385  26.567  28.608  1.00  0.00     0.029 A 
ATOM     46  C   UNL A   1      40.332  27.599  29.017  1.00  0.00     0.049 A 
ATOM     47  H   UNL A   1      42.388  27.389  29.289  1.00  0.00     0.167 HD
ATOM     48  C   UNL A   1      46.681  26.934  29.685  1.00  0.00     0.031 A 
ATOM     49  C   UNL A   1      40.009  28.877  29.303  1.00  0.00     0.031 A 
ATOM     50  C   UNL A   1      46.432  28.315  29.996  1.00  0.00     0.049 A 
ATOM     51  C   UNL A   1      41.087  29.848  29.692  1.00  0.00     0.074 A 
ATOM     52  C   UNL A   1      47.350  29.296  30.335  1.00  0.00     0.029 A 
ATOM     53  N   UNL A   1      45.186  28.916  29.984  1.00  0.00    -0.354 N 
ATOM     54  N   UNL A   1      42.379  29.650  29.789  1.00  0.00    -0.248 NA
ATOM     55  C   UNL A   1      40.666  31.223  30.001  1.00  0.00     0.031 C 
ATOM     56  C   UNL A   1      46.654  30.485  30.559  1.00  0.00     0.029 A 
ATOM     57  C   UNL A   1      45.311  30.255  30.314  1.00  0.00     0.049 A 
ATOM     58  H   UNL A   1      44.340  28.461  29.773  1.00  0.00     0.167 HD
ATOM     59  C   UNL A   1      42.924  30.878  30.144  1.00  0.00     0.074 A 
ATOM     60  C   UNL A   1      41.829  31.818  30.232  1.00  0.00     0.031 C 
ATOM     61  C   UNL A   1      44.221  31.190  30.380  1.00  0.00     0.031 A 
BRANCH  48  62
ATOM     62  C   UNL A   1      48.101  26.448  29.785  1.00  0.00    -0.014 A 
ATOM     63  C   UNL A   1      48.590  25.953  31.005  1.00  0.00     0.009 A 
ATOM     64  C   UNL A   1      48.985  26.583  28.702  1.00  0.00     0.009 A 
ATOM     65  C   UNL A   1      49.937  25.610  31.140  1.00  0.00     0.001 A 
ATOM     66  C   UNL A   1      50.325  26.212  28.834  1.00  0.00     0.001 A 
ATOM     67  C   UNL A   1      50.802  25.735  30.054  1.00  0.00     0.000 A 
ENDBRANCH  48  62
BRANCH  49  68
ATOM     68  C   UNL A   1      38.602  29.334  29.155  1.00  0.00    -0.014 A 
ATOM     69  C   UNL A   1      37.712  29.314  30.239  1.00  0.00     0.009 A 
ATOM     70  C   UNL A   1      38.138  29.782  27.907  1.00  0.00     0.009 A 
ATOM     71  C   UNL A   1      36.386  29.721  30.075  1.00  0.00     0.001 A 
ATOM     72  C   UNL A   1      36.820  30.215  27.752  1.00  0.00     0.001 A 
ATOM     73  C   UNL A   1      35.943  30.178  28.835  1.00  0.00     0.000 A 
ENDBRANCH  49  68
BRANCH  61  74
ATOM     74  C   UNL A   1      44.553  32.610  30.728  1.00  0.00    -0.014 A 
ATOM     75  C   UNL A   1      44.909  33.510  29.711  1.00  0.00     0.009 A 
ATOM     76  C   UNL A   1      44.629  33.027  32.065  1.00  0.00     0.009 A 
ATOM     77  C   UNL A   1      45.348  34.797  30.025  1.00  0.00     0.001 A 
ATOM     78  C   UNL A   1      45.046  34.324  32.376  1.00  0.00     0.001 A 
ATOM     79  C   UNL A   1      45.413  35.203  31.357  1.00  0.00     0.000 A 
ENDBRANCH  61  74
ENDBRANCH  35  36
ENDBRANCH  28  30
ENDBRANCH  27  28
ENDBRANCH  26  27
ENDBRANCH   1  26
TORSDOF 15
ENDMDL
MODEL 2
REMARK VINA RESULT:     -10.7      3.175      7.226
REMARK SMILES CC(C)CN(C)c1cc2c(cc1Cl)C=C(C(=O)OCCOC(=O)c1ccc(-c3c4nc(c(-c5ccccc5)c5ccc([nH]5)c(-c5ccccc5)c5nc(c(-c6ccccc6)c6ccc3[nH]6)C=C5)C=C4)cc1)[C@H](C(F)(F)F)O2
REMARK SMILES IDX 19 1 18 2 16 3 17 4 15 5 7 6 8 7 12 8 9 9 11 10 13 11 10 12
REMARK SMILES IDX 77 13 14 14 72 15 5 16 6 17 4 18 2 19 1 20 3 21 73 22 74 23
REMARK SMILES IDX 75 24 76 25 20 26 21 27 22 28 23 29 24 30 25 31 71 32 26 33
REMARK SMILES IDX 70 34 27 35 28 36 29 37 64 38 30 39 69 40 63 41 65 42 31 43
REMARK SMILES IDX 68 44 62 45 61 46 32 48 54 49 39 50 53 51 40 52 43 53 52 54
REMARK SMILES IDX 66 55 41 56 42 57 51 59 67 60 44 61 33 62 34 63 38 64 35 65
REMARK SMILES IDX 37 66 36 67 55 68 56 69 60 70 57 71 59 72 58 73 45 74 46 75
REMARK SMILES IDX 50 76 47 77 49 78 48 79
REMARK H PARENT 65 47 43 58
REMARK Flexibility Score: inf
ROOT
ATOM      1  C   UNL A   1      42.077  19.860  26.858  1.00  0.00     0.275 C 
ENDROOT
BRANCH   1   2
ATOM      2  O   UNL A   1      40.848  20.352  26.277  1.00  0.00    -0.459 OA
BRANCH   2   3
ATOM      3  C   UNL A   1      40.793  21.687  26.105  1.00  0.00     0.338 C 
ATOM      4  O   UNL A   1      41.763  22.403  25.884  1.00  0.00    -0.246 OA
BRANCH   3   5
ATOM      5  C   UNL A   1      39.409  22.216  26.131  1.00  0.00     0.087 C 
ATOM      6  C   UNL A   1      34.447  22.398  25.118  1.00  0.00     0.059 A 
ATOM      7  C   UNL A   1      35.410  23.358  25.510  1.00  0.00     0.074 A 
ATOM      8  C   UNL A   1      34.891  21.071  24.941  1.00  0.00     0.065 A 
ATOM      9  C   UNL A   1      36.749  23.007  25.730  1.00  0.00     0.130 A 
ATOM     10  C   UNL A   1      36.198  20.707  25.249  1.00  0.00     0.034 A 
ATOM     11  Cl  UNL A   1      33.920  19.836  24.215  1.00  0.00    -0.082 Cl
ATOM     12  C   UNL A   1      37.122  21.676  25.628  1.00  0.00     0.019 A 
ATOM     13  O   UNL A   1      37.644  24.009  25.987  1.00  0.00    -0.475 OA
ATOM     14  C   UNL A   1      38.497  21.290  25.814  1.00  0.00     0.027 C 
ATOM     15  C   UNL A   1      39.055  23.680  26.259  1.00  0.00     0.316 C 
BRANCH   6  16
ATOM     16  N   UNL A   1      33.118  22.768  24.875  1.00  0.00    -0.373 N 
ATOM     17  C   UNL A   1      32.802  23.153  23.504  1.00  0.00     0.143 C 
BRANCH  16  18
ATOM     18  C   UNL A   1      32.378  23.458  25.952  1.00  0.00     0.119 C 
BRANCH  18  19
ATOM     19  C   UNL A   1      31.893  24.865  25.542  1.00  0.00     0.002 C 
ATOM     20  C   UNL A   1      30.475  25.145  26.050  1.00  0.00     0.009 C 
ATOM     21  C   UNL A   1      32.830  25.962  26.054  1.00  0.00     0.009 C 
ENDBRANCH  18  19
ENDBRANCH  16  18
ENDBRANCH   6  16
BRANCH  15  22
ATOM     22  C   UNL A   1      39.467  24.422  27.552  1.00  0.00     0.430 C 
ATOM     23  F   UNL A   1      40.547  23.909  28.172  1.00  0.00    -0.167 F 
ATOM     24  F   UNL A   1      39.750  25.721  27.267  1.00  0.00    -0.167 F 
ATOM     25  F   UNL A   1      38.470  24.437  28.471  1.00  0.00    -0.167 F 
ENDBRANCH  15  22
ENDBRANCH   3   5
ENDBRANCH   2   3
ENDBRANCH   1   2
BRANCH   1  26
ATOM     26  C   UNL A   1      42.790  18.887  25.914  1.00  0.00     0.275 C 
BRANCH  26  27
ATOM     27  O   UNL A   1      43.227  19.561  24.715  1.00  0.00    -0.458 OA
BRANCH  27  28
ATOM     28  C   UNL A   1      44.567  19.695  24.568  1.00  0.00     0.338 C 
ATOM     29  O   UNL A   1      45.367  18.839  24.241  1.00  0.00    -0.246 OA
BRANCH  28  30
ATOM     30  C   UNL A   1      44.967  21.086  24.841  1.00  0.00     0.060 A 
ATOM     31  C   UNL A   1      44.697  22.097  23.922  1.00  0.00     0.016 A 
ATOM     32  C   UNL A   1      45.479  21.407  26.093  1.00  0.00     0.016 A 
ATOM     33  C   UNL A   1      44.971  23.428  24.265  1.00  0.00     0.010 A 
ATOM     34  C   UNL A   1      45.649  22.740  26.473  1.00  0.00     0.010 A 
ATOM     35  C   UNL A   1      45.420  23.775  25.556  1.00  0.00    -0.014 A 
BRANCH  35  36
ATOM     36  C   UNL A   1      45.638  25.202  25.947  1.00  0.00     0.031 A 
ATOM     37  C   UNL A   1      44.517  26.034  26.529  1.00  0.00     0.074 A 
ATOM     38  C   UNL A   1      46.846  25.774  25.759  1.00  0.00     0.049 A 
ATOM     39  N   UNL A   1      44.545  27.279  26.945  1.00  0.00    -0.248 NA
ATOM     40  C   UNL A   1      43.188  25.409  26.631  1.00  0.00     0.031 C 
ATOM     41  C   UNL A   1      48.004  25.129  25.135  1.00  0.00     0.029 A 
ATOM     42  N   UNL A   1      47.312  27.024  26.099  1.00  0.00    -0.354 N 
ATOM     43  C   UNL A   1      43.241  27.587  27.318  1.00  0.00     0.074 A 
ATOM     44  C   UNL A   1      42.435  26.423  27.035  1.00  0.00     0.031 C 
ATOM     45  C   UNL A   1      49.064  25.948  25.219  1.00  0.00     0.029 A 
ATOM     46  C   UNL A   1      48.657  27.194  25.860  1.00  0.00     0.049 A 
ATOM     47  H   UNL A   1      46.738  27.729  26.477  1.00  0.00     0.167 HD
ATOM     48  C   UNL A   1      42.759  28.722  27.879  1.00  0.00     0.031 A 
ATOM     49  C   UNL A   1      49.481  28.223  26.147  1.00  0.00     0.031 A 
ATOM     50  C   UNL A   1      43.563  29.860  28.234  1.00  0.00     0.049 A 
ATOM     51  C   UNL A   1      48.936  29.444  26.832  1.00  0.00     0.074 A 
ATOM     52  C   UNL A   1      43.171  31.016  28.888  1.00  0.00     0.029 A 
ATOM     53  N   UNL A   1      44.919  29.977  27.986  1.00  0.00    -0.354 N 
ATOM     54  N   UNL A   1      47.715  29.685  27.240  1.00  0.00    -0.248 NA
ATOM     55  C   UNL A   1      49.886  30.534  27.106  1.00  0.00     0.031 C 
ATOM     56  C   UNL A   1      44.285  31.848  29.008  1.00  0.00     0.029 A 
ATOM     57  C   UNL A   1      45.378  31.189  28.472  1.00  0.00     0.049 A 
ATOM     58  H   UNL A   1      45.473  29.301  27.533  1.00  0.00     0.167 HD
ATOM     59  C   UNL A   1      47.756  30.937  27.840  1.00  0.00     0.074 A 
ATOM     60  C   UNL A   1      49.122  31.402  27.757  1.00  0.00     0.031 C 
ATOM     61  C   UNL A   1      46.743  31.637  28.404  1.00  0.00     0.031 A 
BRANCH  48  62
ATOM     62  C   UNL A   1      41.290  28.787  28.198  1.00  0.00    -0.014 A 
ATOM     63  C   UNL A   1      40.814  28.288  29.421  1.00  0.00     0.009 A 
ATOM     64  C   UNL A   1      40.367  29.244  27.244  1.00  0.00     0.009 A 
ATOM     65  C   UNL A   1      39.443  28.236  29.678  1.00  0.00     0.001 A 
ATOM     66  C   UNL A   1      38.998  29.216  27.517  1.00  0.00     0.001 A 
ATOM     67  C   UNL A   1      38.536  28.704  28.729  1.00  0.00     0.000 A 
ENDBRANCH  48  62
BRANCH  49  68
ATOM     68  C   UNL A   1      50.935  28.109  25.856  1.00  0.00    -0.014 A 
ATOM     69  C   UNL A   1      51.471  28.559  24.640  1.00  0.00     0.009 A 
ATOM     70  C   UNL A   1      51.795  27.527  26.801  1.00  0.00     0.009 A 
ATOM     71  C   UNL A   1      52.834  28.417  24.371  1.00  0.00     0.001 A 
ATOM     72  C   UNL A   1      53.163  27.413  26.542  1.00  0.00     0.001 A 
ATOM     73  C   UNL A   1      53.680  27.852  25.325  1.00  0.00     0.000 A 
ENDBRANCH  49  68
BRANCH  61  74
ATOM     74  C   UNL A   1      47.059  32.973  29.010  1.00  0.00    -0.014 A 
ATOM     75  C   UNL A   1      47.376  33.058  30.375  1.00  0.00     0.009 A 
ATOM     76  C   UNL A   1      46.930  34.153  28.265  1.00  0.00     0.009 A 
ATOM     77  C   UNL A   1      47.545  34.300  30.987  1.00  0.00     0.001 A 
ATOM     78  C   UNL A   1      47.122  35.395  28.874  1.00  0.00     0.001 A 
ATOM     79  C   UNL A   1      47.420  35.468  30.235  1.00  0.00     0.000 A 
ENDBRANCH  61  74
ENDBRANCH  35  36
ENDBRANCH  28  30
ENDBRANCH  27  28
ENDBRANCH  26  27
ENDBRANCH   1  26
TORSDOF 15
ENDMDL
MODEL 3
REMARK VINA RESULT:     -10.6      4.106      5.541
REMARK SMILES CC(C)CN(C)c1cc2c(cc1Cl)C=C(C(=O)OCCOC(=O)c1ccc(-c3c4nc(c(-c5ccccc5)c5ccc([nH]5)c(-c5ccccc5)c5nc(c(-c6ccccc6)c6ccc3[nH]6)C=C5)C=C4)cc1)[C@H](C(F)(F)F)O2
REMARK SMILES IDX 19 1 18 2 16 3 17 4 15 5 7 6 8 7 12 8 9 9 11 10 13 11 10 12
REMARK SMILES IDX 77 13 14 14 72 15 5 16 6 17 4 18 2 19 1 20 3 21 73 22 74 23
REMARK SMILES IDX 75 24 76 25 20 26 21 27 22 28 23 29 24 30 25 31 71 32 26 33
REMARK SMILES IDX 70 34 27 35 28 36 29 37 64 38 30 39 69 40 63 41 65 42 31 43
REMARK SMILES IDX 68 44 62 45 61 46 32 48 54 49 39 50 53 51 40 52 43 53 52 54
REMARK SMILES IDX 66 55 41 56 42 57 51 59 67 60 44 61 33 62 34 63 38 64 35 65
REMARK SMILES IDX 37 66 36 67 55 68 56 69 60 70 57 71 59 72 58 73 45 74 46 75
REMARK SMILES IDX 50 76 47 77 49 78 48 79
REMARK H PARENT 65 47 43 58
REMARK Flexibility Score: inf
ROOT
ATOM      1  C   UNL A   1      42.653  21.139  25.834  1.00  0.00     0.275 C 
ENDROOT
BRANCH   1   2
ATOM      2  O   UNL A   1      41.378  21.771  25.578  1.00  0.00    -0.459 OA
BRANCH   2   3
ATOM      3  C   UNL A   1      40.355  21.312  26.325  1.00  0.00     0.338 C 
ATOM      4  O   UNL A   1      40.454  20.454  27.192  1.00  0.00    -0.246 OA
BRANCH   3   5
ATOM      5  C   UNL A   1      39.079  22.015  26.049  1.00  0.00     0.087 C 
ATOM      6  C   UNL A   1      34.301  22.593  24.462  1.00  0.00     0.059 A 
ATOM      7  C   UNL A   1      35.380  23.480  24.689  1.00  0.00     0.074 A 
ATOM      8  C   UNL A   1      34.530  21.222  24.701  1.00  0.00     0.065 A 
ATOM      9  C   UNL A   1      36.623  23.023  25.146  1.00  0.00     0.130 A 
ATOM     10  C   UNL A   1      35.733  20.781  25.243  1.00  0.00     0.034 A 
ATOM     11  Cl  UNL A   1      33.421  19.979  24.229  1.00  0.00    -0.082 Cl
ATOM     12  C   UNL A   1      36.775  21.680  25.451  1.00  0.00     0.019 A 
ATOM     13  O   UNL A   1      37.651  23.921  25.225  1.00  0.00    -0.475 OA
ATOM     14  C   UNL A   1      38.050  21.174  25.890  1.00  0.00     0.027 C 
ATOM     15  C   UNL A   1      38.965  23.489  25.736  1.00  0.00     0.316 C 
BRANCH   6  16
ATOM     16  N   UNL A   1      33.073  23.061  23.978  1.00  0.00    -0.373 N 
ATOM     17  C   UNL A   1      32.879  22.972  22.535  1.00  0.00     0.143 C 
BRANCH  16  18
ATOM     18  C   UNL A   1      32.438  24.202  24.670  1.00  0.00     0.119 C 
BRANCH  18  19
ATOM     19  C   UNL A   1      31.015  23.882  25.176  1.00  0.00     0.002 C 
ATOM     20  C   UNL A   1      30.989  22.602  26.017  1.00  0.00     0.009 C 
ATOM     21  C   UNL A   1      30.433  25.032  26.003  1.00  0.00     0.009 C 
ENDBRANCH  18  19
ENDBRANCH  16  18
ENDBRANCH   6  16
BRANCH  15  22
ATOM     22  C   UNL A   1      39.401  24.503  26.819  1.00  0.00     0.430 C 
ATOM     23  F   UNL A   1      38.422  25.324  27.244  1.00  0.00    -0.167 F 
ATOM     24  F   UNL A   1      39.867  23.839  27.911  1.00  0.00    -0.167 F 
ATOM     25  F   UNL A   1      40.411  25.302  26.393  1.00  0.00    -0.167 F 
ENDBRANCH  15  22
ENDBRANCH   3   5
ENDBRANCH   2   3
ENDBRANCH   1   2
BRANCH   1  26
ATOM     26  C   UNL A   1      43.805  21.939  25.219  1.00  0.00     0.275 C 
BRANCH  26  27
ATOM     27  O   UNL A   1      43.404  23.301  24.959  1.00  0.00    -0.458 OA
BRANCH  27  28
ATOM     28  C   UNL A   1      44.328  24.252  25.237  1.00  0.00     0.338 C 
ATOM     29  O   UNL A   1      45.353  24.493  24.627  1.00  0.00    -0.246 OA
BRANCH  28  30
ATOM     30  C   UNL A   1      43.913  25.027  26.419  1.00  0.00     0.060 A 
ATOM     31  C   UNL A   1      43.903  26.419  26.389  1.00  0.00     0.016 A 
ATOM     32  C   UNL A   1      43.385  24.354  27.515  1.00  0.00     0.016 A 
ATOM     33  C   UNL A   1      43.380  27.126  27.481  1.00  0.00     0.010 A 
ATOM     34  C   UNL A   1      42.767  25.055  28.551  1.00  0.00     0.010 A 
ATOM     35  C   UNL A   1      42.774  26.456  28.564  1.00  0.00    -0.014 A 
BRANCH  35  36
ATOM     36  C   UNL A   1      42.148  27.212  29.693  1.00  0.00     0.031 A 
ATOM     37  C   UNL A   1      42.818  27.294  31.047  1.00  0.00     0.074 A 
ATOM     38  C   UNL A   1      40.953  27.816  29.518  1.00  0.00     0.049 A 
ATOM     39  N   UNL A   1      42.422  27.930  32.125  1.00  0.00    -0.248 NA
ATOM     40  C   UNL A   1      44.071  26.544  31.232  1.00  0.00     0.031 C 
ATOM     41  C   UNL A   1      40.144  27.761  28.298  1.00  0.00     0.029 A 
ATOM     42  N   UNL A   1      40.220  28.619  30.361  1.00  0.00    -0.354 N 
ATOM     43  C   UNL A   1      43.354  27.627  33.111  1.00  0.00     0.074 A 
ATOM     44  C   UNL A   1      44.305  26.711  32.526  1.00  0.00     0.031 C 
ATOM     45  C   UNL A   1      39.079  28.567  28.438  1.00  0.00     0.029 A 
ATOM     46  C   UNL A   1      39.101  29.162  29.770  1.00  0.00     0.049 A 
ATOM     47  H   UNL A   1      40.470  28.789  31.298  1.00  0.00     0.167 HD
ATOM     48  C   UNL A   1      43.436  28.092  34.381  1.00  0.00     0.031 A 
ATOM     49  C   UNL A   1      38.206  30.059  30.232  1.00  0.00     0.031 A 
ATOM     50  C   UNL A   1      42.538  29.058  34.953  1.00  0.00     0.049 A 
ATOM     51  C   UNL A   1      38.356  30.613  31.621  1.00  0.00     0.074 A 
ATOM     52  C   UNL A   1      42.600  29.652  36.203  1.00  0.00     0.029 A 
ATOM     53  N   UNL A   1      41.433  29.588  34.311  1.00  0.00    -0.354 N 
ATOM     54  N   UNL A   1      39.286  30.366  32.510  1.00  0.00    -0.248 NA
ATOM     55  C   UNL A   1      37.340  31.579  32.066  1.00  0.00     0.031 C 
ATOM     56  C   UNL A   1      41.514  30.519  36.329  1.00  0.00     0.029 A 
ATOM     57  C   UNL A   1      40.804  30.499  35.141  1.00  0.00     0.049 A 
ATOM     58  H   UNL A   1      41.140  29.352  33.402  1.00  0.00     0.167 HD
ATOM     59  C   UNL A   1      38.980  31.162  33.607  1.00  0.00     0.074 A 
ATOM     60  C   UNL A   1      37.790  31.911  33.270  1.00  0.00     0.031 C 
ATOM     61  C   UNL A   1      39.632  31.256  34.791  1.00  0.00     0.031 A 
BRANCH  48  62
ATOM     62  C   UNL A   1      44.566  27.603  35.245  1.00  0.00    -0.014 A 
ATOM     63  C   UNL A   1      44.382  26.488  36.078  1.00  0.00     0.009 A 
ATOM     64  C   UNL A   1      45.776  28.312  35.315  1.00  0.00     0.009 A 
ATOM     65  C   UNL A   1      45.384  26.098  36.970  1.00  0.00     0.001 A 
ATOM     66  C   UNL A   1      46.786  27.902  36.188  1.00  0.00     0.001 A 
ATOM     67  C   UNL A   1      46.586  26.802  37.021  1.00  0.00     0.000 A 
ENDBRANCH  48  62
BRANCH  49  68
ATOM     68  C   UNL A   1      37.125  30.552  29.338  1.00  0.00    -0.014 A 
ATOM     69  C   UNL A   1      36.085  29.708  28.921  1.00  0.00     0.009 A 
ATOM     70  C   UNL A   1      37.143  31.880  28.883  1.00  0.00     0.009 A 
ATOM     71  C   UNL A   1      35.093  30.180  28.058  1.00  0.00     0.001 A 
ATOM     72  C   UNL A   1      36.134  32.358  28.043  1.00  0.00     0.001 A 
ATOM     73  C   UNL A   1      35.114  31.506  27.626  1.00  0.00     0.000 A 
ENDBRANCH  49  68
BRANCH  61  74
ATOM     74  C   UNL A   1      39.106  32.220  35.813  1.00  0.00    -0.014 A 
ATOM     75  C   UNL A   1      39.627  33.522  35.874  1.00  0.00     0.009 A 
ATOM     76  C   UNL A   1      38.184  31.808  36.786  1.00  0.00     0.009 A 
ATOM     77  C   UNL A   1      39.247  34.390  36.897  1.00  0.00     0.001 A 
ATOM     78  C   UNL A   1      37.786  32.688  37.796  1.00  0.00     0.001 A 
ATOM     79  C   UNL A   1      38.325  33.973  37.856  1.00  0.00     0.000 A 
ENDBRANCH  61  74
ENDBRANCH  35  36
ENDBRANCH  28  30
ENDBRANCH  27  28
ENDBRANCH  26  27
ENDBRANCH   1  26
TORSDOF 15
ENDMDL
