MODEL 1
REMARK VINA RESULT:      -9.9      0.000      0.000
REMARK SMILES O=C(OCCOC(=O)c1sc2ccccc2c1CSC[C@H](O)CO)c1ccc(-c2c3nc(c(-c4ccccc4)c4ccc([nH]4)c(-c4ccccc4)c4nc(c(-c5ccccc5)c5ccc2[nH]5)C=C4)C=C3)cc1
REMARK SMILES IDX 7 1 8 2 6 3 5 4 4 5 3 6 2 7 1 8 25 9 26 10 72 11 27 12 71 13
REMARK SMILES IDX 28 14 29 15 30 16 65 17 31 18 70 19 64 20 66 21 32 22 69 23
REMARK SMILES IDX 63 24 62 25 33 27 55 28 40 29 54 30 41 31 44 32 53 33 67 34
REMARK SMILES IDX 42 35 43 36 52 38 68 39 45 40 34 41 35 42 39 43 36 44 38 45
REMARK SMILES IDX 37 46 56 47 57 48 61 49 58 50 60 51 59 52 46 53 47 54 51 55
REMARK SMILES IDX 48 56 50 57 49 58 9 59 10 60 17 61 11 62 16 63 12 64 15 65
REMARK SMILES IDX 13 66 14 67 18 68 19 69 20 70 21 71 23 72 24 73 22 75
REMARK H PARENT 66 26 44 37 24 74 22 76
REMARK Flexibility Score: inf
ROOT
ATOM      1  C   UNL A   1      35.963  21.056  25.099  1.00  0.00     0.348 C 
ATOM      2  O   UNL A   1      35.593  19.900  24.942  1.00  0.00    -0.245 OA
ENDROOT
BRANCH   1   3
ATOM      3  O   UNL A   1      37.208  21.418  25.538  1.00  0.00    -0.458 OA
BRANCH   3   4
ATOM      4  C   UNL A   1      38.271  20.572  25.078  1.00  0.00     0.275 C 
BRANCH   4   5
ATOM      5  C   UNL A   1      39.427  20.513  26.081  1.00  0.00     0.275 C 
BRANCH   5   6
ATOM      6  O   UNL A   1      40.177  19.293  25.972  1.00  0.00    -0.458 OA
BRANCH   6   7
ATOM      7  C   UNL A   1      41.529  19.368  25.880  1.00  0.00     0.338 C 
ATOM      8  O   UNL A   1      42.247  18.389  25.737  1.00  0.00    -0.246 OA
BRANCH   7   9
ATOM      9  C   UNL A   1      42.096  20.653  26.355  1.00  0.00     0.060 A 
ATOM     10  C   UNL A   1      42.200  20.969  27.710  1.00  0.00     0.016 A 
ATOM     11  C   UNL A   1      42.449  21.602  25.388  1.00  0.00     0.016 A 
ATOM     12  C   UNL A   1      42.685  22.219  28.099  1.00  0.00     0.010 A 
ATOM     13  C   UNL A   1      42.961  22.842  25.774  1.00  0.00     0.010 A 
ATOM     14  C   UNL A   1      43.055  23.164  27.134  1.00  0.00    -0.014 A 
BRANCH  14  15
ATOM     15  C   UNL A   1      43.382  24.545  27.554  1.00  0.00     0.031 A 
ATOM     16  C   UNL A   1      44.819  24.977  27.564  1.00  0.00     0.074 A 
ATOM     17  C   UNL A   1      42.412  25.415  27.884  1.00  0.00     0.049 A 
ATOM     18  N   UNL A   1      45.318  26.168  27.774  1.00  0.00    -0.248 NA
ATOM     19  C   UNL A   1      45.824  23.940  27.280  1.00  0.00     0.031 C 
ATOM     20  C   UNL A   1      40.982  25.122  27.888  1.00  0.00     0.029 A 
ATOM     21  N   UNL A   1      42.488  26.725  28.281  1.00  0.00    -0.354 N 
ATOM     22  C   UNL A   1      46.688  26.031  27.601  1.00  0.00     0.074 A 
ATOM     23  C   UNL A   1      46.950  24.633  27.342  1.00  0.00     0.031 C 
ATOM     24  C   UNL A   1      40.312  26.208  28.311  1.00  0.00     0.029 A 
ATOM     25  C   UNL A   1      41.268  27.277  28.582  1.00  0.00     0.049 A 
ATOM     26  H   UNL A   1      43.335  27.220  28.344  1.00  0.00     0.167 HD
ATOM     27  C   UNL A   1      47.641  26.990  27.616  1.00  0.00     0.031 A 
ATOM     28  C   UNL A   1      40.959  28.512  29.018  1.00  0.00     0.031 A 
ATOM     29  C   UNL A   1      47.391  28.373  27.907  1.00  0.00     0.049 A 
ATOM     30  C   UNL A   1      42.048  29.539  29.138  1.00  0.00     0.074 A 
ATOM     31  C   UNL A   1      48.281  29.430  27.928  1.00  0.00     0.029 A 
ATOM     32  N   UNL A   1      46.149  28.885  28.250  1.00  0.00    -0.354 N 
ATOM     33  N   UNL A   1      43.328  29.418  28.879  1.00  0.00    -0.248 NA
ATOM     34  C   UNL A   1      41.645  30.885  29.572  1.00  0.00     0.031 C 
ATOM     35  C   UNL A   1      47.583  30.578  28.321  1.00  0.00     0.029 A 
ATOM     36  C   UNL A   1      46.252  30.239  28.511  1.00  0.00     0.049 A 
ATOM     37  H   UNL A   1      45.316  28.361  28.301  1.00  0.00     0.167 HD
ATOM     38  C   UNL A   1      43.875  30.678  29.074  1.00  0.00     0.074 A 
ATOM     39  C   UNL A   1      42.790  31.548  29.484  1.00  0.00     0.031 C 
ATOM     40  C   UNL A   1      45.158  31.083  28.911  1.00  0.00     0.031 A 
BRANCH  27  41
ATOM     41  C   UNL A   1      49.038  26.549  27.294  1.00  0.00    -0.014 A 
ATOM     42  C   UNL A   1      49.476  26.493  25.960  1.00  0.00     0.009 A 
ATOM     43  C   UNL A   1      49.910  26.156  28.318  1.00  0.00     0.009 A 
ATOM     44  C   UNL A   1      50.750  26.014  25.657  1.00  0.00     0.001 A 
ATOM     45  C   UNL A   1      51.190  25.694  28.011  1.00  0.00     0.001 A 
ATOM     46  C   UNL A   1      51.606  25.613  26.682  1.00  0.00     0.000 A 
ENDBRANCH  27  41
BRANCH  28  47
ATOM     47  C   UNL A   1      39.551  28.851  29.341  1.00  0.00    -0.014 A 
ATOM     48  C   UNL A   1      39.047  28.668  30.637  1.00  0.00     0.009 A 
ATOM     49  C   UNL A   1      38.702  29.360  28.345  1.00  0.00     0.009 A 
ATOM     50  C   UNL A   1      37.715  28.971  30.925  1.00  0.00     0.001 A 
ATOM     51  C   UNL A   1      37.375  29.677  28.641  1.00  0.00     0.001 A 
ATOM     52  C   UNL A   1      36.881  29.476  29.928  1.00  0.00     0.000 A 
ENDBRANCH  28  47
BRANCH  40  53
ATOM     53  C   UNL A   1      45.447  32.537  29.136  1.00  0.00    -0.014 A 
ATOM     54  C   UNL A   1      45.310  33.472  28.101  1.00  0.00     0.009 A 
ATOM     55  C   UNL A   1      45.820  32.979  30.415  1.00  0.00     0.009 A 
ATOM     56  C   UNL A   1      45.561  34.824  28.337  1.00  0.00     0.001 A 
ATOM     57  C   UNL A   1      46.051  34.334  30.653  1.00  0.00     0.001 A 
ATOM     58  C   UNL A   1      45.927  35.254  29.613  1.00  0.00     0.000 A 
ENDBRANCH  40  53
ENDBRANCH  14  15
ENDBRANCH   7   9
ENDBRANCH   6   7
ENDBRANCH   5   6
ENDBRANCH   4   5
ENDBRANCH   3   4
ENDBRANCH   1   3
BRANCH   1  59
ATOM     59  C   UNL A   1      35.139  22.233  24.935  1.00  0.00     0.117 A 
ATOM     60  S   UNL A   1      35.759  23.737  25.436  1.00  0.00    -0.128 S 
ATOM     61  C   UNL A   1      33.878  22.342  24.361  1.00  0.00    -0.005 A 
ATOM     62  C   UNL A   1      34.288  24.552  25.101  1.00  0.00     0.035 A 
ATOM     63  C   UNL A   1      33.349  23.693  24.525  1.00  0.00    -0.003 A 
ATOM     64  C   UNL A   1      34.003  25.907  25.360  1.00  0.00     0.019 A 
ATOM     65  C   UNL A   1      32.073  24.241  24.220  1.00  0.00     0.010 A 
ATOM     66  C   UNL A   1      32.737  26.407  25.057  1.00  0.00     0.001 A 
ATOM     67  C   UNL A   1      31.779  25.582  24.492  1.00  0.00     0.001 A 
BRANCH  61  68
ATOM     68  C   UNL A   1      33.096  21.200  23.766  1.00  0.00     0.107 C 
BRANCH  68  69
ATOM     69  S   UNL A   1      32.291  20.086  24.958  1.00  0.00    -0.154 SA
BRANCH  69  70
ATOM     70  C   UNL A   1      32.494  18.463  24.148  1.00  0.00     0.104 C 
BRANCH  70  71
ATOM     71  C   UNL A   1      32.556  17.338  25.177  1.00  0.00     0.149 C 
BRANCH  71  72
ATOM     72  C   UNL A   1      33.682  16.359  24.841  1.00  0.00     0.188 C 
BRANCH  72  73
ATOM     73  O   UNL A   1      33.329  15.060  25.312  1.00  0.00    -0.394 OA
ATOM     74  H   UNL A   1      32.398  14.883  25.105  1.00  0.00     0.210 HD
ENDBRANCH  72  73
ENDBRANCH  71  72
BRANCH  71  75
ATOM     75  O   UNL A   1      32.812  17.868  26.489  1.00  0.00    -0.390 OA
ATOM     76  H   UNL A   1      33.658  17.524  26.816  1.00  0.00     0.211 HD
ENDBRANCH  71  75
ENDBRANCH  70  71
ENDBRANCH  69  70
ENDBRANCH  68  69
ENDBRANCH  61  68
ENDBRANCH   1  59
TORSDOF 18
ENDMDL
MODEL 2
REMARK VINA RESULT:      -9.9      2.463      4.005
REMARK SMILES O=C(OCCOC(=O)c1sc2ccccc2c1CSC[C@H](O)CO)c1ccc(-c2c3nc(c(-c4ccccc4)c4ccc([nH]4)c(-c4ccccc4)c4nc(c(-c5ccccc5)c5ccc2[nH]5)C=C4)C=C3)cc1
REMARK SMILES IDX 7 1 8 2 6 3 5 4 4 5 3 6 2 7 1 8 25 9 26 10 72 11 27 12 71 13
REMARK SMILES IDX 28 14 29 15 30 16 65 17 31 18 70 19 64 20 66 21 32 22 69 23
REMARK SMILES IDX 63 24 62 25 33 27 55 28 40 29 54 30 41 31 44 32 53 33 67 34
REMARK SMILES IDX 42 35 43 36 52 38 68 39 45 40 34 41 35 42 39 43 36 44 38 45
REMARK SMILES IDX 37 46 56 47 57 48 61 49 58 50 60 51 59 52 46 53 47 54 51 55
REMARK SMILES IDX 48 56 50 57 49 58 9 59 10 60 17 61 11 62 16 63 12 64 15 65
REMARK SMILES IDX 13 66 14 67 18 68 19 69 20 70 21 71 23 72 24 73 22 75
REMARK H PARENT 66 26 44 37 24 74 22 76
REMARK Flexibility Score: inf
ROOT
ATOM      1  C   UNL A   1      35.373  23.062  24.088  1.00  0.00     0.348 C 
ATOM      2  O   UNL A   1      35.882  23.025  22.975  1.00  0.00    -0.245 OA
ENDROOT
BRANCH   1   3
ATOM      3  O   UNL A   1      35.799  22.321  25.158  1.00  0.00    -0.458 OA
BRANCH   3   4
ATOM      4  C   UNL A   1      36.536  21.141  24.811  1.00  0.00     0.275 C 
BRANCH   4   5
ATOM      5  C   UNL A   1      37.991  21.218  25.283  1.00  0.00     0.275 C 
BRANCH   5   6
ATOM      6  O   UNL A   1      38.367  22.551  25.665  1.00  0.00    -0.458 OA
BRANCH   6   7
ATOM      7  C   UNL A   1      39.433  22.714  26.488  1.00  0.00     0.338 C 
ATOM      8  O   UNL A   1      39.988  21.787  27.058  1.00  0.00    -0.246 OA
BRANCH   7   9
ATOM      9  C   UNL A   1      39.630  24.108  26.953  1.00  0.00     0.060 A 
ATOM     10  C   UNL A   1      40.271  25.072  26.175  1.00  0.00     0.016 A 
ATOM     11  C   UNL A   1      39.229  24.418  28.259  1.00  0.00     0.016 A 
ATOM     12  C   UNL A   1      40.483  26.353  26.688  1.00  0.00     0.010 A 
ATOM     13  C   UNL A   1      39.415  25.706  28.763  1.00  0.00     0.010 A 
ATOM     14  C   UNL A   1      40.068  26.672  27.987  1.00  0.00    -0.014 A 
BRANCH  14  15
ATOM     15  C   UNL A   1      40.469  27.965  28.584  1.00  0.00     0.031 A 
ATOM     16  C   UNL A   1      41.902  28.165  28.981  1.00  0.00     0.074 A 
ATOM     17  C   UNL A   1      39.580  28.962  28.733  1.00  0.00     0.049 A 
ATOM     18  N   UNL A   1      42.495  29.252  29.402  1.00  0.00    -0.248 NA
ATOM     19  C   UNL A   1      42.789  26.995  28.871  1.00  0.00     0.031 C 
ATOM     20  C   UNL A   1      38.170  28.899  28.362  1.00  0.00     0.029 A 
ATOM     21  N   UNL A   1      39.737  30.226  29.241  1.00  0.00    -0.354 N 
ATOM     22  C   UNL A   1      43.830  28.909  29.561  1.00  0.00     0.074 A 
ATOM     23  C   UNL A   1      43.948  27.499  29.263  1.00  0.00     0.031 C 
ATOM     24  C   UNL A   1      37.576  30.057  28.694  1.00  0.00     0.029 A 
ATOM     25  C   UNL A   1      38.572  30.950  29.277  1.00  0.00     0.049 A 
ATOM     26  H   UNL A   1      40.602  30.579  29.551  1.00  0.00     0.167 HD
ATOM     27  C   UNL A   1      44.874  29.705  29.887  1.00  0.00     0.031 A 
ATOM     28  C   UNL A   1      38.340  32.199  29.721  1.00  0.00     0.031 A 
ATOM     29  C   UNL A   1      44.755  31.096  30.218  1.00  0.00     0.049 A 
ATOM     30  C   UNL A   1      39.496  33.036  30.187  1.00  0.00     0.074 A 
ATOM     31  C   UNL A   1      45.752  31.998  30.543  1.00  0.00     0.029 A 
ATOM     32  N   UNL A   1      43.553  31.782  30.286  1.00  0.00    -0.354 N 
ATOM     33  N   UNL A   1      40.770  32.726  30.242  1.00  0.00    -0.248 NA
ATOM     34  C   UNL A   1      39.191  34.409  30.616  1.00  0.00     0.031 C 
ATOM     35  C   UNL A   1      45.147  33.224  30.842  1.00  0.00     0.029 A 
ATOM     36  C   UNL A   1      43.777  33.091  30.672  1.00  0.00     0.049 A 
ATOM     37  H   UNL A   1      42.669  31.394  30.087  1.00  0.00     0.167 HD
ATOM     38  C   UNL A   1      41.422  33.875  30.667  1.00  0.00     0.074 A 
ATOM     39  C   UNL A   1      40.403  34.887  30.866  1.00  0.00     0.031 C 
ATOM     40  C   UNL A   1      42.748  34.079  30.858  1.00  0.00     0.031 A 
BRANCH  27  41
ATOM     41  C   UNL A   1      46.229  29.063  29.884  1.00  0.00    -0.014 A 
ATOM     42  C   UNL A   1      47.061  29.165  28.756  1.00  0.00     0.009 A 
ATOM     43  C   UNL A   1      46.666  28.327  30.993  1.00  0.00     0.009 A 
ATOM     44  C   UNL A   1      48.291  28.507  28.727  1.00  0.00     0.001 A 
ATOM     45  C   UNL A   1      47.905  27.685  30.966  1.00  0.00     0.001 A 
ATOM     46  C   UNL A   1      48.712  27.766  29.830  1.00  0.00     0.000 A 
ENDBRANCH  27  41
BRANCH  28  47
ATOM     47  C   UNL A   1      36.959  32.742  29.714  1.00  0.00    -0.014 A 
ATOM     48  C   UNL A   1      36.092  32.514  30.793  1.00  0.00     0.009 A 
ATOM     49  C   UNL A   1      36.502  33.493  28.619  1.00  0.00     0.009 A 
ATOM     50  C   UNL A   1      34.788  33.011  30.767  1.00  0.00     0.001 A 
ATOM     51  C   UNL A   1      35.203  34.003  28.604  1.00  0.00     0.001 A 
ATOM     52  C   UNL A   1      34.345  33.756  29.674  1.00  0.00     0.000 A 
ENDBRANCH  28  47
BRANCH  40  53
ATOM     53  C   UNL A   1      43.173  35.459  31.263  1.00  0.00    -0.014 A 
ATOM     54  C   UNL A   1      43.229  35.833  32.612  1.00  0.00     0.009 A 
ATOM     55  C   UNL A   1      43.566  36.379  30.278  1.00  0.00     0.009 A 
ATOM     56  C   UNL A   1      43.651  37.114  32.969  1.00  0.00     0.001 A 
ATOM     57  C   UNL A   1      44.006  37.652  30.639  1.00  0.00     0.001 A 
ATOM     58  C   UNL A   1      44.043  38.021  31.983  1.00  0.00     0.000 A 
ENDBRANCH  40  53
ENDBRANCH  14  15
ENDBRANCH   7   9
ENDBRANCH   6   7
ENDBRANCH   5   6
ENDBRANCH   4   5
ENDBRANCH   3   4
ENDBRANCH   1   3
BRANCH   1  59
ATOM     59  C   UNL A   1      34.196  23.818  24.451  1.00  0.00     0.117 A 
ATOM     60  S   UNL A   1      34.389  25.429  24.964  1.00  0.00    -0.128 S 
ATOM     61  C   UNL A   1      32.861  23.433  24.399  1.00  0.00    -0.005 A 
ATOM     62  C   UNL A   1      32.725  25.601  25.336  1.00  0.00     0.035 A 
ATOM     63  C   UNL A   1      32.003  24.457  24.989  1.00  0.00    -0.003 A 
ATOM     64  C   UNL A   1      32.109  26.723  25.926  1.00  0.00     0.019 A 
ATOM     65  C   UNL A   1      30.610  24.460  25.269  1.00  0.00     0.010 A 
ATOM     66  C   UNL A   1      30.742  26.687  26.196  1.00  0.00     0.001 A 
ATOM     67  C   UNL A   1      29.997  25.565  25.871  1.00  0.00     0.001 A 
BRANCH  61  68
ATOM     68  C   UNL A   1      32.365  22.092  23.925  1.00  0.00     0.107 C 
BRANCH  68  69
ATOM     69  S   UNL A   1      32.175  20.819  25.210  1.00  0.00    -0.154 SA
BRANCH  69  70
ATOM     70  C   UNL A   1      33.095  19.418  24.487  1.00  0.00     0.104 C 
BRANCH  70  71
ATOM     71  C   UNL A   1      32.651  18.092  25.100  1.00  0.00     0.149 C 
BRANCH  71  72
ATOM     72  C   UNL A   1      33.621  16.971  24.724  1.00  0.00     0.188 C 
BRANCH  72  73
ATOM     73  O   UNL A   1      34.959  17.430  24.908  1.00  0.00    -0.394 OA
ATOM     74  H   UNL A   1      35.261  17.197  25.801  1.00  0.00     0.210 HD
ENDBRANCH  72  73
ENDBRANCH  71  72
BRANCH  71  75
ATOM     75  O   UNL A   1      32.622  18.185  26.534  1.00  0.00    -0.390 OA
ATOM     76  H   UNL A   1      33.395  17.729  26.903  1.00  0.00     0.211 HD
ENDBRANCH  71  75
ENDBRANCH  70  71
ENDBRANCH  69  70
ENDBRANCH  68  69
ENDBRANCH  61  68
ENDBRANCH   1  59
TORSDOF 18
ENDMDL
MODEL 3
REMARK VINA RESULT:      -9.8      5.639      9.832
REMARK SMILES O=C(OCCOC(=O)c1sc2ccccc2c1CSC[C@H](O)CO)c1ccc(-c2c3nc(c(-c4ccccc4)c4ccc([nH]4)c(-c4ccccc4)c4nc(c(-c5ccccc5)c5ccc2[nH]5)C=C4)C=C3)cc1
REMARK SMILES IDX 7 1 8 2 6 3 5 4 4 5 3 6 2 7 1 8 25 9 26 10 72 11 27 12 71 13
REMARK SMILES IDX 28 14 29 15 30 16 65 17 31 18 70 19 64 20 66 21 32 22 69 23
REMARK SMILES IDX 63 24 62 25 33 27 55 28 40 29 54 30 41 31 44 32 53 33 67 34
REMARK SMILES IDX 42 35 43 36 52 38 68 39 45 40 34 41 35 42 39 43 36 44 38 45
REMARK SMILES IDX 37 46 56 47 57 48 61 49 58 50 60 51 59 52 46 53 47 54 51 55
REMARK SMILES IDX 48 56 50 57 49 58 9 59 10 60 17 61 11 62 16 63 12 64 15 65
REMARK SMILES IDX 13 66 14 67 18 68 19 69 20 70 21 71 23 72 24 73 22 75
REMARK H PARENT 66 26 44 37 24 74 22 76
REMARK Flexibility Score: inf
ROOT
ATOM      1  C   UNL A   1      31.775  29.324  26.362  1.00  0.00     0.348 C 
ATOM      2  O   UNL A   1      31.401  29.128  27.511  1.00  0.00    -0.245 OA
ENDROOT
BRANCH   1   3
ATOM      3  O   UNL A   1      31.990  30.562  25.818  1.00  0.00    -0.458 OA
BRANCH   3   4
ATOM      4  C   UNL A   1      30.981  31.532  26.130  1.00  0.00     0.275 C 
BRANCH   4   5
ATOM      5  C   UNL A   1      31.590  32.875  26.545  1.00  0.00     0.275 C 
BRANCH   5   6
ATOM      6  O   UNL A   1      32.877  32.718  27.162  1.00  0.00    -0.458 OA
BRANCH   6   7
ATOM      7  C   UNL A   1      33.212  33.545  28.185  1.00  0.00     0.338 C 
ATOM      8  O   UNL A   1      32.673  34.625  28.378  1.00  0.00    -0.246 OA
BRANCH   7   9
ATOM      9  C   UNL A   1      34.520  33.235  28.809  1.00  0.00     0.060 A 
ATOM     10  C   UNL A   1      35.730  33.416  28.137  1.00  0.00     0.016 A 
ATOM     11  C   UNL A   1      34.510  32.657  30.084  1.00  0.00     0.016 A 
ATOM     12  C   UNL A   1      36.929  33.050  28.751  1.00  0.00     0.010 A 
ATOM     13  C   UNL A   1      35.710  32.317  30.711  1.00  0.00     0.010 A 
ATOM     14  C   UNL A   1      36.924  32.488  30.034  1.00  0.00    -0.014 A 
BRANCH  14  15
ATOM     15  C   UNL A   1      38.176  31.930  30.590  1.00  0.00     0.031 A 
ATOM     16  C   UNL A   1      38.669  30.609  30.080  1.00  0.00     0.074 A 
ATOM     17  C   UNL A   1      38.886  32.608  31.509  1.00  0.00     0.049 A 
ATOM     18  N   UNL A   1      39.798  29.998  30.332  1.00  0.00    -0.248 NA
ATOM     19  C   UNL A   1      37.788  29.889  29.144  1.00  0.00     0.031 C 
ATOM     20  C   UNL A   1      38.525  33.909  32.064  1.00  0.00     0.029 A 
ATOM     21  N   UNL A   1      40.062  32.289  32.138  1.00  0.00    -0.354 N 
ATOM     22  C   UNL A   1      39.781  28.849  29.554  1.00  0.00     0.074 A 
ATOM     23  C   UNL A   1      38.504  28.809  28.877  1.00  0.00     0.031 C 
ATOM     24  C   UNL A   1      39.437  34.262  32.985  1.00  0.00     0.029 A 
ATOM     25  C   UNL A   1      40.457  33.221  33.063  1.00  0.00     0.049 A 
ATOM     26  H   UNL A   1      40.572  31.470  31.945  1.00  0.00     0.167 HD
ATOM     27  C   UNL A   1      40.758  27.929  29.385  1.00  0.00     0.031 A 
ATOM     28  C   UNL A   1      41.531  33.237  33.875  1.00  0.00     0.031 A 
ATOM     29  C   UNL A   1      42.012  27.946  30.082  1.00  0.00     0.049 A 
ATOM     30  C   UNL A   1      42.555  32.145  33.755  1.00  0.00     0.074 A 
ATOM     31  C   UNL A   1      43.078  27.073  29.969  1.00  0.00     0.029 A 
ATOM     32  N   UNL A   1      42.357  28.882  31.043  1.00  0.00    -0.354 N 
ATOM     33  N   UNL A   1      42.569  31.114  32.944  1.00  0.00    -0.248 NA
ATOM     34  C   UNL A   1      43.730  32.239  34.633  1.00  0.00     0.031 C 
ATOM     35  C   UNL A   1      44.057  27.462  30.891  1.00  0.00     0.029 A 
ATOM     36  C   UNL A   1      43.610  28.596  31.553  1.00  0.00     0.049 A 
ATOM     37  H   UNL A   1      41.793  29.640  31.322  1.00  0.00     0.167 HD
ATOM     38  C   UNL A   1      43.771  30.462  33.182  1.00  0.00     0.074 A 
ATOM     39  C   UNL A   1      44.455  31.208  34.219  1.00  0.00     0.031 C 
ATOM     40  C   UNL A   1      44.272  29.355  32.581  1.00  0.00     0.031 A 
BRANCH  27  41
ATOM     41  C   UNL A   1      40.484  26.840  28.392  1.00  0.00    -0.014 A 
ATOM     42  C   UNL A   1      40.990  26.926  27.084  1.00  0.00     0.009 A 
ATOM     43  C   UNL A   1      39.692  25.740  28.747  1.00  0.00     0.009 A 
ATOM     44  C   UNL A   1      40.674  25.949  26.140  1.00  0.00     0.001 A 
ATOM     45  C   UNL A   1      39.393  24.755  27.805  1.00  0.00     0.001 A 
ATOM     46  C   UNL A   1      39.875  24.865  26.500  1.00  0.00     0.000 A 
ENDBRANCH  27  41
BRANCH  28  47
ATOM     47  C   UNL A   1      41.705  34.343  34.850  1.00  0.00    -0.014 A 
ATOM     48  C   UNL A   1      41.261  34.209  36.174  1.00  0.00     0.009 A 
ATOM     49  C   UNL A   1      42.318  35.541  34.453  1.00  0.00     0.009 A 
ATOM     50  C   UNL A   1      41.411  35.264  37.077  1.00  0.00     0.001 A 
ATOM     51  C   UNL A   1      42.481  36.588  35.364  1.00  0.00     0.001 A 
ATOM     52  C   UNL A   1      42.022  36.450  36.672  1.00  0.00     0.000 A 
ENDBRANCH  28  47
BRANCH  40  53
ATOM     53  C   UNL A   1      45.640  28.911  33.002  1.00  0.00    -0.014 A 
ATOM     54  C   UNL A   1      45.813  27.938  33.997  1.00  0.00     0.009 A 
ATOM     55  C   UNL A   1      46.769  29.444  32.360  1.00  0.00     0.009 A 
ATOM     56  C   UNL A   1      47.094  27.523  34.357  1.00  0.00     0.001 A 
ATOM     57  C   UNL A   1      48.048  29.012  32.709  1.00  0.00     0.001 A 
ATOM     58  C   UNL A   1      48.210  28.055  33.711  1.00  0.00     0.000 A 
ENDBRANCH  40  53
ENDBRANCH  14  15
ENDBRANCH   7   9
ENDBRANCH   6   7
ENDBRANCH   5   6
ENDBRANCH   4   5
ENDBRANCH   3   4
ENDBRANCH   1   3
BRANCH   1  59
ATOM     59  C   UNL A   1      31.976  28.304  25.357  1.00  0.00     0.117 A 
ATOM     60  S   UNL A   1      32.961  26.969  25.736  1.00  0.00    -0.128 S 
ATOM     61  C   UNL A   1      31.425  28.214  24.084  1.00  0.00    -0.005 A 
ATOM     62  C   UNL A   1      32.859  26.334  24.148  1.00  0.00     0.035 A 
ATOM     63  C   UNL A   1      32.003  27.094  23.348  1.00  0.00    -0.003 A 
ATOM     64  C   UNL A   1      33.536  25.201  23.653  1.00  0.00     0.019 A 
ATOM     65  C   UNL A   1      31.849  26.686  21.994  1.00  0.00     0.010 A 
ATOM     66  C   UNL A   1      33.369  24.837  22.317  1.00  0.00     0.001 A 
ATOM     67  C   UNL A   1      32.533  25.572  21.493  1.00  0.00     0.001 A 
BRANCH  61  68
ATOM     68  C   UNL A   1      30.463  29.207  23.485  1.00  0.00     0.107 C 
BRANCH  68  69
ATOM     69  S   UNL A   1      28.796  28.574  23.126  1.00  0.00    -0.154 SA
BRANCH  69  70
ATOM     70  C   UNL A   1      28.022  30.006  22.300  1.00  0.00     0.104 C 
BRANCH  70  71
ATOM     71  C   UNL A   1      28.243  31.288  23.097  1.00  0.00     0.149 C 
BRANCH  71  72
ATOM     72  C   UNL A   1      28.759  32.407  22.190  1.00  0.00     0.188 C 
BRANCH  72  73
ATOM     73  O   UNL A   1      28.403  33.667  22.755  1.00  0.00    -0.394 OA
ATOM     74  H   UNL A   1      29.199  34.211  22.862  1.00  0.00     0.210 HD
ENDBRANCH  72  73
ENDBRANCH  71  72
BRANCH  71  75
ATOM     75  O   UNL A   1      27.009  31.735  23.685  1.00  0.00    -0.390 OA
ATOM     76  H   UNL A   1      26.833  31.225  24.492  1.00  0.00     0.211 HD
ENDBRANCH  71  75
ENDBRANCH  70  71
ENDBRANCH  69  70
ENDBRANCH  68  69
ENDBRANCH  61  68
ENDBRANCH   1  59
TORSDOF 18
ENDMDL
