MODEL 1
REMARK VINA RESULT:     -12.0      0.000      0.000
REMARK SMILES COc1cc([C@@H]2CC(=O)Nc3c(C(=O)OCCOC(=O)c4ccc(-c5c6nc(c(-c7ccccc7)c7ccc([nH]7)c(-c7ccccc7)c7nc(c(-c8ccccc8)c8ccc5[nH]8)C=C7)C=C6)cc4)cn(-c4ccc(F)cc4)c32)c(OC)c2c1OCO2
REMARK SMILES IDX 16 1 15 2 13 3 14 4 12 5 6 6 7 7 78 8 8 9 11 10 70 11 9 12
REMARK SMILES IDX 10 13 69 14 5 16 3 17 4 18 83 19 82 20 84 21 79 22 86 23
REMARK SMILES IDX 85 24 2 25 1 26 80 27 81 28 71 29 72 30 77 31 73 32 76 33
REMARK SMILES IDX 74 34 75 35 17 36 18 37 19 38 20 39 21 40 22 41 68 42 23 43
REMARK SMILES IDX 67 44 24 45 25 46 26 47 61 48 27 49 66 50 60 51 62 52 28 53
REMARK SMILES IDX 65 54 59 55 58 56 29 58 51 59 36 60 50 61 37 62 40 63 49 64
REMARK SMILES IDX 63 65 38 66 39 67 48 69 64 70 41 71 30 72 31 73 35 74 32 75
REMARK SMILES IDX 34 76 33 77 52 78 53 79 57 80 54 81 56 82 55 83 42 84 43 85
REMARK SMILES IDX 47 86 44 87 46 88 45 89
REMARK H PARENT 10 15 62 57 40 68
REMARK Flexibility Score: inf
ROOT
ATOM      1  C   UNL A   1      36.753  23.332  24.550  1.00  0.00     0.275 C 
ENDROOT
BRANCH   1   2
ATOM      2  O   UNL A   1      35.415  22.805  24.594  1.00  0.00    -0.458 OA
BRANCH   2   3
ATOM      3  C   UNL A   1      34.584  23.311  25.558  1.00  0.00     0.341 C 
ATOM      4  O   UNL A   1      34.300  22.732  26.602  1.00  0.00    -0.246 OA
BRANCH   3   5
ATOM      5  C   UNL A   1      34.134  24.659  25.245  1.00  0.00     0.102 A 
ATOM      6  C   UNL A   1      32.771  27.353  23.081  1.00  0.00     0.082 C 
ATOM      7  C   UNL A   1      33.195  26.781  21.713  1.00  0.00     0.115 C 
ATOM      8  C   UNL A   1      33.304  26.486  24.185  1.00  0.00     0.055 A 
ATOM      9  C   UNL A   1      33.311  25.264  21.633  1.00  0.00     0.225 C 
ATOM     10  C   UNL A   1      33.722  25.191  24.004  1.00  0.00     0.078 A 
ATOM     11  N   UNL A   1      33.560  26.830  25.497  1.00  0.00    -0.317 N 
ATOM     12  O   UNL A   1      33.208  24.665  20.562  1.00  0.00    -0.275 OA
ATOM     13  N   UNL A   1      33.672  24.592  22.770  1.00  0.00    -0.324 N 
ATOM     14  C   UNL A   1      34.099  25.728  26.133  1.00  0.00     0.109 A 
ATOM     15  H   UNL A   1      33.906  23.638  22.699  1.00  0.00     0.170 HD
BRANCH   6  16
ATOM     16  C   UNL A   1      31.264  27.618  23.151  1.00  0.00     0.012 A 
ATOM     17  C   UNL A   1      29.471  29.268  22.817  1.00  0.00     0.165 A 
ATOM     18  C   UNL A   1      30.805  28.881  22.692  1.00  0.00     0.059 A 
ATOM     19  C   UNL A   1      28.579  28.336  23.307  1.00  0.00     0.211 A 
ATOM     20  C   UNL A   1      28.994  27.080  23.710  1.00  0.00     0.211 A 
ATOM     21  O   UNL A   1      27.233  28.504  23.442  1.00  0.00    -0.449 OA
ATOM     22  C   UNL A   1      30.328  26.692  23.664  1.00  0.00     0.168 A 
ATOM     23  O   UNL A   1      27.940  26.332  24.153  1.00  0.00    -0.449 OA
ATOM     24  C   UNL A   1      26.830  27.200  23.880  1.00  0.00     0.468 C 
BRANCH  17  25
ATOM     25  O   UNL A   1      29.173  30.538  22.417  1.00  0.00    -0.493 OA
ATOM     26  C   UNL A   1      28.918  31.440  23.492  1.00  0.00     0.278 C 
ENDBRANCH  17  25
BRANCH  22  27
ATOM     27  O   UNL A   1      30.831  25.496  24.078  1.00  0.00    -0.492 OA
ATOM     28  C   UNL A   1      30.296  24.296  23.544  1.00  0.00     0.278 C 
ENDBRANCH  22  27
ENDBRANCH   6  16
BRANCH  11  29
ATOM     29  C   UNL A   1      33.333  28.079  26.112  1.00  0.00     0.046 A 
ATOM     30  C   UNL A   1      32.021  28.497  26.344  1.00  0.00     0.029 A 
ATOM     31  C   UNL A   1      34.417  28.896  26.456  1.00  0.00     0.029 A 
ATOM     32  C   UNL A   1      31.780  29.776  26.842  1.00  0.00     0.041 A 
ATOM     33  C   UNL A   1      34.166  30.178  26.954  1.00  0.00     0.041 A 
ATOM     34  C   UNL A   1      32.853  30.611  27.127  1.00  0.00     0.123 A 
ATOM     35  F   UNL A   1      32.618  31.851  27.575  1.00  0.00    -0.207 F 
ENDBRANCH  11  29
ENDBRANCH   3   5
ENDBRANCH   2   3
ENDBRANCH   1   2
BRANCH   1  36
ATOM     36  C   UNL A   1      37.622  22.752  25.660  1.00  0.00     0.275 C 
BRANCH  36  37
ATOM     37  O   UNL A   1      38.353  23.784  26.315  1.00  0.00    -0.458 OA
BRANCH  37  38
ATOM     38  C   UNL A   1      39.570  23.427  26.781  1.00  0.00     0.338 C 
ATOM     39  O   UNL A   1      39.931  22.313  27.119  1.00  0.00    -0.246 OA
BRANCH  38  40
ATOM     40  C   UNL A   1      40.357  24.637  27.030  1.00  0.00     0.060 A 
ATOM     41  C   UNL A   1      40.866  24.796  28.323  1.00  0.00     0.016 A 
ATOM     42  C   UNL A   1      40.262  25.706  26.128  1.00  0.00     0.016 A 
ATOM     43  C   UNL A   1      41.044  26.074  28.796  1.00  0.00     0.010 A 
ATOM     44  C   UNL A   1      40.411  26.980  26.610  1.00  0.00     0.010 A 
ATOM     45  C   UNL A   1      40.708  27.143  27.960  1.00  0.00    -0.014 A 
BRANCH  45  46
ATOM     46  C   UNL A   1      40.701  28.472  28.523  1.00  0.00     0.031 A 
ATOM     47  C   UNL A   1      41.905  29.258  28.186  1.00  0.00     0.074 A 
ATOM     48  C   UNL A   1      39.623  28.962  29.160  1.00  0.00     0.049 A 
ATOM     49  N   UNL A   1      42.810  29.710  28.987  1.00  0.00    -0.248 NA
ATOM     50  C   UNL A   1      42.216  29.426  26.757  1.00  0.00     0.031 C 
ATOM     51  C   UNL A   1      38.280  28.379  29.252  1.00  0.00     0.029 A 
ATOM     52  N   UNL A   1      39.472  30.176  29.747  1.00  0.00    -0.354 N 
ATOM     53  C   UNL A   1      43.720  30.378  28.176  1.00  0.00     0.074 A 
ATOM     54  C   UNL A   1      43.410  30.010  26.820  1.00  0.00     0.031 C 
ATOM     55  C   UNL A   1      37.408  29.344  29.627  1.00  0.00     0.029 A 
ATOM     56  C   UNL A   1      38.151  30.559  29.920  1.00  0.00     0.049 A 
ATOM     57  H   UNL A   1      40.234  30.735  30.025  1.00  0.00     0.167 HD
ATOM     58  C   UNL A   1      44.491  31.392  28.653  1.00  0.00     0.031 A 
ATOM     59  C   UNL A   1      37.716  31.815  30.184  1.00  0.00     0.031 A 
ATOM     60  C   UNL A   1      44.541  31.395  30.091  1.00  0.00     0.049 A 
ATOM     61  C   UNL A   1      38.881  32.603  30.662  1.00  0.00     0.074 A 
ATOM     62  C   UNL A   1      44.980  30.505  31.050  1.00  0.00     0.029 A 
ATOM     63  N   UNL A   1      43.729  32.291  30.745  1.00  0.00    -0.354 N 
ATOM     64  N   UNL A   1      39.479  32.388  31.800  1.00  0.00    -0.248 NA
ATOM     65  C   UNL A   1      39.669  33.326  29.673  1.00  0.00     0.031 C 
ATOM     66  C   UNL A   1      44.047  30.628  32.119  1.00  0.00     0.029 A 
ATOM     67  C   UNL A   1      43.127  31.620  31.776  1.00  0.00     0.049 A 
ATOM     68  H   UNL A   1      43.603  33.239  30.513  1.00  0.00     0.167 HD
ATOM     69  C   UNL A   1      40.831  32.560  31.531  1.00  0.00     0.074 A 
ATOM     70  C   UNL A   1      40.878  33.231  30.233  1.00  0.00     0.031 C 
ATOM     71  C   UNL A   1      41.784  31.887  32.240  1.00  0.00     0.031 A 
BRANCH  58  72
ATOM     72  C   UNL A   1      44.822  32.615  27.837  1.00  0.00    -0.014 A 
ATOM     73  C   UNL A   1      43.785  33.511  27.524  1.00  0.00     0.009 A 
ATOM     74  C   UNL A   1      46.029  32.772  27.128  1.00  0.00     0.009 A 
ATOM     75  C   UNL A   1      43.923  34.450  26.496  1.00  0.00     0.001 A 
ATOM     76  C   UNL A   1      46.186  33.738  26.133  1.00  0.00     0.001 A 
ATOM     77  C   UNL A   1      45.121  34.556  25.794  1.00  0.00     0.000 A 
ENDBRANCH  58  72
BRANCH  59  78
ATOM     78  C   UNL A   1      36.459  32.455  29.740  1.00  0.00    -0.014 A 
ATOM     79  C   UNL A   1      35.521  32.923  30.672  1.00  0.00     0.009 A 
ATOM     80  C   UNL A   1      36.293  32.842  28.396  1.00  0.00     0.009 A 
ATOM     81  C   UNL A   1      34.473  33.768  30.277  1.00  0.00     0.001 A 
ATOM     82  C   UNL A   1      35.246  33.682  28.001  1.00  0.00     0.001 A 
ATOM     83  C   UNL A   1      34.344  34.157  28.946  1.00  0.00     0.000 A 
ENDBRANCH  59  78
BRANCH  71  84
ATOM     84  C   UNL A   1      41.349  31.122  33.465  1.00  0.00    -0.014 A 
ATOM     85  C   UNL A   1      40.920  29.785  33.415  1.00  0.00     0.009 A 
ATOM     86  C   UNL A   1      41.565  31.707  34.721  1.00  0.00     0.009 A 
ATOM     87  C   UNL A   1      40.700  29.059  34.590  1.00  0.00     0.001 A 
ATOM     88  C   UNL A   1      41.366  30.977  35.894  1.00  0.00     0.001 A 
ATOM     89  C   UNL A   1      40.932  29.654  35.829  1.00  0.00     0.000 A 
ENDBRANCH  71  84
ENDBRANCH  45  46
ENDBRANCH  38  40
ENDBRANCH  37  38
ENDBRANCH  36  37
ENDBRANCH   1  36
TORSDOF 15
ENDMDL
MODEL 2
REMARK VINA RESULT:     -11.9      3.453      8.299
REMARK SMILES COc1cc([C@@H]2CC(=O)Nc3c(C(=O)OCCOC(=O)c4ccc(-c5c6nc(c(-c7ccccc7)c7ccc([nH]7)c(-c7ccccc7)c7nc(c(-c8ccccc8)c8ccc5[nH]8)C=C7)C=C6)cc4)cn(-c4ccc(F)cc4)c32)c(OC)c2c1OCO2
REMARK SMILES IDX 16 1 15 2 13 3 14 4 12 5 6 6 7 7 78 8 8 9 11 10 70 11 9 12
REMARK SMILES IDX 10 13 69 14 5 16 3 17 4 18 83 19 82 20 84 21 79 22 86 23
REMARK SMILES IDX 85 24 2 25 1 26 80 27 81 28 71 29 72 30 77 31 73 32 76 33
REMARK SMILES IDX 74 34 75 35 17 36 18 37 19 38 20 39 21 40 22 41 68 42 23 43
REMARK SMILES IDX 67 44 24 45 25 46 26 47 61 48 27 49 66 50 60 51 62 52 28 53
REMARK SMILES IDX 65 54 59 55 58 56 29 58 51 59 36 60 50 61 37 62 40 63 49 64
REMARK SMILES IDX 63 65 38 66 39 67 48 69 64 70 41 71 30 72 31 73 35 74 32 75
REMARK SMILES IDX 34 76 33 77 52 78 53 79 57 80 54 81 56 82 55 83 42 84 43 85
REMARK SMILES IDX 47 86 44 87 46 88 45 89
REMARK H PARENT 10 15 62 57 40 68
REMARK Flexibility Score: inf
ROOT
ATOM      1  C   UNL A   1      33.253  28.891  26.667  1.00  0.00     0.275 C 
ENDROOT
BRANCH   1   2
ATOM      2  O   UNL A   1      33.440  28.380  25.335  1.00  0.00    -0.458 OA
BRANCH   2   3
ATOM      3  C   UNL A   1      32.603  27.371  24.938  1.00  0.00     0.341 C 
ATOM      4  O   UNL A   1      31.549  27.543  24.333  1.00  0.00    -0.246 OA
BRANCH   3   5
ATOM      5  C   UNL A   1      33.144  26.055  25.240  1.00  0.00     0.102 A 
ATOM      6  C   UNL A   1      33.013  22.528  26.400  1.00  0.00     0.082 C 
ATOM      7  C   UNL A   1      31.780  22.638  27.320  1.00  0.00     0.115 C 
ATOM      8  C   UNL A   1      33.369  23.882  25.859  1.00  0.00     0.055 A 
ATOM      9  C   UNL A   1      30.761  23.706  26.943  1.00  0.00     0.225 C 
ATOM     10  C   UNL A   1      32.503  24.948  25.839  1.00  0.00     0.078 A 
ATOM     11  N   UNL A   1      34.592  24.327  25.398  1.00  0.00    -0.317 N 
ATOM     12  O   UNL A   1      29.582  23.625  27.291  1.00  0.00    -0.275 OA
ATOM     13  N   UNL A   1      31.223  24.836  26.321  1.00  0.00    -0.324 N 
ATOM     14  C   UNL A   1      34.464  25.659  25.056  1.00  0.00     0.109 A 
ATOM     15  H   UNL A   1      30.610  25.599  26.215  1.00  0.00     0.170 HD
BRANCH   6  16
ATOM     16  C   UNL A   1      32.840  21.442  25.334  1.00  0.00     0.012 A 
ATOM     17  C   UNL A   1      33.206  19.079  24.760  1.00  0.00     0.165 A 
ATOM     18  C   UNL A   1      33.215  20.119  25.689  1.00  0.00     0.059 A 
ATOM     19  C   UNL A   1      32.714  19.352  23.500  1.00  0.00     0.211 A 
ATOM     20  C   UNL A   1      32.292  20.621  23.147  1.00  0.00     0.211 A 
ATOM     21  O   UNL A   1      32.567  18.457  22.482  1.00  0.00    -0.449 OA
ATOM     22  C   UNL A   1      32.356  21.693  24.030  1.00  0.00     0.168 A 
ATOM     23  O   UNL A   1      31.844  20.650  21.857  1.00  0.00    -0.449 OA
ATOM     24  C   UNL A   1      31.923  19.266  21.488  1.00  0.00     0.468 C 
BRANCH  17  25
ATOM     25  O   UNL A   1      33.671  17.874  25.201  1.00  0.00    -0.493 OA
ATOM     26  C   UNL A   1      32.650  16.996  25.671  1.00  0.00     0.278 C 
ENDBRANCH  17  25
BRANCH  22  27
ATOM     27  O   UNL A   1      32.005  22.980  23.758  1.00  0.00    -0.492 OA
ATOM     28  C   UNL A   1      32.480  23.592  22.569  1.00  0.00     0.278 C 
ENDBRANCH  22  27
ENDBRANCH   6  16
BRANCH  11  29
ATOM     29  C   UNL A   1      35.785  23.583  25.291  1.00  0.00     0.046 A 
ATOM     30  C   UNL A   1      35.905  22.628  24.279  1.00  0.00     0.029 A 
ATOM     31  C   UNL A   1      36.821  23.786  26.211  1.00  0.00     0.029 A 
ATOM     32  C   UNL A   1      37.030  21.806  24.234  1.00  0.00     0.041 A 
ATOM     33  C   UNL A   1      37.945  22.956  26.159  1.00  0.00     0.041 A 
ATOM     34  C   UNL A   1      38.031  21.966  25.184  1.00  0.00     0.123 A 
ATOM     35  F   UNL A   1      39.096  21.153  25.158  1.00  0.00    -0.207 F 
ENDBRANCH  11  29
ENDBRANCH   3   5
ENDBRANCH   2   3
ENDBRANCH   1   2
BRANCH   1  36
ATOM     36  C   UNL A   1      34.014  30.193  26.881  1.00  0.00     0.275 C 
BRANCH  36  37
ATOM     37  O   UNL A   1      35.267  29.943  27.511  1.00  0.00    -0.458 OA
BRANCH  37  38
ATOM     38  C   UNL A   1      35.868  31.023  28.057  1.00  0.00     0.338 C 
ATOM     39  O   UNL A   1      35.722  32.189  27.733  1.00  0.00    -0.246 OA
BRANCH  38  40
ATOM     40  C   UNL A   1      36.912  30.570  28.980  1.00  0.00     0.060 A 
ATOM     41  C   UNL A   1      38.166  31.175  28.850  1.00  0.00     0.016 A 
ATOM     42  C   UNL A   1      36.733  29.360  29.664  1.00  0.00     0.016 A 
ATOM     43  C   UNL A   1      39.277  30.440  29.189  1.00  0.00     0.010 A 
ATOM     44  C   UNL A   1      37.842  28.617  29.975  1.00  0.00     0.010 A 
ATOM     45  C   UNL A   1      39.092  29.131  29.645  1.00  0.00    -0.014 A 
BRANCH  45  46
ATOM     46  C   UNL A   1      40.258  28.296  29.806  1.00  0.00     0.031 A 
ATOM     47  C   UNL A   1      40.774  28.269  31.190  1.00  0.00     0.074 A 
ATOM     48  C   UNL A   1      40.710  27.518  28.807  1.00  0.00     0.049 A 
ATOM     49  N   UNL A   1      41.914  28.690  31.622  1.00  0.00    -0.248 NA
ATOM     50  C   UNL A   1      39.834  27.860  32.246  1.00  0.00     0.031 C 
ATOM     51  C   UNL A   1      40.073  27.233  27.517  1.00  0.00     0.029 A 
ATOM     52  N   UNL A   1      41.790  26.696  28.804  1.00  0.00    -0.354 N 
ATOM     53  C   UNL A   1      41.907  28.436  32.988  1.00  0.00     0.074 A 
ATOM     54  C   UNL A   1      40.550  28.108  33.339  1.00  0.00     0.031 C 
ATOM     55  C   UNL A   1      40.640  26.127  26.982  1.00  0.00     0.029 A 
ATOM     56  C   UNL A   1      41.750  25.714  27.826  1.00  0.00     0.049 A 
ATOM     57  H   UNL A   1      42.536  26.789  29.440  1.00  0.00     0.167 HD
ATOM     58  C   UNL A   1      43.060  28.251  33.686  1.00  0.00     0.031 A 
ATOM     59  C   UNL A   1      42.516  24.597  27.789  1.00  0.00     0.031 A 
ATOM     60  C   UNL A   1      44.206  28.737  32.963  1.00  0.00     0.049 A 
ATOM     61  C   UNL A   1      43.661  24.807  28.711  1.00  0.00     0.074 A 
ATOM     62  C   UNL A   1      44.601  29.969  32.483  1.00  0.00     0.029 A 
ATOM     63  N   UNL A   1      44.971  27.805  32.303  1.00  0.00    -0.354 N 
ATOM     64  N   UNL A   1      44.612  25.671  28.495  1.00  0.00    -0.248 NA
ATOM     65  C   UNL A   1      43.509  24.385  30.097  1.00  0.00     0.031 C 
ATOM     66  C   UNL A   1      45.236  29.690  31.238  1.00  0.00     0.029 A 
ATOM     67  C   UNL A   1      45.239  28.306  31.056  1.00  0.00     0.049 A 
ATOM     68  H   UNL A   1      45.270  26.938  32.660  1.00  0.00     0.167 HD
ATOM     69  C   UNL A   1      44.889  26.217  29.742  1.00  0.00     0.074 A 
ATOM     70  C   UNL A   1      44.250  25.318  30.701  1.00  0.00     0.031 C 
ATOM     71  C   UNL A   1      45.357  27.494  29.866  1.00  0.00     0.031 A 
BRANCH  58  72
ATOM     72  C   UNL A   1      43.184  27.246  34.802  1.00  0.00    -0.014 A 
ATOM     73  C   UNL A   1      43.024  25.883  34.495  1.00  0.00     0.009 A 
ATOM     74  C   UNL A   1      43.160  27.594  36.167  1.00  0.00     0.009 A 
ATOM     75  C   UNL A   1      42.766  24.940  35.496  1.00  0.00     0.001 A 
ATOM     76  C   UNL A   1      42.948  26.649  37.171  1.00  0.00     0.001 A 
ATOM     77  C   UNL A   1      42.717  25.325  36.833  1.00  0.00     0.000 A 
ENDBRANCH  58  72
BRANCH  59  78
ATOM     78  C   UNL A   1      42.149  23.258  27.277  1.00  0.00    -0.014 A 
ATOM     79  C   UNL A   1      42.869  22.667  26.228  1.00  0.00     0.009 A 
ATOM     80  C   UNL A   1      41.249  22.445  27.992  1.00  0.00     0.009 A 
ATOM     81  C   UNL A   1      42.713  21.306  25.925  1.00  0.00     0.001 A 
ATOM     82  C   UNL A   1      41.091  21.089  27.688  1.00  0.00     0.001 A 
ATOM     83  C   UNL A   1      41.834  20.516  26.663  1.00  0.00     0.000 A 
ENDBRANCH  59  78
BRANCH  71  84
ATOM     84  C   UNL A   1      45.775  28.222  28.614  1.00  0.00    -0.014 A 
ATOM     85  C   UNL A   1      47.101  28.233  28.147  1.00  0.00     0.009 A 
ATOM     86  C   UNL A   1      44.771  28.743  27.784  1.00  0.00     0.009 A 
ATOM     87  C   UNL A   1      47.413  28.764  26.891  1.00  0.00     0.001 A 
ATOM     88  C   UNL A   1      45.079  29.254  26.522  1.00  0.00     0.001 A 
ATOM     89  C   UNL A   1      46.399  29.265  26.076  1.00  0.00     0.000 A 
ENDBRANCH  71  84
ENDBRANCH  45  46
ENDBRANCH  38  40
ENDBRANCH  37  38
ENDBRANCH  36  37
ENDBRANCH   1  36
TORSDOF 15
ENDMDL
MODEL 3
REMARK VINA RESULT:     -11.8      2.701      6.160
REMARK SMILES COc1cc([C@@H]2CC(=O)Nc3c(C(=O)OCCOC(=O)c4ccc(-c5c6nc(c(-c7ccccc7)c7ccc([nH]7)c(-c7ccccc7)c7nc(c(-c8ccccc8)c8ccc5[nH]8)C=C7)C=C6)cc4)cn(-c4ccc(F)cc4)c32)c(OC)c2c1OCO2
REMARK SMILES IDX 16 1 15 2 13 3 14 4 12 5 6 6 7 7 78 8 8 9 11 10 70 11 9 12
REMARK SMILES IDX 10 13 69 14 5 16 3 17 4 18 83 19 82 20 84 21 79 22 86 23
REMARK SMILES IDX 85 24 2 25 1 26 80 27 81 28 71 29 72 30 77 31 73 32 76 33
REMARK SMILES IDX 74 34 75 35 17 36 18 37 19 38 20 39 21 40 22 41 68 42 23 43
REMARK SMILES IDX 67 44 24 45 25 46 26 47 61 48 27 49 66 50 60 51 62 52 28 53
REMARK SMILES IDX 65 54 59 55 58 56 29 58 51 59 36 60 50 61 37 62 40 63 49 64
REMARK SMILES IDX 63 65 38 66 39 67 48 69 64 70 41 71 30 72 31 73 35 74 32 75
REMARK SMILES IDX 34 76 33 77 52 78 53 79 57 80 54 81 56 82 55 83 42 84 43 85
REMARK SMILES IDX 47 86 44 87 46 88 45 89
REMARK H PARENT 10 15 62 57 40 68
REMARK Flexibility Score: inf
ROOT
ATOM      1  C   UNL A   1      36.044  21.056  25.196  1.00  0.00     0.275 C 
ENDROOT
BRANCH   1   2
ATOM      2  O   UNL A   1      35.453  22.300  24.782  1.00  0.00    -0.458 OA
BRANCH   2   3
ATOM      3  C   UNL A   1      34.336  22.710  25.461  1.00  0.00     0.341 C 
ATOM      4  O   UNL A   1      33.719  22.016  26.263  1.00  0.00    -0.246 OA
BRANCH   3   5
ATOM      5  C   UNL A   1      34.004  24.100  25.187  1.00  0.00     0.102 A 
ATOM      6  C   UNL A   1      32.916  26.969  23.093  1.00  0.00     0.082 C 
ATOM      7  C   UNL A   1      33.326  26.412  21.715  1.00  0.00     0.115 C 
ATOM      8  C   UNL A   1      33.350  26.025  24.176  1.00  0.00     0.055 A 
ATOM      9  C   UNL A   1      33.321  24.894  21.582  1.00  0.00     0.225 C 
ATOM     10  C   UNL A   1      33.667  24.706  23.957  1.00  0.00     0.078 A 
ATOM     11  N   UNL A   1      33.602  26.301  25.505  1.00  0.00    -0.317 N 
ATOM     12  O   UNL A   1      33.195  24.342  20.489  1.00  0.00    -0.275 OA
ATOM     13  N   UNL A   1      33.599  24.156  22.702  1.00  0.00    -0.324 N 
ATOM     14  C   UNL A   1      34.035  25.138  26.112  1.00  0.00     0.109 A 
ATOM     15  H   UNL A   1      33.756  23.189  22.602  1.00  0.00     0.170 HD
BRANCH   6  16
ATOM     16  C   UNL A   1      31.435  27.354  23.140  1.00  0.00     0.012 A 
ATOM     17  C   UNL A   1      29.788  29.153  22.817  1.00  0.00     0.165 A 
ATOM     18  C   UNL A   1      31.089  28.661  22.707  1.00  0.00     0.059 A 
ATOM     19  C   UNL A   1      28.814  28.283  23.263  1.00  0.00     0.211 A 
ATOM     20  C   UNL A   1      29.116  26.988  23.640  1.00  0.00     0.211 A 
ATOM     21  O   UNL A   1      27.483  28.557  23.376  1.00  0.00    -0.449 OA
ATOM     22  C   UNL A   1      30.415  26.494  23.609  1.00  0.00     0.168 A 
ATOM     23  O   UNL A   1      27.996  26.317  24.040  1.00  0.00    -0.449 OA
ATOM     24  C   UNL A   1      26.966  27.278  23.769  1.00  0.00     0.468 C 
BRANCH  17  25
ATOM     25  O   UNL A   1      29.603  30.452  22.447  1.00  0.00    -0.493 OA
ATOM     26  C   UNL A   1      28.733  30.619  21.329  1.00  0.00     0.278 C 
ENDBRANCH  17  25
BRANCH  22  27
ATOM     27  O   UNL A   1      30.812  25.251  24.000  1.00  0.00    -0.492 OA
ATOM     28  C   UNL A   1      30.346  24.731  25.235  1.00  0.00     0.278 C 
ENDBRANCH  22  27
ENDBRANCH   6  16
BRANCH  11  29
ATOM     29  C   UNL A   1      33.462  27.543  26.160  1.00  0.00     0.046 A 
ATOM     30  C   UNL A   1      32.214  27.910  26.667  1.00  0.00     0.029 A 
ATOM     31  C   UNL A   1      34.561  28.402  26.270  1.00  0.00     0.029 A 
ATOM     32  C   UNL A   1      32.034  29.180  27.211  1.00  0.00     0.041 A 
ATOM     33  C   UNL A   1      34.372  29.676  26.815  1.00  0.00     0.041 A 
ATOM     34  C   UNL A   1      33.110  30.058  27.265  1.00  0.00     0.123 A 
ATOM     35  F   UNL A   1      32.928  31.290  27.758  1.00  0.00    -0.207 F 
ENDBRANCH  11  29
ENDBRANCH   3   5
ENDBRANCH   2   3
ENDBRANCH   1   2
BRANCH   1  36
ATOM     36  C   UNL A   1      37.472  20.914  24.684  1.00  0.00     0.275 C 
BRANCH  36  37
ATOM     37  O   UNL A   1      38.406  21.169  25.729  1.00  0.00    -0.458 OA
BRANCH  37  38
ATOM     38  C   UNL A   1      39.488  20.360  25.749  1.00  0.00     0.338 C 
ATOM     39  O   UNL A   1      39.525  19.172  25.479  1.00  0.00    -0.246 OA
BRANCH  38  40
ATOM     40  C   UNL A   1      40.608  21.080  26.362  1.00  0.00     0.060 A 
ATOM     41  C   UNL A   1      40.742  20.962  27.748  1.00  0.00     0.016 A 
ATOM     42  C   UNL A   1      41.238  22.099  25.634  1.00  0.00     0.016 A 
ATOM     43  C   UNL A   1      41.303  22.012  28.437  1.00  0.00     0.010 A 
ATOM     44  C   UNL A   1      41.771  23.157  26.323  1.00  0.00     0.010 A 
ATOM     45  C   UNL A   1      41.709  23.137  27.713  1.00  0.00    -0.014 A 
BRANCH  45  46
ATOM     46  C   UNL A   1      42.107  24.312  28.449  1.00  0.00     0.031 A 
ATOM     47  C   UNL A   1      41.210  25.467  28.240  1.00  0.00     0.074 A 
ATOM     48  C   UNL A   1      43.113  24.278  29.340  1.00  0.00     0.049 A 
ATOM     49  N   UNL A   1      41.489  26.603  27.695  1.00  0.00    -0.248 NA
ATOM     50  C   UNL A   1      39.783  25.268  28.539  1.00  0.00     0.031 C 
ATOM     51  C   UNL A   1      43.837  23.108  29.849  1.00  0.00     0.029 A 
ATOM     52  N   UNL A   1      43.606  25.295  30.092  1.00  0.00    -0.354 N 
ATOM     53  C   UNL A   1      40.309  27.335  27.743  1.00  0.00     0.074 A 
ATOM     54  C   UNL A   1      39.264  26.408  28.090  1.00  0.00     0.031 C 
ATOM     55  C   UNL A   1      44.479  23.452  30.990  1.00  0.00     0.029 A 
ATOM     56  C   UNL A   1      44.314  24.880  31.209  1.00  0.00     0.049 A 
ATOM     57  H   UNL A   1      43.473  26.244  29.863  1.00  0.00     0.167 HD
ATOM     58  C   UNL A   1      40.312  28.695  27.757  1.00  0.00     0.031 A 
ATOM     59  C   UNL A   1      44.641  25.651  32.274  1.00  0.00     0.031 A 
ATOM     60  C   UNL A   1      41.574  29.231  27.321  1.00  0.00     0.049 A 
ATOM     61  C   UNL A   1      44.489  27.070  31.866  1.00  0.00     0.074 A 
ATOM     62  C   UNL A   1      42.308  29.162  26.154  1.00  0.00     0.029 A 
ATOM     63  N   UNL A   1      42.444  29.656  28.296  1.00  0.00    -0.354 N 
ATOM     64  N   UNL A   1      45.258  27.655  30.991  1.00  0.00    -0.248 NA
ATOM     65  C   UNL A   1      43.199  27.710  32.084  1.00  0.00     0.031 C 
ATOM     66  C   UNL A   1      43.666  29.093  26.579  1.00  0.00     0.029 A 
ATOM     67  C   UNL A   1      43.686  29.177  27.973  1.00  0.00     0.049 A 
ATOM     68  H   UNL A   1      42.217  30.203  29.082  1.00  0.00     0.167 HD
ATOM     69  C   UNL A   1      44.406  28.465  30.251  1.00  0.00     0.074 A 
ATOM     70  C   UNL A   1      43.172  28.531  31.031  1.00  0.00     0.031 C 
ATOM     71  C   UNL A   1      44.673  28.764  28.945  1.00  0.00     0.031 A 
BRANCH  58  72
ATOM     72  C   UNL A   1      39.338  29.502  28.575  1.00  0.00    -0.014 A 
ATOM     73  C   UNL A   1      39.493  29.521  29.972  1.00  0.00     0.009 A 
ATOM     74  C   UNL A   1      38.121  30.000  28.067  1.00  0.00     0.009 A 
ATOM     75  C   UNL A   1      38.451  29.931  30.813  1.00  0.00     0.001 A 
ATOM     76  C   UNL A   1      37.098  30.453  28.901  1.00  0.00     0.001 A 
ATOM     77  C   UNL A   1      37.251  30.387  30.276  1.00  0.00     0.000 A 
ENDBRANCH  58  72
BRANCH  59  78
ATOM     78  C   UNL A   1      44.749  25.245  33.693  1.00  0.00    -0.014 A 
ATOM     79  C   UNL A   1      43.673  24.629  34.349  1.00  0.00     0.009 A 
ATOM     80  C   UNL A   1      46.002  25.228  34.335  1.00  0.00     0.009 A 
ATOM     81  C   UNL A   1      43.853  23.996  35.588  1.00  0.00     0.001 A 
ATOM     82  C   UNL A   1      46.181  24.600  35.572  1.00  0.00     0.001 A 
ATOM     83  C   UNL A   1      45.107  23.971  36.192  1.00  0.00     0.000 A 
ENDBRANCH  59  78
BRANCH  71  84
ATOM     84  C   UNL A   1      46.021  28.380  28.390  1.00  0.00    -0.014 A 
ATOM     85  C   UNL A   1      46.279  27.121  27.820  1.00  0.00     0.009 A 
ATOM     86  C   UNL A   1      46.995  29.382  28.264  1.00  0.00     0.009 A 
ATOM     87  C   UNL A   1      47.484  26.870  27.156  1.00  0.00     0.001 A 
ATOM     88  C   UNL A   1      48.189  29.137  27.583  1.00  0.00     0.001 A 
ATOM     89  C   UNL A   1      48.433  27.881  27.030  1.00  0.00     0.000 A 
ENDBRANCH  71  84
ENDBRANCH  45  46
ENDBRANCH  38  40
ENDBRANCH  37  38
ENDBRANCH  36  37
ENDBRANCH   1  36
TORSDOF 15
ENDMDL
