MODEL 1
REMARK VINA RESULT:     -11.2      0.000      0.000
REMARK SMILES COc1ccc(CNC(=O)[C@H]2CC(C)=C(C)C[C@@H]2C(=O)OCCOC(=O)c2ccc(-c3c4nc(c(-c5ccccc5)c5ccc([nH]5)c(-c5ccccc5)c5nc(c(-c6ccccc6)c6ccc3[nH]6)C=C5)C=C4)cc2)cc1OC
REMARK SMILES IDX 22 1 21 2 19 3 20 4 18 5 11 6 12 7 13 8 17 9 14 10 15 11
REMARK SMILES IDX 16 12 9 13 8 14 10 16 7 17 6 18 3 19 4 20 76 21 5 22 75 23
REMARK SMILES IDX 2 24 1 25 77 26 78 27 23 28 24 29 25 30 26 31 27 32 28 33
REMARK SMILES IDX 74 34 29 35 73 36 30 37 31 38 32 39 67 40 33 41 72 42 66 43
REMARK SMILES IDX 68 44 34 45 71 46 65 47 64 48 35 50 57 51 42 52 56 53 43 54
REMARK SMILES IDX 46 55 55 56 69 57 44 58 45 59 54 61 70 62 47 63 36 64 37 65
REMARK SMILES IDX 41 66 38 67 40 68 39 69 58 70 59 71 63 72 60 73 62 74 61 75
REMARK SMILES IDX 48 76 49 77 53 78 50 79 52 80 51 81
REMARK H PARENT 8 15 68 49 46 60
REMARK Flexibility Score: inf
ROOT
ATOM      1  C   UNL A   1      34.968  19.979  25.006  1.00  0.00     0.274 C 
ENDROOT
BRANCH   1   2
ATOM      2  O   UNL A   1      34.318  20.876  25.931  1.00  0.00    -0.462 OA
BRANCH   2   3
ATOM      3  C   UNL A   1      32.975  21.057  25.773  1.00  0.00     0.310 C 
ATOM      4  O   UNL A   1      32.207  20.190  25.375  1.00  0.00    -0.252 OA
BRANCH   3   5
ATOM      5  C   UNL A   1      32.559  22.471  26.163  1.00  0.00     0.116 C 
ATOM      6  C   UNL A   1      31.200  22.831  25.529  1.00  0.00     0.097 C 
ATOM      7  C   UNL A   1      31.274  23.635  24.213  1.00  0.00     0.045 C 
ATOM      8  C   UNL A   1      32.644  23.902  23.625  1.00  0.00    -0.074 C 
ATOM      9  C   UNL A   1      33.693  23.442  25.829  1.00  0.00     0.046 C 
ATOM     10  C   UNL A   1      32.636  24.297  22.168  1.00  0.00     0.039 C 
ATOM     11  C   UNL A   1      33.766  23.831  24.373  1.00  0.00    -0.073 C 
ATOM     12  C   UNL A   1      35.141  24.140  23.842  1.00  0.00     0.039 C 
BRANCH   6  13
ATOM     13  C   UNL A   1      30.342  23.567  26.556  1.00  0.00     0.224 C 
ATOM     14  N   UNL A   1      29.972  24.868  26.376  1.00  0.00    -0.352 N 
ATOM     15  H   UNL A   1      29.323  25.200  27.038  1.00  0.00     0.163 HD
ATOM     16  O   UNL A   1      29.961  22.999  27.583  1.00  0.00    -0.275 OA
BRANCH  14  17
ATOM     17  C   UNL A   1      30.368  25.848  25.383  1.00  0.00     0.151 C 
BRANCH  17  18
ATOM     18  C   UNL A   1      31.479  26.786  25.811  1.00  0.00    -0.025 A 
ATOM     19  C   UNL A   1      33.297  28.891  26.318  1.00  0.00     0.160 A 
ATOM     20  C   UNL A   1      32.391  28.478  27.301  1.00  0.00     0.051 A 
ATOM     21  C   UNL A   1      33.375  28.198  25.110  1.00  0.00     0.161 A 
ATOM     22  C   UNL A   1      31.491  27.435  27.049  1.00  0.00     0.009 A 
ATOM     23  C   UNL A   1      32.464  27.153  24.878  1.00  0.00     0.056 A 
BRANCH  19  24
ATOM     24  O   UNL A   1      34.106  29.961  26.596  1.00  0.00    -0.493 OA
ATOM     25  C   UNL A   1      34.884  29.715  27.770  1.00  0.00     0.278 C 
ENDBRANCH  19  24
BRANCH  21  26
ATOM     26  O   UNL A   1      34.203  28.428  24.044  1.00  0.00    -0.493 OA
ATOM     27  C   UNL A   1      33.716  28.149  22.739  1.00  0.00     0.278 C 
ENDBRANCH  21  26
ENDBRANCH  17  18
ENDBRANCH  14  17
ENDBRANCH   6  13
ENDBRANCH   3   5
ENDBRANCH   2   3
ENDBRANCH   1   2
BRANCH   1  28
ATOM     28  C   UNL A   1      36.385  20.437  24.637  1.00  0.00     0.275 C 
BRANCH  28  29
ATOM     29  O   UNL A   1      36.887  21.459  25.524  1.00  0.00    -0.458 OA
BRANCH  29  30
ATOM     30  C   UNL A   1      38.208  21.346  25.764  1.00  0.00     0.338 C 
ATOM     31  O   UNL A   1      38.932  20.445  25.370  1.00  0.00    -0.246 OA
BRANCH  30  32
ATOM     32  C   UNL A   1      38.775  22.493  26.482  1.00  0.00     0.060 A 
ATOM     33  C   UNL A   1      38.231  23.747  26.209  1.00  0.00     0.016 A 
ATOM     34  C   UNL A   1      39.998  22.389  27.145  1.00  0.00     0.016 A 
ATOM     35  C   UNL A   1      38.957  24.896  26.503  1.00  0.00     0.010 A 
ATOM     36  C   UNL A   1      40.678  23.555  27.531  1.00  0.00     0.010 A 
ATOM     37  C   UNL A   1      40.185  24.824  27.178  1.00  0.00    -0.014 A 
BRANCH  37  38
ATOM     38  C   UNL A   1      40.933  26.084  27.470  1.00  0.00     0.031 A 
ATOM     39  C   UNL A   1      40.402  27.116  28.433  1.00  0.00     0.074 A 
ATOM     40  C   UNL A   1      42.152  26.274  26.927  1.00  0.00     0.049 A 
ATOM     41  N   UNL A   1      40.895  28.286  28.759  1.00  0.00    -0.248 NA
ATOM     42  C   UNL A   1      39.150  26.790  29.125  1.00  0.00     0.031 C 
ATOM     43  C   UNL A   1      42.828  25.348  26.017  1.00  0.00     0.029 A 
ATOM     44  N   UNL A   1      43.054  27.295  27.093  1.00  0.00    -0.354 N 
ATOM     45  C   UNL A   1      39.990  28.850  29.652  1.00  0.00     0.074 A 
ATOM     46  C   UNL A   1      38.922  27.890  29.829  1.00  0.00     0.031 C 
ATOM     47  C   UNL A   1      44.063  25.803  25.766  1.00  0.00     0.029 A 
ATOM     48  C   UNL A   1      44.233  27.096  26.418  1.00  0.00     0.049 A 
ATOM     49  H   UNL A   1      42.874  28.091  27.643  1.00  0.00     0.167 HD
ATOM     50  C   UNL A   1      40.035  30.059  30.262  1.00  0.00     0.031 A 
ATOM     51  C   UNL A   1      45.325  27.874  26.306  1.00  0.00     0.031 A 
ATOM     52  C   UNL A   1      41.106  31.010  30.113  1.00  0.00     0.049 A 
ATOM     53  C   UNL A   1      45.348  29.216  26.971  1.00  0.00     0.074 A 
ATOM     54  C   UNL A   1      41.226  32.273  30.668  1.00  0.00     0.029 A 
ATOM     55  N   UNL A   1      42.254  30.792  29.368  1.00  0.00    -0.354 N 
ATOM     56  N   UNL A   1      44.442  29.770  27.737  1.00  0.00    -0.248 NA
ATOM     57  C   UNL A   1      46.535  30.048  26.733  1.00  0.00     0.031 C 
ATOM     58  C   UNL A   1      42.436  32.830  30.238  1.00  0.00     0.029 A 
ATOM     59  C   UNL A   1      43.085  31.897  29.446  1.00  0.00     0.049 A 
ATOM     60  H   UNL A   1      42.450  29.972  28.860  1.00  0.00     0.167 HD
ATOM     61  C   UNL A   1      44.943  31.022  28.065  1.00  0.00     0.074 A 
ATOM     62  C   UNL A   1      46.246  31.131  27.440  1.00  0.00     0.031 C 
ATOM     63  C   UNL A   1      44.368  31.999  28.807  1.00  0.00     0.031 A 
BRANCH  50  64
ATOM     64  C   UNL A   1      38.865  30.453  31.118  1.00  0.00    -0.014 A 
ATOM     65  C   UNL A   1      37.721  31.047  30.569  1.00  0.00     0.009 A 
ATOM     66  C   UNL A   1      38.891  30.168  32.494  1.00  0.00     0.009 A 
ATOM     67  C   UNL A   1      36.631  31.367  31.384  1.00  0.00     0.001 A 
ATOM     68  C   UNL A   1      37.794  30.471  33.303  1.00  0.00     0.001 A 
ATOM     69  C   UNL A   1      36.667  31.075  32.748  1.00  0.00     0.000 A 
ENDBRANCH  50  64
BRANCH  51  70
ATOM     70  C   UNL A   1      46.466  27.408  25.481  1.00  0.00    -0.014 A 
ATOM     71  C   UNL A   1      47.365  26.456  25.980  1.00  0.00     0.009 A 
ATOM     72  C   UNL A   1      46.632  27.885  24.171  1.00  0.00     0.009 A 
ATOM     73  C   UNL A   1      48.410  25.989  25.181  1.00  0.00     0.001 A 
ATOM     74  C   UNL A   1      47.661  27.397  23.366  1.00  0.00     0.001 A 
ATOM     75  C   UNL A   1      48.552  26.453  23.873  1.00  0.00     0.000 A 
ENDBRANCH  51  70
BRANCH  63  76
ATOM     76  C   UNL A   1      45.151  33.265  28.978  1.00  0.00    -0.014 A 
ATOM     77  C   UNL A   1      46.052  33.414  30.043  1.00  0.00     0.009 A 
ATOM     78  C   UNL A   1      44.992  34.316  28.063  1.00  0.00     0.009 A 
ATOM     79  C   UNL A   1      46.756  34.608  30.207  1.00  0.00     0.001 A 
ATOM     80  C   UNL A   1      45.710  35.502  28.220  1.00  0.00     0.001 A 
ATOM     81  C   UNL A   1      46.585  35.649  29.296  1.00  0.00     0.000 A 
ENDBRANCH  63  76
ENDBRANCH  37  38
ENDBRANCH  30  32
ENDBRANCH  29  30
ENDBRANCH  28  29
ENDBRANCH   1  28
TORSDOF 16
ENDMDL
MODEL 2
REMARK VINA RESULT:     -11.1      0.357      5.777
REMARK SMILES COc1ccc(CNC(=O)[C@H]2CC(C)=C(C)C[C@@H]2C(=O)OCCOC(=O)c2ccc(-c3c4nc(c(-c5ccccc5)c5ccc([nH]5)c(-c5ccccc5)c5nc(c(-c6ccccc6)c6ccc3[nH]6)C=C5)C=C4)cc2)cc1OC
REMARK SMILES IDX 22 1 21 2 19 3 20 4 18 5 11 6 12 7 13 8 17 9 14 10 15 11
REMARK SMILES IDX 16 12 9 13 8 14 10 16 7 17 6 18 3 19 4 20 76 21 5 22 75 23
REMARK SMILES IDX 2 24 1 25 77 26 78 27 23 28 24 29 25 30 26 31 27 32 28 33
REMARK SMILES IDX 74 34 29 35 73 36 30 37 31 38 32 39 67 40 33 41 72 42 66 43
REMARK SMILES IDX 68 44 34 45 71 46 65 47 64 48 35 50 57 51 42 52 56 53 43 54
REMARK SMILES IDX 46 55 55 56 69 57 44 58 45 59 54 61 70 62 47 63 36 64 37 65
REMARK SMILES IDX 41 66 38 67 40 68 39 69 58 70 59 71 63 72 60 73 62 74 61 75
REMARK SMILES IDX 48 76 49 77 53 78 50 79 52 80 51 81
REMARK H PARENT 8 15 68 49 46 60
REMARK Flexibility Score: inf
ROOT
ATOM      1  C   UNL A   1      35.088  20.146  25.036  1.00  0.00     0.274 C 
ENDROOT
BRANCH   1   2
ATOM      2  O   UNL A   1      34.446  20.994  26.011  1.00  0.00    -0.462 OA
BRANCH   2   3
ATOM      3  C   UNL A   1      33.086  21.079  25.954  1.00  0.00     0.310 C 
ATOM      4  O   UNL A   1      32.350  20.140  25.680  1.00  0.00    -0.252 OA
BRANCH   3   5
ATOM      5  C   UNL A   1      32.607  22.489  26.283  1.00  0.00     0.116 C 
ATOM      6  C   UNL A   1      31.235  22.760  25.632  1.00  0.00     0.097 C 
ATOM      7  C   UNL A   1      31.276  23.510  24.283  1.00  0.00     0.045 C 
ATOM      8  C   UNL A   1      32.635  23.812  23.685  1.00  0.00    -0.074 C 
ATOM      9  C   UNL A   1      33.698  23.493  25.908  1.00  0.00     0.046 C 
ATOM     10  C   UNL A   1      32.613  24.143  22.212  1.00  0.00     0.039 C 
ATOM     11  C   UNL A   1      33.757  23.822  24.437  1.00  0.00    -0.073 C 
ATOM     12  C   UNL A   1      35.118  24.169  23.893  1.00  0.00     0.039 C 
BRANCH   6  13
ATOM     13  C   UNL A   1      30.343  23.501  26.626  1.00  0.00     0.224 C 
ATOM     14  N   UNL A   1      29.960  24.794  26.417  1.00  0.00    -0.352 N 
ATOM     15  H   UNL A   1      29.291  25.128  27.057  1.00  0.00     0.163 HD
ATOM     16  O   UNL A   1      29.944  22.945  27.653  1.00  0.00    -0.275 OA
BRANCH  14  17
ATOM     17  C   UNL A   1      30.368  25.764  25.418  1.00  0.00     0.151 C 
BRANCH  17  18
ATOM     18  C   UNL A   1      31.464  26.716  25.853  1.00  0.00    -0.025 A 
ATOM     19  C   UNL A   1      33.244  28.847  26.382  1.00  0.00     0.160 A 
ATOM     20  C   UNL A   1      32.354  28.399  27.364  1.00  0.00     0.051 A 
ATOM     21  C   UNL A   1      33.325  28.177  25.161  1.00  0.00     0.161 A 
ATOM     22  C   UNL A   1      31.473  27.344  27.101  1.00  0.00     0.009 A 
ATOM     23  C   UNL A   1      32.433  27.118  24.918  1.00  0.00     0.056 A 
BRANCH  19  24
ATOM     24  O   UNL A   1      34.035  29.928  26.672  1.00  0.00    -0.493 OA
ATOM     25  C   UNL A   1      34.988  29.600  27.685  1.00  0.00     0.278 C 
ENDBRANCH  19  24
BRANCH  21  26
ATOM     26  O   UNL A   1      34.140  28.441  24.093  1.00  0.00    -0.493 OA
ATOM     27  C   UNL A   1      33.553  28.964  22.910  1.00  0.00     0.278 C 
ENDBRANCH  21  26
ENDBRANCH  17  18
ENDBRANCH  14  17
ENDBRANCH   6  13
ENDBRANCH   3   5
ENDBRANCH   2   3
ENDBRANCH   1   2
BRANCH   1  28
ATOM     28  C   UNL A   1      36.537  20.565  24.752  1.00  0.00     0.275 C 
BRANCH  28  29
ATOM     29  O   UNL A   1      37.023  21.552  25.687  1.00  0.00    -0.458 OA
BRANCH  29  30
ATOM     30  C   UNL A   1      38.357  21.491  25.870  1.00  0.00     0.338 C 
ATOM     31  O   UNL A   1      39.101  20.629  25.430  1.00  0.00    -0.246 OA
BRANCH  30  32
ATOM     32  C   UNL A   1      38.904  22.649  26.586  1.00  0.00     0.060 A 
ATOM     33  C   UNL A   1      38.392  23.902  26.255  1.00  0.00     0.016 A 
ATOM     34  C   UNL A   1      40.092  22.546  27.311  1.00  0.00     0.016 A 
ATOM     35  C   UNL A   1      39.120  25.049  26.555  1.00  0.00     0.010 A 
ATOM     36  C   UNL A   1      40.769  23.713  27.701  1.00  0.00     0.010 A 
ATOM     37  C   UNL A   1      40.312  24.979  27.292  1.00  0.00    -0.014 A 
BRANCH  37  38
ATOM     38  C   UNL A   1      41.063  26.235  27.589  1.00  0.00     0.031 A 
ATOM     39  C   UNL A   1      42.395  26.533  26.947  1.00  0.00     0.074 A 
ATOM     40  C   UNL A   1      40.508  27.168  28.387  1.00  0.00     0.049 A 
ATOM     41  N   UNL A   1      43.204  27.548  27.135  1.00  0.00    -0.248 NA
ATOM     42  C   UNL A   1      42.883  25.565  25.959  1.00  0.00     0.031 C 
ATOM     43  C   UNL A   1      39.204  27.054  29.045  1.00  0.00     0.029 A 
ATOM     44  N   UNL A   1      40.954  28.413  28.751  1.00  0.00    -0.354 N 
ATOM     45  C   UNL A   1      44.312  27.311  26.327  1.00  0.00     0.074 A 
ATOM     46  C   UNL A   1      44.068  26.063  25.637  1.00  0.00     0.031 C 
ATOM     47  C   UNL A   1      38.924  28.208  29.666  1.00  0.00     0.029 A 
ATOM     48  C   UNL A   1      40.063  29.107  29.532  1.00  0.00     0.049 A 
ATOM     49  H   UNL A   1      41.828  28.775  28.477  1.00  0.00     0.167 HD
ATOM     50  C   UNL A   1      45.434  28.056  26.180  1.00  0.00     0.031 A 
ATOM     51  C   UNL A   1      40.155  30.320  30.106  1.00  0.00     0.031 A 
ATOM     52  C   UNL A   1      45.674  29.312  26.842  1.00  0.00     0.049 A 
ATOM     53  C   UNL A   1      41.412  31.120  29.949  1.00  0.00     0.074 A 
ATOM     54  C   UNL A   1      46.794  30.124  26.779  1.00  0.00     0.029 A 
ATOM     55  N   UNL A   1      44.768  29.947  27.675  1.00  0.00    -0.354 N 
ATOM     56  N   UNL A   1      42.486  30.836  29.255  1.00  0.00    -0.248 NA
ATOM     57  C   UNL A   1      41.476  32.394  30.675  1.00  0.00     0.031 C 
ATOM     58  C   UNL A   1      46.575  31.240  27.594  1.00  0.00     0.029 A 
ATOM     59  C   UNL A   1      45.304  31.138  28.135  1.00  0.00     0.049 A 
ATOM     60  H   UNL A   1      43.875  29.603  27.906  1.00  0.00     0.167 HD
ATOM     61  C   UNL A   1      43.360  31.892  29.470  1.00  0.00     0.074 A 
ATOM     62  C   UNL A   1      42.678  32.836  30.332  1.00  0.00     0.031 C 
ATOM     63  C   UNL A   1      44.621  32.058  29.004  1.00  0.00     0.031 A 
BRANCH  50  64
ATOM     64  C   UNL A   1      46.522  27.511  25.299  1.00  0.00    -0.014 A 
ATOM     65  C   UNL A   1      46.720  27.991  23.997  1.00  0.00     0.009 A 
ATOM     66  C   UNL A   1      47.400  26.538  25.807  1.00  0.00     0.009 A 
ATOM     67  C   UNL A   1      47.765  27.493  23.212  1.00  0.00     0.001 A 
ATOM     68  C   UNL A   1      48.453  26.057  25.029  1.00  0.00     0.001 A 
ATOM     69  C   UNL A   1      48.632  26.531  23.730  1.00  0.00     0.000 A 
ENDBRANCH  50  64
BRANCH  51  70
ATOM     70  C   UNL A   1      39.027  30.820  30.928  1.00  0.00    -0.014 A 
ATOM     71  C   UNL A   1      38.964  30.539  32.300  1.00  0.00     0.009 A 
ATOM     72  C   UNL A   1      38.029  31.621  30.348  1.00  0.00     0.009 A 
ATOM     73  C   UNL A   1      37.922  31.051  33.075  1.00  0.00     0.001 A 
ATOM     74  C   UNL A   1      37.005  32.153  31.130  1.00  0.00     0.001 A 
ATOM     75  C   UNL A   1      36.950  31.864  32.492  1.00  0.00     0.000 A 
ENDBRANCH  51  70
BRANCH  63  76
ATOM     76  C   UNL A   1      45.336  33.308  29.423  1.00  0.00    -0.014 A 
ATOM     77  C   UNL A   1      45.236  34.481  28.661  1.00  0.00     0.009 A 
ATOM     78  C   UNL A   1      46.110  33.313  30.592  1.00  0.00     0.009 A 
ATOM     79  C   UNL A   1      45.927  35.630  29.046  1.00  0.00     0.001 A 
ATOM     80  C   UNL A   1      46.787  34.469  30.983  1.00  0.00     0.001 A 
ATOM     81  C   UNL A   1      46.701  35.623  30.205  1.00  0.00     0.000 A 
ENDBRANCH  63  76
ENDBRANCH  37  38
ENDBRANCH  30  32
ENDBRANCH  29  30
ENDBRANCH  28  29
ENDBRANCH   1  28
TORSDOF 16
ENDMDL
MODEL 3
REMARK VINA RESULT:     -11.1      3.367      6.372
REMARK SMILES COc1ccc(CNC(=O)[C@H]2CC(C)=C(C)C[C@@H]2C(=O)OCCOC(=O)c2ccc(-c3c4nc(c(-c5ccccc5)c5ccc([nH]5)c(-c5ccccc5)c5nc(c(-c6ccccc6)c6ccc3[nH]6)C=C5)C=C4)cc2)cc1OC
REMARK SMILES IDX 22 1 21 2 19 3 20 4 18 5 11 6 12 7 13 8 17 9 14 10 15 11
REMARK SMILES IDX 16 12 9 13 8 14 10 16 7 17 6 18 3 19 4 20 76 21 5 22 75 23
REMARK SMILES IDX 2 24 1 25 77 26 78 27 23 28 24 29 25 30 26 31 27 32 28 33
REMARK SMILES IDX 74 34 29 35 73 36 30 37 31 38 32 39 67 40 33 41 72 42 66 43
REMARK SMILES IDX 68 44 34 45 71 46 65 47 64 48 35 50 57 51 42 52 56 53 43 54
REMARK SMILES IDX 46 55 55 56 69 57 44 58 45 59 54 61 70 62 47 63 36 64 37 65
REMARK SMILES IDX 41 66 38 67 40 68 39 69 58 70 59 71 63 72 60 73 62 74 61 75
REMARK SMILES IDX 48 76 49 77 53 78 50 79 52 80 51 81
REMARK H PARENT 8 15 68 49 46 60
REMARK Flexibility Score: inf
ROOT
ATOM      1  C   UNL A   1      32.674  27.360  26.420  1.00  0.00     0.274 C 
ENDROOT
BRANCH   1   2
ATOM      2  O   UNL A   1      33.795  26.675  25.824  1.00  0.00    -0.462 OA
BRANCH   2   3
ATOM      3  C   UNL A   1      33.582  25.394  25.406  1.00  0.00     0.310 C 
ATOM      4  O   UNL A   1      33.087  24.517  26.102  1.00  0.00    -0.252 OA
BRANCH   3   5
ATOM      5  C   UNL A   1      34.033  25.204  23.961  1.00  0.00     0.116 C 
ATOM      6  C   UNL A   1      32.813  25.109  23.022  1.00  0.00     0.097 C 
ATOM      7  C   UNL A   1      32.364  23.677  22.659  1.00  0.00     0.045 C 
ATOM      8  C   UNL A   1      33.082  22.522  23.327  1.00  0.00    -0.074 C 
ATOM      9  C   UNL A   1      34.990  24.014  23.882  1.00  0.00     0.046 C 
ATOM     10  C   UNL A   1      32.342  21.208  23.273  1.00  0.00     0.039 C 
ATOM     11  C   UNL A   1      34.305  22.669  23.878  1.00  0.00    -0.073 C 
ATOM     12  C   UNL A   1      35.076  21.536  24.504  1.00  0.00     0.039 C 
BRANCH   6  13
ATOM     13  C   UNL A   1      33.086  25.919  21.756  1.00  0.00     0.224 C 
ATOM     14  N   UNL A   1      33.136  27.282  21.777  1.00  0.00    -0.352 N 
ATOM     15  H   UNL A   1      33.437  27.690  20.933  1.00  0.00     0.163 HD
ATOM     16  O   UNL A   1      33.267  25.355  20.673  1.00  0.00    -0.275 OA
BRANCH  14  17
ATOM     17  C   UNL A   1      32.822  28.236  22.823  1.00  0.00     0.151 C 
BRANCH  17  18
ATOM     18  C   UNL A   1      31.351  28.566  22.975  1.00  0.00    -0.025 A 
ATOM     19  C   UNL A   1      28.556  28.952  22.787  1.00  0.00     0.160 A 
ATOM     20  C   UNL A   1      29.087  27.976  23.638  1.00  0.00     0.051 A 
ATOM     21  C   UNL A   1      29.413  29.810  22.095  1.00  0.00     0.161 A 
ATOM     22  C   UNL A   1      30.471  27.786  23.730  1.00  0.00     0.009 A 
ATOM     23  C   UNL A   1      30.798  29.604  22.204  1.00  0.00     0.056 A 
BRANCH  19  24
ATOM     24  O   UNL A   1      27.194  29.047  22.685  1.00  0.00    -0.493 OA
ATOM     25  C   UNL A   1      26.555  28.099  23.543  1.00  0.00     0.278 C 
ENDBRANCH  19  24
BRANCH  21  26
ATOM     26  O   UNL A   1      29.093  30.834  21.244  1.00  0.00    -0.493 OA
ATOM     27  C   UNL A   1      28.457  31.984  21.782  1.00  0.00     0.278 C 
ENDBRANCH  21  26
ENDBRANCH  17  18
ENDBRANCH  14  17
ENDBRANCH   6  13
ENDBRANCH   3   5
ENDBRANCH   2   3
ENDBRANCH   1   2
BRANCH   1  28
ATOM     28  C   UNL A   1      33.106  28.484  27.370  1.00  0.00     0.275 C 
BRANCH  28  29
ATOM     29  O   UNL A   1      34.228  29.239  26.863  1.00  0.00    -0.458 OA
BRANCH  29  30
ATOM     30  C   UNL A   1      34.549  30.292  27.640  1.00  0.00     0.338 C 
ATOM     31  O   UNL A   1      33.806  31.215  27.936  1.00  0.00    -0.246 OA
BRANCH  30  32
ATOM     32  C   UNL A   1      35.891  30.201  28.226  1.00  0.00     0.060 A 
ATOM     33  C   UNL A   1      36.973  30.432  27.379  1.00  0.00     0.016 A 
ATOM     34  C   UNL A   1      36.089  29.597  29.469  1.00  0.00     0.016 A 
ATOM     35  C   UNL A   1      38.236  29.965  27.726  1.00  0.00     0.010 A 
ATOM     36  C   UNL A   1      37.385  29.220  29.857  1.00  0.00     0.010 A 
ATOM     37  C   UNL A   1      38.469  29.362  28.972  1.00  0.00    -0.014 A 
BRANCH  37  38
ATOM     38  C   UNL A   1      39.841  28.872  29.301  1.00  0.00     0.031 A 
ATOM     39  C   UNL A   1      40.761  29.644  30.213  1.00  0.00     0.074 A 
ATOM     40  C   UNL A   1      40.246  27.671  28.842  1.00  0.00     0.049 A 
ATOM     41  N   UNL A   1      42.000  29.390  30.560  1.00  0.00    -0.248 NA
ATOM     42  C   UNL A   1      40.217  30.863  30.821  1.00  0.00     0.031 C 
ATOM     43  C   UNL A   1      39.455  26.779  27.990  1.00  0.00     0.029 A 
ATOM     44  N   UNL A   1      41.410  26.978  29.058  1.00  0.00    -0.354 N 
ATOM     45  C   UNL A   1      42.393  30.441  31.383  1.00  0.00     0.074 A 
ATOM     46  C   UNL A   1      41.258  31.332  31.495  1.00  0.00     0.031 C 
ATOM     47  C   UNL A   1      40.124  25.630  27.820  1.00  0.00     0.029 A 
ATOM     48  C   UNL A   1      41.425  25.738  28.468  1.00  0.00     0.049 A 
ATOM     49  H   UNL A   1      42.161  27.334  29.585  1.00  0.00     0.167 HD
ATOM     50  C   UNL A   1      43.590  30.654  31.980  1.00  0.00     0.031 A 
ATOM     51  C   UNL A   1      42.385  24.797  28.424  1.00  0.00     0.031 A 
ATOM     52  C   UNL A   1      44.716  29.760  31.895  1.00  0.00     0.049 A 
ATOM     53  C   UNL A   1      43.708  25.059  29.073  1.00  0.00     0.074 A 
ATOM     54  C   UNL A   1      45.979  29.905  32.443  1.00  0.00     0.029 A 
ATOM     55  N   UNL A   1      44.706  28.543  31.234  1.00  0.00    -0.354 N 
ATOM     56  N   UNL A   1      44.092  26.100  29.769  1.00  0.00    -0.248 NA
ATOM     57  C   UNL A   1      44.738  24.025  28.909  1.00  0.00     0.031 C 
ATOM     58  C   UNL A   1      46.743  28.787  32.091  1.00  0.00     0.029 A 
ATOM     59  C   UNL A   1      45.941  27.929  31.356  1.00  0.00     0.049 A 
ATOM     60  H   UNL A   1      43.935  28.170  30.750  1.00  0.00     0.167 HD
ATOM     61  C   UNL A   1      45.412  25.853  30.117  1.00  0.00     0.074 A 
ATOM     62  C   UNL A   1      45.752  24.549  29.583  1.00  0.00     0.031 C 
ATOM     63  C   UNL A   1      46.270  26.643  30.806  1.00  0.00     0.031 A 
BRANCH  50  64
ATOM     64  C   UNL A   1      43.768  31.932  32.750  1.00  0.00    -0.014 A 
ATOM     65  C   UNL A   1      43.492  32.007  34.122  1.00  0.00     0.009 A 
ATOM     66  C   UNL A   1      44.277  33.066  32.094  1.00  0.00     0.009 A 
ATOM     67  C   UNL A   1      43.703  33.199  34.820  1.00  0.00     0.001 A 
ATOM     68  C   UNL A   1      44.505  34.249  32.798  1.00  0.00     0.001 A 
ATOM     69  C   UNL A   1      44.214  34.317  34.160  1.00  0.00     0.000 A 
ENDBRANCH  50  64
BRANCH  51  70
ATOM     70  C   UNL A   1      42.130  23.536  27.685  1.00  0.00    -0.014 A 
ATOM     71  C   UNL A   1      42.435  23.435  26.320  1.00  0.00     0.009 A 
ATOM     72  C   UNL A   1      41.620  22.414  28.357  1.00  0.00     0.009 A 
ATOM     73  C   UNL A   1      42.234  22.231  25.643  1.00  0.00     0.001 A 
ATOM     74  C   UNL A   1      41.446  21.205  27.684  1.00  0.00     0.001 A 
ATOM     75  C   UNL A   1      41.749  21.116  26.326  1.00  0.00     0.000 A 
ENDBRANCH  51  70
BRANCH  63  76
ATOM     76  C   UNL A   1      47.656  26.110  31.017  1.00  0.00    -0.014 A 
ATOM     77  C   UNL A   1      48.035  25.567  32.254  1.00  0.00     0.009 A 
ATOM     78  C   UNL A   1      48.586  26.145  29.969  1.00  0.00     0.009 A 
ATOM     79  C   UNL A   1      49.336  25.099  32.446  1.00  0.00     0.001 A 
ATOM     80  C   UNL A   1      49.881  25.661  30.159  1.00  0.00     0.001 A 
ATOM     81  C   UNL A   1      50.256  25.146  31.400  1.00  0.00     0.000 A 
ENDBRANCH  63  76
ENDBRANCH  37  38
ENDBRANCH  30  32
ENDBRANCH  29  30
ENDBRANCH  28  29
ENDBRANCH   1  28
TORSDOF 16
ENDMDL
