MODEL 1
REMARK VINA RESULT:     -11.5      0.000      0.000
REMARK SMILES COc1ccc(C2=NN(C(=O)CCC(=O)OCCOC(=O)c3ccc(-c4c5nc(c(-c6ccccc6)c6ccc([nH]6)c(-c6ccccc6)c6nc(c(-c7ccccc7)c7ccc4[nH]7)C=C6)C=C5)cc3)[C@H](c3ccc(Cl)cc3Cl)C2)cc1
REMARK SMILES IDX 16 1 14 2 15 3 13 4 12 5 10 6 11 7 9 8 7 9 8 10 79 11 70 12
REMARK SMILES IDX 6 13 3 14 4 15 81 16 5 17 80 18 2 19 1 20 71 21 72 22 77 23
REMARK SMILES IDX 73 24 76 25 78 26 74 27 75 28 17 29 18 30 19 31 20 32 21 33
REMARK SMILES IDX 22 34 23 35 69 36 24 37 68 38 25 39 26 40 27 41 62 42 28 43
REMARK SMILES IDX 67 44 61 45 63 46 29 47 66 48 60 49 59 50 30 52 52 53 37 54
REMARK SMILES IDX 51 55 38 56 41 57 50 58 64 59 39 60 40 61 49 63 65 64 42 65
REMARK SMILES IDX 31 66 32 67 36 68 33 69 35 70 34 71 53 72 54 73 58 74 55 75
REMARK SMILES IDX 57 76 56 77 43 78 44 79 48 80 45 81 47 82 46 83
REMARK H PARENT 63 51 41 62
REMARK Flexibility Score: inf
ROOT
ATOM      1  O   UNL A   1      39.004  22.106  26.110  1.00  0.00    -0.462 OA
ENDROOT
BRANCH   1   2
ATOM      2  C   UNL A   1      38.018  23.038  26.010  1.00  0.00     0.306 C 
ATOM      3  O   UNL A   1      38.096  24.183  26.434  1.00  0.00    -0.252 OA
BRANCH   2   4
ATOM      4  C   UNL A   1      36.779  22.484  25.352  1.00  0.00     0.132 C 
BRANCH   4   5
ATOM      5  C   UNL A   1      35.793  23.554  24.892  1.00  0.00     0.114 C 
BRANCH   5   6
ATOM      6  C   UNL A   1      35.153  23.145  23.580  1.00  0.00     0.243 C 
ATOM      7  O   UNL A   1      35.897  22.951  22.611  1.00  0.00    -0.273 OA
BRANCH   6   8
ATOM      8  N   UNL A   1      33.762  23.100  23.494  1.00  0.00    -0.225 N 
ATOM      9  C   UNL A   1      31.983  24.315  23.388  1.00  0.00     0.071 C 
ATOM     10  N   UNL A   1      33.195  24.251  22.954  1.00  0.00    -0.174 NA
ATOM     11  C   UNL A   1      31.484  23.138  24.142  1.00  0.00     0.091 C 
ATOM     12  C   UNL A   1      32.791  22.367  24.333  1.00  0.00     0.149 C 
BRANCH   9  13
ATOM     13  C   UNL A   1      31.124  25.487  23.255  1.00  0.00    -0.002 A 
ATOM     14  C   UNL A   1      29.624  27.816  23.106  1.00  0.00     0.118 A 
ATOM     15  C   UNL A   1      29.173  26.732  23.868  1.00  0.00     0.047 A 
ATOM     16  C   UNL A   1      30.845  27.737  22.433  1.00  0.00     0.047 A 
ATOM     17  C   UNL A   1      29.919  25.557  23.943  1.00  0.00     0.014 A 
ATOM     18  C   UNL A   1      31.598  26.565  22.502  1.00  0.00     0.014 A 
BRANCH  14  19
ATOM     19  O   UNL A   1      28.812  28.917  23.119  1.00  0.00    -0.497 OA
ATOM     20  C   UNL A   1      28.978  29.806  22.019  1.00  0.00     0.278 C 
ENDBRANCH  14  19
ENDBRANCH   9  13
BRANCH  12  21
ATOM     21  C   UNL A   1      32.554  20.855  24.243  1.00  0.00    -0.004 A 
ATOM     22  C   UNL A   1      32.819  20.128  25.442  1.00  0.00     0.009 A 
ATOM     23  C   UNL A   1      32.293  20.087  23.097  1.00  0.00     0.047 A 
ATOM     24  C   UNL A   1      32.909  18.736  25.476  1.00  0.00     0.021 A 
ATOM     25  C   UNL A   1      32.417  18.684  23.126  1.00  0.00     0.041 A 
ATOM     26  Cl  UNL A   1      31.779  20.743  21.591  1.00  0.00    -0.084 Cl
ATOM     27  C   UNL A   1      32.746  18.021  24.303  1.00  0.00     0.042 A 
ATOM     28  Cl  UNL A   1      32.971  16.317  24.305  1.00  0.00    -0.084 Cl
ENDBRANCH  12  21
ENDBRANCH   6   8
ENDBRANCH   5   6
ENDBRANCH   4   5
ENDBRANCH   2   4
ENDBRANCH   1   2
BRANCH   1  29
ATOM     29  C   UNL A   1      38.795  20.876  25.386  1.00  0.00     0.274 C 
BRANCH  29  30
ATOM     30  C   UNL A   1      39.415  19.654  26.075  1.00  0.00     0.275 C 
BRANCH  30  31
ATOM     31  O   UNL A   1      40.563  19.136  25.375  1.00  0.00    -0.458 OA
BRANCH  31  32
ATOM     32  C   UNL A   1      41.713  19.230  26.070  1.00  0.00     0.338 C 
ATOM     33  O   UNL A   1      42.450  18.315  26.378  1.00  0.00    -0.246 OA
BRANCH  32  34
ATOM     34  C   UNL A   1      42.077  20.597  26.415  1.00  0.00     0.060 A 
ATOM     35  C   UNL A   1      42.481  21.441  25.376  1.00  0.00     0.016 A 
ATOM     36  C   UNL A   1      42.212  20.968  27.752  1.00  0.00     0.016 A 
ATOM     37  C   UNL A   1      43.002  22.691  25.676  1.00  0.00     0.010 A 
ATOM     38  C   UNL A   1      42.723  22.230  28.051  1.00  0.00     0.010 A 
ATOM     39  C   UNL A   1      43.113  23.094  27.015  1.00  0.00    -0.014 A 
BRANCH  39  40
ATOM     40  C   UNL A   1      43.550  24.469  27.324  1.00  0.00     0.031 A 
ATOM     41  C   UNL A   1      42.576  25.501  27.798  1.00  0.00     0.074 A 
ATOM     42  C   UNL A   1      44.850  24.766  27.152  1.00  0.00     0.049 A 
ATOM     43  N   UNL A   1      42.791  26.761  28.079  1.00  0.00    -0.248 NA
ATOM     44  C   UNL A   1      41.183  25.068  27.978  1.00  0.00     0.031 C 
ATOM     45  C   UNL A   1      45.876  23.819  26.704  1.00  0.00     0.029 A 
ATOM     46  N   UNL A   1      45.531  25.938  27.332  1.00  0.00    -0.354 N 
ATOM     47  C   UNL A   1      41.561  27.277  28.460  1.00  0.00     0.074 A 
ATOM     48  C   UNL A   1      40.600  26.197  28.359  1.00  0.00     0.031 C 
ATOM     49  C   UNL A   1      47.059  24.449  26.656  1.00  0.00     0.029 A 
ATOM     50  C   UNL A   1      46.865  25.843  27.032  1.00  0.00     0.049 A 
ATOM     51  H   UNL A   1      45.104  26.768  27.646  1.00  0.00     0.167 HD
ATOM     52  C   UNL A   1      41.266  28.539  28.854  1.00  0.00     0.031 A 
ATOM     53  C   UNL A   1      47.826  26.783  27.048  1.00  0.00     0.031 A 
ATOM     54  C   UNL A   1      42.229  29.607  28.927  1.00  0.00     0.049 A 
ATOM     55  C   UNL A   1      47.465  28.176  27.470  1.00  0.00     0.074 A 
ATOM     56  C   UNL A   1      42.033  30.925  29.304  1.00  0.00     0.029 A 
ATOM     57  N   UNL A   1      43.574  29.477  28.616  1.00  0.00    -0.354 N 
ATOM     58  N   UNL A   1      46.299  28.650  27.833  1.00  0.00    -0.248 NA
ATOM     59  C   UNL A   1      48.556  29.159  27.492  1.00  0.00     0.031 C 
ATOM     60  C   UNL A   1      43.256  31.599  29.188  1.00  0.00     0.029 A 
ATOM     61  C   UNL A   1      44.220  30.691  28.783  1.00  0.00     0.049 A 
ATOM     62  H   UNL A   1      44.007  28.643  28.320  1.00  0.00     0.167 HD
ATOM     63  C   UNL A   1      46.516  29.982  28.149  1.00  0.00     0.074 A 
ATOM     64  C   UNL A   1      47.929  30.235  27.947  1.00  0.00     0.031 C 
ATOM     65  C   UNL A   1      45.626  30.914  28.569  1.00  0.00     0.031 A 
BRANCH  52  66
ATOM     66  C   UNL A   1      39.835  28.836  29.200  1.00  0.00    -0.014 A 
ATOM     67  C   UNL A   1      39.356  28.675  30.509  1.00  0.00     0.009 A 
ATOM     68  C   UNL A   1      38.959  29.308  28.210  1.00  0.00     0.009 A 
ATOM     69  C   UNL A   1      38.022  28.954  30.814  1.00  0.00     0.001 A 
ATOM     70  C   UNL A   1      37.631  29.606  28.521  1.00  0.00     0.001 A 
ATOM     71  C   UNL A   1      37.161  29.421  29.820  1.00  0.00     0.000 A 
ENDBRANCH  52  66
BRANCH  53  72
ATOM     72  C   UNL A   1      49.212  26.424  26.664  1.00  0.00    -0.014 A 
ATOM     73  C   UNL A   1      49.669  26.649  25.358  1.00  0.00     0.009 A 
ATOM     74  C   UNL A   1      50.095  25.885  27.613  1.00  0.00     0.009 A 
ATOM     75  C   UNL A   1      50.981  26.326  25.004  1.00  0.00     0.001 A 
ATOM     76  C   UNL A   1      51.413  25.586  27.263  1.00  0.00     0.001 A 
ATOM     77  C   UNL A   1      51.852  25.800  25.958  1.00  0.00     0.000 A 
ENDBRANCH  53  72
BRANCH  65  78
ATOM     78  C   UNL A   1      46.177  32.278  28.864  1.00  0.00    -0.014 A 
ATOM     79  C   UNL A   1      46.495  32.664  30.175  1.00  0.00     0.009 A 
ATOM     80  C   UNL A   1      46.380  33.185  27.814  1.00  0.00     0.009 A 
ATOM     81  C   UNL A   1      46.972  33.951  30.432  1.00  0.00     0.001 A 
ATOM     82  C   UNL A   1      46.877  34.463  28.072  1.00  0.00     0.001 A 
ATOM     83  C   UNL A   1      47.163  34.848  29.381  1.00  0.00     0.000 A 
ENDBRANCH  65  78
ENDBRANCH  39  40
ENDBRANCH  32  34
ENDBRANCH  31  32
ENDBRANCH  30  31
ENDBRANCH  29  30
ENDBRANCH   1  29
TORSDOF 17
ENDMDL
MODEL 2
REMARK VINA RESULT:     -11.5      4.095      8.409
REMARK SMILES COc1ccc(C2=NN(C(=O)CCC(=O)OCCOC(=O)c3ccc(-c4c5nc(c(-c6ccccc6)c6ccc([nH]6)c(-c6ccccc6)c6nc(c(-c7ccccc7)c7ccc4[nH]7)C=C6)C=C5)cc3)[C@H](c3ccc(Cl)cc3Cl)C2)cc1
REMARK SMILES IDX 16 1 14 2 15 3 13 4 12 5 10 6 11 7 9 8 7 9 8 10 79 11 70 12
REMARK SMILES IDX 6 13 3 14 4 15 81 16 5 17 80 18 2 19 1 20 71 21 72 22 77 23
REMARK SMILES IDX 73 24 76 25 78 26 74 27 75 28 17 29 18 30 19 31 20 32 21 33
REMARK SMILES IDX 22 34 23 35 69 36 24 37 68 38 25 39 26 40 27 41 62 42 28 43
REMARK SMILES IDX 67 44 61 45 63 46 29 47 66 48 60 49 59 50 30 52 52 53 37 54
REMARK SMILES IDX 51 55 38 56 41 57 50 58 64 59 39 60 40 61 49 63 65 64 42 65
REMARK SMILES IDX 31 66 32 67 36 68 33 69 35 70 34 71 53 72 54 73 58 74 55 75
REMARK SMILES IDX 57 76 56 77 43 78 44 79 48 80 45 81 47 82 46 83
REMARK H PARENT 63 51 41 62
REMARK Flexibility Score: inf
ROOT
ATOM      1  O   UNL A   1      32.135  30.282  27.273  1.00  0.00    -0.462 OA
ENDROOT
BRANCH   1   2
ATOM      2  C   UNL A   1      33.421  29.846  27.196  1.00  0.00     0.306 C 
ATOM      3  O   UNL A   1      34.405  30.574  27.210  1.00  0.00    -0.252 OA
BRANCH   2   4
ATOM      4  C   UNL A   1      33.504  28.349  27.042  1.00  0.00     0.132 C 
BRANCH   4   5
ATOM      5  C   UNL A   1      33.937  27.893  25.651  1.00  0.00     0.114 C 
BRANCH   5   6
ATOM      6  C   UNL A   1      33.512  26.458  25.416  1.00  0.00     0.243 C 
ATOM      7  O   UNL A   1      34.167  25.565  25.968  1.00  0.00    -0.273 OA
BRANCH   6   8
ATOM      8  N   UNL A   1      32.477  26.200  24.519  1.00  0.00    -0.225 N 
ATOM      9  C   UNL A   1      30.826  27.098  23.458  1.00  0.00     0.071 C 
ATOM     10  N   UNL A   1      32.042  27.325  23.823  1.00  0.00    -0.174 NA
ATOM     11  C   UNL A   1      30.308  25.727  23.692  1.00  0.00     0.091 C 
ATOM     12  C   UNL A   1      31.426  25.162  24.570  1.00  0.00     0.149 C 
BRANCH   9  13
ATOM     13  C   UNL A   1      29.929  28.112  22.918  1.00  0.00    -0.002 A 
ATOM     14  C   UNL A   1      28.301  30.170  22.015  1.00  0.00     0.118 A 
ATOM     15  C   UNL A   1      27.756  29.105  22.742  1.00  0.00     0.047 A 
ATOM     16  C   UNL A   1      29.673  30.212  21.759  1.00  0.00     0.047 A 
ATOM     17  C   UNL A   1      28.568  28.065  23.194  1.00  0.00     0.014 A 
ATOM     18  C   UNL A   1      30.492  29.176  22.207  1.00  0.00     0.014 A 
BRANCH  14  19
ATOM     19  O   UNL A   1      27.408  31.135  21.636  1.00  0.00    -0.497 OA
ATOM     20  C   UNL A   1      27.956  32.197  20.861  1.00  0.00     0.278 C 
ENDBRANCH  14  19
ENDBRANCH   9  13
BRANCH  12  21
ATOM     21  C   UNL A   1      31.672  23.681  24.259  1.00  0.00    -0.004 A 
ATOM     22  C   UNL A   1      31.235  22.771  25.267  1.00  0.00     0.009 A 
ATOM     23  C   UNL A   1      32.427  23.130  23.212  1.00  0.00     0.047 A 
ATOM     24  C   UNL A   1      31.603  21.425  25.279  1.00  0.00     0.021 A 
ATOM     25  C   UNL A   1      32.825  21.780  23.243  1.00  0.00     0.041 A 
ATOM     26  Cl  UNL A   1      32.908  24.001  21.807  1.00  0.00    -0.084 Cl
ATOM     27  C   UNL A   1      32.433  20.944  24.283  1.00  0.00     0.042 A 
ATOM     28  Cl  UNL A   1      32.992  19.320  24.347  1.00  0.00    -0.084 Cl
ENDBRANCH  12  21
ENDBRANCH   6   8
ENDBRANCH   5   6
ENDBRANCH   4   5
ENDBRANCH   2   4
ENDBRANCH   1   2
BRANCH   1  29
ATOM     29  C   UNL A   1      31.824  31.485  26.539  1.00  0.00     0.274 C 
BRANCH  29  30
ATOM     30  C   UNL A   1      31.691  32.724  27.433  1.00  0.00     0.275 C 
BRANCH  30  31
ATOM     31  O   UNL A   1      32.774  33.659  27.261  1.00  0.00    -0.458 OA
BRANCH  31  32
ATOM     32  C   UNL A   1      33.182  34.237  28.409  1.00  0.00     0.338 C 
ATOM     33  O   UNL A   1      32.591  35.091  29.040  1.00  0.00    -0.246 OA
BRANCH  32  34
ATOM     34  C   UNL A   1      34.440  33.706  28.915  1.00  0.00     0.060 A 
ATOM     35  C   UNL A   1      35.589  33.927  28.151  1.00  0.00     0.016 A 
ATOM     36  C   UNL A   1      34.444  32.840  30.008  1.00  0.00     0.016 A 
ATOM     37  C   UNL A   1      36.773  33.294  28.501  1.00  0.00     0.010 A 
ATOM     38  C   UNL A   1      35.637  32.216  30.365  1.00  0.00     0.010 A 
ATOM     39  C   UNL A   1      36.804  32.446  29.617  1.00  0.00    -0.014 A 
BRANCH  39  40
ATOM     40  C   UNL A   1      38.090  31.874  30.058  1.00  0.00     0.031 A 
ATOM     41  C   UNL A   1      38.968  32.604  31.026  1.00  0.00     0.074 A 
ATOM     42  C   UNL A   1      38.452  30.682  29.552  1.00  0.00     0.049 A 
ATOM     43  N   UNL A   1      40.143  32.256  31.486  1.00  0.00    -0.248 NA
ATOM     44  C   UNL A   1      38.470  33.888  31.539  1.00  0.00     0.031 C 
ATOM     45  C   UNL A   1      37.652  29.892  28.611  1.00  0.00     0.029 A 
ATOM     46  N   UNL A   1      39.575  29.929  29.754  1.00  0.00    -0.354 N 
ATOM     47  C   UNL A   1      40.531  33.281  32.337  1.00  0.00     0.074 A 
ATOM     48  C   UNL A   1      39.473  34.271  32.317  1.00  0.00     0.031 C 
ATOM     49  C   UNL A   1      38.309  28.757  28.327  1.00  0.00     0.029 A 
ATOM     50  C   UNL A   1      39.583  28.762  29.034  1.00  0.00     0.049 A 
ATOM     51  H   UNL A   1      40.306  30.199  30.356  1.00  0.00     0.167 HD
ATOM     52  C   UNL A   1      41.670  33.382  33.064  1.00  0.00     0.031 A 
ATOM     53  C   UNL A   1      40.523  27.805  28.946  1.00  0.00     0.031 A 
ATOM     54  C   UNL A   1      42.722  32.399  33.056  1.00  0.00     0.049 A 
ATOM     55  C   UNL A   1      41.781  27.954  29.747  1.00  0.00     0.074 A 
ATOM     56  C   UNL A   1      43.921  32.408  33.748  1.00  0.00     0.029 A 
ATOM     57  N   UNL A   1      42.699  31.227  32.315  1.00  0.00    -0.354 N 
ATOM     58  N   UNL A   1      42.134  28.925  30.553  1.00  0.00    -0.248 NA
ATOM     59  C   UNL A   1      42.765  26.870  29.633  1.00  0.00     0.031 C 
ATOM     60  C   UNL A   1      44.637  31.256  33.398  1.00  0.00     0.029 A 
ATOM     61  C   UNL A   1      43.864  30.509  32.524  1.00  0.00     0.049 A 
ATOM     62  H   UNL A   1      41.961  30.946  31.726  1.00  0.00     0.167 HD
ATOM     63  C   UNL A   1      43.372  28.562  31.061  1.00  0.00     0.074 A 
ATOM     64  C   UNL A   1      43.700  27.274  30.481  1.00  0.00     0.031 C 
ATOM     65  C   UNL A   1      44.167  29.233  31.929  1.00  0.00     0.031 A 
BRANCH  52  66
ATOM     66  C   UNL A   1      41.846  34.618  33.900  1.00  0.00    -0.014 A 
ATOM     67  C   UNL A   1      41.391  34.668  35.227  1.00  0.00     0.009 A 
ATOM     68  C   UNL A   1      42.499  35.737  33.363  1.00  0.00     0.009 A 
ATOM     69  C   UNL A   1      41.562  35.825  35.990  1.00  0.00     0.001 A 
ATOM     70  C   UNL A   1      42.688  36.886  34.135  1.00  0.00     0.001 A 
ATOM     71  C   UNL A   1      42.212  36.932  35.444  1.00  0.00     0.000 A 
ENDBRANCH  52  66
BRANCH  53  72
ATOM     72  C   UNL A   1      40.292  26.627  28.075  1.00  0.00    -0.014 A 
ATOM     73  C   UNL A   1      40.791  26.602  26.766  1.00  0.00     0.009 A 
ATOM     74  C   UNL A   1      39.601  25.507  28.564  1.00  0.00     0.009 A 
ATOM     75  C   UNL A   1      40.588  25.484  25.955  1.00  0.00     0.001 A 
ATOM     76  C   UNL A   1      39.421  24.381  27.760  1.00  0.00     0.001 A 
ATOM     77  C   UNL A   1      39.908  24.373  26.454  1.00  0.00     0.000 A 
ENDBRANCH  53  72
BRANCH  65  78
ATOM     78  C   UNL A   1      45.448  28.559  32.319  1.00  0.00    -0.014 A 
ATOM     79  C   UNL A   1      46.632  28.775  31.597  1.00  0.00     0.009 A 
ATOM     80  C   UNL A   1      45.469  27.697  33.425  1.00  0.00     0.009 A 
ATOM     81  C   UNL A   1      47.806  28.109  31.955  1.00  0.00     0.001 A 
ATOM     82  C   UNL A   1      46.649  27.049  33.793  1.00  0.00     0.001 A 
ATOM     83  C   UNL A   1      47.813  27.249  33.052  1.00  0.00     0.000 A 
ENDBRANCH  65  78
ENDBRANCH  39  40
ENDBRANCH  32  34
ENDBRANCH  31  32
ENDBRANCH  30  31
ENDBRANCH  29  30
ENDBRANCH   1  29
TORSDOF 17
ENDMDL
MODEL 3
REMARK VINA RESULT:     -11.4      0.995      5.795
REMARK SMILES COc1ccc(C2=NN(C(=O)CCC(=O)OCCOC(=O)c3ccc(-c4c5nc(c(-c6ccccc6)c6ccc([nH]6)c(-c6ccccc6)c6nc(c(-c7ccccc7)c7ccc4[nH]7)C=C6)C=C5)cc3)[C@H](c3ccc(Cl)cc3Cl)C2)cc1
REMARK SMILES IDX 16 1 14 2 15 3 13 4 12 5 10 6 11 7 9 8 7 9 8 10 79 11 70 12
REMARK SMILES IDX 6 13 3 14 4 15 81 16 5 17 80 18 2 19 1 20 71 21 72 22 77 23
REMARK SMILES IDX 73 24 76 25 78 26 74 27 75 28 17 29 18 30 19 31 20 32 21 33
REMARK SMILES IDX 22 34 23 35 69 36 24 37 68 38 25 39 26 40 27 41 62 42 28 43
REMARK SMILES IDX 67 44 61 45 63 46 29 47 66 48 60 49 59 50 30 52 52 53 37 54
REMARK SMILES IDX 51 55 38 56 41 57 50 58 64 59 39 60 40 61 49 63 65 64 42 65
REMARK SMILES IDX 31 66 32 67 36 68 33 69 35 70 34 71 53 72 54 73 58 74 55 75
REMARK SMILES IDX 57 76 56 77 43 78 44 79 48 80 45 81 47 82 46 83
REMARK H PARENT 63 51 41 62
REMARK Flexibility Score: inf
ROOT
ATOM      1  O   UNL A   1      38.928  21.858  26.273  1.00  0.00    -0.462 OA
ENDROOT
BRANCH   1   2
ATOM      2  C   UNL A   1      38.110  22.883  25.914  1.00  0.00     0.306 C 
ATOM      3  O   UNL A   1      38.342  24.067  26.123  1.00  0.00    -0.252 OA
BRANCH   2   4
ATOM      4  C   UNL A   1      36.842  22.394  25.260  1.00  0.00     0.132 C 
BRANCH   4   5
ATOM      5  C   UNL A   1      35.838  23.503  24.952  1.00  0.00     0.114 C 
BRANCH   5   6
ATOM      6  C   UNL A   1      35.177  23.250  23.612  1.00  0.00     0.243 C 
ATOM      7  O   UNL A   1      35.906  23.169  22.616  1.00  0.00    -0.273 OA
BRANCH   6   8
ATOM      8  N   UNL A   1      33.785  23.220  23.542  1.00  0.00    -0.225 N 
ATOM      9  C   UNL A   1      32.016  24.453  23.476  1.00  0.00     0.071 C 
ATOM     10  N   UNL A   1      33.222  24.383  23.026  1.00  0.00    -0.174 NA
ATOM     11  C   UNL A   1      31.516  23.269  24.219  1.00  0.00     0.091 C 
ATOM     12  C   UNL A   1      32.818  22.483  24.382  1.00  0.00     0.149 C 
BRANCH   9  13
ATOM     13  C   UNL A   1      31.167  25.634  23.371  1.00  0.00    -0.002 A 
ATOM     14  C   UNL A   1      29.423  27.771  23.072  1.00  0.00     0.118 A 
ATOM     15  C   UNL A   1      30.654  27.763  22.403  1.00  0.00     0.047 A 
ATOM     16  C   UNL A   1      29.059  26.690  23.878  1.00  0.00     0.047 A 
ATOM     17  C   UNL A   1      31.536  26.695  22.554  1.00  0.00     0.014 A 
ATOM     18  C   UNL A   1      29.936  25.618  24.034  1.00  0.00     0.014 A 
BRANCH  14  19
ATOM     19  O   UNL A   1      28.639  28.867  22.836  1.00  0.00    -0.497 OA
ATOM     20  C   UNL A   1      29.345  30.057  22.499  1.00  0.00     0.278 C 
ENDBRANCH  14  19
ENDBRANCH   9  13
BRANCH  12  21
ATOM     21  C   UNL A   1      32.565  20.975  24.273  1.00  0.00    -0.004 A 
ATOM     22  C   UNL A   1      32.829  20.229  25.460  1.00  0.00     0.009 A 
ATOM     23  C   UNL A   1      32.292  20.225  23.118  1.00  0.00     0.047 A 
ATOM     24  C   UNL A   1      32.905  18.836  25.475  1.00  0.00     0.021 A 
ATOM     25  C   UNL A   1      32.403  18.821  23.127  1.00  0.00     0.041 A 
ATOM     26  Cl  UNL A   1      31.778  20.907  21.623  1.00  0.00    -0.084 Cl
ATOM     27  C   UNL A   1      32.730  18.139  24.293  1.00  0.00     0.042 A 
ATOM     28  Cl  UNL A   1      32.938  16.432  24.271  1.00  0.00    -0.084 Cl
ENDBRANCH  12  21
ENDBRANCH   6   8
ENDBRANCH   5   6
ENDBRANCH   4   5
ENDBRANCH   2   4
ENDBRANCH   1   2
BRANCH   1  29
ATOM     29  C   UNL A   1      38.761  20.623  25.546  1.00  0.00     0.274 C 
BRANCH  29  30
ATOM     30  C   UNL A   1      39.675  19.497  26.045  1.00  0.00     0.275 C 
BRANCH  30  31
ATOM     31  O   UNL A   1      40.947  19.463  25.368  1.00  0.00    -0.458 OA
BRANCH  31  32
ATOM     32  C   UNL A   1      42.005  19.594  26.192  1.00  0.00     0.338 C 
ATOM     33  O   UNL A   1      42.758  18.710  26.549  1.00  0.00    -0.246 OA
BRANCH  32  34
ATOM     34  C   UNL A   1      42.244  20.964  26.623  1.00  0.00     0.060 A 
ATOM     35  C   UNL A   1      42.650  21.886  25.654  1.00  0.00     0.016 A 
ATOM     36  C   UNL A   1      42.265  21.275  27.982  1.00  0.00     0.016 A 
ATOM     37  C   UNL A   1      43.057  23.153  26.046  1.00  0.00     0.010 A 
ATOM     38  C   UNL A   1      42.662  22.553  28.373  1.00  0.00     0.010 A 
ATOM     39  C   UNL A   1      43.052  23.495  27.406  1.00  0.00    -0.014 A 
BRANCH  39  40
ATOM     40  C   UNL A   1      43.366  24.879  27.807  1.00  0.00     0.031 A 
ATOM     41  C   UNL A   1      44.783  25.337  27.957  1.00  0.00     0.074 A 
ATOM     42  C   UNL A   1      42.336  25.710  28.046  1.00  0.00     0.049 A 
ATOM     43  N   UNL A   1      45.228  26.508  28.335  1.00  0.00    -0.248 NA
ATOM     44  C   UNL A   1      45.835  24.358  27.648  1.00  0.00     0.031 C 
ATOM     45  C   UNL A   1      40.921  25.354  27.913  1.00  0.00     0.029 A 
ATOM     46  N   UNL A   1      42.318  27.018  28.446  1.00  0.00    -0.354 N 
ATOM     47  C   UNL A   1      46.611  26.407  28.319  1.00  0.00     0.074 A 
ATOM     48  C   UNL A   1      46.932  25.055  27.910  1.00  0.00     0.031 C 
ATOM     49  C   UNL A   1      40.172  26.425  28.217  1.00  0.00     0.029 A 
ATOM     50  C   UNL A   1      41.052  27.522  28.598  1.00  0.00     0.049 A 
ATOM     51  H   UNL A   1      43.134  27.545  28.609  1.00  0.00     0.167 HD
ATOM     52  C   UNL A   1      47.526  27.359  28.624  1.00  0.00     0.031 A 
ATOM     53  C   UNL A   1      40.645  28.735  29.011  1.00  0.00     0.031 A 
ATOM     54  C   UNL A   1      47.190  28.693  29.052  1.00  0.00     0.049 A 
ATOM     55  C   UNL A   1      41.680  29.762  29.360  1.00  0.00     0.074 A 
ATOM     56  C   UNL A   1      48.038  29.732  29.394  1.00  0.00     0.029 A 
ATOM     57  N   UNL A   1      45.896  29.171  29.195  1.00  0.00    -0.354 N 
ATOM     58  N   UNL A   1      42.986  29.656  29.335  1.00  0.00    -0.248 NA
ATOM     59  C   UNL A   1      41.184  31.077  29.784  1.00  0.00     0.031 C 
ATOM     60  C   UNL A   1      47.255  30.829  29.777  1.00  0.00     0.029 A 
ATOM     61  C   UNL A   1      45.921  30.486  29.629  1.00  0.00     0.049 A 
ATOM     62  H   UNL A   1      45.079  28.652  29.015  1.00  0.00     0.167 HD
ATOM     63  C   UNL A   1      43.472  30.896  29.719  1.00  0.00     0.074 A 
ATOM     64  C   UNL A   1      42.318  31.741  29.957  1.00  0.00     0.031 C 
ATOM     65  C   UNL A   1      44.757  31.301  29.863  1.00  0.00     0.031 A 
BRANCH  52  66
ATOM     66  C   UNL A   1      48.975  26.975  28.538  1.00  0.00    -0.014 A 
ATOM     67  C   UNL A   1      49.705  27.155  27.352  1.00  0.00     0.009 A 
ATOM     68  C   UNL A   1      49.628  26.452  29.664  1.00  0.00     0.009 A 
ATOM     69  C   UNL A   1      51.052  26.791  27.288  1.00  0.00     0.001 A 
ATOM     70  C   UNL A   1      50.980  26.109  29.604  1.00  0.00     0.001 A 
ATOM     71  C   UNL A   1      51.689  26.270  28.414  1.00  0.00     0.000 A 
ENDBRANCH  52  66
BRANCH  53  72
ATOM     72  C   UNL A   1      39.196  29.032  29.101  1.00  0.00    -0.014 A 
ATOM     73  C   UNL A   1      38.505  28.846  30.306  1.00  0.00     0.009 A 
ATOM     74  C   UNL A   1      38.504  29.539  27.990  1.00  0.00     0.009 A 
ATOM     75  C   UNL A   1      37.144  29.144  30.393  1.00  0.00     0.001 A 
ATOM     76  C   UNL A   1      37.150  29.860  28.086  1.00  0.00     0.001 A 
ATOM     77  C   UNL A   1      36.469  29.656  29.285  1.00  0.00     0.000 A 
ENDBRANCH  53  72
BRANCH  65  78
ATOM     78  C   UNL A   1      44.966  32.731  30.266  1.00  0.00    -0.014 A 
ATOM     79  C   UNL A   1      45.062  33.098  31.616  1.00  0.00     0.009 A 
ATOM     80  C   UNL A   1      45.069  33.721  29.277  1.00  0.00     0.009 A 
ATOM     81  C   UNL A   1      45.220  34.440  31.971  1.00  0.00     0.001 A 
ATOM     82  C   UNL A   1      45.248  35.057  29.634  1.00  0.00     0.001 A 
ATOM     83  C   UNL A   1      45.313  35.416  30.980  1.00  0.00     0.000 A 
ENDBRANCH  65  78
ENDBRANCH  39  40
ENDBRANCH  32  34
ENDBRANCH  31  32
ENDBRANCH  30  31
ENDBRANCH  29  30
ENDBRANCH   1  29
TORSDOF 17
ENDMDL
