MODEL 1
REMARK VINA RESULT:     -12.0      0.000      0.000
REMARK SMILES O=C1CC[C@@H](CC(=O)N2CCC(Oc3ccccc3)(C(=O)OCCOC(=O)c3ccc(-c4c5nc(c(-c6ccccc6)c6ccc([nH]6)c(-c6ccccc6)c6nc(c(-c7ccccc7)c7ccc4[nH]7)C=C6)C=C5)cc3)CC2)N1
REMARK SMILES IDX 23 1 22 2 20 3 21 4 12 5 7 6 8 7 9 8 10 9 77 10 11 11 76 12
REMARK SMILES IDX 6 13 5 14 1 15 2 16 3 17 78 18 4 19 13 21 14 22 15 23 19 24
REMARK SMILES IDX 16 25 18 26 17 27 24 28 25 29 26 30 27 31 28 32 29 33 75 34
REMARK SMILES IDX 30 35 74 36 31 37 32 38 33 39 68 40 34 41 73 42 67 43 69 44
REMARK SMILES IDX 35 45 72 46 66 47 65 48 36 50 58 51 43 52 57 53 44 54 47 55
REMARK SMILES IDX 56 56 70 57 45 58 46 59 55 61 71 62 48 63 37 64 38 65 42 66
REMARK SMILES IDX 39 67 41 68 40 69 59 70 60 71 64 72 61 73 63 74 62 75 49 76
REMARK SMILES IDX 50 77 54 78 51 79 53 80 52 81
REMARK H PARENT 78 20 69 49 47 60
REMARK Flexibility Score: inf
ROOT
ATOM      1  C   UNL A   1      36.045  20.031  24.999  1.00  0.00     0.274 C 
ENDROOT
BRANCH   1   2
ATOM      2  O   UNL A   1      35.374  21.267  24.664  1.00  0.00    -0.459 OA
BRANCH   2   3
ATOM      3  C   UNL A   1      34.390  21.658  25.519  1.00  0.00     0.350 C 
ATOM      4  O   UNL A   1      34.498  21.602  26.742  1.00  0.00    -0.247 OA
BRANCH   3   5
ATOM      5  C   UNL A   1      33.106  22.154  24.811  1.00  0.00     0.209 C 
ATOM      6  C   UNL A   1      33.269  25.802  22.801  1.00  0.00     0.224 C 
ATOM      7  O   UNL A   1      32.792  25.707  21.666  1.00  0.00    -0.275 OA
ATOM      8  N   UNL A   1      33.709  24.682  23.488  1.00  0.00    -0.342 N 
ATOM      9  C   UNL A   1      34.028  23.447  22.772  1.00  0.00     0.124 C 
ATOM     10  C   UNL A   1      33.793  24.566  24.923  1.00  0.00     0.124 C 
ATOM     11  C   UNL A   1      33.219  22.252  23.273  1.00  0.00     0.082 C 
ATOM     12  C   UNL A   1      32.784  23.542  25.413  1.00  0.00     0.082 C 
BRANCH   6  13
ATOM     13  C   UNL A   1      33.559  27.197  23.359  1.00  0.00     0.125 C 
BRANCH  13  14
ATOM     14  C   UNL A   1      32.472  28.260  23.547  1.00  0.00     0.091 C 
ATOM     15  O   UNL A   1      30.045  29.781  21.527  1.00  0.00    -0.275 OA
ATOM     16  C   UNL A   1      30.645  29.147  22.365  1.00  0.00     0.220 C 
ATOM     17  C   UNL A   1      30.034  28.438  23.545  1.00  0.00     0.102 C 
ATOM     18  N   UNL A   1      32.011  28.949  22.383  1.00  0.00    -0.353 N 
ATOM     19  C   UNL A   1      31.203  27.702  24.185  1.00  0.00     0.035 C 
ATOM     20  H   UNL A   1      32.610  29.253  21.665  1.00  0.00     0.163 HD
ENDBRANCH  13  14
ENDBRANCH   6  13
BRANCH   5  21
ATOM     21  O   UNL A   1      32.179  21.092  25.190  1.00  0.00    -0.475 OA
BRANCH  21  22
ATOM     22  C   UNL A   1      32.405  19.881  24.599  1.00  0.00     0.121 A 
ATOM     23  C   UNL A   1      32.830  18.807  25.382  1.00  0.00     0.046 A 
ATOM     24  C   UNL A   1      32.257  19.732  23.222  1.00  0.00     0.046 A 
ATOM     25  C   UNL A   1      32.994  17.552  24.797  1.00  0.00     0.004 A 
ATOM     26  C   UNL A   1      32.413  18.475  22.641  1.00  0.00     0.004 A 
ATOM     27  C   UNL A   1      32.767  17.382  23.431  1.00  0.00     0.000 A 
ENDBRANCH  21  22
ENDBRANCH   5  21
ENDBRANCH   3   5
ENDBRANCH   2   3
ENDBRANCH   1   2
BRANCH   1  28
ATOM     28  C   UNL A   1      37.558  20.156  24.829  1.00  0.00     0.275 C 
BRANCH  28  29
ATOM     29  O   UNL A   1      38.036  21.334  25.509  1.00  0.00    -0.458 OA
BRANCH  29  30
ATOM     30  C   UNL A   1      39.227  21.224  26.142  1.00  0.00     0.338 C 
ATOM     31  O   UNL A   1      39.939  20.235  26.201  1.00  0.00    -0.246 OA
BRANCH  30  32
ATOM     32  C   UNL A   1      39.625  22.522  26.732  1.00  0.00     0.060 A 
ATOM     33  C   UNL A   1      39.011  23.692  26.304  1.00  0.00     0.016 A 
ATOM     34  C   UNL A   1      40.738  22.606  27.571  1.00  0.00     0.016 A 
ATOM     35  C   UNL A   1      39.611  24.921  26.577  1.00  0.00     0.010 A 
ATOM     36  C   UNL A   1      41.246  23.861  27.963  1.00  0.00     0.010 A 
ATOM     37  C   UNL A   1      40.736  25.051  27.421  1.00  0.00    -0.014 A 
BRANCH  37  38
ATOM     38  C   UNL A   1      41.375  26.404  27.643  1.00  0.00     0.031 A 
ATOM     39  C   UNL A   1      40.756  27.460  28.557  1.00  0.00     0.074 A 
ATOM     40  C   UNL A   1      42.613  26.669  27.161  1.00  0.00     0.049 A 
ATOM     41  N   UNL A   1      41.226  28.648  28.876  1.00  0.00    -0.248 NA
ATOM     42  C   UNL A   1      39.501  27.128  29.253  1.00  0.00     0.031 C 
ATOM     43  C   UNL A   1      43.419  25.763  26.339  1.00  0.00     0.029 A 
ATOM     44  N   UNL A   1      43.440  27.759  27.337  1.00  0.00    -0.354 N 
ATOM     45  C   UNL A   1      40.343  29.187  29.807  1.00  0.00     0.074 A 
ATOM     46  C   UNL A   1      39.293  28.208  29.996  1.00  0.00     0.031 C 
ATOM     47  C   UNL A   1      44.647  26.272  26.190  1.00  0.00     0.029 A 
ATOM     48  C   UNL A   1      44.670  27.624  26.734  1.00  0.00     0.049 A 
ATOM     49  H   UNL A   1      43.174  28.559  27.846  1.00  0.00     0.167 HD
ATOM     50  C   UNL A   1      40.388  30.375  30.461  1.00  0.00     0.031 A 
ATOM     51  C   UNL A   1      45.684  28.491  26.543  1.00  0.00     0.031 A 
ATOM     52  C   UNL A   1      41.377  31.404  30.263  1.00  0.00     0.049 A 
ATOM     53  C   UNL A   1      45.561  29.904  27.028  1.00  0.00     0.074 A 
ATOM     54  C   UNL A   1      41.421  32.674  30.819  1.00  0.00     0.029 A 
ATOM     55  N   UNL A   1      42.478  31.298  29.434  1.00  0.00    -0.354 N 
ATOM     56  N   UNL A   1      44.664  30.423  27.825  1.00  0.00    -0.248 NA
ATOM     57  C   UNL A   1      46.565  30.862  26.540  1.00  0.00     0.031 C 
ATOM     58  C   UNL A   1      42.500  33.366  30.255  1.00  0.00     0.029 A 
ATOM     59  C   UNL A   1      43.166  32.503  29.406  1.00  0.00     0.049 A 
ATOM     60  H   UNL A   1      42.736  30.489  28.936  1.00  0.00     0.167 HD
ATOM     61  C   UNL A   1      44.989  31.771  27.924  1.00  0.00     0.074 A 
ATOM     62  C   UNL A   1      46.184  31.981  27.138  1.00  0.00     0.031 C 
ATOM     63  C   UNL A   1      44.333  32.743  28.601  1.00  0.00     0.031 A 
BRANCH  50  64
ATOM     64  C   UNL A   1      39.275  30.686  31.424  1.00  0.00    -0.014 A 
ATOM     65  C   UNL A   1      39.391  30.404  32.794  1.00  0.00     0.009 A 
ATOM     66  C   UNL A   1      38.133  31.360  30.961  1.00  0.00     0.009 A 
ATOM     67  C   UNL A   1      38.377  30.782  33.678  1.00  0.00     0.001 A 
ATOM     68  C   UNL A   1      37.131  31.753  31.849  1.00  0.00     0.001 A 
ATOM     69  C   UNL A   1      37.252  31.462  33.206  1.00  0.00     0.000 A 
ENDBRANCH  50  64
BRANCH  51  70
ATOM     70  C   UNL A   1      46.845  28.088  25.698  1.00  0.00    -0.014 A 
ATOM     71  C   UNL A   1      48.084  27.758  26.262  1.00  0.00     0.009 A 
ATOM     72  C   UNL A   1      46.707  28.050  24.298  1.00  0.00     0.009 A 
ATOM     73  C   UNL A   1      49.155  27.392  25.440  1.00  0.00     0.001 A 
ATOM     74  C   UNL A   1      47.760  27.639  23.485  1.00  0.00     0.001 A 
ATOM     75  C   UNL A   1      48.988  27.318  24.057  1.00  0.00     0.000 A 
ENDBRANCH  51  70
BRANCH  63  76
ATOM     76  C   UNL A   1      44.884  34.138  28.513  1.00  0.00    -0.014 A 
ATOM     77  C   UNL A   1      44.418  35.035  27.536  1.00  0.00     0.009 A 
ATOM     78  C   UNL A   1      45.865  34.572  29.416  1.00  0.00     0.009 A 
ATOM     79  C   UNL A   1      44.949  36.323  27.446  1.00  0.00     0.001 A 
ATOM     80  C   UNL A   1      46.374  35.870  29.342  1.00  0.00     0.001 A 
ATOM     81  C   UNL A   1      45.923  36.741  28.351  1.00  0.00     0.000 A 
ENDBRANCH  63  76
ENDBRANCH  37  38
ENDBRANCH  30  32
ENDBRANCH  29  30
ENDBRANCH  28  29
ENDBRANCH   1  28
TORSDOF 15
ENDMDL
MODEL 2
REMARK VINA RESULT:     -11.7      1.815      5.847
REMARK SMILES O=C1CC[C@@H](CC(=O)N2CCC(Oc3ccccc3)(C(=O)OCCOC(=O)c3ccc(-c4c5nc(c(-c6ccccc6)c6ccc([nH]6)c(-c6ccccc6)c6nc(c(-c7ccccc7)c7ccc4[nH]7)C=C6)C=C5)cc3)CC2)N1
REMARK SMILES IDX 23 1 22 2 20 3 21 4 12 5 7 6 8 7 9 8 10 9 77 10 11 11 76 12
REMARK SMILES IDX 6 13 5 14 1 15 2 16 3 17 78 18 4 19 13 21 14 22 15 23 19 24
REMARK SMILES IDX 16 25 18 26 17 27 24 28 25 29 26 30 27 31 28 32 29 33 75 34
REMARK SMILES IDX 30 35 74 36 31 37 32 38 33 39 68 40 34 41 73 42 67 43 69 44
REMARK SMILES IDX 35 45 72 46 66 47 65 48 36 50 58 51 43 52 57 53 44 54 47 55
REMARK SMILES IDX 56 56 70 57 45 58 46 59 55 61 71 62 48 63 37 64 38 65 42 66
REMARK SMILES IDX 39 67 41 68 40 69 59 70 60 71 64 72 61 73 63 74 62 75 49 76
REMARK SMILES IDX 50 77 54 78 51 79 53 80 52 81
REMARK H PARENT 78 20 69 49 47 60
REMARK Flexibility Score: inf
ROOT
ATOM      1  C   UNL A   1      38.400  21.441  25.461  1.00  0.00     0.274 C 
ENDROOT
BRANCH   1   2
ATOM      2  O   UNL A   1      36.961  21.354  25.573  1.00  0.00    -0.459 OA
BRANCH   2   3
ATOM      3  C   UNL A   1      36.254  21.881  24.536  1.00  0.00     0.350 C 
ATOM      4  O   UNL A   1      36.754  22.153  23.448  1.00  0.00    -0.247 OA
BRANCH   3   5
ATOM      5  C   UNL A   1      34.761  22.134  24.863  1.00  0.00     0.209 C 
ATOM      6  C   UNL A   1      33.090  25.764  23.678  1.00  0.00     0.224 C 
ATOM      7  O   UNL A   1      32.015  25.591  23.095  1.00  0.00    -0.275 OA
ATOM      8  N   UNL A   1      34.019  24.741  23.787  1.00  0.00    -0.342 N 
ATOM      9  C   UNL A   1      33.971  23.594  22.881  1.00  0.00     0.124 C 
ATOM     10  C   UNL A   1      35.018  24.631  24.821  1.00  0.00     0.124 C 
ATOM     11  C   UNL A   1      33.847  22.264  23.624  1.00  0.00     0.082 C 
ATOM     12  C   UNL A   1      34.712  23.432  25.703  1.00  0.00     0.082 C 
BRANCH   6  13
ATOM     13  C   UNL A   1      33.474  27.184  24.100  1.00  0.00     0.125 C 
BRANCH  13  14
ATOM     14  C   UNL A   1      32.645  28.416  23.723  1.00  0.00     0.091 C 
ATOM     15  O   UNL A   1      29.914  29.086  21.630  1.00  0.00    -0.275 OA
ATOM     16  C   UNL A   1      30.664  28.928  22.567  1.00  0.00     0.220 C 
ATOM     17  C   UNL A   1      30.375  29.279  24.002  1.00  0.00     0.102 C 
ATOM     18  N   UNL A   1      31.930  28.381  22.487  1.00  0.00    -0.353 N 
ATOM     19  C   UNL A   1      31.584  28.757  24.766  1.00  0.00     0.035 C 
ATOM     20  H   UNL A   1      32.303  28.004  21.659  1.00  0.00     0.163 HD
ENDBRANCH  13  14
ENDBRANCH   6  13
BRANCH   5  21
ATOM     21  O   UNL A   1      34.453  20.915  25.602  1.00  0.00    -0.475 OA
BRANCH  21  22
ATOM     22  C   UNL A   1      34.002  19.870  24.845  1.00  0.00     0.121 A 
ATOM     23  C   UNL A   1      34.841  18.781  24.614  1.00  0.00     0.046 A 
ATOM     24  C   UNL A   1      32.734  19.914  24.271  1.00  0.00     0.046 A 
ATOM     25  C   UNL A   1      34.363  17.682  23.901  1.00  0.00     0.004 A 
ATOM     26  C   UNL A   1      32.253  18.812  23.567  1.00  0.00     0.004 A 
ATOM     27  C   UNL A   1      33.063  17.689  23.395  1.00  0.00     0.000 A 
ENDBRANCH  21  22
ENDBRANCH   5  21
ENDBRANCH   3   5
ENDBRANCH   2   3
ENDBRANCH   1   2
BRANCH   1  28
ATOM     28  C   UNL A   1      39.038  20.054  25.398  1.00  0.00     0.275 C 
BRANCH  28  29
ATOM     29  O   UNL A   1      39.992  19.900  26.468  1.00  0.00    -0.458 OA
BRANCH  29  30
ATOM     30  C   UNL A   1      41.298  19.889  26.115  1.00  0.00     0.338 C 
ATOM     31  O   UNL A   1      41.888  19.010  25.509  1.00  0.00    -0.246 OA
BRANCH  30  32
ATOM     32  C   UNL A   1      41.954  21.158  26.509  1.00  0.00     0.060 A 
ATOM     33  C   UNL A   1      42.130  21.456  27.853  1.00  0.00     0.016 A 
ATOM     34  C   UNL A   1      42.224  22.140  25.552  1.00  0.00     0.016 A 
ATOM     35  C   UNL A   1      42.406  22.769  28.234  1.00  0.00     0.010 A 
ATOM     36  C   UNL A   1      42.650  23.424  25.947  1.00  0.00     0.010 A 
ATOM     37  C   UNL A   1      42.686  23.792  27.301  1.00  0.00    -0.014 A 
BRANCH  37  38
ATOM     38  C   UNL A   1      42.932  25.209  27.769  1.00  0.00     0.031 A 
ATOM     39  C   UNL A   1      44.332  25.814  27.845  1.00  0.00     0.074 A 
ATOM     40  C   UNL A   1      41.894  26.053  27.987  1.00  0.00     0.049 A 
ATOM     41  N   UNL A   1      44.682  27.037  28.184  1.00  0.00    -0.248 NA
ATOM     42  C   UNL A   1      45.473  24.981  27.429  1.00  0.00     0.031 C 
ATOM     43  C   UNL A   1      40.476  25.702  27.881  1.00  0.00     0.029 A 
ATOM     44  N   UNL A   1      41.868  27.398  28.288  1.00  0.00    -0.354 N 
ATOM     45  C   UNL A   1      46.060  27.119  28.008  1.00  0.00     0.074 A 
ATOM     46  C   UNL A   1      46.496  25.818  27.548  1.00  0.00     0.031 C 
ATOM     47  C   UNL A   1      39.735  26.811  27.989  1.00  0.00     0.029 A 
ATOM     48  C   UNL A   1      40.598  27.924  28.363  1.00  0.00     0.049 A 
ATOM     49  H   UNL A   1      42.682  27.933  28.435  1.00  0.00     0.167 HD
ATOM     50  C   UNL A   1      46.899  28.169  28.196  1.00  0.00     0.031 A 
ATOM     51  C   UNL A   1      40.138  29.125  28.768  1.00  0.00     0.031 A 
ATOM     52  C   UNL A   1      46.522  29.462  28.708  1.00  0.00     0.049 A 
ATOM     53  C   UNL A   1      41.098  30.165  29.261  1.00  0.00     0.074 A 
ATOM     54  C   UNL A   1      47.342  30.537  29.020  1.00  0.00     0.029 A 
ATOM     55  N   UNL A   1      45.231  29.852  29.007  1.00  0.00    -0.354 N 
ATOM     56  N   UNL A   1      42.403  30.183  29.179  1.00  0.00    -0.248 NA
ATOM     57  C   UNL A   1      40.518  31.329  29.949  1.00  0.00     0.031 C 
ATOM     58  C   UNL A   1      46.554  31.543  29.591  1.00  0.00     0.029 A 
ATOM     59  C   UNL A   1      45.238  31.122  29.567  1.00  0.00     0.049 A 
ATOM     60  H   UNL A   1      44.425  29.311  28.847  1.00  0.00     0.167 HD
ATOM     61  C   UNL A   1      42.801  31.352  29.817  1.00  0.00     0.074 A 
ATOM     62  C   UNL A   1      41.601  32.034  30.246  1.00  0.00     0.031 C 
ATOM     63  C   UNL A   1      44.060  31.801  30.035  1.00  0.00     0.031 A 
BRANCH  50  64
ATOM     64  C   UNL A   1      48.362  27.953  27.918  1.00  0.00    -0.014 A 
ATOM     65  C   UNL A   1      49.223  27.434  28.896  1.00  0.00     0.009 A 
ATOM     66  C   UNL A   1      48.858  28.185  26.625  1.00  0.00     0.009 A 
ATOM     67  C   UNL A   1      50.558  27.163  28.584  1.00  0.00     0.001 A 
ATOM     68  C   UNL A   1      50.186  27.894  26.312  1.00  0.00     0.001 A 
ATOM     69  C   UNL A   1      51.036  27.386  27.292  1.00  0.00     0.000 A 
ENDBRANCH  50  64
BRANCH  51  70
ATOM     70  C   UNL A   1      38.669  29.346  28.889  1.00  0.00    -0.014 A 
ATOM     71  C   UNL A   1      37.893  29.742  27.792  1.00  0.00     0.009 A 
ATOM     72  C   UNL A   1      38.038  29.168  30.135  1.00  0.00     0.009 A 
ATOM     73  C   UNL A   1      36.517  29.948  27.941  1.00  0.00     0.001 A 
ATOM     74  C   UNL A   1      36.661  29.327  30.270  1.00  0.00     0.001 A 
ATOM     75  C   UNL A   1      35.902  29.726  29.174  1.00  0.00     0.000 A 
ENDBRANCH  51  70
BRANCH  63  76
ATOM     76  C   UNL A   1      44.212  33.091  30.789  1.00  0.00    -0.014 A 
ATOM     77  C   UNL A   1      44.393  33.094  32.182  1.00  0.00     0.009 A 
ATOM     78  C   UNL A   1      44.189  34.318  30.107  1.00  0.00     0.009 A 
ATOM     79  C   UNL A   1      44.513  34.298  32.879  1.00  0.00     0.001 A 
ATOM     80  C   UNL A   1      44.338  35.519  30.803  1.00  0.00     0.001 A 
ATOM     81  C   UNL A   1      44.490  35.509  32.189  1.00  0.00     0.000 A 
ENDBRANCH  63  76
ENDBRANCH  37  38
ENDBRANCH  30  32
ENDBRANCH  29  30
ENDBRANCH  28  29
ENDBRANCH   1  28
TORSDOF 15
ENDMDL
MODEL 3
REMARK VINA RESULT:     -11.7      3.890      9.502
REMARK SMILES O=C1CC[C@@H](CC(=O)N2CCC(Oc3ccccc3)(C(=O)OCCOC(=O)c3ccc(-c4c5nc(c(-c6ccccc6)c6ccc([nH]6)c(-c6ccccc6)c6nc(c(-c7ccccc7)c7ccc4[nH]7)C=C6)C=C5)cc3)CC2)N1
REMARK SMILES IDX 23 1 22 2 20 3 21 4 12 5 7 6 8 7 9 8 10 9 77 10 11 11 76 12
REMARK SMILES IDX 6 13 5 14 1 15 2 16 3 17 78 18 4 19 13 21 14 22 15 23 19 24
REMARK SMILES IDX 16 25 18 26 17 27 24 28 25 29 26 30 27 31 28 32 29 33 75 34
REMARK SMILES IDX 30 35 74 36 31 37 32 38 33 39 68 40 34 41 73 42 67 43 69 44
REMARK SMILES IDX 35 45 72 46 66 47 65 48 36 50 58 51 43 52 57 53 44 54 47 55
REMARK SMILES IDX 56 56 70 57 45 58 46 59 55 61 71 62 48 63 37 64 38 65 42 66
REMARK SMILES IDX 39 67 41 68 40 69 59 70 60 71 64 72 61 73 63 74 62 75 49 76
REMARK SMILES IDX 50 77 54 78 51 79 53 80 52 81
REMARK H PARENT 78 20 69 49 47 60
REMARK Flexibility Score: inf
ROOT
ATOM      1  C   UNL A   1      31.786  28.932  26.644  1.00  0.00     0.274 C 
ENDROOT
BRANCH   1   2
ATOM      2  O   UNL A   1      31.035  28.532  25.476  1.00  0.00    -0.459 OA
BRANCH   2   3
ATOM      3  C   UNL A   1      31.760  27.970  24.470  1.00  0.00     0.350 C 
ATOM      4  O   UNL A   1      32.818  28.440  24.058  1.00  0.00    -0.247 OA
BRANCH   3   5
ATOM      5  C   UNL A   1      31.116  26.696  23.870  1.00  0.00     0.209 C 
ATOM      6  C   UNL A   1      31.407  23.151  26.044  1.00  0.00     0.224 C 
ATOM      7  O   UNL A   1      30.311  22.590  26.130  1.00  0.00    -0.275 OA
ATOM      8  N   UNL A   1      31.499  24.504  25.755  1.00  0.00    -0.342 N 
ATOM      9  C   UNL A   1      30.353  25.388  25.965  1.00  0.00     0.124 C 
ATOM     10  C   UNL A   1      32.632  25.148  25.138  1.00  0.00     0.124 C 
ATOM     11  C   UNL A   1      29.939  26.125  24.693  1.00  0.00     0.082 C 
ATOM     12  C   UNL A   1      32.247  25.648  23.756  1.00  0.00     0.082 C 
BRANCH   6  13
ATOM     13  C   UNL A   1      32.660  22.380  26.464  1.00  0.00     0.125 C 
BRANCH  13  14
ATOM     14  C   UNL A   1      33.199  21.180  25.679  1.00  0.00     0.091 C 
ATOM     15  O   UNL A   1      32.276  17.829  25.229  1.00  0.00    -0.275 OA
ATOM     16  C   UNL A   1      32.529  19.004  25.095  1.00  0.00     0.220 C 
ATOM     17  C   UNL A   1      32.561  19.761  23.793  1.00  0.00     0.102 C 
ATOM     18  N   UNL A   1      32.827  19.875  26.125  1.00  0.00    -0.353 N 
ATOM     19  C   UNL A   1      32.797  21.207  24.207  1.00  0.00     0.035 C 
ATOM     20  H   UNL A   1      32.787  19.621  27.075  1.00  0.00     0.163 HD
ENDBRANCH  13  14
ENDBRANCH   6  13
BRANCH   5  21
ATOM     21  O   UNL A   1      30.642  27.227  22.596  1.00  0.00    -0.475 OA
BRANCH  21  22
ATOM     22  C   UNL A   1      29.662  28.175  22.686  1.00  0.00     0.121 A 
ATOM     23  C   UNL A   1      29.963  29.501  22.377  1.00  0.00     0.046 A 
ATOM     24  C   UNL A   1      28.387  27.828  23.126  1.00  0.00     0.046 A 
ATOM     25  C   UNL A   1      28.951  30.460  22.398  1.00  0.00     0.004 A 
ATOM     26  C   UNL A   1      27.374  28.785  23.138  1.00  0.00     0.004 A 
ATOM     27  C   UNL A   1      27.653  30.098  22.760  1.00  0.00     0.000 A 
ENDBRANCH  21  22
ENDBRANCH   5  21
ENDBRANCH   3   5
ENDBRANCH   2   3
ENDBRANCH   1   2
BRANCH   1  28
ATOM     28  C   UNL A   1      31.743  30.446  26.842  1.00  0.00     0.275 C 
BRANCH  28  29
ATOM     29  O   UNL A   1      32.977  31.039  26.392  1.00  0.00    -0.458 OA
BRANCH  29  30
ATOM     30  C   UNL A   1      33.584  31.893  27.249  1.00  0.00     0.338 C 
ATOM     31  O   UNL A   1      33.139  32.947  27.674  1.00  0.00    -0.246 OA
BRANCH  30  32
ATOM     32  C   UNL A   1      34.889  31.349  27.689  1.00  0.00     0.060 A 
ATOM     33  C   UNL A   1      35.022  29.991  27.942  1.00  0.00     0.016 A 
ATOM     34  C   UNL A   1      35.933  32.211  28.035  1.00  0.00     0.016 A 
ATOM     35  C   UNL A   1      36.111  29.534  28.685  1.00  0.00     0.010 A 
ATOM     36  C   UNL A   1      37.098  31.712  28.651  1.00  0.00     0.010 A 
ATOM     37  C   UNL A   1      37.187  30.370  29.054  1.00  0.00    -0.014 A 
BRANCH  37  38
ATOM     38  C   UNL A   1      38.319  29.832  29.901  1.00  0.00     0.031 A 
ATOM     39  C   UNL A   1      39.430  28.957  29.322  1.00  0.00     0.074 A 
ATOM     40  C   UNL A   1      38.477  30.244  31.182  1.00  0.00     0.049 A 
ATOM     41  N   UNL A   1      40.490  28.467  29.928  1.00  0.00    -0.248 NA
ATOM     42  C   UNL A   1      39.392  28.648  27.882  1.00  0.00     0.031 C 
ATOM     43  C   UNL A   1      37.579  31.150  31.902  1.00  0.00     0.029 A 
ATOM     44  N   UNL A   1      39.481  29.999  32.095  1.00  0.00    -0.354 N 
ATOM     45  C   UNL A   1      41.240  27.816  28.953  1.00  0.00     0.074 A 
ATOM     46  C   UNL A   1      40.510  27.955  27.711  1.00  0.00     0.031 C 
ATOM     47  C   UNL A   1      38.127  31.478  33.078  1.00  0.00     0.029 A 
ATOM     48  C   UNL A   1      39.318  30.664  33.290  1.00  0.00     0.049 A 
ATOM     49  H   UNL A   1      40.244  29.404  31.910  1.00  0.00     0.167 HD
ATOM     50  C   UNL A   1      42.428  27.169  29.058  1.00  0.00     0.031 A 
ATOM     51  C   UNL A   1      39.971  30.585  34.466  1.00  0.00     0.031 A 
ATOM     52  C   UNL A   1      43.160  26.955  30.280  1.00  0.00     0.049 A 
ATOM     53  C   UNL A   1      41.106  29.620  34.628  1.00  0.00     0.074 A 
ATOM     54  C   UNL A   1      44.320  26.217  30.471  1.00  0.00     0.029 A 
ATOM     55  N   UNL A   1      42.801  27.450  31.519  1.00  0.00    -0.354 N 
ATOM     56  N   UNL A   1      41.739  28.935  33.710  1.00  0.00    -0.248 NA
ATOM     57  C   UNL A   1      41.582  29.379  35.999  1.00  0.00     0.031 C 
ATOM     58  C   UNL A   1      44.609  26.194  31.840  1.00  0.00     0.029 A 
ATOM     59  C   UNL A   1      43.672  26.976  32.489  1.00  0.00     0.049 A 
ATOM     60  H   UNL A   1      42.040  28.050  31.689  1.00  0.00     0.167 HD
ATOM     61  C   UNL A   1      42.677  28.172  34.395  1.00  0.00     0.074 A 
ATOM     62  C   UNL A   1      42.558  28.506  35.797  1.00  0.00     0.031 C 
ATOM     63  C   UNL A   1      43.548  27.265  33.892  1.00  0.00     0.031 A 
BRANCH  50  64
ATOM     64  C   UNL A   1      43.003  26.556  27.810  1.00  0.00    -0.014 A 
ATOM     65  C   UNL A   1      42.643  25.264  27.398  1.00  0.00     0.009 A 
ATOM     66  C   UNL A   1      43.841  27.327  26.988  1.00  0.00     0.009 A 
ATOM     67  C   UNL A   1      43.125  24.753  26.189  1.00  0.00     0.001 A 
ATOM     68  C   UNL A   1      44.304  26.820  25.773  1.00  0.00     0.001 A 
ATOM     69  C   UNL A   1      43.949  25.533  25.376  1.00  0.00     0.000 A 
ENDBRANCH  50  64
BRANCH  51  70
ATOM     70  C   UNL A   1      39.449  31.330  35.647  1.00  0.00    -0.014 A 
ATOM     71  C   UNL A   1      40.070  32.497  36.113  1.00  0.00     0.009 A 
ATOM     72  C   UNL A   1      38.314  30.851  36.327  1.00  0.00     0.009 A 
ATOM     73  C   UNL A   1      39.560  33.168  37.229  1.00  0.00     0.001 A 
ATOM     74  C   UNL A   1      37.779  31.547  37.408  1.00  0.00     0.001 A 
ATOM     75  C   UNL A   1      38.408  32.701  37.864  1.00  0.00     0.000 A 
ENDBRANCH  51  70
BRANCH  63  76
ATOM     76  C   UNL A   1      44.438  26.548  34.867  1.00  0.00    -0.014 A 
ATOM     77  C   UNL A   1      45.676  27.094  35.246  1.00  0.00     0.009 A 
ATOM     78  C   UNL A   1      44.039  25.324  35.424  1.00  0.00     0.009 A 
ATOM     79  C   UNL A   1      46.508  26.412  36.136  1.00  0.00     0.001 A 
ATOM     80  C   UNL A   1      44.861  24.658  36.336  1.00  0.00     0.001 A 
ATOM     81  C   UNL A   1      46.099  25.197  36.683  1.00  0.00     0.000 A 
ENDBRANCH  63  76
ENDBRANCH  37  38
ENDBRANCH  30  32
ENDBRANCH  29  30
ENDBRANCH  28  29
ENDBRANCH   1  28
TORSDOF 15
ENDMDL
