MODEL 1
REMARK VINA RESULT:     -11.2      0.000      0.000
REMARK SMILES [NH3+]Cc1c(-c2ccccc2)c(C(=O)OCCOC(=O)c2ccc(-c3c4nc(c(-c5ccccc5)c5ccc([nH]5)c(-c5ccccc5)c5nc(c(-c6ccccc6)c6ccc3[nH]6)C=C5)C=C4)cc2)c2ccccn12
REMARK SMILES IDX 15 1 14 2 12 3 13 4 11 5 3 6 4 7 73 8 68 9 72 10 69 11 71 12
REMARK SMILES IDX 70 13 2 14 1 15 5 19 6 20 10 21 7 22 9 23 8 24 16 25 17 26
REMARK SMILES IDX 18 27 19 28 20 29 21 30 67 31 22 32 66 33 23 34 24 35 25 36
REMARK SMILES IDX 60 37 26 38 65 39 59 40 61 41 27 42 64 43 58 44 57 45 28 47
REMARK SMILES IDX 50 48 35 49 49 50 36 51 39 52 48 53 62 54 37 55 38 56 47 58
REMARK SMILES IDX 63 59 40 60 29 61 30 62 34 63 31 64 33 65 32 66 51 67 52 68
REMARK SMILES IDX 56 69 53 70 55 71 54 72 41 73 42 74 46 75 43 76 45 77 44 78
REMARK H PARENT 1 16 1 17 1 18 61 46 39 57
REMARK Flexibility Score: inf
ROOT
ATOM      1  C   UNL A   1      33.941  28.410  24.404  1.00  0.00     0.275 C 
ENDROOT
BRANCH   1   2
ATOM      2  O   UNL A   1      33.885  28.148  22.986  1.00  0.00    -0.458 OA
BRANCH   2   3
ATOM      3  C   UNL A   1      33.386  26.927  22.612  1.00  0.00     0.341 C 
ATOM      4  O   UNL A   1      33.651  26.387  21.546  1.00  0.00    -0.246 OA
BRANCH   3   5
ATOM      5  C   UNL A   1      32.377  26.412  23.536  1.00  0.00     0.093 A 
ATOM      6  C   UNL A   1      30.986  25.023  24.691  1.00  0.00     0.086 A 
ATOM      7  C   UNL A   1      32.344  25.247  24.424  1.00  0.00     0.024 A 
ATOM      8  N   UNL A   1      30.246  26.101  24.192  1.00  0.00    -0.314 N 
ATOM      9  C   UNL A   1      31.099  26.937  23.491  1.00  0.00     0.061 A 
ATOM     10  C   UNL A   1      28.859  26.327  24.208  1.00  0.00     0.092 A 
ATOM     11  C   UNL A   1      30.532  28.030  22.760  1.00  0.00     0.027 A 
ATOM     12  C   UNL A   1      28.327  27.343  23.503  1.00  0.00     0.018 A 
ATOM     13  C   UNL A   1      29.203  28.216  22.752  1.00  0.00     0.004 A 
BRANCH   6  14
ATOM     14  C   UNL A   1      30.316  23.837  25.305  1.00  0.00     0.315 C 
BRANCH  14  15
ATOM     15  N   UNL A   1      29.960  24.098  26.697  1.00  0.00    -0.353 N 
ATOM     16  H   UNL A   1      30.039  23.235  27.236  1.00  0.00     0.344 HD
ATOM     17  H   UNL A   1      29.001  24.441  26.744  1.00  0.00     0.344 HD
ATOM     18  H   UNL A   1      30.592  24.800  27.084  1.00  0.00     0.344 HD
ENDBRANCH  14  15
ENDBRANCH   6  14
BRANCH   7  19
ATOM     19  C   UNL A   1      33.407  24.193  24.580  1.00  0.00    -0.015 A 
ATOM     20  C   UNL A   1      33.383  22.641  23.634  1.00  0.00     0.009 A 
ATOM     21  C   UNL A   1      33.947  24.121  26.253  1.00  0.00     0.009 A 
ATOM     22  C   UNL A   1      33.819  20.922  24.624  1.00  0.00     0.001 A 
ATOM     23  C   UNL A   1      34.353  22.633  27.106  1.00  0.00     0.001 A 
ATOM     24  C   UNL A   1      34.267  21.049  26.373  1.00  0.00     0.000 A 
ENDBRANCH   7  19
ENDBRANCH   3   5
ENDBRANCH   2   3
ENDBRANCH   1   2
BRANCH   1  25
ATOM     25  C   UNL A   1      33.201  29.704  24.732  1.00  0.00     0.275 C 
BRANCH  25  26
ATOM     26  O   UNL A   1      32.588  29.565  26.022  1.00  0.00    -0.458 OA
BRANCH  26  27
ATOM     27  C   UNL A   1      32.604  30.717  26.716  1.00  0.00     0.338 C 
ATOM     28  O   UNL A   1      31.768  31.608  26.713  1.00  0.00    -0.246 OA
BRANCH  27  29
ATOM     29  C   UNL A   1      33.778  30.829  27.554  1.00  0.00     0.060 A 
ATOM     30  C   UNL A   1      34.684  32.367  27.831  1.00  0.00     0.016 A 
ATOM     31  C   UNL A   1      34.614  29.306  27.789  1.00  0.00     0.016 A 
ATOM     32  C   UNL A   1      36.636  32.218  28.372  1.00  0.00     0.010 A 
ATOM     33  C   UNL A   1      36.293  29.187  28.303  1.00  0.00     0.010 A 
ATOM     34  C   UNL A   1      37.336  30.563  28.623  1.00  0.00    -0.014 A 
BRANCH  34  35
ATOM     35  C   UNL A   1      38.554  30.252  29.482  1.00  0.00     0.031 A 
ATOM     36  C   UNL A   1      39.660  29.332  29.015  1.00  0.00     0.074 A 
ATOM     37  C   UNL A   1      38.542  30.523  30.809  1.00  0.00     0.049 A 
ATOM     38  N   UNL A   1      40.650  28.816  29.708  1.00  0.00    -0.248 NA
ATOM     39  C   UNL A   1      39.598  28.857  27.627  1.00  0.00     0.031 C 
ATOM     40  C   UNL A   1      37.402  31.059  31.518  1.00  0.00     0.029 A 
ATOM     41  N   UNL A   1      39.460  30.363  31.824  1.00  0.00    -0.354 N 
ATOM     42  C   UNL A   1      41.287  27.912  28.867  1.00  0.00     0.074 A 
ATOM     43  C   UNL A   1      40.564  27.943  27.612  1.00  0.00     0.031 C 
ATOM     44  C   UNL A   1      37.708  31.378  32.773  1.00  0.00     0.029 A 
ATOM     45  C   UNL A   1      39.051  30.905  33.029  1.00  0.00     0.049 A 
ATOM     46  H   UNL A   1      40.324  29.907  31.703  1.00  0.00     0.167 HD
ATOM     47  C   UNL A   1      42.359  27.117  29.123  1.00  0.00     0.031 A 
ATOM     48  C   UNL A   1      39.634  30.979  34.241  1.00  0.00     0.031 A 
ATOM     49  C   UNL A   1      43.075  27.084  30.378  1.00  0.00     0.049 A 
ATOM     50  C   UNL A   1      40.917  30.252  34.444  1.00  0.00     0.074 A 
ATOM     51  C   UNL A   1      44.223  26.375  30.699  1.00  0.00     0.029 A 
ATOM     52  N   UNL A   1      42.716  27.787  31.520  1.00  0.00    -0.354 N 
ATOM     53  N   UNL A   1      41.553  29.484  33.596  1.00  0.00    -0.248 NA
ATOM     54  C   UNL A   1      41.541  30.354  35.767  1.00  0.00     0.031 C 
ATOM     55  C   UNL A   1      44.541  26.628  32.038  1.00  0.00     0.029 A 
ATOM     56  C   UNL A   1      43.622  27.533  32.540  1.00  0.00     0.049 A 
ATOM     57  H   UNL A   1      41.933  28.379  31.595  1.00  0.00     0.167 HD
ATOM     58  C   UNL A   1      42.649  29.000  34.284  1.00  0.00     0.074 A 
ATOM     59  C   UNL A   1      42.613  29.590  35.608  1.00  0.00     0.031 C 
ATOM     60  C   UNL A   1      43.586  28.126  33.852  1.00  0.00     0.031 A 
BRANCH  47  61
ATOM     61  C   UNL A   1      42.831  26.206  28.017  1.00  0.00    -0.014 A 
ATOM     62  C   UNL A   1      42.342  24.894  27.898  1.00  0.00     0.009 A 
ATOM     63  C   UNL A   1      43.741  26.673  27.055  1.00  0.00     0.009 A 
ATOM     64  C   UNL A   1      42.793  24.057  26.874  1.00  0.00     0.001 A 
ATOM     65  C   UNL A   1      44.168  25.844  26.014  1.00  0.00     0.001 A 
ATOM     66  C   UNL A   1      43.704  24.531  25.933  1.00  0.00     0.000 A 
ENDBRANCH  47  61
BRANCH  48  67
ATOM     67  C   UNL A   1      39.008  31.777  35.332  1.00  0.00    -0.014 A 
ATOM     68  C   UNL A   1      39.224  33.164  35.380  1.00  0.00     0.009 A 
ATOM     69  C   UNL A   1      38.155  31.196  36.283  1.00  0.00     0.009 A 
ATOM     70  C   UNL A   1      38.606  33.950  36.356  1.00  0.00     0.001 A 
ATOM     71  C   UNL A   1      37.507  31.990  37.235  1.00  0.00     0.001 A 
ATOM     72  C   UNL A   1      37.739  33.363  37.275  1.00  0.00     0.000 A 
ENDBRANCH  48  67
BRANCH  60  73
ATOM     73  C   UNL A   1      44.678  27.787  34.818  1.00  0.00    -0.014 A 
ATOM     74  C   UNL A   1      44.568  26.692  35.688  1.00  0.00     0.009 A 
ATOM     75  C   UNL A   1      45.844  28.566  34.839  1.00  0.00     0.009 A 
ATOM     76  C   UNL A   1      45.601  26.396  36.577  1.00  0.00     0.001 A 
ATOM     77  C   UNL A   1      46.883  28.255  35.714  1.00  0.00     0.001 A 
ATOM     78  C   UNL A   1      46.759  27.173  36.586  1.00  0.00     0.000 A 
ENDBRANCH  60  73
ENDBRANCH  34  35
ENDBRANCH  27  29
ENDBRANCH  26  27
ENDBRANCH  25  26
ENDBRANCH   1  25
TORSDOF 14
ENDMDL
MODEL 2
REMARK VINA RESULT:     -11.2      6.449     10.491
REMARK SMILES [NH3+]Cc1c(-c2ccccc2)c(C(=O)OCCOC(=O)c2ccc(-c3c4nc(c(-c5ccccc5)c5ccc([nH]5)c(-c5ccccc5)c5nc(c(-c6ccccc6)c6ccc3[nH]6)C=C5)C=C4)cc2)c2ccccn12
REMARK SMILES IDX 15 1 14 2 12 3 13 4 11 5 3 6 4 7 73 8 68 9 72 10 69 11 71 12
REMARK SMILES IDX 70 13 2 14 1 15 5 19 6 20 10 21 7 22 9 23 8 24 16 25 17 26
REMARK SMILES IDX 18 27 19 28 20 29 21 30 67 31 22 32 66 33 23 34 24 35 25 36
REMARK SMILES IDX 60 37 26 38 65 39 59 40 61 41 27 42 64 43 58 44 57 45 28 47
REMARK SMILES IDX 50 48 35 49 49 50 36 51 39 52 48 53 62 54 37 55 38 56 47 58
REMARK SMILES IDX 63 59 40 60 29 61 30 62 34 63 31 64 33 65 32 66 51 67 52 68
REMARK SMILES IDX 56 69 53 70 55 71 54 72 41 73 42 74 46 75 43 76 45 77 44 78
REMARK H PARENT 1 16 1 17 1 18 61 46 39 57
REMARK Flexibility Score: inf
ROOT
ATOM      1  C   UNL A   1      37.030  23.477  26.113  1.00  0.00     0.275 C 
ENDROOT
BRANCH   1   2
ATOM      2  O   UNL A   1      36.660  24.175  24.905  1.00  0.00    -0.458 OA
BRANCH   2   3
ATOM      3  C   UNL A   1      36.085  23.420  23.917  1.00  0.00     0.341 C 
ATOM      4  O   UNL A   1      36.699  22.997  22.946  1.00  0.00    -0.246 OA
BRANCH   3   5
ATOM      5  C   UNL A   1      34.634  23.308  24.051  1.00  0.00     0.093 A 
ATOM      6  C   UNL A   1      32.477  23.617  24.723  1.00  0.00     0.086 A 
ATOM      7  C   UNL A   1      33.566  24.304  24.169  1.00  0.00     0.024 A 
ATOM      8  N   UNL A   1      32.769  22.249  24.737  1.00  0.00    -0.314 N 
ATOM      9  C   UNL A   1      34.081  22.072  24.330  1.00  0.00     0.061 A 
ATOM     10  C   UNL A   1      32.001  21.167  25.202  1.00  0.00     0.092 A 
ATOM     11  C   UNL A   1      34.649  20.760  24.415  1.00  0.00     0.027 A 
ATOM     12  C   UNL A   1      32.545  19.940  25.300  1.00  0.00     0.018 A 
ATOM     13  C   UNL A   1      33.919  19.741  24.895  1.00  0.00     0.004 A 
BRANCH   6  14
ATOM     14  C   UNL A   1      31.213  24.150  25.316  1.00  0.00     0.315 C 
BRANCH  14  15
ATOM     15  N   UNL A   1      31.336  24.303  26.763  1.00  0.00    -0.353 N 
ATOM     16  H   UNL A   1      30.413  24.233  27.192  1.00  0.00     0.344 HD
ATOM     17  H   UNL A   1      31.741  25.214  26.976  1.00  0.00     0.344 HD
ATOM     18  H   UNL A   1      31.940  23.568  27.133  1.00  0.00     0.344 HD
ENDBRANCH  14  15
ENDBRANCH   6  14
BRANCH   7  19
ATOM     19  C   UNL A   1      33.722  25.801  24.228  1.00  0.00    -0.015 A 
ATOM     20  C   UNL A   1      33.812  26.708  25.800  1.00  0.00     0.009 A 
ATOM     21  C   UNL A   1      32.845  26.552  22.900  1.00  0.00     0.009 A 
ATOM     22  C   UNL A   1      32.757  28.436  25.957  1.00  0.00     0.001 A 
ATOM     23  C   UNL A   1      31.951  28.066  23.027  1.00  0.00     0.001 A 
ATOM     24  C   UNL A   1      31.842  28.999  24.501  1.00  0.00     0.000 A 
ENDBRANCH   7  19
ENDBRANCH   3   5
ENDBRANCH   2   3
ENDBRANCH   1   2
BRANCH   1  25
ATOM     25  C   UNL A   1      38.535  23.223  26.136  1.00  0.00     0.275 C 
BRANCH  25  26
ATOM     26  O   UNL A   1      39.145  24.174  27.021  1.00  0.00    -0.458 OA
BRANCH  26  27
ATOM     27  C   UNL A   1      40.418  23.852  27.310  1.00  0.00     0.338 C 
ATOM     28  O   UNL A   1      40.848  22.785  27.723  1.00  0.00    -0.246 OA
BRANCH  27  29
ATOM     29  C   UNL A   1      41.326  24.950  27.057  1.00  0.00     0.060 A 
ATOM     30  C   UNL A   1      41.717  25.583  25.411  1.00  0.00     0.016 A 
ATOM     31  C   UNL A   1      42.469  25.221  28.357  1.00  0.00     0.016 A 
ATOM     32  C   UNL A   1      43.488  26.552  25.180  1.00  0.00     0.010 A 
ATOM     33  C   UNL A   1      43.979  26.101  28.157  1.00  0.00     0.010 A 
ATOM     34  C   UNL A   1      44.535  26.794  26.641  1.00  0.00    -0.014 A 
BRANCH  34  35
ATOM     35  C   UNL A   1      45.592  27.880  26.788  1.00  0.00     0.031 A 
ATOM     36  C   UNL A   1      45.232  29.338  26.969  1.00  0.00     0.074 A 
ATOM     37  C   UNL A   1      46.878  27.634  26.443  1.00  0.00     0.049 A 
ATOM     38  N   UNL A   1      46.013  30.393  26.903  1.00  0.00    -0.248 NA
ATOM     39  C   UNL A   1      43.812  29.664  27.150  1.00  0.00     0.031 C 
ATOM     40  C   UNL A   1      47.342  26.389  25.875  1.00  0.00     0.029 A 
ATOM     41  N   UNL A   1      48.031  28.389  26.459  1.00  0.00    -0.354 N 
ATOM     42  C   UNL A   1      45.179  31.502  26.971  1.00  0.00     0.074 A 
ATOM     43  C   UNL A   1      43.827  30.991  27.073  1.00  0.00     0.031 C 
ATOM     44  C   UNL A   1      48.669  26.357  25.777  1.00  0.00     0.029 A 
ATOM     45  C   UNL A   1      49.165  27.672  26.124  1.00  0.00     0.049 A 
ATOM     46  H   UNL A   1      48.046  29.346  26.689  1.00  0.00     0.167 HD
ATOM     47  C   UNL A   1      45.507  32.821  26.931  1.00  0.00     0.031 A 
ATOM     48  C   UNL A   1      50.465  28.010  26.032  1.00  0.00     0.031 A 
ATOM     49  C   UNL A   1      46.856  33.328  26.824  1.00  0.00     0.049 A 
ATOM     50  C   UNL A   1      50.825  29.447  26.185  1.00  0.00     0.074 A 
ATOM     51  C   UNL A   1      47.289  34.645  26.863  1.00  0.00     0.029 A 
ATOM     52  N   UNL A   1      47.991  32.547  26.657  1.00  0.00    -0.354 N 
ATOM     53  N   UNL A   1      50.021  30.467  26.350  1.00  0.00    -0.248 NA
ATOM     54  C   UNL A   1      52.247  29.793  26.092  1.00  0.00     0.031 C 
ATOM     55  C   UNL A   1      48.678  34.661  26.693  1.00  0.00     0.029 A 
ATOM     56  C   UNL A   1      49.119  33.353  26.598  1.00  0.00     0.049 A 
ATOM     57  H   UNL A   1      47.995  31.565  26.589  1.00  0.00     0.167 HD
ATOM     58  C   UNL A   1      50.838  31.581  26.372  1.00  0.00     0.074 A 
ATOM     59  C   UNL A   1      52.203  31.111  26.240  1.00  0.00     0.031 C 
ATOM     60  C   UNL A   1      50.474  32.880  26.472  1.00  0.00     0.031 A 
BRANCH  47  61
ATOM     61  C   UNL A   1      44.380  33.821  27.003  1.00  0.00    -0.014 A 
ATOM     62  C   UNL A   1      43.793  34.340  25.836  1.00  0.00     0.009 A 
ATOM     63  C   UNL A   1      43.866  34.220  28.248  1.00  0.00     0.009 A 
ATOM     64  C   UNL A   1      42.756  35.273  25.916  1.00  0.00     0.001 A 
ATOM     65  C   UNL A   1      42.808  35.130  28.325  1.00  0.00     0.001 A 
ATOM     66  C   UNL A   1      42.263  35.666  27.158  1.00  0.00     0.000 A 
ENDBRANCH  47  61
BRANCH  48  67
ATOM     67  C   UNL A   1      51.502  26.967  25.797  1.00  0.00    -0.014 A 
ATOM     68  C   UNL A   1      52.050  26.282  26.894  1.00  0.00     0.009 A 
ATOM     69  C   UNL A   1      51.908  26.600  24.504  1.00  0.00     0.009 A 
ATOM     70  C   UNL A   1      52.983  25.259  26.703  1.00  0.00     0.001 A 
ATOM     71  C   UNL A   1      52.812  25.549  24.314  1.00  0.00     0.001 A 
ATOM     72  C   UNL A   1      53.353  24.886  25.413  1.00  0.00     0.000 A 
ENDBRANCH  48  67
BRANCH  60  73
ATOM     73  C   UNL A   1      51.584  33.885  26.483  1.00  0.00    -0.014 A 
ATOM     74  C   UNL A   1      52.200  34.277  27.681  1.00  0.00     0.009 A 
ATOM     75  C   UNL A   1      52.031  34.429  25.270  1.00  0.00     0.009 A 
ATOM     76  C   UNL A   1      53.233  35.214  27.664  1.00  0.00     0.001 A 
ATOM     77  C   UNL A   1      53.077  35.349  25.255  1.00  0.00     0.001 A 
ATOM     78  C   UNL A   1      53.675  35.744  26.452  1.00  0.00     0.000 A 
ENDBRANCH  60  73
ENDBRANCH  34  35
ENDBRANCH  27  29
ENDBRANCH  26  27
ENDBRANCH  25  26
ENDBRANCH   1  25
TORSDOF 14
ENDMDL
MODEL 3
REMARK VINA RESULT:     -11.0      3.923      7.316
REMARK SMILES [NH3+]Cc1c(-c2ccccc2)c(C(=O)OCCOC(=O)c2ccc(-c3c4nc(c(-c5ccccc5)c5ccc([nH]5)c(-c5ccccc5)c5nc(c(-c6ccccc6)c6ccc3[nH]6)C=C5)C=C4)cc2)c2ccccn12
REMARK SMILES IDX 15 1 14 2 12 3 13 4 11 5 3 6 4 7 73 8 68 9 72 10 69 11 71 12
REMARK SMILES IDX 70 13 2 14 1 15 5 19 6 20 10 21 7 22 9 23 8 24 16 25 17 26
REMARK SMILES IDX 18 27 19 28 20 29 21 30 67 31 22 32 66 33 23 34 24 35 25 36
REMARK SMILES IDX 60 37 26 38 65 39 59 40 61 41 27 42 64 43 58 44 57 45 28 47
REMARK SMILES IDX 50 48 35 49 49 50 36 51 39 52 48 53 62 54 37 55 38 56 47 58
REMARK SMILES IDX 63 59 40 60 29 61 30 62 34 63 31 64 33 65 32 66 51 67 52 68
REMARK SMILES IDX 56 69 53 70 55 71 54 72 41 73 42 74 46 75 43 76 45 77 44 78
REMARK H PARENT 1 16 1 17 1 18 61 46 39 57
REMARK Flexibility Score: inf
ROOT
ATOM      1  C   UNL A   1      34.130  27.817  25.898  1.00  0.00     0.275 C 
ENDROOT
BRANCH   1   2
ATOM      2  O   UNL A   1      33.301  27.413  24.788  1.00  0.00    -0.458 OA
BRANCH   2   3
ATOM      3  C   UNL A   1      33.533  26.163  24.278  1.00  0.00     0.341 C 
ATOM      4  O   UNL A   1      33.719  25.943  23.088  1.00  0.00    -0.246 OA
BRANCH   3   5
ATOM      5  C   UNL A   1      33.373  25.100  25.268  1.00  0.00     0.093 A 
ATOM      6  C   UNL A   1      33.388  23.072  26.311  1.00  0.00     0.086 A 
ATOM      7  C   UNL A   1      34.241  23.999  25.694  1.00  0.00     0.024 A 
ATOM      8  N   UNL A   1      32.125  23.655  26.460  1.00  0.00    -0.314 N 
ATOM      9  C   UNL A   1      32.125  24.884  25.822  1.00  0.00     0.061 A 
ATOM     10  C   UNL A   1      30.945  23.122  27.009  1.00  0.00     0.092 A 
ATOM     11  C   UNL A   1      30.887  25.594  25.711  1.00  0.00     0.027 A 
ATOM     12  C   UNL A   1      29.779  23.783  26.885  1.00  0.00     0.018 A 
ATOM     13  C   UNL A   1      29.759  25.060  26.206  1.00  0.00     0.004 A 
BRANCH   6  14
ATOM     14  C   UNL A   1      33.642  21.652  26.700  1.00  0.00     0.315 C 
BRANCH  14  15
ATOM     15  N   UNL A   1      32.892  20.733  25.849  1.00  0.00    -0.353 N 
ATOM     16  H   UNL A   1      33.419  19.867  25.736  1.00  0.00     0.344 HD
ATOM     17  H   UNL A   1      32.741  21.160  24.936  1.00  0.00     0.344 HD
ATOM     18  H   UNL A   1      31.990  20.528  26.281  1.00  0.00     0.344 HD
ENDBRANCH  14  15
ENDBRANCH   6  14
BRANCH   7  19
ATOM     19  C   UNL A   1      35.595  23.642  25.141  1.00  0.00    -0.015 A 
ATOM     20  C   UNL A   1      35.905  22.084  24.260  1.00  0.00     0.009 A 
ATOM     21  C   UNL A   1      36.860  24.245  26.205  1.00  0.00     0.009 A 
ATOM     22  C   UNL A   1      37.613  21.073  24.696  1.00  0.00     0.001 A 
ATOM     23  C   UNL A   1      38.355  23.382  26.564  1.00  0.00     0.001 A 
ATOM     24  C   UNL A   1      38.750  21.819  25.890  1.00  0.00     0.000 A 
ENDBRANCH   7  19
ENDBRANCH   3   5
ENDBRANCH   2   3
ENDBRANCH   1   2
BRANCH   1  25
ATOM     25  C   UNL A   1      33.699  29.189  26.408  1.00  0.00     0.275 C 
BRANCH  25  26
ATOM     26  O   UNL A   1      33.847  29.213  27.836  1.00  0.00    -0.458 OA
BRANCH  26  27
ATOM     27  C   UNL A   1      34.703  30.167  28.239  1.00  0.00     0.338 C 
ATOM     28  O   UNL A   1      34.490  31.363  28.368  1.00  0.00    -0.246 OA
BRANCH  27  29
ATOM     29  C   UNL A   1      36.008  29.626  28.555  1.00  0.00     0.060 A 
ATOM     30  C   UNL A   1      36.570  29.247  30.229  1.00  0.00     0.016 A 
ATOM     31  C   UNL A   1      37.207  29.930  27.313  1.00  0.00     0.016 A 
ATOM     32  C   UNL A   1      38.574  29.228  30.560  1.00  0.00     0.010 A 
ATOM     33  C   UNL A   1      38.942  29.866  27.599  1.00  0.00     0.010 A 
ATOM     34  C   UNL A   1      39.683  29.513  29.152  1.00  0.00    -0.014 A 
BRANCH  34  35
ATOM     35  C   UNL A   1      41.133  29.054  29.076  1.00  0.00     0.031 A 
ATOM     36  C   UNL A   1      42.293  30.012  29.222  1.00  0.00     0.074 A 
ATOM     37  C   UNL A   1      41.439  27.840  28.559  1.00  0.00     0.049 A 
ATOM     38  N   UNL A   1      43.568  29.805  28.980  1.00  0.00    -0.248 NA
ATOM     39  C   UNL A   1      41.979  31.398  29.594  1.00  0.00     0.031 C 
ATOM     40  C   UNL A   1      40.468  26.926  28.002  1.00  0.00     0.029 A 
ATOM     41  N   UNL A   1      42.620  27.159  28.359  1.00  0.00    -0.354 N 
ATOM     42  C   UNL A   1      44.196  31.038  29.106  1.00  0.00     0.074 A 
ATOM     43  C   UNL A   1      43.157  31.993  29.437  1.00  0.00     0.031 C 
ATOM     44  C   UNL A   1      41.012  25.747  27.710  1.00  0.00     0.029 A 
ATOM     45  C   UNL A   1      42.441  25.866  27.901  1.00  0.00     0.049 A 
ATOM     46  H   UNL A   1      43.506  27.554  28.527  1.00  0.00     0.167 HD
ATOM     47  C   UNL A   1      45.509  31.348  28.941  1.00  0.00     0.031 A 
ATOM     48  C   UNL A   1      43.304  24.878  27.598  1.00  0.00     0.031 A 
ATOM     49  C   UNL A   1      46.541  30.395  28.605  1.00  0.00     0.049 A 
ATOM     50  C   UNL A   1      44.759  25.193  27.610  1.00  0.00     0.074 A 
ATOM     51  C   UNL A   1      47.909  30.604  28.502  1.00  0.00     0.029 A 
ATOM     52  N   UNL A   1      46.326  29.054  28.317  1.00  0.00    -0.354 N 
ATOM     53  N   UNL A   1      45.333  26.349  27.834  1.00  0.00    -0.248 NA
ATOM     54  C   UNL A   1      45.682  24.101  27.287  1.00  0.00     0.031 C 
ATOM     55  C   UNL A   1      48.514  29.399  28.127  1.00  0.00     0.029 A 
ATOM     56  C   UNL A   1      47.533  28.426  28.044  1.00  0.00     0.049 A 
ATOM     57  H   UNL A   1      45.446  28.614  28.306  1.00  0.00     0.167 HD
ATOM     58  C   UNL A   1      46.687  26.128  27.668  1.00  0.00     0.074 A 
ATOM     59  C   UNL A   1      46.853  24.720  27.363  1.00  0.00     0.031 C 
ATOM     60  C   UNL A   1      47.694  27.027  27.745  1.00  0.00     0.031 A 
BRANCH  47  61
ATOM     61  C   UNL A   1      45.911  32.791  29.120  1.00  0.00    -0.014 A 
ATOM     62  C   UNL A   1      45.917  33.685  28.036  1.00  0.00     0.009 A 
ATOM     63  C   UNL A   1      46.246  33.279  30.394  1.00  0.00     0.009 A 
ATOM     64  C   UNL A   1      46.301  35.016  28.214  1.00  0.00     0.001 A 
ATOM     65  C   UNL A   1      46.600  34.619  30.576  1.00  0.00     0.001 A 
ATOM     66  C   UNL A   1      46.640  35.484  29.482  1.00  0.00     0.000 A 
ENDBRANCH  47  61
BRANCH  48  67
ATOM     67  C   UNL A   1      42.805  23.513  27.272  1.00  0.00    -0.014 A 
ATOM     68  C   UNL A   1      42.746  23.105  25.929  1.00  0.00     0.009 A 
ATOM     69  C   UNL A   1      42.448  22.593  28.271  1.00  0.00     0.009 A 
ATOM     70  C   UNL A   1      42.337  21.811  25.594  1.00  0.00     0.001 A 
ATOM     71  C   UNL A   1      42.077  21.287  27.934  1.00  0.00     0.001 A 
ATOM     72  C   UNL A   1      42.015  20.900  26.597  1.00  0.00     0.000 A 
ENDBRANCH  48  67
BRANCH  60  73
ATOM     73  C   UNL A   1      49.078  26.498  27.533  1.00  0.00    -0.014 A 
ATOM     74  C   UNL A   1      49.868  26.069  28.610  1.00  0.00     0.009 A 
ATOM     75  C   UNL A   1      49.587  26.408  26.229  1.00  0.00     0.009 A 
ATOM     76  C   UNL A   1      51.154  25.578  28.385  1.00  0.00     0.001 A 
ATOM     77  C   UNL A   1      50.865  25.898  26.006  1.00  0.00     0.001 A 
ATOM     78  C   UNL A   1      51.649  25.488  27.084  1.00  0.00     0.000 A 
ENDBRANCH  60  73
ENDBRANCH  34  35
ENDBRANCH  27  29
ENDBRANCH  26  27
ENDBRANCH  25  26
ENDBRANCH   1  25
TORSDOF 14
ENDMDL
