MODEL 1
REMARK VINA RESULT:      -8.6      0.000      0.000
REMARK SMILES CC(C)C[C@@H](CNc1ccccc1C(N)=O)C(=O)OCCOC(=O)c1ccc(-c2c3nc(c(-c4ccccc4)c4ccc([nH]4)c(-c4ccccc4)c4nc(c(-c5ccccc5)c5ccc2[nH]5)C=C4)C=C3)cc1
REMARK SMILES IDX 20 1 19 2 17 3 18 4 5 5 4 6 2 7 1 8 3 9 6 10 7 11 8 13 9 14
REMARK SMILES IDX 13 15 10 16 12 17 11 18 14 19 15 20 16 21 21 24 22 25 23 26
REMARK SMILES IDX 24 27 25 28 26 29 72 30 27 31 71 32 28 33 29 34 30 35 65 36
REMARK SMILES IDX 31 37 70 38 64 39 66 40 32 41 69 42 63 43 62 44 33 46 55 47
REMARK SMILES IDX 40 48 54 49 41 50 44 51 53 52 67 53 42 54 43 55 52 57 68 58
REMARK SMILES IDX 45 59 34 60 35 61 39 62 36 63 38 64 37 65 56 66 57 67 61 68
REMARK SMILES IDX 58 69 60 70 59 71 46 72 47 73 51 74 48 75 50 76 49 77
REMARK H PARENT 7 12 15 22 15 23 66 45 44 56
REMARK Flexibility Score: inf
ROOT
ATOM      1  C   UNL A   1      34.306  33.323  29.170  1.00  0.00     0.274 C 
ENDROOT
BRANCH   1   2
ATOM      2  O   UNL A   1      34.349  32.502  30.354  1.00  0.00    -0.462 OA
BRANCH   2   3
ATOM      3  C   UNL A   1      34.778  33.112  31.491  1.00  0.00     0.310 C 
ATOM      4  O   UNL A   1      34.045  33.667  32.303  1.00  0.00    -0.252 OA
BRANCH   3   5
ATOM      5  C   UNL A   1      36.286  33.050  31.674  1.00  0.00     0.118 C 
BRANCH   5   6
ATOM      6  C   UNL A   1      37.018  34.374  31.383  1.00  0.00     0.020 C 
BRANCH   6   7
ATOM      7  C   UNL A   1      38.011  34.323  30.201  1.00  0.00    -0.017 C 
ATOM      8  C   UNL A   1      39.470  34.434  30.653  1.00  0.00     0.007 C 
ATOM      9  C   UNL A   1      37.822  33.021  29.418  1.00  0.00     0.007 C 
ENDBRANCH   6   7
ENDBRANCH   5   6
BRANCH   5  10
ATOM     10  C   UNL A   1      36.591  32.414  33.032  1.00  0.00     0.128 C 
BRANCH  10  11
ATOM     11  N   UNL A   1      38.009  32.465  33.345  1.00  0.00    -0.384 N 
ATOM     12  H   UNL A   1      38.654  32.147  32.672  1.00  0.00     0.160 HD
BRANCH  11  13
ATOM     13  C   UNL A   1      38.487  32.942  34.556  1.00  0.00     0.047 A 
ATOM     14  C   UNL A   1      38.772  34.321  34.610  1.00  0.00     0.026 A 
ATOM     15  C   UNL A   1      38.601  32.207  35.755  1.00  0.00     0.062 A 
ATOM     16  C   UNL A   1      39.141  34.953  35.799  1.00  0.00     0.002 A 
ATOM     17  C   UNL A   1      38.989  32.847  36.949  1.00  0.00     0.016 A 
ATOM     18  C   UNL A   1      39.248  34.216  36.971  1.00  0.00     0.001 A 
BRANCH  15  19
ATOM     19  C   UNL A   1      38.429  30.725  35.805  1.00  0.00     0.250 C 
ATOM     20  N   UNL A   1      37.910  30.210  36.963  1.00  0.00    -0.366 N 
ATOM     21  O   UNL A   1      38.722  29.980  34.878  1.00  0.00    -0.269 OA
ATOM     22  H   UNL A   1      37.675  30.811  37.707  1.00  0.00     0.159 HD
ATOM     23  H   UNL A   1      37.773  29.239  37.053  1.00  0.00     0.159 HD
ENDBRANCH  15  19
ENDBRANCH  11  13
ENDBRANCH  10  11
ENDBRANCH   5  10
ENDBRANCH   3   5
ENDBRANCH   2   3
ENDBRANCH   1   2
BRANCH   1  24
ATOM     24  C   UNL A   1      34.193  32.486  27.892  1.00  0.00     0.275 C 
BRANCH  24  25
ATOM     25  O   UNL A   1      33.797  31.132  28.176  1.00  0.00    -0.458 OA
BRANCH  25  26
ATOM     26  C   UNL A   1      34.494  30.189  27.502  1.00  0.00     0.338 C 
ATOM     27  O   UNL A   1      34.172  29.622  26.472  1.00  0.00    -0.246 OA
BRANCH  26  28
ATOM     28  C   UNL A   1      35.816  30.003  28.118  1.00  0.00     0.060 A 
ATOM     29  C   UNL A   1      36.935  30.113  27.291  1.00  0.00     0.016 A 
ATOM     30  C   UNL A   1      35.948  29.589  29.445  1.00  0.00     0.016 A 
ATOM     31  C   UNL A   1      38.196  29.786  27.773  1.00  0.00     0.010 A 
ATOM     32  C   UNL A   1      37.216  29.251  29.929  1.00  0.00     0.010 A 
ATOM     33  C   UNL A   1      38.340  29.319  29.085  1.00  0.00    -0.014 A 
BRANCH  33  34
ATOM     34  C   UNL A   1      39.650  28.776  29.512  1.00  0.00     0.031 A 
ATOM     35  C   UNL A   1      40.443  29.509  30.556  1.00  0.00     0.074 A 
ATOM     36  C   UNL A   1      40.094  27.604  29.025  1.00  0.00     0.049 A 
ATOM     37  N   UNL A   1      41.615  29.219  31.062  1.00  0.00    -0.248 NA
ATOM     38  C   UNL A   1      39.833  30.730  31.107  1.00  0.00     0.031 C 
ATOM     39  C   UNL A   1      39.384  26.763  28.061  1.00  0.00     0.029 A 
ATOM     40  N   UNL A   1      41.246  26.911  29.294  1.00  0.00    -0.354 N 
ATOM     41  C   UNL A   1      41.895  30.233  31.968  1.00  0.00     0.074 A 
ATOM     42  C   UNL A   1      40.776  31.150  31.940  1.00  0.00     0.031 C 
ATOM     43  C   UNL A   1      40.112  25.657  27.831  1.00  0.00     0.029 A 
ATOM     44  C   UNL A   1      41.350  25.731  28.602  1.00  0.00     0.049 A 
ATOM     45  H   UNL A   1      41.932  27.231  29.922  1.00  0.00     0.167 HD
ATOM     46  C   UNL A   1      42.986  30.391  32.752  1.00  0.00     0.031 A 
ATOM     47  C   UNL A   1      42.339  24.818  28.586  1.00  0.00     0.031 A 
ATOM     48  C   UNL A   1      44.095  29.477  32.794  1.00  0.00     0.049 A 
ATOM     49  C   UNL A   1      43.561  25.037  29.432  1.00  0.00     0.074 A 
ATOM     50  C   UNL A   1      45.250  29.551  33.553  1.00  0.00     0.029 A 
ATOM     51  N   UNL A   1      44.182  28.315  32.044  1.00  0.00    -0.354 N 
ATOM     52  N   UNL A   1      43.824  26.013  30.267  1.00  0.00    -0.248 NA
ATOM     53  C   UNL A   1      44.621  24.024  29.333  1.00  0.00     0.031 C 
ATOM     54  C   UNL A   1      46.051  28.447  33.239  1.00  0.00     0.029 A 
ATOM     55  C   UNL A   1      45.376  27.667  32.314  1.00  0.00     0.049 A 
ATOM     56  H   UNL A   1      43.496  27.996  31.414  1.00  0.00     0.167 HD
ATOM     57  C   UNL A   1      45.069  25.722  30.808  1.00  0.00     0.074 A 
ATOM     58  C   UNL A   1      45.503  24.473  30.216  1.00  0.00     0.031 C 
ATOM     59  C   UNL A   1      45.787  26.424  31.718  1.00  0.00     0.031 A 
BRANCH  46  60
ATOM     60  C   UNL A   1      43.046  31.631  33.597  1.00  0.00    -0.014 A 
ATOM     61  C   UNL A   1      43.722  32.781  33.160  1.00  0.00     0.009 A 
ATOM     62  C   UNL A   1      42.413  31.644  34.848  1.00  0.00     0.009 A 
ATOM     63  C   UNL A   1      43.790  33.910  33.978  1.00  0.00     0.001 A 
ATOM     64  C   UNL A   1      42.465  32.783  35.655  1.00  0.00     0.001 A 
ATOM     65  C   UNL A   1      43.160  33.910  35.223  1.00  0.00     0.000 A 
ENDBRANCH  46  60
BRANCH  47  66
ATOM     66  C   UNL A   1      42.219  23.612  27.729  1.00  0.00    -0.014 A 
ATOM     67  C   UNL A   1      42.732  23.611  26.424  1.00  0.00     0.009 A 
ATOM     68  C   UNL A   1      41.586  22.457  28.214  1.00  0.00     0.009 A 
ATOM     69  C   UNL A   1      42.598  22.482  25.614  1.00  0.00     0.001 A 
ATOM     70  C   UNL A   1      41.474  21.321  27.409  1.00  0.00     0.001 A 
ATOM     71  C   UNL A   1      41.974  21.338  26.107  1.00  0.00     0.000 A 
ENDBRANCH  47  66
BRANCH  59  72
ATOM     72  C   UNL A   1      47.097  25.837  32.153  1.00  0.00    -0.014 A 
ATOM     73  C   UNL A   1      48.265  26.026  31.398  1.00  0.00     0.009 A 
ATOM     74  C   UNL A   1      47.167  25.109  33.351  1.00  0.00     0.009 A 
ATOM     75  C   UNL A   1      49.474  25.470  31.821  1.00  0.00     0.001 A 
ATOM     76  C   UNL A   1      48.381  24.572  33.781  1.00  0.00     0.001 A 
ATOM     77  C   UNL A   1      49.531  24.746  33.012  1.00  0.00     0.000 A 
ENDBRANCH  59  72
ENDBRANCH  33  34
ENDBRANCH  26  28
ENDBRANCH  25  26
ENDBRANCH  24  25
ENDBRANCH   1  24
TORSDOF 17
ENDMDL
MODEL 2
REMARK VINA RESULT:      -8.5      5.462     10.553
REMARK SMILES CC(C)C[C@@H](CNc1ccccc1C(N)=O)C(=O)OCCOC(=O)c1ccc(-c2c3nc(c(-c4ccccc4)c4ccc([nH]4)c(-c4ccccc4)c4nc(c(-c5ccccc5)c5ccc2[nH]5)C=C4)C=C3)cc1
REMARK SMILES IDX 20 1 19 2 17 3 18 4 5 5 4 6 2 7 1 8 3 9 6 10 7 11 8 13 9 14
REMARK SMILES IDX 13 15 10 16 12 17 11 18 14 19 15 20 16 21 21 24 22 25 23 26
REMARK SMILES IDX 24 27 25 28 26 29 72 30 27 31 71 32 28 33 29 34 30 35 65 36
REMARK SMILES IDX 31 37 70 38 64 39 66 40 32 41 69 42 63 43 62 44 33 46 55 47
REMARK SMILES IDX 40 48 54 49 41 50 44 51 53 52 67 53 42 54 43 55 52 57 68 58
REMARK SMILES IDX 45 59 34 60 35 61 39 62 36 63 38 64 37 65 56 66 57 67 61 68
REMARK SMILES IDX 58 69 60 70 59 71 46 72 47 73 51 74 48 75 50 76 49 77
REMARK H PARENT 7 12 15 22 15 23 66 45 44 56
REMARK Flexibility Score: inf
ROOT
ATOM      1  C   UNL A   1      36.084  20.230  24.988  1.00  0.00     0.274 C 
ENDROOT
BRANCH   1   2
ATOM      2  O   UNL A   1      35.310  21.285  24.384  1.00  0.00    -0.462 OA
BRANCH   2   3
ATOM      3  C   UNL A   1      34.547  22.026  25.230  1.00  0.00     0.310 C 
ATOM      4  O   UNL A   1      34.508  21.875  26.447  1.00  0.00    -0.252 OA
BRANCH   3   5
ATOM      5  C   UNL A   1      33.719  23.086  24.522  1.00  0.00     0.118 C 
BRANCH   5   6
ATOM      6  C   UNL A   1      34.543  24.238  23.915  1.00  0.00     0.020 C 
BRANCH   6   7
ATOM      7  C   UNL A   1      34.460  25.575  24.684  1.00  0.00    -0.017 C 
ATOM      8  C   UNL A   1      33.809  26.689  23.860  1.00  0.00     0.007 C 
ATOM      9  C   UNL A   1      33.672  25.380  25.982  1.00  0.00     0.007 C 
ENDBRANCH   6   7
ENDBRANCH   5   6
BRANCH   5  10
ATOM     10  C   UNL A   1      32.748  22.394  23.563  1.00  0.00     0.128 C 
BRANCH  10  11
ATOM     11  N   UNL A   1      31.363  22.625  23.937  1.00  0.00    -0.384 N 
ATOM     12  H   UNL A   1      30.736  21.866  23.922  1.00  0.00     0.160 HD
BRANCH  11  13
ATOM     13  C   UNL A   1      30.893  23.873  24.315  1.00  0.00     0.047 A 
ATOM     14  C   UNL A   1      30.811  24.840  23.294  1.00  0.00     0.026 A 
ATOM     15  C   UNL A   1      30.386  24.223  25.585  1.00  0.00     0.062 A 
ATOM     16  C   UNL A   1      30.240  26.097  23.510  1.00  0.00     0.002 A 
ATOM     17  C   UNL A   1      29.826  25.498  25.802  1.00  0.00     0.016 A 
ATOM     18  C   UNL A   1      29.745  26.425  24.765  1.00  0.00     0.001 A 
BRANCH  15  19
ATOM     19  C   UNL A   1      30.511  23.326  26.772  1.00  0.00     0.250 C 
ATOM     20  N   UNL A   1      29.518  22.398  26.941  1.00  0.00    -0.366 N 
ATOM     21  O   UNL A   1      31.439  23.387  27.569  1.00  0.00    -0.269 OA
ATOM     22  H   UNL A   1      28.773  22.351  26.299  1.00  0.00     0.159 HD
ATOM     23  H   UNL A   1      29.548  21.778  27.706  1.00  0.00     0.159 HD
ENDBRANCH  15  19
ENDBRANCH  11  13
ENDBRANCH  10  11
ENDBRANCH   5  10
ENDBRANCH   3   5
ENDBRANCH   2   3
ENDBRANCH   1   2
BRANCH   1  24
ATOM     24  C   UNL A   1      37.590  20.506  24.913  1.00  0.00     0.275 C 
BRANCH  24  25
ATOM     25  O   UNL A   1      38.002  21.475  25.894  1.00  0.00    -0.458 OA
BRANCH  25  26
ATOM     26  C   UNL A   1      39.306  21.399  26.245  1.00  0.00     0.338 C 
ATOM     27  O   UNL A   1      40.088  20.495  26.009  1.00  0.00    -0.246 OA
BRANCH  26  28
ATOM     28  C   UNL A   1      39.732  22.658  26.874  1.00  0.00     0.060 A 
ATOM     29  C   UNL A   1      39.101  23.832  26.459  1.00  0.00     0.016 A 
ATOM     30  C   UNL A   1      40.822  22.704  27.745  1.00  0.00     0.016 A 
ATOM     31  C   UNL A   1      39.569  25.068  26.888  1.00  0.00     0.010 A 
ATOM     32  C   UNL A   1      41.299  23.949  28.172  1.00  0.00     0.010 A 
ATOM     33  C   UNL A   1      40.692  25.135  27.720  1.00  0.00    -0.014 A 
BRANCH  33  34
ATOM     34  C   UNL A   1      41.302  26.457  27.994  1.00  0.00     0.031 A 
ATOM     35  C   UNL A   1      42.617  26.804  27.356  1.00  0.00     0.074 A 
ATOM     36  C   UNL A   1      40.655  27.364  28.747  1.00  0.00     0.049 A 
ATOM     37  N   UNL A   1      43.331  27.895  27.472  1.00  0.00    -0.248 NA
ATOM     38  C   UNL A   1      43.204  25.789  26.466  1.00  0.00     0.031 C 
ATOM     39  C   UNL A   1      39.342  27.172  29.362  1.00  0.00     0.029 A 
ATOM     40  N   UNL A   1      41.014  28.638  29.105  1.00  0.00    -0.354 N 
ATOM     41  C   UNL A   1      44.462  27.687  26.693  1.00  0.00     0.074 A 
ATOM     42  C   UNL A   1      44.345  26.366  26.116  1.00  0.00     0.031 C 
ATOM     43  C   UNL A   1      38.998  28.298  30.011  1.00  0.00     0.029 A 
ATOM     44  C   UNL A   1      40.080  29.271  29.885  1.00  0.00     0.049 A 
ATOM     45  H   UNL A   1      41.860  29.057  28.828  1.00  0.00     0.167 HD
ATOM     46  C   UNL A   1      45.508  28.520  26.480  1.00  0.00     0.031 A 
ATOM     47  C   UNL A   1      40.101  30.496  30.442  1.00  0.00     0.031 A 
ATOM     48  C   UNL A   1      45.624  29.838  27.041  1.00  0.00     0.049 A 
ATOM     49  C   UNL A   1      41.293  31.386  30.227  1.00  0.00     0.074 A 
ATOM     50  C   UNL A   1      46.647  30.757  26.888  1.00  0.00     0.029 A 
ATOM     51  N   UNL A   1      44.676  30.427  27.863  1.00  0.00    -0.354 N 
ATOM     52  N   UNL A   1      42.367  31.168  29.508  1.00  0.00    -0.248 NA
ATOM     53  C   UNL A   1      41.271  32.692  30.900  1.00  0.00     0.031 C 
ATOM     54  C   UNL A   1      46.332  31.893  27.643  1.00  0.00     0.029 A 
ATOM     55  C   UNL A   1      45.094  31.694  28.234  1.00  0.00     0.049 A 
ATOM     56  H   UNL A   1      43.830  30.008  28.141  1.00  0.00     0.167 HD
ATOM     57  C   UNL A   1      43.139  32.316  29.626  1.00  0.00     0.074 A 
ATOM     58  C   UNL A   1      42.405  33.232  30.475  1.00  0.00     0.031 C 
ATOM     59  C   UNL A   1      44.347  32.590  29.076  1.00  0.00     0.031 A 
BRANCH  46  60
ATOM     60  C   UNL A   1      46.633  27.999  25.634  1.00  0.00    -0.014 A 
ATOM     61  C   UNL A   1      46.608  28.111  24.235  1.00  0.00     0.009 A 
ATOM     62  C   UNL A   1      47.734  27.388  26.251  1.00  0.00     0.009 A 
ATOM     63  C   UNL A   1      47.652  27.589  23.469  1.00  0.00     0.001 A 
ATOM     64  C   UNL A   1      48.787  26.886  25.483  1.00  0.00     0.001 A 
ATOM     65  C   UNL A   1      48.741  26.979  24.093  1.00  0.00     0.000 A 
ENDBRANCH  46  60
BRANCH  47  66
ATOM     66  C   UNL A   1      38.956  30.954  31.269  1.00  0.00    -0.014 A 
ATOM     67  C   UNL A   1      37.878  31.630  30.680  1.00  0.00     0.009 A 
ATOM     68  C   UNL A   1      38.940  30.719  32.652  1.00  0.00     0.009 A 
ATOM     69  C   UNL A   1      36.813  32.078  31.464  1.00  0.00     0.001 A 
ATOM     70  C   UNL A   1      37.863  31.148  33.430  1.00  0.00     0.001 A 
ATOM     71  C   UNL A   1      36.804  31.834  32.836  1.00  0.00     0.000 A 
ENDBRANCH  47  66
BRANCH  59  72
ATOM     72  C   UNL A   1      44.928  33.946  29.347  1.00  0.00    -0.014 A 
ATOM     73  C   UNL A   1      45.777  34.167  30.442  1.00  0.00     0.009 A 
ATOM     74  C   UNL A   1      44.644  35.010  28.476  1.00  0.00     0.009 A 
ATOM     75  C   UNL A   1      46.307  35.437  30.677  1.00  0.00     0.001 A 
ATOM     76  C   UNL A   1      45.191  36.273  28.702  1.00  0.00     0.001 A 
ATOM     77  C   UNL A   1      46.016  36.488  29.806  1.00  0.00     0.000 A 
ENDBRANCH  59  72
ENDBRANCH  33  34
ENDBRANCH  26  28
ENDBRANCH  25  26
ENDBRANCH  24  25
ENDBRANCH   1  24
TORSDOF 17
ENDMDL
MODEL 3
REMARK VINA RESULT:      -8.4      3.708      7.387
REMARK SMILES CC(C)C[C@@H](CNc1ccccc1C(N)=O)C(=O)OCCOC(=O)c1ccc(-c2c3nc(c(-c4ccccc4)c4ccc([nH]4)c(-c4ccccc4)c4nc(c(-c5ccccc5)c5ccc2[nH]5)C=C4)C=C3)cc1
REMARK SMILES IDX 20 1 19 2 17 3 18 4 5 5 4 6 2 7 1 8 3 9 6 10 7 11 8 13 9 14
REMARK SMILES IDX 13 15 10 16 12 17 11 18 14 19 15 20 16 21 21 24 22 25 23 26
REMARK SMILES IDX 24 27 25 28 26 29 72 30 27 31 71 32 28 33 29 34 30 35 65 36
REMARK SMILES IDX 31 37 70 38 64 39 66 40 32 41 69 42 63 43 62 44 33 46 55 47
REMARK SMILES IDX 40 48 54 49 41 50 44 51 53 52 67 53 42 54 43 55 52 57 68 58
REMARK SMILES IDX 45 59 34 60 35 61 39 62 36 63 38 64 37 65 56 66 57 67 61 68
REMARK SMILES IDX 58 69 60 70 59 71 46 72 47 73 51 74 48 75 50 76 49 77
REMARK H PARENT 7 12 15 22 15 23 66 45 44 56
REMARK Flexibility Score: inf
ROOT
ATOM      1  C   UNL A   1      33.657  31.518  27.529  1.00  0.00     0.274 C 
ENDROOT
BRANCH   1   2
ATOM      2  O   UNL A   1      32.997  30.254  27.323  1.00  0.00    -0.462 OA
BRANCH   2   3
ATOM      3  C   UNL A   1      33.740  29.280  26.733  1.00  0.00     0.310 C 
ATOM      4  O   UNL A   1      34.931  29.082  26.952  1.00  0.00    -0.252 OA
BRANCH   3   5
ATOM      5  C   UNL A   1      32.950  28.434  25.747  1.00  0.00     0.118 C 
BRANCH   5   6
ATOM      6  C   UNL A   1      33.067  26.914  25.974  1.00  0.00     0.020 C 
BRANCH   6   7
ATOM      7  C   UNL A   1      34.090  26.197  25.066  1.00  0.00    -0.017 C 
ATOM      8  C   UNL A   1      34.468  24.808  25.588  1.00  0.00     0.007 C 
ATOM      9  C   UNL A   1      33.527  26.068  23.648  1.00  0.00     0.007 C 
ENDBRANCH   6   7
ENDBRANCH   5   6
BRANCH   5  10
ATOM     10  C   UNL A   1      31.523  28.980  25.663  1.00  0.00     0.128 C 
BRANCH  10  11
ATOM     11  N   UNL A   1      31.326  29.794  24.475  1.00  0.00    -0.384 N 
ATOM     12  H   UNL A   1      32.110  30.219  24.058  1.00  0.00     0.160 HD
BRANCH  11  13
ATOM     13  C   UNL A   1      30.076  29.994  23.909  1.00  0.00     0.047 A 
ATOM     14  C   UNL A   1      29.496  31.260  24.120  1.00  0.00     0.026 A 
ATOM     15  C   UNL A   1      29.395  29.100  23.056  1.00  0.00     0.062 A 
ATOM     16  C   UNL A   1      28.300  31.637  23.504  1.00  0.00     0.002 A 
ATOM     17  C   UNL A   1      28.181  29.480  22.450  1.00  0.00     0.016 A 
ATOM     18  C   UNL A   1      27.643  30.746  22.667  1.00  0.00     0.001 A 
BRANCH  15  19
ATOM     19  C   UNL A   1      29.852  27.695  22.839  1.00  0.00     0.250 C 
ATOM     20  N   UNL A   1      29.226  26.729  23.581  1.00  0.00    -0.366 N 
ATOM     21  O   UNL A   1      30.733  27.388  22.046  1.00  0.00    -0.269 OA
ATOM     22  H   UNL A   1      28.517  26.980  24.217  1.00  0.00     0.159 HD
ATOM     23  H   UNL A   1      29.484  25.785  23.479  1.00  0.00     0.159 HD
ENDBRANCH  15  19
ENDBRANCH  11  13
ENDBRANCH  10  11
ENDBRANCH   5  10
ENDBRANCH   3   5
ENDBRANCH   2   3
ENDBRANCH   1   2
BRANCH   1  24
ATOM     24  C   UNL A   1      32.663  32.681  27.601  1.00  0.00     0.275 C 
BRANCH  24  25
ATOM     25  O   UNL A   1      33.334  33.948  27.719  1.00  0.00    -0.458 OA
BRANCH  25  26
ATOM     26  C   UNL A   1      33.427  34.420  28.984  1.00  0.00     0.338 C 
ATOM     27  O   UNL A   1      32.578  35.024  29.616  1.00  0.00    -0.246 OA
BRANCH  26  28
ATOM     28  C   UNL A   1      34.695  33.989  29.590  1.00  0.00     0.060 A 
ATOM     29  C   UNL A   1      35.873  34.286  28.901  1.00  0.00     0.016 A 
ATOM     30  C   UNL A   1      34.721  33.189  30.733  1.00  0.00     0.016 A 
ATOM     31  C   UNL A   1      37.086  33.764  29.332  1.00  0.00     0.010 A 
ATOM     32  C   UNL A   1      35.941  32.656  31.163  1.00  0.00     0.010 A 
ATOM     33  C   UNL A   1      37.123  32.918  30.446  1.00  0.00    -0.014 A 
BRANCH  33  34
ATOM     34  C   UNL A   1      38.382  32.205  30.762  1.00  0.00     0.031 A 
ATOM     35  C   UNL A   1      39.279  32.743  31.840  1.00  0.00     0.074 A 
ATOM     36  C   UNL A   1      38.686  31.051  30.142  1.00  0.00     0.049 A 
ATOM     37  N   UNL A   1      40.429  32.286  32.265  1.00  0.00    -0.248 NA
ATOM     38  C   UNL A   1      38.817  33.955  32.535  1.00  0.00     0.031 C 
ATOM     39  C   UNL A   1      37.863  30.390  29.130  1.00  0.00     0.029 A 
ATOM     40  N   UNL A   1      39.768  30.222  30.292  1.00  0.00    -0.354 N 
ATOM     41  C   UNL A   1      40.841  33.168  33.256  1.00  0.00     0.074 A 
ATOM     42  C   UNL A   1      39.823  34.190  33.365  1.00  0.00     0.031 C 
ATOM     43  C   UNL A   1      38.465  29.246  28.760  1.00  0.00     0.029 A 
ATOM     44  C   UNL A   1      39.728  29.116  29.483  1.00  0.00     0.049 A 
ATOM     45  H   UNL A   1      40.503  30.405  30.921  1.00  0.00     0.167 HD
ATOM     46  C   UNL A   1      41.967  33.134  34.006  1.00  0.00     0.031 A 
ATOM     47  C   UNL A   1      40.615  28.115  29.335  1.00  0.00     0.031 A 
ATOM     48  C   UNL A   1      42.976  32.114  33.910  1.00  0.00     0.049 A 
ATOM     49  C   UNL A   1      41.879  28.122  30.148  1.00  0.00     0.074 A 
ATOM     50  C   UNL A   1      44.155  31.994  34.624  1.00  0.00     0.029 A 
ATOM     51  N   UNL A   1      42.918  31.033  33.045  1.00  0.00    -0.354 N 
ATOM     52  N   UNL A   1      42.268  28.975  31.064  1.00  0.00    -0.248 NA
ATOM     53  C   UNL A   1      42.825  27.023  29.904  1.00  0.00     0.031 C 
ATOM     54  C   UNL A   1      44.827  30.853  34.169  1.00  0.00     0.029 A 
ATOM     55  C   UNL A   1      44.046  30.245  33.199  1.00  0.00     0.049 A 
ATOM     56  H   UNL A   1      42.184  30.851  32.415  1.00  0.00     0.167 HD
ATOM     57  C   UNL A   1      43.493  28.506  31.521  1.00  0.00     0.074 A 
ATOM     58  C   UNL A   1      43.776  27.288  30.790  1.00  0.00     0.031 C 
ATOM     59  C   UNL A   1      44.308  29.035  32.466  1.00  0.00     0.031 A 
BRANCH  46  60
ATOM     60  C   UNL A   1      42.182  34.267  34.966  1.00  0.00    -0.014 A 
ATOM     61  C   UNL A   1      42.842  35.442  34.574  1.00  0.00     0.009 A 
ATOM     62  C   UNL A   1      41.712  34.154  36.283  1.00  0.00     0.009 A 
ATOM     63  C   UNL A   1      43.057  36.469  35.496  1.00  0.00     0.001 A 
ATOM     64  C   UNL A   1      41.910  35.192  37.196  1.00  0.00     0.001 A 
ATOM     65  C   UNL A   1      42.590  36.343  36.805  1.00  0.00     0.000 A 
ENDBRANCH  46  60
BRANCH  47  66
ATOM     66  C   UNL A   1      40.344  27.021  28.368  1.00  0.00    -0.014 A 
ATOM     67  C   UNL A   1      40.835  27.092  27.057  1.00  0.00     0.009 A 
ATOM     68  C   UNL A   1      39.588  25.904  28.753  1.00  0.00     0.009 A 
ATOM     69  C   UNL A   1      40.560  26.073  26.144  1.00  0.00     0.001 A 
ATOM     70  C   UNL A   1      39.334  24.874  27.845  1.00  0.00     0.001 A 
ATOM     71  C   UNL A   1      39.814  24.963  26.539  1.00  0.00     0.000 A 
ENDBRANCH  47  66
BRANCH  59  72
ATOM     72  C   UNL A   1      45.562  28.278  32.785  1.00  0.00    -0.014 A 
ATOM     73  C   UNL A   1      45.576  27.274  33.765  1.00  0.00     0.009 A 
ATOM     74  C   UNL A   1      46.740  28.554  32.072  1.00  0.00     0.009 A 
ATOM     75  C   UNL A   1      46.756  26.581  34.047  1.00  0.00     0.001 A 
ATOM     76  C   UNL A   1      47.911  27.846  32.342  1.00  0.00     0.001 A 
ATOM     77  C   UNL A   1      47.921  26.866  33.334  1.00  0.00     0.000 A 
ENDBRANCH  59  72
ENDBRANCH  33  34
ENDBRANCH  26  28
ENDBRANCH  25  26
ENDBRANCH  24  25
ENDBRANCH   1  24
TORSDOF 17
ENDMDL
