MODEL 1
REMARK VINA RESULT:     -11.4      0.000      0.000
REMARK SMILES Cc1ccc(F)c(-c2ncccc2C(=O)OCCOC(=O)c2ccc(-c3c4nc(c(-c5ccccc5)c5ccc([nH]5)c(-c5ccccc5)c5nc(c(-c6ccccc6)c6ccc3[nH]6)C=C5)C=C4)cc2)c1
REMARK SMILES IDX 18 1 17 2 16 3 14 4 15 5 13 6 8 7 9 8 10 9 12 10 11 11 7 12
REMARK SMILES IDX 1 13 2 14 3 15 70 16 4 17 5 18 6 19 19 20 20 21 21 22 22 23
REMARK SMILES IDX 23 24 69 25 24 26 68 27 25 28 26 29 27 30 62 31 28 32 67 33
REMARK SMILES IDX 61 34 63 35 29 36 66 37 60 38 59 39 30 41 52 42 37 43 51 44
REMARK SMILES IDX 38 45 41 46 50 47 64 48 39 49 40 50 49 52 65 53 42 54 31 55
REMARK SMILES IDX 32 56 36 57 33 58 35 59 34 60 53 61 54 62 58 63 55 64 57 65
REMARK SMILES IDX 56 66 43 67 44 68 48 69 45 70 47 71 46 72
REMARK H PARENT 63 40 41 51
REMARK Flexibility Score: inf
ROOT
ATOM      1  C   UNL A   1      35.155  20.933  24.776  1.00  0.00     0.275 C 
ENDROOT
BRANCH   1   2
ATOM      2  C   UNL A   1      35.033  22.192  23.924  1.00  0.00     0.275 C 
BRANCH   2   3
ATOM      3  O   UNL A   1      34.285  23.204  24.642  1.00  0.00    -0.458 OA
BRANCH   3   4
ATOM      4  C   UNL A   1      33.197  23.699  23.999  1.00  0.00     0.340 C 
ATOM      5  O   UNL A   1      33.175  24.125  22.857  1.00  0.00    -0.246 OA
BRANCH   4   6
ATOM      6  C   UNL A   1      32.034  23.739  24.909  1.00  0.00     0.086 A 
ATOM      7  C   UNL A   1      31.549  24.907  25.537  1.00  0.00     0.088 A 
ATOM      8  N   UNL A   1      30.561  24.855  26.468  1.00  0.00    -0.255 NA
ATOM      9  C   UNL A   1      30.093  23.627  26.809  1.00  0.00     0.112 A 
ATOM     10  C   UNL A   1      31.496  22.496  25.258  1.00  0.00     0.019 A 
ATOM     11  C   UNL A   1      30.518  22.437  26.237  1.00  0.00     0.021 A 
BRANCH   7  12
ATOM     12  C   UNL A   1      32.138  26.241  25.321  1.00  0.00     0.037 A 
ATOM     13  C   UNL A   1      34.524  30.000  27.266  1.00  0.00     0.044 C 
ATOM     14  C   UNL A   1      33.634  28.922  26.550  1.00  0.00    -0.050 A 
ATOM     15  C   UNL A   1      32.450  29.930  25.618  1.00  0.00     0.006 A 
ATOM     16  C   UNL A   1      33.481  26.907  26.351  1.00  0.00     0.016 A 
ATOM     17  C   UNL A   1      31.263  29.142  24.604  1.00  0.00     0.040 A 
ATOM     18  C   UNL A   1      31.123  27.395  24.464  1.00  0.00     0.132 A 
ATOM     19  F   UNL A   1      30.144  26.917  23.677  1.00  0.00    -0.206 F 
ENDBRANCH   7  12
ENDBRANCH   4   6
ENDBRANCH   3   4
ENDBRANCH   2   3
ENDBRANCH   1   2
BRANCH   1  20
ATOM     20  O   UNL A   1      36.180  21.162  25.754  1.00  0.00    -0.458 OA
BRANCH  20  21
ATOM     21  C   UNL A   1      37.424  20.851  25.340  1.00  0.00     0.338 C 
ATOM     22  O   UNL A   1      37.778  19.920  24.639  1.00  0.00    -0.246 OA
BRANCH  21  23
ATOM     23  C   UNL A   1      38.342  21.900  25.764  1.00  0.00     0.060 A 
ATOM     24  C   UNL A   1      39.854  21.516  26.650  1.00  0.00     0.016 A 
ATOM     25  C   UNL A   1      37.759  23.551  25.791  1.00  0.00     0.016 A 
ATOM     26  C   UNL A   1      40.786  23.015  27.640  1.00  0.00     0.010 A 
ATOM     27  C   UNL A   1      38.625  24.880  26.605  1.00  0.00     0.010 A 
ATOM     28  C   UNL A   1      40.133  24.697  27.519  1.00  0.00    -0.014 A 
BRANCH  28  29
ATOM     29  C   UNL A   1      40.959  25.931  27.912  1.00  0.00     0.031 A 
ATOM     30  C   UNL A   1      40.401  27.020  28.824  1.00  0.00     0.074 A 
ATOM     31  C   UNL A   1      42.172  26.201  27.363  1.00  0.00     0.049 A 
ATOM     32  N   UNL A   1      40.814  28.260  28.991  1.00  0.00    -0.248 NA
ATOM     33  C   UNL A   1      39.191  26.710  29.594  1.00  0.00     0.031 C 
ATOM     34  C   UNL A   1      42.868  25.397  26.372  1.00  0.00     0.029 A 
ATOM     35  N   UNL A   1      43.058  27.252  27.549  1.00  0.00    -0.354 N 
ATOM     36  C   UNL A   1      39.861  28.890  29.789  1.00  0.00     0.074 A 
ATOM     37  C   UNL A   1      38.822  27.909  30.026  1.00  0.00     0.031 C 
ATOM     38  C   UNL A   1      44.091  25.870  26.135  1.00  0.00     0.029 A 
ATOM     39  C   UNL A   1      44.233  27.127  26.832  1.00  0.00     0.049 A 
ATOM     40  H   UNL A   1      42.866  28.016  28.138  1.00  0.00     0.167 HD
ATOM     41  C   UNL A   1      39.855  30.143  30.318  1.00  0.00     0.031 A 
ATOM     42  C   UNL A   1      45.305  27.925  26.667  1.00  0.00     0.031 A 
ATOM     43  C   UNL A   1      40.945  31.085  30.218  1.00  0.00     0.049 A 
ATOM     44  C   UNL A   1      45.318  29.266  27.319  1.00  0.00     0.074 A 
ATOM     45  C   UNL A   1      41.064  32.333  30.812  1.00  0.00     0.029 A 
ATOM     46  N   UNL A   1      42.125  30.866  29.524  1.00  0.00    -0.354 N 
ATOM     47  N   UNL A   1      44.386  29.831  28.042  1.00  0.00    -0.248 NA
ATOM     48  C   UNL A   1      46.521  30.084  27.121  1.00  0.00     0.031 C 
ATOM     49  C   UNL A   1      42.309  32.873  30.465  1.00  0.00     0.029 A 
ATOM     50  C   UNL A   1      42.980  31.946  29.688  1.00  0.00     0.049 A 
ATOM     51  H   UNL A   1      42.326  30.062  28.991  1.00  0.00     0.167 HD
ATOM     52  C   UNL A   1      44.899  31.065  28.406  1.00  0.00     0.074 A 
ATOM     53  C   UNL A   1      46.230  31.156  27.845  1.00  0.00     0.031 C 
ATOM     54  C   UNL A   1      44.306  32.035  29.138  1.00  0.00     0.031 A 
BRANCH  41  55
ATOM     55  C   UNL A   1      38.636  30.572  31.104  1.00  0.00    -0.014 A 
ATOM     56  C   UNL A   1      38.627  30.555  32.509  1.00  0.00     0.009 A 
ATOM     57  C   UNL A   1      37.494  31.046  30.434  1.00  0.00     0.009 A 
ATOM     58  C   UNL A   1      37.487  30.937  33.221  1.00  0.00     0.001 A 
ATOM     59  C   UNL A   1      36.368  31.466  31.149  1.00  0.00     0.001 A 
ATOM     60  C   UNL A   1      36.359  31.396  32.540  1.00  0.00     0.000 A 
ENDBRANCH  41  55
BRANCH  42  61
ATOM     61  C   UNL A   1      46.455  27.478  25.827  1.00  0.00    -0.014 A 
ATOM     62  C   UNL A   1      47.455  26.661  26.375  1.00  0.00     0.009 A 
ATOM     63  C   UNL A   1      46.548  27.841  24.472  1.00  0.00     0.009 A 
ATOM     64  C   UNL A   1      48.533  26.236  25.594  1.00  0.00     0.001 A 
ATOM     65  C   UNL A   1      47.605  27.380  23.683  1.00  0.00     0.001 A 
ATOM     66  C   UNL A   1      48.602  26.587  24.247  1.00  0.00     0.000 A 
ENDBRANCH  42  61
BRANCH  54  67
ATOM     67  C   UNL A   1      45.129  33.255  29.421  1.00  0.00    -0.014 A 
ATOM     68  C   UNL A   1      45.262  34.283  28.474  1.00  0.00     0.009 A 
ATOM     69  C   UNL A   1      45.797  33.367  30.650  1.00  0.00     0.009 A 
ATOM     70  C   UNL A   1      46.080  35.383  28.740  1.00  0.00     0.001 A 
ATOM     71  C   UNL A   1      46.591  34.481  30.923  1.00  0.00     0.001 A 
ATOM     72  C   UNL A   1      46.740  35.482  29.964  1.00  0.00     0.000 A 
ENDBRANCH  54  67
ENDBRANCH  28  29
ENDBRANCH  21  23
ENDBRANCH  20  21
ENDBRANCH   1  20
TORSDOF 12
ENDMDL
MODEL 2
REMARK VINA RESULT:     -11.3      3.680      8.495
REMARK SMILES Cc1ccc(F)c(-c2ncccc2C(=O)OCCOC(=O)c2ccc(-c3c4nc(c(-c5ccccc5)c5ccc([nH]5)c(-c5ccccc5)c5nc(c(-c6ccccc6)c6ccc3[nH]6)C=C5)C=C4)cc2)c1
REMARK SMILES IDX 18 1 17 2 16 3 14 4 15 5 13 6 8 7 9 8 10 9 12 10 11 11 7 12
REMARK SMILES IDX 1 13 2 14 3 15 70 16 4 17 5 18 6 19 19 20 20 21 21 22 22 23
REMARK SMILES IDX 23 24 69 25 24 26 68 27 25 28 26 29 27 30 62 31 28 32 67 33
REMARK SMILES IDX 61 34 63 35 29 36 66 37 60 38 59 39 30 41 52 42 37 43 51 44
REMARK SMILES IDX 38 45 41 46 50 47 64 48 39 49 40 50 49 52 65 53 42 54 31 55
REMARK SMILES IDX 32 56 36 57 33 58 35 59 34 60 53 61 54 62 58 63 55 64 57 65
REMARK SMILES IDX 56 66 43 67 44 68 48 69 45 70 47 71 46 72
REMARK H PARENT 63 40 41 51
REMARK Flexibility Score: inf
ROOT
ATOM      1  C   UNL A   1      31.292  29.162  25.068  1.00  0.00     0.275 C 
ENDROOT
BRANCH   1   2
ATOM      2  C   UNL A   1      31.369  27.928  25.960  1.00  0.00     0.275 C 
BRANCH   2   3
ATOM      3  O   UNL A   1      32.261  26.949  25.373  1.00  0.00    -0.458 OA
BRANCH   3   4
ATOM      4  C   UNL A   1      31.682  25.782  24.988  1.00  0.00     0.340 C 
ATOM      5  O   UNL A   1      30.995  25.060  25.690  1.00  0.00    -0.246 OA
BRANCH   4   6
ATOM      6  C   UNL A   1      32.074  25.445  23.604  1.00  0.00     0.086 A 
ATOM      7  C   UNL A   1      33.164  24.615  23.260  1.00  0.00     0.088 A 
ATOM      8  N   UNL A   1      33.554  24.453  21.969  1.00  0.00    -0.255 NA
ATOM      9  C   UNL A   1      32.886  25.164  21.025  1.00  0.00     0.112 A 
ATOM     10  C   UNL A   1      31.384  26.127  22.597  1.00  0.00     0.019 A 
ATOM     11  C   UNL A   1      31.807  25.996  21.284  1.00  0.00     0.021 A 
BRANCH   7  12
ATOM     12  C   UNL A   1      34.021  23.955  24.262  1.00  0.00     0.037 A 
ATOM     13  C   UNL A   1      38.330  23.867  26.506  1.00  0.00     0.044 C 
ATOM     14  C   UNL A   1      36.956  23.695  25.765  1.00  0.00    -0.050 A 
ATOM     15  C   UNL A   1      36.847  21.902  25.525  1.00  0.00     0.006 A 
ATOM     16  C   UNL A   1      35.389  24.807  25.108  1.00  0.00     0.016 A 
ATOM     17  C   UNL A   1      35.426  21.223  24.765  1.00  0.00     0.040 A 
ATOM     18  C   UNL A   1      34.090  22.199  24.173  1.00  0.00     0.132 A 
ATOM     19  F   UNL A   1      33.073  21.554  23.576  1.00  0.00    -0.206 F 
ENDBRANCH   7  12
ENDBRANCH   4   6
ENDBRANCH   3   4
ENDBRANCH   2   3
ENDBRANCH   1   2
BRANCH   1  20
ATOM     20  O   UNL A   1      32.468  29.950  25.306  1.00  0.00    -0.458 OA
BRANCH  20  21
ATOM     21  C   UNL A   1      32.357  30.819  26.329  1.00  0.00     0.338 C 
ATOM     22  O   UNL A   1      31.403  31.515  26.632  1.00  0.00    -0.246 OA
BRANCH  21  23
ATOM     23  C   UNL A   1      33.553  30.736  27.156  1.00  0.00     0.060 A 
ATOM     24  C   UNL A   1      34.467  32.207  27.628  1.00  0.00     0.016 A 
ATOM     25  C   UNL A   1      34.340  29.180  27.322  1.00  0.00     0.016 A 
ATOM     26  C   UNL A   1      36.357  31.977  28.313  1.00  0.00     0.010 A 
ATOM     27  C   UNL A   1      35.979  28.980  27.993  1.00  0.00     0.010 A 
ATOM     28  C   UNL A   1      37.027  30.310  28.522  1.00  0.00    -0.014 A 
BRANCH  28  29
ATOM     29  C   UNL A   1      38.278  30.025  29.367  1.00  0.00     0.031 A 
ATOM     30  C   UNL A   1      39.441  29.193  28.833  1.00  0.00     0.074 A 
ATOM     31  C   UNL A   1      38.366  30.370  30.677  1.00  0.00     0.049 A 
ATOM     32  N   UNL A   1      40.404  28.585  29.496  1.00  0.00    -0.248 NA
ATOM     33  C   UNL A   1      39.499  28.952  27.387  1.00  0.00     0.031 C 
ATOM     34  C   UNL A   1      37.348  31.050  31.460  1.00  0.00     0.029 A 
ATOM     35  N   UNL A   1      39.371  30.188  31.616  1.00  0.00    -0.354 N 
ATOM     36  C   UNL A   1      41.100  27.816  28.565  1.00  0.00     0.074 A 
ATOM     37  C   UNL A   1      40.414  27.994  27.302  1.00  0.00     0.031 C 
ATOM     38  C   UNL A   1      37.794  31.354  32.679  1.00  0.00     0.029 A 
ATOM     39  C   UNL A   1      39.092  30.745  32.850  1.00  0.00     0.049 A 
ATOM     40  H   UNL A   1      40.207  29.706  31.420  1.00  0.00     0.167 HD
ATOM     41  C   UNL A   1      42.224  27.066  28.718  1.00  0.00     0.031 A 
ATOM     42  C   UNL A   1      39.737  30.744  34.032  1.00  0.00     0.031 A 
ATOM     43  C   UNL A   1      43.007  26.992  29.929  1.00  0.00     0.049 A 
ATOM     44  C   UNL A   1      41.012  29.982  34.162  1.00  0.00     0.074 A 
ATOM     45  C   UNL A   1      44.215  26.342  30.138  1.00  0.00     0.029 A 
ATOM     46  N   UNL A   1      42.693  27.629  31.120  1.00  0.00    -0.354 N 
ATOM     47  N   UNL A   1      41.620  29.249  33.265  1.00  0.00    -0.248 NA
ATOM     48  C   UNL A   1      41.682  30.034  35.468  1.00  0.00     0.031 C 
ATOM     49  C   UNL A   1      44.623  26.575  31.457  1.00  0.00     0.029 A 
ATOM     50  C   UNL A   1      43.689  27.399  32.058  1.00  0.00     0.049 A 
ATOM     51  H   UNL A   1      41.881  28.163  31.277  1.00  0.00     0.167 HD
ATOM     52  C   UNL A   1      42.759  28.769  33.891  1.00  0.00     0.074 A 
ATOM     53  C   UNL A   1      42.768  29.312  35.233  1.00  0.00     0.031 C 
ATOM     54  C   UNL A   1      43.705  27.944  33.390  1.00  0.00     0.031 A 
BRANCH  41  55
ATOM     55  C   UNL A   1      42.718  26.283  27.522  1.00  0.00    -0.014 A 
ATOM     56  C   UNL A   1      43.623  26.841  26.603  1.00  0.00     0.009 A 
ATOM     57  C   UNL A   1      42.314  24.949  27.335  1.00  0.00     0.009 A 
ATOM     58  C   UNL A   1      44.056  26.111  25.493  1.00  0.00     0.001 A 
ATOM     59  C   UNL A   1      42.779  24.207  26.245  1.00  0.00     0.001 A 
ATOM     60  C   UNL A   1      43.637  24.793  25.317  1.00  0.00     0.000 A 
ENDBRANCH  41  55
BRANCH  42  61
ATOM     61  C   UNL A   1      39.172  31.482  35.199  1.00  0.00    -0.014 A 
ATOM     62  C   UNL A   1      39.438  32.849  35.369  1.00  0.00     0.009 A 
ATOM     63  C   UNL A   1      38.344  30.836  36.134  1.00  0.00     0.009 A 
ATOM     64  C   UNL A   1      38.910  33.547  36.457  1.00  0.00     0.001 A 
ATOM     65  C   UNL A   1      37.782  31.547  37.198  1.00  0.00     0.001 A 
ATOM     66  C   UNL A   1      38.075  32.899  37.365  1.00  0.00     0.000 A 
ENDBRANCH  42  61
BRANCH  54  67
ATOM     67  C   UNL A   1      44.863  27.632  34.288  1.00  0.00    -0.014 A 
ATOM     68  C   UNL A   1      45.996  28.460  34.334  1.00  0.00     0.009 A 
ATOM     69  C   UNL A   1      44.827  26.479  35.086  1.00  0.00     0.009 A 
ATOM     70  C   UNL A   1      47.086  28.117  35.136  1.00  0.00     0.001 A 
ATOM     71  C   UNL A   1      45.906  26.154  35.908  1.00  0.00     0.001 A 
ATOM     72  C   UNL A   1      47.038  26.967  35.924  1.00  0.00     0.000 A 
ENDBRANCH  54  67
ENDBRANCH  28  29
ENDBRANCH  21  23
ENDBRANCH  20  21
ENDBRANCH   1  20
TORSDOF 12
ENDMDL
MODEL 3
REMARK VINA RESULT:     -11.1      3.477      7.969
REMARK SMILES Cc1ccc(F)c(-c2ncccc2C(=O)OCCOC(=O)c2ccc(-c3c4nc(c(-c5ccccc5)c5ccc([nH]5)c(-c5ccccc5)c5nc(c(-c6ccccc6)c6ccc3[nH]6)C=C5)C=C4)cc2)c1
REMARK SMILES IDX 18 1 17 2 16 3 14 4 15 5 13 6 8 7 9 8 10 9 12 10 11 11 7 12
REMARK SMILES IDX 1 13 2 14 3 15 70 16 4 17 5 18 6 19 19 20 20 21 21 22 22 23
REMARK SMILES IDX 23 24 69 25 24 26 68 27 25 28 26 29 27 30 62 31 28 32 67 33
REMARK SMILES IDX 61 34 63 35 29 36 66 37 60 38 59 39 30 41 52 42 37 43 51 44
REMARK SMILES IDX 38 45 41 46 50 47 64 48 39 49 40 50 49 52 65 53 42 54 31 55
REMARK SMILES IDX 32 56 36 57 33 58 35 59 34 60 53 61 54 62 58 63 55 64 57 65
REMARK SMILES IDX 56 66 43 67 44 68 48 69 45 70 47 71 46 72
REMARK H PARENT 63 40 41 51
REMARK Flexibility Score: inf
ROOT
ATOM      1  C   UNL A   1      39.372  22.005  26.196  1.00  0.00     0.275 C 
ENDROOT
BRANCH   1   2
ATOM      2  C   UNL A   1      38.169  22.911  25.955  1.00  0.00     0.275 C 
BRANCH   2   3
ATOM      3  O   UNL A   1      36.973  22.111  25.791  1.00  0.00    -0.458 OA
BRANCH   3   4
ATOM      4  C   UNL A   1      36.449  22.083  24.538  1.00  0.00     0.340 C 
ATOM      5  O   UNL A   1      37.028  22.407  23.516  1.00  0.00    -0.246 OA
BRANCH   4   6
ATOM      6  C   UNL A   1      35.028  21.684  24.582  1.00  0.00     0.086 A 
ATOM      7  C   UNL A   1      33.942  22.568  24.395  1.00  0.00     0.088 A 
ATOM      8  N   UNL A   1      32.659  22.166  24.582  1.00  0.00    -0.255 NA
ATOM      9  C   UNL A   1      32.462  20.891  25.007  1.00  0.00     0.112 A 
ATOM     10  C   UNL A   1      34.781  20.366  24.979  1.00  0.00     0.019 A 
ATOM     11  C   UNL A   1      33.475  19.966  25.211  1.00  0.00     0.021 A 
BRANCH   7  12
ATOM     12  C   UNL A   1      34.114  24.002  24.096  1.00  0.00     0.037 A 
ATOM     13  C   UNL A   1      33.763  28.568  25.718  1.00  0.00     0.044 C 
ATOM     14  C   UNL A   1      33.790  27.159  25.025  1.00  0.00    -0.050 A 
ATOM     15  C   UNL A   1      33.071  27.497  23.395  1.00  0.00     0.006 A 
ATOM     16  C   UNL A   1      34.394  25.254  25.385  1.00  0.00     0.016 A 
ATOM     17  C   UNL A   1      32.942  26.200  22.229  1.00  0.00     0.040 A 
ATOM     18  C   UNL A   1      33.441  24.548  22.565  1.00  0.00     0.132 A 
ATOM     19  F   UNL A   1      33.255  23.639  21.593  1.00  0.00    -0.206 F 
ENDBRANCH   7  12
ENDBRANCH   4   6
ENDBRANCH   3   4
ENDBRANCH   2   3
ENDBRANCH   1   2
BRANCH   1  20
ATOM     20  O   UNL A   1      40.437  22.818  26.709  1.00  0.00    -0.458 OA
BRANCH  20  21
ATOM     21  C   UNL A   1      41.666  22.290  26.550  1.00  0.00     0.338 C 
ATOM     22  O   UNL A   1      41.969  21.132  26.321  1.00  0.00    -0.246 OA
BRANCH  21  23
ATOM     23  C   UNL A   1      42.651  23.363  26.569  1.00  0.00     0.060 A 
ATOM     24  C   UNL A   1      43.333  23.978  28.111  1.00  0.00     0.016 A 
ATOM     25  C   UNL A   1      42.842  24.339  25.128  1.00  0.00     0.016 A 
ATOM     26  C   UNL A   1      44.269  25.772  28.091  1.00  0.00     0.010 A 
ATOM     27  C   UNL A   1      43.732  25.884  25.104  1.00  0.00     0.010 A 
ATOM     28  C   UNL A   1      44.479  26.644  26.521  1.00  0.00    -0.014 A 
BRANCH  28  29
ATOM     29  C   UNL A   1      45.479  27.798  26.348  1.00  0.00     0.031 A 
ATOM     30  C   UNL A   1      46.967  27.549  26.116  1.00  0.00     0.074 A 
ATOM     31  C   UNL A   1      45.131  29.098  26.531  1.00  0.00     0.049 A 
ATOM     32  N   UNL A   1      47.984  28.372  26.275  1.00  0.00    -0.248 NA
ATOM     33  C   UNL A   1      47.379  26.197  25.723  1.00  0.00     0.031 C 
ATOM     34  C   UNL A   1      43.812  29.595  26.887  1.00  0.00     0.029 A 
ATOM     35  N   UNL A   1      45.865  30.271  26.454  1.00  0.00    -0.354 N 
ATOM     36  C   UNL A   1      49.139  27.608  26.109  1.00  0.00     0.074 A 
ATOM     37  C   UNL A   1      48.694  26.248  25.891  1.00  0.00     0.031 C 
ATOM     38  C   UNL A   1      43.773  30.927  26.866  1.00  0.00     0.029 A 
ATOM     39  C   UNL A   1      45.117  31.415  26.656  1.00  0.00     0.049 A 
ATOM     40  H   UNL A   1      46.832  30.288  26.271  1.00  0.00     0.167 HD
ATOM     41  C   UNL A   1      50.444  27.992  26.094  1.00  0.00     0.031 A 
ATOM     42  C   UNL A   1      45.428  32.723  26.736  1.00  0.00     0.031 A 
ATOM     43  C   UNL A   1      50.902  29.360  26.162  1.00  0.00     0.049 A 
ATOM     44  C   UNL A   1      46.857  33.135  26.637  1.00  0.00     0.074 A 
ATOM     45  C   UNL A   1      52.197  29.843  26.046  1.00  0.00     0.029 A 
ATOM     46  N   UNL A   1      50.081  30.467  26.309  1.00  0.00    -0.354 N 
ATOM     47  N   UNL A   1      47.917  32.381  26.506  1.00  0.00    -0.248 NA
ATOM     48  C   UNL A   1      47.136  34.576  26.711  1.00  0.00     0.031 C 
ATOM     49  C   UNL A   1      52.160  31.240  26.137  1.00  0.00     0.029 A 
ATOM     50  C   UNL A   1      50.840  31.629  26.271  1.00  0.00     0.049 A 
ATOM     51  H   UNL A   1      49.104  30.435  26.425  1.00  0.00     0.167 HD
ATOM     52  C   UNL A   1      48.990  33.255  26.459  1.00  0.00     0.074 A 
ATOM     53  C   UNL A   1      48.451  34.596  26.551  1.00  0.00     0.031 C 
ATOM     54  C   UNL A   1      50.306  32.962  26.355  1.00  0.00     0.031 A 
BRANCH  41  55
ATOM     55  C   UNL A   1      51.494  26.913  25.952  1.00  0.00    -0.014 A 
ATOM     56  C   UNL A   1      52.050  26.280  27.076  1.00  0.00     0.009 A 
ATOM     57  C   UNL A   1      51.901  26.486  24.675  1.00  0.00     0.009 A 
ATOM     58  C   UNL A   1      53.033  25.297  26.930  1.00  0.00     0.001 A 
ATOM     59  C   UNL A   1      52.855  25.475  24.530  1.00  0.00     0.001 A 
ATOM     60  C   UNL A   1      53.432  24.893  25.656  1.00  0.00     0.000 A 
ENDBRANCH  41  55
BRANCH  42  61
ATOM     61  C   UNL A   1      44.356  33.742  26.940  1.00  0.00    -0.014 A 
ATOM     62  C   UNL A   1      43.753  34.365  25.837  1.00  0.00     0.009 A 
ATOM     63  C   UNL A   1      43.912  34.079  28.231  1.00  0.00     0.009 A 
ATOM     64  C   UNL A   1      42.748  35.317  26.020  1.00  0.00     0.001 A 
ATOM     65  C   UNL A   1      42.877  35.001  28.409  1.00  0.00     0.001 A 
ATOM     66  C   UNL A   1      42.303  35.627  27.304  1.00  0.00     0.000 A 
ENDBRANCH  42  61
BRANCH  54  67
ATOM     67  C   UNL A   1      51.246  34.127  26.273  1.00  0.00    -0.014 A 
ATOM     68  C   UNL A   1      51.811  34.692  27.427  1.00  0.00     0.009 A 
ATOM     69  C   UNL A   1      51.554  34.678  25.020  1.00  0.00     0.009 A 
ATOM     70  C   UNL A   1      52.638  35.812  27.329  1.00  0.00     0.001 A 
ATOM     71  C   UNL A   1      52.404  35.780  24.923  1.00  0.00     0.001 A 
ATOM     72  C   UNL A   1      52.936  36.352  26.078  1.00  0.00     0.000 A 
ENDBRANCH  54  67
ENDBRANCH  28  29
ENDBRANCH  21  23
ENDBRANCH  20  21
ENDBRANCH   1  20
TORSDOF 12
ENDMDL
