MODEL 1
REMARK VINA RESULT:     -11.9      0.000      0.000
REMARK SMILES O=C(CCC(=O)N1CCC[C@@]2(CCC(=O)N(Cc3ccncc3)C2)C1)OCCOC(=O)c1ccc(-c2c3nc(c(-c4ccccc4)c4ccc([nH]4)c(-c4ccccc4)c4nc(c(-c5ccccc5)c5ccc2[nH]5)C=C4)C=C3)cc1
REMARK SMILES IDX 26 1 2 2 1 3 3 4 4 5 5 6 6 7 7 8 8 9 25 10 9 11 11 12 10 13
REMARK SMILES IDX 12 14 24 15 13 16 16 17 14 18 15 19 17 20 18 21 19 22 23 23
REMARK SMILES IDX 20 24 22 25 21 26 27 27 28 28 29 29 30 30 31 31 32 32 33 33
REMARK SMILES IDX 79 34 34 35 78 36 35 37 36 38 37 39 72 40 38 41 77 42 71 43
REMARK SMILES IDX 73 44 39 45 76 46 70 47 69 48 40 50 62 51 47 52 61 53 48 54
REMARK SMILES IDX 51 55 60 56 74 57 49 58 50 59 59 61 75 62 52 63 41 64 42 65
REMARK SMILES IDX 46 66 43 67 45 68 44 69 63 70 64 71 68 72 65 73 67 74 66 75
REMARK SMILES IDX 53 76 54 77 58 78 55 79 57 80 56 81
REMARK H PARENT 73 49 51 60
REMARK Flexibility Score: inf
ROOT
ATOM      1  O   UNL A   1      43.233  20.638  25.059  1.00  0.00    -0.462 OA
ENDROOT
BRANCH   1   2
ATOM      2  C   UNL A   1      42.780  19.537  25.694  1.00  0.00     0.306 C 
ATOM      3  O   UNL A   1      43.387  18.471  25.599  1.00  0.00    -0.252 OA
BRANCH   2   4
ATOM      4  C   UNL A   1      41.597  19.657  26.620  1.00  0.00     0.132 C 
BRANCH   4   5
ATOM      5  C   UNL A   1      40.334  20.176  25.941  1.00  0.00     0.112 C 
BRANCH   5   6
ATOM      6  C   UNL A   1      39.906  21.517  26.501  1.00  0.00     0.223 C 
ATOM      7  O   UNL A   1      40.558  22.015  27.421  1.00  0.00    -0.275 OA
BRANCH   6   8
ATOM      8  N   UNL A   1      38.708  22.063  26.042  1.00  0.00    -0.342 N 
ATOM      9  C   UNL A   1      38.581  23.520  26.128  1.00  0.00     0.119 C 
ATOM     10  C   UNL A   1      37.685  21.258  25.355  1.00  0.00     0.128 C 
ATOM     11  C   UNL A   1      37.170  24.095  26.126  1.00  0.00     0.022 C 
ATOM     12  C   UNL A   1      36.399  21.998  24.947  1.00  0.00     0.006 C 
ATOM     13  C   UNL A   1      36.079  23.050  26.024  1.00  0.00     0.012 C 
ATOM     14  C   UNL A   1      36.608  22.562  23.532  1.00  0.00     0.020 C 
ATOM     15  C   UNL A   1      35.213  21.016  24.854  1.00  0.00     0.128 C 
ATOM     16  C   UNL A   1      35.373  23.248  22.993  1.00  0.00     0.101 C 
ATOM     17  N   UNL A   1      34.013  21.644  24.294  1.00  0.00    -0.338 N 
ATOM     18  C   UNL A   1      34.065  22.525  23.223  1.00  0.00     0.222 C 
ATOM     19  O   UNL A   1      33.081  22.869  22.570  1.00  0.00    -0.275 OA
BRANCH  17  20
ATOM     20  C   UNL A   1      32.725  21.406  24.945  1.00  0.00     0.155 C 
BRANCH  20  21
ATOM     21  C   UNL A   1      32.112  22.606  25.614  1.00  0.00    -0.026 A 
ATOM     22  C   UNL A   1      30.752  22.657  25.921  1.00  0.00     0.025 A 
ATOM     23  C   UNL A   1      32.905  23.717  25.927  1.00  0.00     0.025 A 
ATOM     24  C   UNL A   1      30.253  23.806  26.517  1.00  0.00     0.111 A 
ATOM     25  C   UNL A   1      32.312  24.821  26.512  1.00  0.00     0.111 A 
ATOM     26  N   UNL A   1      31.002  24.888  26.826  1.00  0.00    -0.265 NA
ENDBRANCH  20  21
ENDBRANCH  17  20
ENDBRANCH   6   8
ENDBRANCH   5   6
ENDBRANCH   4   5
ENDBRANCH   2   4
ENDBRANCH   1   2
BRANCH   1  27
ATOM     27  C   UNL A   1      44.610  21.088  24.989  1.00  0.00     0.274 C 
BRANCH  27  28
ATOM     28  C   UNL A   1      44.668  22.280  24.033  1.00  0.00     0.275 C 
BRANCH  28  29
ATOM     29  O   UNL A   1      43.844  23.313  24.586  1.00  0.00    -0.458 OA
BRANCH  29  30
ATOM     30  C   UNL A   1      44.526  24.431  24.944  1.00  0.00     0.338 C 
ATOM     31  O   UNL A   1      45.632  24.752  24.572  1.00  0.00    -0.246 OA
BRANCH  30  32
ATOM     32  C   UNL A   1      43.600  25.300  25.718  1.00  0.00     0.060 A 
ATOM     33  C   UNL A   1      43.897  26.666  25.811  1.00  0.00     0.016 A 
ATOM     34  C   UNL A   1      42.440  24.790  26.319  1.00  0.00     0.016 A 
ATOM     35  C   UNL A   1      43.111  27.494  26.609  1.00  0.00     0.010 A 
ATOM     36  C   UNL A   1      41.646  25.618  27.107  1.00  0.00     0.010 A 
ATOM     37  C   UNL A   1      42.035  26.948  27.319  1.00  0.00    -0.014 A 
BRANCH  37  38
ATOM     38  C   UNL A   1      41.549  27.636  28.532  1.00  0.00     0.031 A 
ATOM     39  C   UNL A   1      42.288  27.356  29.816  1.00  0.00     0.074 A 
ATOM     40  C   UNL A   1      40.500  28.470  28.503  1.00  0.00     0.049 A 
ATOM     41  N   UNL A   1      42.079  27.826  31.017  1.00  0.00    -0.248 NA
ATOM     42  C   UNL A   1      43.413  26.404  29.731  1.00  0.00     0.031 C 
ATOM     43  C   UNL A   1      39.723  28.823  27.316  1.00  0.00     0.029 A 
ATOM     44  N   UNL A   1      39.910  29.173  29.520  1.00  0.00    -0.354 N 
ATOM     45  C   UNL A   1      43.040  27.227  31.823  1.00  0.00     0.074 A 
ATOM     46  C   UNL A   1      43.801  26.325  30.991  1.00  0.00     0.031 C 
ATOM     47  C   UNL A   1      38.754  29.684  27.675  1.00  0.00     0.029 A 
ATOM     48  C   UNL A   1      38.836  29.926  29.115  1.00  0.00     0.049 A 
ATOM     49  H   UNL A   1      40.226  29.142  30.452  1.00  0.00     0.167 HD
ATOM     50  C   UNL A   1      43.280  27.418  33.139  1.00  0.00     0.031 A 
ATOM     51  C   UNL A   1      38.021  30.718  29.836  1.00  0.00     0.031 A 
ATOM     52  C   UNL A   1      42.509  28.301  33.967  1.00  0.00     0.049 A 
ATOM     53  C   UNL A   1      38.278  30.882  31.312  1.00  0.00     0.074 A 
ATOM     54  C   UNL A   1      42.668  28.587  35.310  1.00  0.00     0.029 A 
ATOM     55  N   UNL A   1      41.421  29.036  33.520  1.00  0.00    -0.354 N 
ATOM     56  N   UNL A   1      39.221  30.352  32.054  1.00  0.00    -0.248 NA
ATOM     57  C   UNL A   1      37.368  31.775  32.042  1.00  0.00     0.031 C 
ATOM     58  C   UNL A   1      41.643  29.461  35.688  1.00  0.00     0.029 A 
ATOM     59  C   UNL A   1      40.887  29.764  34.566  1.00  0.00     0.049 A 
ATOM     60  H   UNL A   1      41.083  29.040  32.596  1.00  0.00     0.167 HD
ATOM     61  C   UNL A   1      39.045  30.880  33.327  1.00  0.00     0.074 A 
ATOM     62  C   UNL A   1      37.909  31.775  33.253  1.00  0.00     0.031 C 
ATOM     63  C   UNL A   1      39.760  30.654  34.457  1.00  0.00     0.031 A 
BRANCH  50  64
ATOM     64  C   UNL A   1      44.401  26.629  33.753  1.00  0.00    -0.014 A 
ATOM     65  C   UNL A   1      45.729  27.082  33.697  1.00  0.00     0.009 A 
ATOM     66  C   UNL A   1      44.127  25.408  34.386  1.00  0.00     0.009 A 
ATOM     67  C   UNL A   1      46.764  26.309  34.229  1.00  0.00     0.001 A 
ATOM     68  C   UNL A   1      45.160  24.651  34.942  1.00  0.00     0.001 A 
ATOM     69  C   UNL A   1      46.478  25.096  34.853  1.00  0.00     0.000 A 
ENDBRANCH  50  64
BRANCH  51  70
ATOM     70  C   UNL A   1      36.903  31.439  29.175  1.00  0.00    -0.014 A 
ATOM     71  C   UNL A   1      35.691  30.784  28.911  1.00  0.00     0.009 A 
ATOM     72  C   UNL A   1      37.049  32.779  28.784  1.00  0.00     0.009 A 
ATOM     73  C   UNL A   1      34.659  31.446  28.243  1.00  0.00     0.001 A 
ATOM     74  C   UNL A   1      36.005  33.447  28.141  1.00  0.00     0.001 A 
ATOM     75  C   UNL A   1      34.815  32.777  27.861  1.00  0.00     0.000 A 
ENDBRANCH  51  70
BRANCH  63  76
ATOM     76  C   UNL A   1      39.371  31.432  35.683  1.00  0.00    -0.014 A 
ATOM     77  C   UNL A   1      40.160  32.486  36.166  1.00  0.00     0.009 A 
ATOM     78  C   UNL A   1      38.167  31.124  36.338  1.00  0.00     0.009 A 
ATOM     79  C   UNL A   1      39.771  33.189  37.307  1.00  0.00     0.001 A 
ATOM     80  C   UNL A   1      37.766  31.849  37.459  1.00  0.00     0.001 A 
ATOM     81  C   UNL A   1      38.574  32.874  37.949  1.00  0.00     0.000 A 
ENDBRANCH  63  76
ENDBRANCH  37  38
ENDBRANCH  30  32
ENDBRANCH  29  30
ENDBRANCH  28  29
ENDBRANCH  27  28
ENDBRANCH   1  27
TORSDOF 16
ENDMDL
MODEL 2
REMARK VINA RESULT:     -11.8      1.389      2.213
REMARK SMILES O=C(CCC(=O)N1CCC[C@@]2(CCC(=O)N(Cc3ccncc3)C2)C1)OCCOC(=O)c1ccc(-c2c3nc(c(-c4ccccc4)c4ccc([nH]4)c(-c4ccccc4)c4nc(c(-c5ccccc5)c5ccc2[nH]5)C=C4)C=C3)cc1
REMARK SMILES IDX 26 1 2 2 1 3 3 4 4 5 5 6 6 7 7 8 8 9 25 10 9 11 11 12 10 13
REMARK SMILES IDX 12 14 24 15 13 16 16 17 14 18 15 19 17 20 18 21 19 22 23 23
REMARK SMILES IDX 20 24 22 25 21 26 27 27 28 28 29 29 30 30 31 31 32 32 33 33
REMARK SMILES IDX 79 34 34 35 78 36 35 37 36 38 37 39 72 40 38 41 77 42 71 43
REMARK SMILES IDX 73 44 39 45 76 46 70 47 69 48 40 50 62 51 47 52 61 53 48 54
REMARK SMILES IDX 51 55 60 56 74 57 49 58 50 59 59 61 75 62 52 63 41 64 42 65
REMARK SMILES IDX 46 66 43 67 45 68 44 69 63 70 64 71 68 72 65 73 67 74 66 75
REMARK SMILES IDX 53 76 54 77 58 78 55 79 57 80 56 81
REMARK H PARENT 73 49 51 60
REMARK Flexibility Score: inf
ROOT
ATOM      1  O   UNL A   1      43.143  21.265  25.115  1.00  0.00    -0.462 OA
ENDROOT
BRANCH   1   2
ATOM      2  C   UNL A   1      42.525  20.503  26.041  1.00  0.00     0.306 C 
ATOM      3  O   UNL A   1      42.987  19.407  26.355  1.00  0.00    -0.252 OA
BRANCH   2   4
ATOM      4  C   UNL A   1      41.334  21.063  26.777  1.00  0.00     0.132 C 
BRANCH   4   5
ATOM      5  C   UNL A   1      40.246  21.614  25.861  1.00  0.00     0.112 C 
BRANCH   5   6
ATOM      6  C   UNL A   1      39.353  22.602  26.581  1.00  0.00     0.223 C 
ATOM      7  O   UNL A   1      39.789  23.186  27.576  1.00  0.00    -0.275 OA
BRANCH   6   8
ATOM      8  N   UNL A   1      38.025  22.702  26.169  1.00  0.00    -0.342 N 
ATOM      9  C   UNL A   1      37.350  23.971  26.447  1.00  0.00     0.119 C 
ATOM     10  C   UNL A   1      37.372  21.666  25.351  1.00  0.00     0.128 C 
ATOM     11  C   UNL A   1      35.826  23.954  26.485  1.00  0.00     0.022 C 
ATOM     12  C   UNL A   1      35.890  21.903  25.011  1.00  0.00     0.006 C 
ATOM     13  C   UNL A   1      35.219  22.594  26.212  1.00  0.00     0.012 C 
ATOM     14  C   UNL A   1      35.827  22.690  23.692  1.00  0.00     0.020 C 
ATOM     15  C   UNL A   1      35.171  20.562  24.753  1.00  0.00     0.128 C 
ATOM     16  C   UNL A   1      34.410  22.914  23.217  1.00  0.00     0.101 C 
ATOM     17  N   UNL A   1      33.807  20.750  24.251  1.00  0.00    -0.338 N 
ATOM     18  C   UNL A   1      33.487  21.720  23.311  1.00  0.00     0.222 C 
ATOM     19  O   UNL A   1      32.429  21.744  22.684  1.00  0.00    -0.275 OA
BRANCH  17  20
ATOM     20  C   UNL A   1      32.728  19.949  24.828  1.00  0.00     0.155 C 
BRANCH  20  21
ATOM     21  C   UNL A   1      32.920  18.459  24.746  1.00  0.00    -0.026 A 
ATOM     22  C   UNL A   1      33.423  17.849  23.597  1.00  0.00     0.025 A 
ATOM     23  C   UNL A   1      32.573  17.645  25.832  1.00  0.00     0.025 A 
ATOM     24  C   UNL A   1      33.551  16.467  23.586  1.00  0.00     0.111 A 
ATOM     25  C   UNL A   1      32.728  16.275  25.720  1.00  0.00     0.111 A 
ATOM     26  N   UNL A   1      33.222  15.666  24.623  1.00  0.00    -0.265 NA
ENDBRANCH  20  21
ENDBRANCH  17  20
ENDBRANCH   6   8
ENDBRANCH   5   6
ENDBRANCH   4   5
ENDBRANCH   2   4
ENDBRANCH   1   2
BRANCH   1  27
ATOM     27  C   UNL A   1      44.560  21.267  24.808  1.00  0.00     0.274 C 
BRANCH  27  28
ATOM     28  C   UNL A   1      44.866  22.532  24.005  1.00  0.00     0.275 C 
BRANCH  28  29
ATOM     29  O   UNL A   1      44.021  23.574  24.509  1.00  0.00    -0.458 OA
BRANCH  29  30
ATOM     30  C   UNL A   1      44.696  24.659  24.967  1.00  0.00     0.338 C 
ATOM     31  O   UNL A   1      45.831  24.974  24.689  1.00  0.00    -0.246 OA
BRANCH  30  32
ATOM     32  C   UNL A   1      43.734  25.510  25.718  1.00  0.00     0.060 A 
ATOM     33  C   UNL A   1      43.989  26.884  25.798  1.00  0.00     0.016 A 
ATOM     34  C   UNL A   1      42.582  24.973  26.310  1.00  0.00     0.016 A 
ATOM     35  C   UNL A   1      43.168  27.699  26.573  1.00  0.00     0.010 A 
ATOM     36  C   UNL A   1      41.752  25.786  27.076  1.00  0.00     0.010 A 
ATOM     37  C   UNL A   1      42.099  27.130  27.276  1.00  0.00    -0.014 A 
BRANCH  37  38
ATOM     38  C   UNL A   1      41.576  27.819  28.473  1.00  0.00     0.031 A 
ATOM     39  C   UNL A   1      42.322  27.600  29.765  1.00  0.00     0.074 A 
ATOM     40  C   UNL A   1      40.489  28.601  28.424  1.00  0.00     0.049 A 
ATOM     41  N   UNL A   1      42.087  28.084  30.955  1.00  0.00    -0.248 NA
ATOM     42  C   UNL A   1      43.491  26.701  29.703  1.00  0.00     0.031 C 
ATOM     43  C   UNL A   1      39.700  28.892  27.228  1.00  0.00     0.029 A 
ATOM     44  N   UNL A   1      39.861  29.295  29.425  1.00  0.00    -0.354 N 
ATOM     45  C   UNL A   1      43.072  27.547  31.776  1.00  0.00     0.074 A 
ATOM     46  C   UNL A   1      43.878  26.667  30.965  1.00  0.00     0.031 C 
ATOM     47  C   UNL A   1      38.690  29.713  27.567  1.00  0.00     0.029 A 
ATOM     48  C   UNL A   1      38.755  29.988  29.002  1.00  0.00     0.049 A 
ATOM     49  H   UNL A   1      40.175  29.298  30.358  1.00  0.00     0.167 HD
ATOM     50  C   UNL A   1      43.297  27.776  33.089  1.00  0.00     0.031 A 
ATOM     51  C   UNL A   1      37.901  30.754  29.703  1.00  0.00     0.031 A 
ATOM     52  C   UNL A   1      42.482  28.638  33.896  1.00  0.00     0.049 A 
ATOM     53  C   UNL A   1      38.144  30.960  31.177  1.00  0.00     0.074 A 
ATOM     54  C   UNL A   1      42.621  28.958  35.234  1.00  0.00     0.029 A 
ATOM     55  N   UNL A   1      41.362  29.312  33.432  1.00  0.00    -0.354 N 
ATOM     56  N   UNL A   1      39.108  30.491  31.932  1.00  0.00    -0.248 NA
ATOM     57  C   UNL A   1      37.189  31.823  31.886  1.00  0.00     0.031 C 
ATOM     58  C   UNL A   1      41.555  29.790  35.591  1.00  0.00     0.029 A 
ATOM     59  C   UNL A   1      40.790  30.034  34.461  1.00  0.00     0.049 A 
ATOM     60  H   UNL A   1      41.027  29.281  32.506  1.00  0.00     0.167 HD
ATOM     61  C   UNL A   1      38.901  31.036  33.194  1.00  0.00     0.074 A 
ATOM     62  C   UNL A   1      37.724  31.874  33.098  1.00  0.00     0.031 C 
ATOM     63  C   UNL A   1      39.622  30.867  34.331  1.00  0.00     0.031 A 
BRANCH  50  64
ATOM     64  C   UNL A   1      44.452  27.054  33.723  1.00  0.00    -0.014 A 
ATOM     65  C   UNL A   1      45.742  27.610  33.736  1.00  0.00     0.009 A 
ATOM     66  C   UNL A   1      44.250  25.793  34.303  1.00  0.00     0.009 A 
ATOM     67  C   UNL A   1      46.812  26.900  34.285  1.00  0.00     0.001 A 
ATOM     68  C   UNL A   1      45.317  25.098  34.875  1.00  0.00     0.001 A 
ATOM     69  C   UNL A   1      46.598  25.647  34.856  1.00  0.00     0.000 A 
ENDBRANCH  50  64
BRANCH  51  70
ATOM     70  C   UNL A   1      36.752  31.409  29.025  1.00  0.00    -0.014 A 
ATOM     71  C   UNL A   1      36.832  32.752  28.627  1.00  0.00     0.009 A 
ATOM     72  C   UNL A   1      35.562  30.702  28.794  1.00  0.00     0.009 A 
ATOM     73  C   UNL A   1      35.734  33.382  28.037  1.00  0.00     0.001 A 
ATOM     74  C   UNL A   1      34.475  31.328  28.180  1.00  0.00     0.001 A 
ATOM     75  C   UNL A   1      34.558  32.669  27.811  1.00  0.00     0.000 A 
ENDBRANCH  51  70
BRANCH  63  76
ATOM     76  C   UNL A   1      39.192  31.650  35.539  1.00  0.00    -0.014 A 
ATOM     77  C   UNL A   1      39.698  32.931  35.804  1.00  0.00     0.009 A 
ATOM     78  C   UNL A   1      38.228  31.104  36.403  1.00  0.00     0.009 A 
ATOM     79  C   UNL A   1      39.278  33.632  36.935  1.00  0.00     0.001 A 
ATOM     80  C   UNL A   1      37.787  31.821  37.515  1.00  0.00     0.001 A 
ATOM     81  C   UNL A   1      38.320  33.080  37.786  1.00  0.00     0.000 A 
ENDBRANCH  63  76
ENDBRANCH  37  38
ENDBRANCH  30  32
ENDBRANCH  29  30
ENDBRANCH  28  29
ENDBRANCH  27  28
ENDBRANCH   1  27
TORSDOF 16
ENDMDL
MODEL 3
REMARK VINA RESULT:     -11.5      4.752     10.026
REMARK SMILES O=C(CCC(=O)N1CCC[C@@]2(CCC(=O)N(Cc3ccncc3)C2)C1)OCCOC(=O)c1ccc(-c2c3nc(c(-c4ccccc4)c4ccc([nH]4)c(-c4ccccc4)c4nc(c(-c5ccccc5)c5ccc2[nH]5)C=C4)C=C3)cc1
REMARK SMILES IDX 26 1 2 2 1 3 3 4 4 5 5 6 6 7 7 8 8 9 25 10 9 11 11 12 10 13
REMARK SMILES IDX 12 14 24 15 13 16 16 17 14 18 15 19 17 20 18 21 19 22 23 23
REMARK SMILES IDX 20 24 22 25 21 26 27 27 28 28 29 29 30 30 31 31 32 32 33 33
REMARK SMILES IDX 79 34 34 35 78 36 35 37 36 38 37 39 72 40 38 41 77 42 71 43
REMARK SMILES IDX 73 44 39 45 76 46 70 47 69 48 40 50 62 51 47 52 61 53 48 54
REMARK SMILES IDX 51 55 60 56 74 57 49 58 50 59 59 61 75 62 52 63 41 64 42 65
REMARK SMILES IDX 46 66 43 67 45 68 44 69 63 70 64 71 68 72 65 73 67 74 66 75
REMARK SMILES IDX 53 76 54 77 58 78 55 79 57 80 56 81
REMARK H PARENT 73 49 51 60
REMARK Flexibility Score: inf
ROOT
ATOM      1  O   UNL A   1      33.541  34.224  30.287  1.00  0.00    -0.462 OA
ENDROOT
BRANCH   1   2
ATOM      2  C   UNL A   1      34.052  33.962  29.066  1.00  0.00     0.306 C 
ATOM      3  O   UNL A   1      34.197  34.866  28.245  1.00  0.00    -0.252 OA
BRANCH   2   4
ATOM      4  C   UNL A   1      34.560  32.575  28.764  1.00  0.00     0.132 C 
BRANCH   4   5
ATOM      5  C   UNL A   1      33.891  31.923  27.558  1.00  0.00     0.112 C 
BRANCH   5   6
ATOM      6  C   UNL A   1      34.095  30.422  27.546  1.00  0.00     0.223 C 
ATOM      7  O   UNL A   1      34.800  29.908  28.417  1.00  0.00    -0.275 OA
BRANCH   6   8
ATOM      8  N   UNL A   1      33.589  29.704  26.463  1.00  0.00    -0.342 N 
ATOM      9  C   UNL A   1      32.407  30.265  25.805  1.00  0.00     0.119 C 
ATOM     10  C   UNL A   1      34.285  28.538  25.894  1.00  0.00     0.128 C 
ATOM     11  C   UNL A   1      31.547  29.307  24.990  1.00  0.00     0.022 C 
ATOM     12  C   UNL A   1      33.578  27.827  24.727  1.00  0.00     0.006 C 
ATOM     13  C   UNL A   1      32.059  27.882  24.971  1.00  0.00     0.012 C 
ATOM     14  C   UNL A   1      34.048  28.485  23.419  1.00  0.00     0.020 C 
ATOM     15  C   UNL A   1      34.009  26.348  24.650  1.00  0.00     0.128 C 
ATOM     16  C   UNL A   1      33.473  27.813  22.193  1.00  0.00     0.101 C 
ATOM     17  N   UNL A   1      33.500  25.682  23.448  1.00  0.00    -0.338 N 
ATOM     18  C   UNL A   1      33.483  26.301  22.205  1.00  0.00     0.222 C 
ATOM     19  O   UNL A   1      33.308  25.704  21.144  1.00  0.00    -0.275 OA
BRANCH  17  20
ATOM     20  C   UNL A   1      32.905  24.352  23.578  1.00  0.00     0.155 C 
BRANCH  20  21
ATOM     21  C   UNL A   1      32.320  24.040  24.929  1.00  0.00    -0.026 A 
ATOM     22  C   UNL A   1      33.060  23.385  25.913  1.00  0.00     0.025 A 
ATOM     23  C   UNL A   1      30.995  24.390  25.217  1.00  0.00     0.025 A 
ATOM     24  C   UNL A   1      32.447  23.111  27.126  1.00  0.00     0.111 A 
ATOM     25  C   UNL A   1      30.469  24.063  26.454  1.00  0.00     0.111 A 
ATOM     26  N   UNL A   1      31.170  23.440  27.423  1.00  0.00    -0.265 NA
ENDBRANCH  20  21
ENDBRANCH  17  20
ENDBRANCH   6   8
ENDBRANCH   5   6
ENDBRANCH   4   5
ENDBRANCH   2   4
ENDBRANCH   1   2
BRANCH   1  27
ATOM     27  C   UNL A   1      34.175  34.994  31.339  1.00  0.00     0.274 C 
BRANCH  27  28
ATOM     28  C   UNL A   1      34.633  34.019  32.425  1.00  0.00     0.275 C 
BRANCH  28  29
ATOM     29  O   UNL A   1      35.865  33.435  31.984  1.00  0.00    -0.458 OA
BRANCH  29  30
ATOM     30  C   UNL A   1      36.427  32.586  32.883  1.00  0.00     0.338 C 
ATOM     31  O   UNL A   1      36.194  32.534  34.069  1.00  0.00    -0.246 OA
BRANCH  30  32
ATOM     32  C   UNL A   1      37.234  31.592  32.127  1.00  0.00     0.060 A 
ATOM     33  C   UNL A   1      38.172  30.827  32.831  1.00  0.00     0.016 A 
ATOM     34  C   UNL A   1      37.054  31.390  30.750  1.00  0.00     0.016 A 
ATOM     35  C   UNL A   1      39.016  29.958  32.145  1.00  0.00     0.010 A 
ATOM     36  C   UNL A   1      37.888  30.513  30.063  1.00  0.00     0.010 A 
ATOM     37  C   UNL A   1      38.924  29.866  30.751  1.00  0.00    -0.014 A 
BRANCH  37  38
ATOM     38  C   UNL A   1      40.097  29.405  29.981  1.00  0.00     0.031 A 
ATOM     39  C   UNL A   1      41.202  30.407  29.759  1.00  0.00     0.074 A 
ATOM     40  C   UNL A   1      40.183  28.159  29.496  1.00  0.00     0.049 A 
ATOM     41  N   UNL A   1      42.338  30.268  29.128  1.00  0.00    -0.248 NA
ATOM     42  C   UNL A   1      40.988  31.755  30.320  1.00  0.00     0.031 C 
ATOM     43  C   UNL A   1      39.182  27.107  29.662  1.00  0.00     0.029 A 
ATOM     44  N   UNL A   1      41.175  27.572  28.755  1.00  0.00    -0.354 N 
ATOM     45  C   UNL A   1      42.965  31.506  29.216  1.00  0.00     0.074 A 
ATOM     46  C   UNL A   1      42.070  32.396  29.916  1.00  0.00     0.031 C 
ATOM     47  C   UNL A   1      39.615  25.996  29.040  1.00  0.00     0.029 A 
ATOM     48  C   UNL A   1      40.912  26.267  28.422  1.00  0.00     0.049 A 
ATOM     49  H   UNL A   1      41.998  28.041  28.488  1.00  0.00     0.167 HD
ATOM     50  C   UNL A   1      44.186  31.870  28.766  1.00  0.00     0.031 A 
ATOM     51  C   UNL A   1      41.645  25.399  27.701  1.00  0.00     0.031 A 
ATOM     52  C   UNL A   1      45.065  30.987  28.053  1.00  0.00     0.049 A 
ATOM     53  C   UNL A   1      42.985  25.840  27.169  1.00  0.00     0.074 A 
ATOM     54  C   UNL A   1      46.332  31.240  27.561  1.00  0.00     0.029 A 
ATOM     55  N   UNL A   1      44.756  29.676  27.726  1.00  0.00    -0.354 N 
ATOM     56  N   UNL A   1      43.592  26.995  27.302  1.00  0.00    -0.248 NA
ATOM     57  C   UNL A   1      43.749  24.843  26.406  1.00  0.00     0.031 C 
ATOM     58  C   UNL A   1      46.771  30.092  26.892  1.00  0.00     0.029 A 
ATOM     59  C   UNL A   1      45.801  29.109  27.022  1.00  0.00     0.049 A 
ATOM     60  H   UNL A   1      43.917  29.217  27.962  1.00  0.00     0.167 HD
ATOM     61  C   UNL A   1      44.826  26.850  26.678  1.00  0.00     0.074 A 
ATOM     62  C   UNL A   1      44.880  25.494  26.173  1.00  0.00     0.031 C 
ATOM     63  C   UNL A   1      45.829  27.753  26.540  1.00  0.00     0.031 A 
BRANCH  50  64
ATOM     64  C   UNL A   1      44.611  33.289  29.009  1.00  0.00    -0.014 A 
ATOM     65  C   UNL A   1      44.337  34.304  28.076  1.00  0.00     0.009 A 
ATOM     66  C   UNL A   1      45.309  33.616  30.181  1.00  0.00     0.009 A 
ATOM     67  C   UNL A   1      44.786  35.607  28.297  1.00  0.00     0.001 A 
ATOM     68  C   UNL A   1      45.732  34.927  30.411  1.00  0.00     0.001 A 
ATOM     69  C   UNL A   1      45.480  35.918  29.465  1.00  0.00     0.000 A 
ENDBRANCH  50  64
BRANCH  51  70
ATOM     70  C   UNL A   1      41.149  24.020  27.459  1.00  0.00    -0.014 A 
ATOM     71  C   UNL A   1      40.064  23.795  26.598  1.00  0.00     0.009 A 
ATOM     72  C   UNL A   1      41.740  22.924  28.106  1.00  0.00     0.009 A 
ATOM     73  C   UNL A   1      39.564  22.504  26.412  1.00  0.00     0.001 A 
ATOM     74  C   UNL A   1      41.254  21.632  27.897  1.00  0.00     0.001 A 
ATOM     75  C   UNL A   1      40.160  21.424  27.058  1.00  0.00     0.000 A 
ENDBRANCH  51  70
BRANCH  63  76
ATOM     76  C   UNL A   1      47.088  27.282  25.870  1.00  0.00    -0.014 A 
ATOM     77  C   UNL A   1      47.280  27.417  24.487  1.00  0.00     0.009 A 
ATOM     78  C   UNL A   1      48.118  26.730  26.651  1.00  0.00     0.009 A 
ATOM     79  C   UNL A   1      48.461  26.969  23.894  1.00  0.00     0.001 A 
ATOM     80  C   UNL A   1      49.309  26.314  26.059  1.00  0.00     0.001 A 
ATOM     81  C   UNL A   1      49.476  26.423  24.680  1.00  0.00     0.000 A 
ENDBRANCH  63  76
ENDBRANCH  37  38
ENDBRANCH  30  32
ENDBRANCH  29  30
ENDBRANCH  28  29
ENDBRANCH  27  28
ENDBRANCH   1  27
TORSDOF 16
ENDMDL
