MODEL 1
REMARK VINA RESULT:     -10.5      0.000      0.000
REMARK SMILES CCc1c(C(=O)OCCOC(=O)c2ccc(-c3c4nc(c(-c5ccccc5)c5ccc([nH]5)c(-c5ccccc5)c5nc(c(-c6ccccc6)c6ccc3[nH]6)C=C5)C=C4)cc2)nnn1-c1ccc(OC)cc1
REMARK SMILES IDX 8 1 7 2 5 3 6 4 4 5 3 6 63 7 61 8 62 9 2 10 1 11 64 12 65 13
REMARK SMILES IDX 71 14 66 15 70 16 67 17 68 18 69 19 9 20 10 21 11 22 12 23
REMARK SMILES IDX 13 24 14 25 60 26 15 27 59 28 16 29 17 30 18 31 53 32 19 33
REMARK SMILES IDX 58 34 52 35 54 36 20 37 57 38 51 39 50 40 21 42 43 43 28 44
REMARK SMILES IDX 42 45 29 46 32 47 41 48 55 49 30 50 31 51 40 53 56 54 33 55
REMARK SMILES IDX 22 56 23 57 27 58 24 59 26 60 25 61 44 62 45 63 49 64 46 65
REMARK SMILES IDX 48 66 47 67 34 68 35 69 39 70 36 71 38 72 37 73
REMARK H PARENT 54 41 32 52
REMARK Flexibility Score: inf
ROOT
ATOM      1  C   UNL A   1      41.596  19.404  26.384  1.00  0.00     0.275 C 
ENDROOT
BRANCH   1   2
ATOM      2  O   UNL A   1      40.987  20.618  25.919  1.00  0.00    -0.457 OA
BRANCH   2   3
ATOM      3  C   UNL A   1      40.283  21.336  26.851  1.00  0.00     0.360 C 
ATOM      4  O   UNL A   1      40.610  21.427  28.022  1.00  0.00    -0.244 OA
BRANCH   3   5
ATOM      5  C   UNL A   1      39.133  22.031  26.274  1.00  0.00     0.194 A 
ATOM      6  C   UNL A   1      38.138  21.555  25.419  1.00  0.00     0.079 A 
ATOM      7  N   UNL A   1      37.317  22.662  25.253  1.00  0.00    -0.217 N 
ATOM      8  N   UNL A   1      38.951  23.376  26.476  1.00  0.00    -0.122 NA
ATOM      9  N   UNL A   1      37.915  23.766  25.754  1.00  0.00    -0.061 NA
BRANCH   6  10
ATOM     10  C   UNL A   1      38.039  20.210  24.759  1.00  0.00     0.055 C 
ATOM     11  C   UNL A   1      36.785  19.379  24.949  1.00  0.00     0.011 C 
ENDBRANCH   6  10
BRANCH   7  12
ATOM     12  C   UNL A   1      35.993  22.756  24.785  1.00  0.00     0.067 A 
ATOM     13  C   UNL A   1      34.930  22.556  25.671  1.00  0.00     0.032 A 
ATOM     14  C   UNL A   1      35.750  23.002  23.431  1.00  0.00     0.032 A 
ATOM     15  C   UNL A   1      33.622  22.712  25.210  1.00  0.00     0.048 A 
ATOM     16  C   UNL A   1      34.437  23.131  22.975  1.00  0.00     0.048 A 
ATOM     17  C   UNL A   1      33.369  23.020  23.869  1.00  0.00     0.119 A 
BRANCH  17  18
ATOM     18  O   UNL A   1      32.049  23.178  23.551  1.00  0.00    -0.497 OA
ATOM     19  C   UNL A   1      31.182  23.550  24.616  1.00  0.00     0.278 C 
ENDBRANCH  17  18
ENDBRANCH   7  12
ENDBRANCH   3   5
ENDBRANCH   2   3
ENDBRANCH   1   2
BRANCH   1  20
ATOM     20  C   UNL A   1      42.952  19.181  25.728  1.00  0.00     0.275 C 
BRANCH  20  21
ATOM     21  O   UNL A   1      43.298  20.241  24.835  1.00  0.00    -0.458 OA
BRANCH  21  22
ATOM     22  C   UNL A   1      44.552  20.729  24.985  1.00  0.00     0.338 C 
ATOM     23  O   UNL A   1      45.591  20.091  24.977  1.00  0.00    -0.246 OA
BRANCH  22  24
ATOM     24  C   UNL A   1      44.469  22.135  25.403  1.00  0.00     0.060 A 
ATOM     25  C   UNL A   1      45.322  22.581  26.416  1.00  0.00     0.016 A 
ATOM     26  C   UNL A   1      43.403  22.925  24.947  1.00  0.00     0.016 A 
ATOM     27  C   UNL A   1      45.045  23.787  27.038  1.00  0.00     0.010 A 
ATOM     28  C   UNL A   1      43.118  24.116  25.579  1.00  0.00     0.010 A 
ATOM     29  C   UNL A   1      43.914  24.518  26.648  1.00  0.00    -0.014 A 
BRANCH  29  30
ATOM     30  C   UNL A   1      43.656  25.793  27.294  1.00  0.00     0.031 A 
ATOM     31  C   UNL A   1      44.638  26.844  26.956  1.00  0.00     0.074 A 
ATOM     32  C   UNL A   1      42.540  26.072  27.994  1.00  0.00     0.049 A 
ATOM     33  N   UNL A   1      45.473  27.425  27.748  1.00  0.00    -0.248 NA
ATOM     34  C   UNL A   1      44.776  27.223  25.540  1.00  0.00     0.031 C 
ATOM     35  C   UNL A   1      41.338  25.240  28.101  1.00  0.00     0.029 A 
ATOM     36  N   UNL A   1      42.197  27.213  28.666  1.00  0.00    -0.354 N 
ATOM     37  C   UNL A   1      46.100  28.395  26.974  1.00  0.00     0.074 A 
ATOM     38  C   UNL A   1      45.768  28.109  25.601  1.00  0.00     0.031 C 
ATOM     39  C   UNL A   1      40.328  25.985  28.604  1.00  0.00     0.029 A 
ATOM     40  C   UNL A   1      40.850  27.286  28.989  1.00  0.00     0.049 A 
ATOM     41  H   UNL A   1      42.845  27.916  28.897  1.00  0.00     0.167 HD
ATOM     42  C   UNL A   1      46.566  29.539  27.541  1.00  0.00     0.031 A 
ATOM     43  C   UNL A   1      40.190  28.347  29.509  1.00  0.00     0.031 A 
ATOM     44  C   UNL A   1      46.653  29.435  28.973  1.00  0.00     0.049 A 
ATOM     45  C   UNL A   1      41.165  29.247  30.157  1.00  0.00     0.074 A 
ATOM     46  C   UNL A   1      47.495  28.872  29.905  1.00  0.00     0.029 A 
ATOM     47  N   UNL A   1      45.487  29.750  29.614  1.00  0.00    -0.354 N 
ATOM     48  N   UNL A   1      41.816  28.937  31.240  1.00  0.00    -0.248 NA
ATOM     49  C   UNL A   1      41.646  30.432  29.454  1.00  0.00     0.031 C 
ATOM     50  C   UNL A   1      46.730  28.733  31.103  1.00  0.00     0.029 A 
ATOM     51  C   UNL A   1      45.447  29.224  30.877  1.00  0.00     0.049 A 
ATOM     52  H   UNL A   1      44.765  30.288  29.216  1.00  0.00     0.167 HD
ATOM     53  C   UNL A   1      43.019  29.603  31.112  1.00  0.00     0.074 A 
ATOM     54  C   UNL A   1      42.784  30.641  30.120  1.00  0.00     0.031 C 
ATOM     55  C   UNL A   1      44.181  29.041  31.550  1.00  0.00     0.031 A 
BRANCH  42  56
ATOM     56  C   UNL A   1      46.408  30.896  26.889  1.00  0.00    -0.014 A 
ATOM     57  C   UNL A   1      47.509  31.772  26.906  1.00  0.00     0.009 A 
ATOM     58  C   UNL A   1      45.159  31.459  26.561  1.00  0.00     0.009 A 
ATOM     59  C   UNL A   1      47.354  33.143  26.666  1.00  0.00     0.001 A 
ATOM     60  C   UNL A   1      45.007  32.820  26.284  1.00  0.00     0.001 A 
ATOM     61  C   UNL A   1      46.102  33.668  26.361  1.00  0.00     0.000 A 
ENDBRANCH  42  56
BRANCH  43  62
ATOM     62  C   UNL A   1      38.771  28.721  29.369  1.00  0.00    -0.014 A 
ATOM     63  C   UNL A   1      37.925  28.763  30.487  1.00  0.00     0.009 A 
ATOM     64  C   UNL A   1      38.311  29.299  28.171  1.00  0.00     0.009 A 
ATOM     65  C   UNL A   1      36.681  29.399  30.423  1.00  0.00     0.001 A 
ATOM     66  C   UNL A   1      37.067  29.931  28.106  1.00  0.00     0.001 A 
ATOM     67  C   UNL A   1      36.259  29.997  29.237  1.00  0.00     0.000 A 
ENDBRANCH  43  62
BRANCH  55  68
ATOM     68  C   UNL A   1      44.088  28.017  32.643  1.00  0.00    -0.014 A 
ATOM     69  C   UNL A   1      43.925  28.345  33.999  1.00  0.00     0.009 A 
ATOM     70  C   UNL A   1      44.123  26.664  32.278  1.00  0.00     0.009 A 
ATOM     71  C   UNL A   1      43.835  27.339  34.966  1.00  0.00     0.001 A 
ATOM     72  C   UNL A   1      44.010  25.661  33.241  1.00  0.00     0.001 A 
ATOM     73  C   UNL A   1      43.875  25.998  34.586  1.00  0.00     0.000 A 
ENDBRANCH  55  68
ENDBRANCH  29  30
ENDBRANCH  22  24
ENDBRANCH  21  22
ENDBRANCH  20  21
ENDBRANCH   1  20
TORSDOF 14
ENDMDL
MODEL 2
REMARK VINA RESULT:     -10.5      5.181     10.252
REMARK SMILES CCc1c(C(=O)OCCOC(=O)c2ccc(-c3c4nc(c(-c5ccccc5)c5ccc([nH]5)c(-c5ccccc5)c5nc(c(-c6ccccc6)c6ccc3[nH]6)C=C5)C=C4)cc2)nnn1-c1ccc(OC)cc1
REMARK SMILES IDX 8 1 7 2 5 3 6 4 4 5 3 6 63 7 61 8 62 9 2 10 1 11 64 12 65 13
REMARK SMILES IDX 71 14 66 15 70 16 67 17 68 18 69 19 9 20 10 21 11 22 12 23
REMARK SMILES IDX 13 24 14 25 60 26 15 27 59 28 16 29 17 30 18 31 53 32 19 33
REMARK SMILES IDX 58 34 52 35 54 36 20 37 57 38 51 39 50 40 21 42 43 43 28 44
REMARK SMILES IDX 42 45 29 46 32 47 41 48 55 49 30 50 31 51 40 53 56 54 33 55
REMARK SMILES IDX 22 56 23 57 27 58 24 59 26 60 25 61 44 62 45 63 49 64 46 65
REMARK SMILES IDX 48 66 47 67 34 68 35 69 39 70 36 71 38 72 37 73
REMARK H PARENT 54 41 32 52
REMARK Flexibility Score: inf
ROOT
ATOM      1  C   UNL A   1      33.448  35.894  29.251  1.00  0.00     0.275 C 
ENDROOT
BRANCH   1   2
ATOM      2  O   UNL A   1      32.919  34.578  29.029  1.00  0.00    -0.457 OA
BRANCH   2   3
ATOM      3  C   UNL A   1      33.732  33.707  28.350  1.00  0.00     0.360 C 
ATOM      4  O   UNL A   1      34.949  33.756  28.380  1.00  0.00    -0.244 OA
BRANCH   3   5
ATOM      5  C   UNL A   1      32.979  32.675  27.638  1.00  0.00     0.194 A 
ATOM      6  C   UNL A   1      33.376  31.402  27.227  1.00  0.00     0.079 A 
ATOM      7  N   UNL A   1      32.224  30.893  26.642  1.00  0.00    -0.217 N 
ATOM      8  N   UNL A   1      31.704  32.918  27.192  1.00  0.00    -0.122 NA
ATOM      9  N   UNL A   1      31.306  31.873  26.488  1.00  0.00    -0.061 NA
BRANCH   6  10
ATOM     10  C   UNL A   1      34.739  30.779  27.303  1.00  0.00     0.055 C 
ATOM     11  C   UNL A   1      34.886  29.377  27.862  1.00  0.00     0.011 C 
ENDBRANCH   6  10
BRANCH   7  12
ATOM     12  C   UNL A   1      31.867  29.567  26.331  1.00  0.00     0.067 A 
ATOM     13  C   UNL A   1      31.657  28.648  27.363  1.00  0.00     0.032 A 
ATOM     14  C   UNL A   1      31.767  29.168  24.997  1.00  0.00     0.032 A 
ATOM     15  C   UNL A   1      31.243  27.353  27.046  1.00  0.00     0.048 A 
ATOM     16  C   UNL A   1      31.378  27.864  24.690  1.00  0.00     0.048 A 
ATOM     17  C   UNL A   1      31.081  26.961  25.714  1.00  0.00     0.119 A 
BRANCH  17  18
ATOM     18  O   UNL A   1      30.641  25.678  25.538  1.00  0.00    -0.497 OA
ATOM     19  C   UNL A   1      30.648  25.185  24.203  1.00  0.00     0.278 C 
ENDBRANCH  17  18
ENDBRANCH   7  12
ENDBRANCH   3   5
ENDBRANCH   2   3
ENDBRANCH   1   2
BRANCH   1  20
ATOM     20  C   UNL A   1      32.957  36.470  30.572  1.00  0.00     0.275 C 
BRANCH  20  21
ATOM     21  O   UNL A   1      33.807  36.114  31.663  1.00  0.00    -0.458 OA
BRANCH  21  22
ATOM     22  C   UNL A   1      33.484  34.957  32.287  1.00  0.00     0.338 C 
ATOM     23  O   UNL A   1      32.432  34.697  32.846  1.00  0.00    -0.246 OA
BRANCH  22  24
ATOM     24  C   UNL A   1      34.688  34.124  32.401  1.00  0.00     0.060 A 
ATOM     25  C   UNL A   1      35.922  34.756  32.579  1.00  0.00     0.016 A 
ATOM     26  C   UNL A   1      34.607  32.755  32.106  1.00  0.00     0.016 A 
ATOM     27  C   UNL A   1      37.081  34.028  32.367  1.00  0.00     0.010 A 
ATOM     28  C   UNL A   1      35.760  32.036  31.879  1.00  0.00     0.010 A 
ATOM     29  C   UNL A   1      36.987  32.687  31.967  1.00  0.00    -0.014 A 
BRANCH  29  30
ATOM     30  C   UNL A   1      38.215  31.934  31.776  1.00  0.00     0.031 A 
ATOM     31  C   UNL A   1      38.953  31.668  33.028  1.00  0.00     0.074 A 
ATOM     32  C   UNL A   1      38.578  31.366  30.611  1.00  0.00     0.049 A 
ATOM     33  N   UNL A   1      40.119  32.105  33.363  1.00  0.00    -0.248 NA
ATOM     34  C   UNL A   1      38.264  30.900  34.080  1.00  0.00     0.031 C 
ATOM     35  C   UNL A   1      37.764  31.255  29.397  1.00  0.00     0.029 A 
ATOM     36  N   UNL A   1      39.709  30.663  30.301  1.00  0.00    -0.354 N 
ATOM     37  C   UNL A   1      40.404  31.497  34.580  1.00  0.00     0.074 A 
ATOM     38  C   UNL A   1      39.172  30.919  35.054  1.00  0.00     0.031 C 
ATOM     39  C   UNL A   1      38.331  30.351  28.567  1.00  0.00     0.029 A 
ATOM     40  C   UNL A   1      39.610  29.938  29.122  1.00  0.00     0.049 A 
ATOM     41  H   UNL A   1      40.517  30.671  30.862  1.00  0.00     0.167 HD
ATOM     42  C   UNL A   1      41.688  31.236  34.940  1.00  0.00     0.031 A 
ATOM     43  C   UNL A   1      40.496  29.037  28.639  1.00  0.00     0.031 A 
ATOM     44  C   UNL A   1      42.633  31.957  34.130  1.00  0.00     0.049 A 
ATOM     45  C   UNL A   1      41.814  29.280  29.260  1.00  0.00     0.074 A 
ATOM     46  C   UNL A   1      43.134  33.236  34.044  1.00  0.00     0.029 A 
ATOM     47  N   UNL A   1      42.965  31.310  32.972  1.00  0.00    -0.354 N 
ATOM     48  N   UNL A   1      42.535  30.336  29.017  1.00  0.00    -0.248 NA
ATOM     49  C   UNL A   1      42.251  28.469  30.391  1.00  0.00     0.031 C 
ATOM     50  C   UNL A   1      43.659  33.372  32.722  1.00  0.00     0.029 A 
ATOM     51  C   UNL A   1      43.477  32.171  32.041  1.00  0.00     0.049 A 
ATOM     52  H   UNL A   1      42.850  30.343  32.828  1.00  0.00     0.167 HD
ATOM     53  C   UNL A   1      43.223  30.552  30.194  1.00  0.00     0.074 A 
ATOM     54  C   UNL A   1      43.165  29.289  30.915  1.00  0.00     0.031 C 
ATOM     55  C   UNL A   1      43.471  31.817  30.639  1.00  0.00     0.031 A 
BRANCH  42  56
ATOM     56  C   UNL A   1      42.100  29.944  35.613  1.00  0.00    -0.014 A 
ATOM     57  C   UNL A   1      43.119  29.997  36.582  1.00  0.00     0.009 A 
ATOM     58  C   UNL A   1      41.770  28.669  35.114  1.00  0.00     0.009 A 
ATOM     59  C   UNL A   1      43.806  28.844  36.982  1.00  0.00     0.001 A 
ATOM     60  C   UNL A   1      42.427  27.511  35.539  1.00  0.00     0.001 A 
ATOM     61  C   UNL A   1      43.463  27.601  36.455  1.00  0.00     0.000 A 
ENDBRANCH  42  56
BRANCH  43  62
ATOM     62  C   UNL A   1      40.258  27.870  27.770  1.00  0.00    -0.014 A 
ATOM     63  C   UNL A   1      41.013  27.677  26.604  1.00  0.00     0.009 A 
ATOM     64  C   UNL A   1      39.467  26.801  28.229  1.00  0.00     0.009 A 
ATOM     65  C   UNL A   1      41.013  26.443  25.945  1.00  0.00     0.001 A 
ATOM     66  C   UNL A   1      39.464  25.570  27.568  1.00  0.00     0.001 A 
ATOM     67  C   UNL A   1      40.250  25.385  26.435  1.00  0.00     0.000 A 
ENDBRANCH  43  62
BRANCH  55  68
ATOM     68  C   UNL A   1      43.518  32.914  29.618  1.00  0.00    -0.014 A 
ATOM     69  C   UNL A   1      42.521  33.895  29.490  1.00  0.00     0.009 A 
ATOM     70  C   UNL A   1      44.640  32.984  28.781  1.00  0.00     0.009 A 
ATOM     71  C   UNL A   1      42.633  34.898  28.522  1.00  0.00     0.001 A 
ATOM     72  C   UNL A   1      44.762  33.998  27.830  1.00  0.00     0.001 A 
ATOM     73  C   UNL A   1      43.754  34.950  27.695  1.00  0.00     0.000 A 
ENDBRANCH  55  68
ENDBRANCH  29  30
ENDBRANCH  22  24
ENDBRANCH  21  22
ENDBRANCH  20  21
ENDBRANCH   1  20
TORSDOF 14
ENDMDL
MODEL 3
REMARK VINA RESULT:     -10.3      5.155     11.051
REMARK SMILES CCc1c(C(=O)OCCOC(=O)c2ccc(-c3c4nc(c(-c5ccccc5)c5ccc([nH]5)c(-c5ccccc5)c5nc(c(-c6ccccc6)c6ccc3[nH]6)C=C5)C=C4)cc2)nnn1-c1ccc(OC)cc1
REMARK SMILES IDX 8 1 7 2 5 3 6 4 4 5 3 6 63 7 61 8 62 9 2 10 1 11 64 12 65 13
REMARK SMILES IDX 71 14 66 15 70 16 67 17 68 18 69 19 9 20 10 21 11 22 12 23
REMARK SMILES IDX 13 24 14 25 60 26 15 27 59 28 16 29 17 30 18 31 53 32 19 33
REMARK SMILES IDX 58 34 52 35 54 36 20 37 57 38 51 39 50 40 21 42 43 43 28 44
REMARK SMILES IDX 42 45 29 46 32 47 41 48 55 49 30 50 31 51 40 53 56 54 33 55
REMARK SMILES IDX 22 56 23 57 27 58 24 59 26 60 25 61 44 62 45 63 49 64 46 65
REMARK SMILES IDX 48 66 47 67 34 68 35 69 39 70 36 71 38 72 37 73
REMARK H PARENT 54 41 32 52
REMARK Flexibility Score: inf
ROOT
ATOM      1  C   UNL A   1      33.206  35.009  28.749  1.00  0.00     0.275 C 
ENDROOT
BRANCH   1   2
ATOM      2  O   UNL A   1      34.136  35.036  29.842  1.00  0.00    -0.457 OA
BRANCH   2   3
ATOM      3  C   UNL A   1      33.593  35.163  31.095  1.00  0.00     0.360 C 
ATOM      4  O   UNL A   1      32.414  35.397  31.299  1.00  0.00    -0.244 OA
BRANCH   3   5
ATOM      5  C   UNL A   1      34.569  34.925  32.157  1.00  0.00     0.194 A 
ATOM      6  C   UNL A   1      35.260  33.760  32.492  1.00  0.00     0.079 A 
ATOM      7  N   UNL A   1      36.057  34.168  33.553  1.00  0.00    -0.217 N 
ATOM      8  N   UNL A   1      34.869  35.907  33.068  1.00  0.00    -0.122 NA
ATOM      9  N   UNL A   1      35.680  35.395  33.976  1.00  0.00    -0.061 NA
BRANCH   6  10
ATOM     10  C   UNL A   1      35.101  32.383  31.916  1.00  0.00     0.055 C 
ATOM     11  C   UNL A   1      36.217  31.371  32.093  1.00  0.00     0.011 C 
ENDBRANCH   6  10
BRANCH   7  12
ATOM     12  C   UNL A   1      37.200  33.572  34.118  1.00  0.00     0.067 A 
ATOM     13  C   UNL A   1      38.437  33.709  33.482  1.00  0.00     0.032 A 
ATOM     14  C   UNL A   1      37.084  32.811  35.284  1.00  0.00     0.032 A 
ATOM     15  C   UNL A   1      39.575  33.167  34.083  1.00  0.00     0.048 A 
ATOM     16  C   UNL A   1      38.224  32.252  35.863  1.00  0.00     0.048 A 
ATOM     17  C   UNL A   1      39.478  32.456  35.283  1.00  0.00     0.119 A 
BRANCH  17  18
ATOM     18  O   UNL A   1      40.668  32.004  35.785  1.00  0.00    -0.497 OA
ATOM     19  C   UNL A   1      41.434  32.940  36.533  1.00  0.00     0.278 C 
ENDBRANCH  17  18
ENDBRANCH   7  12
ENDBRANCH   3   5
ENDBRANCH   2   3
ENDBRANCH   1   2
BRANCH   1  20
ATOM     20  C   UNL A   1      33.240  33.669  28.027  1.00  0.00     0.275 C 
BRANCH  20  21
ATOM     21  O   UNL A   1      34.130  32.743  28.655  1.00  0.00    -0.458 OA
BRANCH  21  22
ATOM     22  C   UNL A   1      34.238  31.545  28.035  1.00  0.00     0.338 C 
ATOM     23  O   UNL A   1      33.324  30.826  27.667  1.00  0.00    -0.246 OA
BRANCH  22  24
ATOM     24  C   UNL A   1      35.641  31.111  28.078  1.00  0.00     0.060 A 
ATOM     25  C   UNL A   1      35.917  29.742  28.034  1.00  0.00     0.016 A 
ATOM     26  C   UNL A   1      36.640  32.047  28.387  1.00  0.00     0.016 A 
ATOM     27  C   UNL A   1      37.181  29.305  28.394  1.00  0.00     0.010 A 
ATOM     28  C   UNL A   1      37.892  31.610  28.761  1.00  0.00     0.010 A 
ATOM     29  C   UNL A   1      38.141  30.241  28.804  1.00  0.00    -0.014 A 
BRANCH  29  30
ATOM     30  C   UNL A   1      39.469  29.764  29.151  1.00  0.00     0.031 A 
ATOM     31  C   UNL A   1      39.715  29.689  30.606  1.00  0.00     0.074 A 
ATOM     32  C   UNL A   1      40.347  29.263  28.262  1.00  0.00     0.049 A 
ATOM     33  N   UNL A   1      40.562  30.374  31.298  1.00  0.00    -0.248 NA
ATOM     34  C   UNL A   1      38.841  28.815  31.405  1.00  0.00     0.031 C 
ATOM     35  C   UNL A   1      40.091  28.954  26.852  1.00  0.00     0.029 A 
ATOM     36  N   UNL A   1      41.623  28.813  28.458  1.00  0.00    -0.354 N 
ATOM     37  C   UNL A   1      40.476  29.867  32.589  1.00  0.00     0.074 A 
ATOM     38  C   UNL A   1      39.292  29.048  32.637  1.00  0.00     0.031 C 
ATOM     39  C   UNL A   1      41.090  28.176  26.382  1.00  0.00     0.029 A 
ATOM     40  C   UNL A   1      42.118  28.060  27.404  1.00  0.00     0.049 A 
ATOM     41  H   UNL A   1      42.141  29.006  29.272  1.00  0.00     0.167 HD
ATOM     42  C   UNL A   1      41.553  29.895  33.417  1.00  0.00     0.031 A 
ATOM     43  C   UNL A   1      43.275  27.359  27.371  1.00  0.00     0.031 A 
ATOM     44  C   UNL A   1      42.577  30.786  32.940  1.00  0.00     0.049 A 
ATOM     45  C   UNL A   1      44.188  27.893  28.402  1.00  0.00     0.074 A 
ATOM     46  C   UNL A   1      42.819  32.140  32.915  1.00  0.00     0.029 A 
ATOM     47  N   UNL A   1      43.440  30.200  32.055  1.00  0.00    -0.354 N 
ATOM     48  N   UNL A   1      44.731  29.073  28.335  1.00  0.00    -0.248 NA
ATOM     49  C   UNL A   1      44.311  27.218  29.690  1.00  0.00     0.031 C 
ATOM     50  C   UNL A   1      43.769  32.358  31.870  1.00  0.00     0.029 A 
ATOM     51  C   UNL A   1      44.090  31.132  31.293  1.00  0.00     0.049 A 
ATOM     52  H   UNL A   1      43.575  29.228  31.976  1.00  0.00     0.167 HD
ATOM     53  C   UNL A   1      44.868  29.457  29.654  1.00  0.00     0.074 A 
ATOM     54  C   UNL A   1      44.785  28.226  30.427  1.00  0.00     0.031 C 
ATOM     55  C   UNL A   1      44.683  30.754  30.029  1.00  0.00     0.031 A 
BRANCH  42  56
ATOM     56  C   UNL A   1      41.919  28.737  34.321  1.00  0.00    -0.014 A 
ATOM     57  C   UNL A   1      42.297  27.522  33.721  1.00  0.00     0.009 A 
ATOM     58  C   UNL A   1      41.599  28.691  35.692  1.00  0.00     0.009 A 
ATOM     59  C   UNL A   1      42.297  26.322  34.442  1.00  0.00     0.001 A 
ATOM     60  C   UNL A   1      41.633  27.501  36.424  1.00  0.00     0.001 A 
ATOM     61  C   UNL A   1      41.959  26.311  35.792  1.00  0.00     0.000 A 
ENDBRANCH  42  56
BRANCH  43  62
ATOM     62  C   UNL A   1      43.611  26.150  26.597  1.00  0.00    -0.014 A 
ATOM     63  C   UNL A   1      44.666  26.159  25.673  1.00  0.00     0.009 A 
ATOM     64  C   UNL A   1      43.062  24.906  26.962  1.00  0.00     0.009 A 
ATOM     65  C   UNL A   1      45.186  24.964  25.165  1.00  0.00     0.001 A 
ATOM     66  C   UNL A   1      43.579  23.713  26.451  1.00  0.00     0.001 A 
ATOM     67  C   UNL A   1      44.652  23.740  25.566  1.00  0.00     0.000 A 
ENDBRANCH  43  62
BRANCH  55  68
ATOM     68  C   UNL A   1      44.902  31.815  28.991  1.00  0.00    -0.014 A 
ATOM     69  C   UNL A   1      43.871  32.347  28.199  1.00  0.00     0.009 A 
ATOM     70  C   UNL A   1      46.198  32.328  28.841  1.00  0.00     0.009 A 
ATOM     71  C   UNL A   1      44.144  33.342  27.256  1.00  0.00     0.001 A 
ATOM     72  C   UNL A   1      46.464  33.337  27.915  1.00  0.00     0.001 A 
ATOM     73  C   UNL A   1      45.439  33.839  27.117  1.00  0.00     0.000 A 
ENDBRANCH  55  68
ENDBRANCH  29  30
ENDBRANCH  22  24
ENDBRANCH  21  22
ENDBRANCH  20  21
ENDBRANCH   1  20
TORSDOF 14
ENDMDL
