MODEL 1
REMARK VINA RESULT:     -10.3      0.000      0.000
REMARK SMILES O=C(OCCOC(=O)c1ccc(-c2c3nc(c(-c4ccccc4)c4ccc([nH]4)c(-c4ccccc4)c4nc(c(-c5ccccc5)c5ccc2[nH]5)C=C4)C=C3)cc1)c1ccc(-c2ccc(S(=O)(=O)[O-])cc2)cc1
REMARK SMILES IDX 4 1 3 2 2 3 1 4 57 5 58 6 72 7 59 8 71 9 60 10 61 11 62 12
REMARK SMILES IDX 70 13 63 14 69 15 64 16 65 17 66 18 67 19 68 20 5 21 6 22
REMARK SMILES IDX 7 23 8 24 9 25 10 26 56 27 11 28 55 29 12 30 13 31 14 32
REMARK SMILES IDX 49 33 15 34 54 35 48 36 50 37 16 38 53 39 47 40 46 41 17 43
REMARK SMILES IDX 39 44 24 45 38 46 25 47 28 48 37 49 51 50 26 51 27 52 36 54
REMARK SMILES IDX 52 55 29 56 18 57 19 58 23 59 20 60 22 61 21 62 40 63 41 64
REMARK SMILES IDX 45 65 42 66 44 67 43 68 30 69 31 70 35 71 32 72 34 73 33 74
REMARK H PARENT 50 42 28 53
REMARK Flexibility Score: inf
ROOT
ATOM      1  C   UNL A   1      33.173  37.290  29.965  1.00  0.00     0.275 C 
ENDROOT
BRANCH   1   2
ATOM      2  O   UNL A   1      32.328  36.862  31.048  1.00  0.00    -0.458 OA
BRANCH   2   3
ATOM      3  C   UNL A   1      32.636  36.391  32.278  1.00  0.00     0.338 C 
ATOM      4  O   UNL A   1      31.961  36.789  33.228  1.00  0.00    -0.246 OA
BRANCH   3   5
ATOM      5  C   UNL A   1      33.795  35.484  32.594  1.00  0.00     0.060 A 
ATOM      6  C   UNL A   1      35.151  35.779  32.457  1.00  0.00     0.016 A 
ATOM      7  C   UNL A   1      33.473  34.227  33.143  1.00  0.00     0.016 A 
ATOM      8  C   UNL A   1      36.140  34.914  32.939  1.00  0.00     0.009 A 
ATOM      9  C   UNL A   1      34.465  33.339  33.585  1.00  0.00     0.009 A 
ATOM     10  C   UNL A   1      35.814  33.695  33.535  1.00  0.00    -0.018 A 
BRANCH  10  11
ATOM     11  C   UNL A   1      36.877  32.842  34.073  1.00  0.00    -0.018 A 
ATOM     12  C   UNL A   1      37.742  33.325  35.073  1.00  0.00     0.010 A 
ATOM     13  C   UNL A   1      37.106  31.562  33.549  1.00  0.00     0.010 A 
ATOM     14  C   UNL A   1      38.827  32.570  35.515  1.00  0.00     0.020 A 
ATOM     15  C   UNL A   1      38.198  30.801  33.975  1.00  0.00     0.020 A 
ATOM     16  C   UNL A   1      39.058  31.318  34.946  1.00  0.00     0.054 A 
BRANCH  16  17
ATOM     17  S   UNL A   1      40.511  30.436  35.425  1.00  0.00     0.124 S 
ATOM     18  O   UNL A   1      41.500  31.408  35.831  1.00  0.00    -0.237 OA
ATOM     19  O   UNL A   1      40.110  29.348  36.290  1.00  0.00    -0.237 OA
ATOM     20  O   UNL A   1      41.067  29.740  34.078  1.00  0.00    -0.744 OA
ENDBRANCH  16  17
ENDBRANCH  10  11
ENDBRANCH   3   5
ENDBRANCH   2   3
ENDBRANCH   1   2
BRANCH   1  21
ATOM     21  C   UNL A   1      33.160  36.325  28.772  1.00  0.00     0.275 C 
BRANCH  21  22
ATOM     22  O   UNL A   1      32.527  35.066  29.076  1.00  0.00    -0.458 OA
BRANCH  22  23
ATOM     23  C   UNL A   1      32.935  34.011  28.323  1.00  0.00     0.338 C 
ATOM     24  O   UNL A   1      32.380  33.582  27.326  1.00  0.00    -0.246 OA
BRANCH  23  25
ATOM     25  C   UNL A   1      34.251  33.507  28.795  1.00  0.00     0.060 A 
ATOM     26  C   UNL A   1      35.383  33.810  28.030  1.00  0.00     0.016 A 
ATOM     27  C   UNL A   1      34.391  32.741  29.956  1.00  0.00     0.016 A 
ATOM     28  C   UNL A   1      36.647  33.331  28.405  1.00  0.00     0.010 A 
ATOM     29  C   UNL A   1      35.660  32.269  30.331  1.00  0.00     0.010 A 
ATOM     30  C   UNL A   1      36.800  32.540  29.552  1.00  0.00    -0.014 A 
BRANCH  30  31
ATOM     31  C   UNL A   1      38.117  31.918  29.882  1.00  0.00     0.031 A 
ATOM     32  C   UNL A   1      39.095  32.658  30.757  1.00  0.00     0.074 A 
ATOM     33  C   UNL A   1      38.466  30.698  29.428  1.00  0.00     0.049 A 
ATOM     34  N   UNL A   1      40.279  32.283  31.179  1.00  0.00    -0.248 NA
ATOM     35  C   UNL A   1      38.688  33.994  31.219  1.00  0.00     0.031 C 
ATOM     36  C   UNL A   1      37.629  29.833  28.603  1.00  0.00     0.029 A 
ATOM     37  N   UNL A   1      39.625  29.973  29.592  1.00  0.00    -0.354 N 
ATOM     38  C   UNL A   1      40.750  33.328  31.962  1.00  0.00     0.074 A 
ATOM     39  C   UNL A   1      39.753  34.377  31.908  1.00  0.00     0.031 C 
ATOM     40  C   UNL A   1      38.303  28.709  28.310  1.00  0.00     0.029 A 
ATOM     41  C   UNL A   1      39.626  28.769  28.929  1.00  0.00     0.049 A 
ATOM     42  H   UNL A   1      40.384  30.289  30.134  1.00  0.00     0.167 HD
ATOM     43  C   UNL A   1      41.892  33.407  32.687  1.00  0.00     0.031 A 
ATOM     44  C   UNL A   1      40.574  27.814  28.832  1.00  0.00     0.031 A 
ATOM     45  C   UNL A   1      42.903  32.385  32.750  1.00  0.00     0.049 A 
ATOM     46  C   UNL A   1      41.878  27.964  29.573  1.00  0.00     0.074 A 
ATOM     47  C   UNL A   1      44.071  32.378  33.496  1.00  0.00     0.029 A 
ATOM     48  N   UNL A   1      42.880  31.200  32.035  1.00  0.00    -0.354 N 
ATOM     49  N   UNL A   1      42.269  28.923  30.375  1.00  0.00    -0.248 NA
ATOM     50  C   UNL A   1      42.860  26.878  29.417  1.00  0.00     0.031 C 
ATOM     51  C   UNL A   1      44.785  31.217  33.184  1.00  0.00     0.029 A 
ATOM     52  C   UNL A   1      44.030  30.471  32.295  1.00  0.00     0.049 A 
ATOM     53  H   UNL A   1      42.155  30.918  31.431  1.00  0.00     0.167 HD
ATOM     54  C   UNL A   1      43.517  28.537  30.850  1.00  0.00     0.074 A 
ATOM     55  C   UNL A   1      43.818  27.253  30.254  1.00  0.00     0.031 C 
ATOM     56  C   UNL A   1      44.334  29.190  31.712  1.00  0.00     0.031 A 
BRANCH  43  57
ATOM     57  C   UNL A   1      42.115  34.667  33.473  1.00  0.00    -0.014 A 
ATOM     58  C   UNL A   1      41.584  34.821  34.764  1.00  0.00     0.009 A 
ATOM     59  C   UNL A   1      42.894  35.700  32.930  1.00  0.00     0.009 A 
ATOM     60  C   UNL A   1      41.796  36.001  35.479  1.00  0.00     0.001 A 
ATOM     61  C   UNL A   1      43.130  36.865  33.660  1.00  0.00     0.001 A 
ATOM     62  C   UNL A   1      42.572  37.019  34.928  1.00  0.00     0.000 A 
ENDBRANCH  43  57
BRANCH  44  63
ATOM     63  C   UNL A   1      40.334  26.599  28.005  1.00  0.00    -0.014 A 
ATOM     64  C   UNL A   1      39.611  25.513  28.522  1.00  0.00     0.009 A 
ATOM     65  C   UNL A   1      40.879  26.500  26.715  1.00  0.00     0.009 A 
ATOM     66  C   UNL A   1      39.469  24.338  27.779  1.00  0.00     0.001 A 
ATOM     67  C   UNL A   1      40.711  25.334  25.964  1.00  0.00     0.001 A 
ATOM     68  C   UNL A   1      40.017  24.251  26.500  1.00  0.00     0.000 A 
ENDBRANCH  44  63
BRANCH  56  69
ATOM     69  C   UNL A   1      45.617  28.513  32.114  1.00  0.00    -0.014 A 
ATOM     70  C   UNL A   1      45.687  27.677  33.240  1.00  0.00     0.009 A 
ATOM     71  C   UNL A   1      46.764  28.673  31.320  1.00  0.00     0.009 A 
ATOM     72  C   UNL A   1      46.886  27.042  33.576  1.00  0.00     0.001 A 
ATOM     73  C   UNL A   1      47.952  28.013  31.641  1.00  0.00     0.001 A 
ATOM     74  C   UNL A   1      48.014  27.205  32.773  1.00  0.00     0.000 A 
ENDBRANCH  56  69
ENDBRANCH  30  31
ENDBRANCH  23  25
ENDBRANCH  22  23
ENDBRANCH  21  22
ENDBRANCH   1  21
TORSDOF 13
ENDMDL
MODEL 2
REMARK VINA RESULT:      -9.0      4.999     11.591
REMARK SMILES O=C(OCCOC(=O)c1ccc(-c2c3nc(c(-c4ccccc4)c4ccc([nH]4)c(-c4ccccc4)c4nc(c(-c5ccccc5)c5ccc2[nH]5)C=C4)C=C3)cc1)c1ccc(-c2ccc(S(=O)(=O)[O-])cc2)cc1
REMARK SMILES IDX 4 1 3 2 2 3 1 4 57 5 58 6 72 7 59 8 71 9 60 10 61 11 62 12
REMARK SMILES IDX 70 13 63 14 69 15 64 16 65 17 66 18 67 19 68 20 5 21 6 22
REMARK SMILES IDX 7 23 8 24 9 25 10 26 56 27 11 28 55 29 12 30 13 31 14 32
REMARK SMILES IDX 49 33 15 34 54 35 48 36 50 37 16 38 53 39 47 40 46 41 17 43
REMARK SMILES IDX 39 44 24 45 38 46 25 47 28 48 37 49 51 50 26 51 27 52 36 54
REMARK SMILES IDX 52 55 29 56 18 57 19 58 23 59 20 60 22 61 21 62 40 63 41 64
REMARK SMILES IDX 45 65 42 66 44 67 43 68 30 69 31 70 35 71 32 72 34 73 33 74
REMARK H PARENT 50 42 28 53
REMARK Flexibility Score: inf
ROOT
ATOM      1  C   UNL A   1      44.482  18.948  24.344  1.00  0.00     0.275 C 
ENDROOT
BRANCH   1   2
ATOM      2  O   UNL A   1      44.743  20.301  23.933  1.00  0.00    -0.458 OA
BRANCH   2   3
ATOM      3  C   UNL A   1      45.731  21.158  24.282  1.00  0.00     0.338 C 
ATOM      4  O   UNL A   1      46.859  20.693  24.449  1.00  0.00    -0.246 OA
BRANCH   3   5
ATOM      5  C   UNL A   1      45.545  22.624  24.568  1.00  0.00     0.060 A 
ATOM      6  C   UNL A   1      44.335  23.302  24.718  1.00  0.00     0.016 A 
ATOM      7  C   UNL A   1      46.720  23.376  24.766  1.00  0.00     0.016 A 
ATOM      8  C   UNL A   1      44.291  24.633  25.146  1.00  0.00     0.009 A 
ATOM      9  C   UNL A   1      46.678  24.724  25.151  1.00  0.00     0.009 A 
ATOM     10  C   UNL A   1      45.458  25.357  25.396  1.00  0.00    -0.018 A 
BRANCH  10  11
ATOM     11  C   UNL A   1      45.367  26.733  25.893  1.00  0.00    -0.018 A 
ATOM     12  C   UNL A   1      44.144  27.427  25.849  1.00  0.00     0.010 A 
ATOM     13  C   UNL A   1      46.508  27.410  26.344  1.00  0.00     0.010 A 
ATOM     14  C   UNL A   1      44.064  28.771  26.211  1.00  0.00     0.020 A 
ATOM     15  C   UNL A   1      46.442  28.761  26.697  1.00  0.00     0.020 A 
ATOM     16  C   UNL A   1      45.222  29.434  26.615  1.00  0.00     0.054 A 
BRANCH  16  17
ATOM     17  S   UNL A   1      45.124  31.167  26.942  1.00  0.00     0.124 S 
ATOM     18  O   UNL A   1      43.838  31.427  27.546  1.00  0.00    -0.237 OA
ATOM     19  O   UNL A   1      46.360  31.575  27.573  1.00  0.00    -0.237 OA
ATOM     20  O   UNL A   1      45.114  31.887  25.496  1.00  0.00    -0.744 OA
ENDBRANCH  16  17
ENDBRANCH  10  11
ENDBRANCH   3   5
ENDBRANCH   2   3
ENDBRANCH   1   2
BRANCH   1  21
ATOM     21  C   UNL A   1      43.367  18.841  25.394  1.00  0.00     0.275 C 
BRANCH  21  22
ATOM     22  O   UNL A   1      42.175  19.560  25.020  1.00  0.00    -0.458 OA
BRANCH  22  23
ATOM     23  C   UNL A   1      41.266  19.738  26.015  1.00  0.00     0.338 C 
ATOM     24  O   UNL A   1      40.449  18.916  26.397  1.00  0.00    -0.246 OA
BRANCH  23  25
ATOM     25  C   UNL A   1      41.478  21.042  26.693  1.00  0.00     0.060 A 
ATOM     26  C   UNL A   1      41.116  22.207  26.005  1.00  0.00     0.016 A 
ATOM     27  C   UNL A   1      42.031  21.145  27.972  1.00  0.00     0.016 A 
ATOM     28  C   UNL A   1      41.326  23.469  26.579  1.00  0.00     0.010 A 
ATOM     29  C   UNL A   1      42.234  22.411  28.546  1.00  0.00     0.010 A 
ATOM     30  C   UNL A   1      41.903  23.589  27.850  1.00  0.00    -0.014 A 
BRANCH  30  31
ATOM     31  C   UNL A   1      42.251  24.930  28.409  1.00  0.00     0.031 A 
ATOM     32  C   UNL A   1      43.668  25.218  28.833  1.00  0.00     0.074 A 
ATOM     33  C   UNL A   1      41.334  25.909  28.543  1.00  0.00     0.049 A 
ATOM     34  N   UNL A   1      44.179  26.324  29.319  1.00  0.00    -0.248 NA
ATOM     35  C   UNL A   1      44.636  24.121  28.688  1.00  0.00     0.031 C 
ATOM     36  C   UNL A   1      39.933  25.812  28.152  1.00  0.00     0.029 A 
ATOM     37  N   UNL A   1      41.446  27.183  29.054  1.00  0.00    -0.354 N 
ATOM     38  C   UNL A   1      45.526  26.058  29.527  1.00  0.00     0.074 A 
ATOM     39  C   UNL A   1      45.740  24.670  29.172  1.00  0.00     0.031 C 
ATOM     40  C   UNL A   1      39.305  26.960  28.457  1.00  0.00     0.029 A 
ATOM     41  C   UNL A   1      40.262  27.882  29.066  1.00  0.00     0.049 A 
ATOM     42  H   UNL A   1      42.295  27.558  29.382  1.00  0.00     0.167 HD
ATOM     43  C   UNL A   1      46.508  26.892  29.946  1.00  0.00     0.031 A 
ATOM     44  C   UNL A   1      39.973  29.124  29.506  1.00  0.00     0.031 A 
ATOM     45  C   UNL A   1      46.320  28.271  30.314  1.00  0.00     0.049 A 
ATOM     46  C   UNL A   1      41.065  30.005  30.056  1.00  0.00     0.074 A 
ATOM     47  C   UNL A   1      47.277  29.190  30.712  1.00  0.00     0.029 A 
ATOM     48  N   UNL A   1      45.101  28.925  30.347  1.00  0.00    -0.354 N 
ATOM     49  N   UNL A   1      42.348  29.762  30.167  1.00  0.00    -0.248 NA
ATOM     50  C   UNL A   1      40.670  31.347  30.515  1.00  0.00     0.031 C 
ATOM     51  C   UNL A   1      46.629  30.383  31.045  1.00  0.00     0.029 A 
ATOM     52  C   UNL A   1      45.276  30.226  30.791  1.00  0.00     0.049 A 
ATOM     53  H   UNL A   1      44.238  28.526  30.092  1.00  0.00     0.167 HD
ATOM     54  C   UNL A   1      42.915  30.930  30.665  1.00  0.00     0.074 A 
ATOM     55  C   UNL A   1      41.840  31.885  30.828  1.00  0.00     0.031 C 
ATOM     56  C   UNL A   1      44.214  31.185  30.950  1.00  0.00     0.031 A 
BRANCH  43  57
ATOM     57  C   UNL A   1      47.894  26.320  30.041  1.00  0.00    -0.014 A 
ATOM     58  C   UNL A   1      48.743  26.286  28.924  1.00  0.00     0.009 A 
ATOM     59  C   UNL A   1      48.368  25.841  31.272  1.00  0.00     0.009 A 
ATOM     60  C   UNL A   1      50.026  25.747  29.028  1.00  0.00     0.001 A 
ATOM     61  C   UNL A   1      49.662  25.331  31.380  1.00  0.00     0.001 A 
ATOM     62  C   UNL A   1      50.485  25.274  30.256  1.00  0.00     0.000 A 
ENDBRANCH  43  57
BRANCH  44  63
ATOM     63  C   UNL A   1      38.578  29.639  29.438  1.00  0.00    -0.014 A 
ATOM     64  C   UNL A   1      37.713  29.509  30.536  1.00  0.00     0.009 A 
ATOM     65  C   UNL A   1      38.090  30.212  28.254  1.00  0.00     0.009 A 
ATOM     66  C   UNL A   1      36.377  29.907  30.437  1.00  0.00     0.001 A 
ATOM     67  C   UNL A   1      36.761  30.636  28.167  1.00  0.00     0.001 A 
ATOM     68  C   UNL A   1      35.904  30.473  29.254  1.00  0.00     0.000 A 
ENDBRANCH  44  63
BRANCH  56  69
ATOM     69  C   UNL A   1      44.572  32.569  31.423  1.00  0.00    -0.014 A 
ATOM     70  C   UNL A   1      44.603  32.895  32.788  1.00  0.00     0.009 A 
ATOM     71  C   UNL A   1      44.939  33.549  30.486  1.00  0.00     0.009 A 
ATOM     72  C   UNL A   1      44.964  34.181  33.200  1.00  0.00     0.001 A 
ATOM     73  C   UNL A   1      45.329  34.824  30.903  1.00  0.00     0.001 A 
ATOM     74  C   UNL A   1      45.332  35.141  32.259  1.00  0.00     0.000 A 
ENDBRANCH  56  69
ENDBRANCH  30  31
ENDBRANCH  23  25
ENDBRANCH  22  23
ENDBRANCH  21  22
ENDBRANCH   1  21
TORSDOF 13
ENDMDL
MODEL 3
REMARK VINA RESULT:      -9.0      4.932     11.198
REMARK SMILES O=C(OCCOC(=O)c1ccc(-c2c3nc(c(-c4ccccc4)c4ccc([nH]4)c(-c4ccccc4)c4nc(c(-c5ccccc5)c5ccc2[nH]5)C=C4)C=C3)cc1)c1ccc(-c2ccc(S(=O)(=O)[O-])cc2)cc1
REMARK SMILES IDX 4 1 3 2 2 3 1 4 57 5 58 6 72 7 59 8 71 9 60 10 61 11 62 12
REMARK SMILES IDX 70 13 63 14 69 15 64 16 65 17 66 18 67 19 68 20 5 21 6 22
REMARK SMILES IDX 7 23 8 24 9 25 10 26 56 27 11 28 55 29 12 30 13 31 14 32
REMARK SMILES IDX 49 33 15 34 54 35 48 36 50 37 16 38 53 39 47 40 46 41 17 43
REMARK SMILES IDX 39 44 24 45 38 46 25 47 28 48 37 49 51 50 26 51 27 52 36 54
REMARK SMILES IDX 52 55 29 56 18 57 19 58 23 59 20 60 22 61 21 62 40 63 41 64
REMARK SMILES IDX 45 65 42 66 44 67 43 68 30 69 31 70 35 71 32 72 34 73 33 74
REMARK H PARENT 50 42 28 53
REMARK Flexibility Score: inf
ROOT
ATOM      1  C   UNL A   1      43.101  21.105  25.903  1.00  0.00     0.275 C 
ENDROOT
BRANCH   1   2
ATOM      2  O   UNL A   1      41.735  21.487  25.657  1.00  0.00    -0.458 OA
BRANCH   2   3
ATOM      3  C   UNL A   1      40.648  21.452  26.461  1.00  0.00     0.338 C 
ATOM      4  O   UNL A   1      40.726  20.799  27.502  1.00  0.00    -0.246 OA
BRANCH   3   5
ATOM      5  C   UNL A   1      39.315  22.076  26.143  1.00  0.00     0.060 A 
ATOM      6  C   UNL A   1      38.910  23.379  26.430  1.00  0.00     0.016 A 
ATOM      7  C   UNL A   1      38.405  21.274  25.425  1.00  0.00     0.016 A 
ATOM      8  C   UNL A   1      37.707  23.896  25.938  1.00  0.00     0.009 A 
ATOM      9  C   UNL A   1      37.177  21.778  24.971  1.00  0.00     0.009 A 
ATOM     10  C   UNL A   1      36.835  23.115  25.178  1.00  0.00    -0.018 A 
BRANCH  10  11
ATOM     11  C   UNL A   1      35.609  23.710  24.639  1.00  0.00    -0.018 A 
ATOM     12  C   UNL A   1      34.889  24.660  25.387  1.00  0.00     0.010 A 
ATOM     13  C   UNL A   1      35.086  23.288  23.409  1.00  0.00     0.010 A 
ATOM     14  C   UNL A   1      33.663  25.151  24.939  1.00  0.00     0.020 A 
ATOM     15  C   UNL A   1      33.853  23.763  22.957  1.00  0.00     0.020 A 
ATOM     16  C   UNL A   1      33.144  24.682  23.733  1.00  0.00     0.054 A 
BRANCH  16  17
ATOM     17  S   UNL A   1      31.532  25.217  23.251  1.00  0.00     0.124 S 
ATOM     18  O   UNL A   1      30.678  24.052  23.207  1.00  0.00    -0.237 OA
ATOM     19  O   UNL A   1      31.192  26.383  24.037  1.00  0.00    -0.237 OA
ATOM     20  O   UNL A   1      31.680  25.744  21.731  1.00  0.00    -0.744 OA
ENDBRANCH  16  17
ENDBRANCH  10  11
ENDBRANCH   3   5
ENDBRANCH   2   3
ENDBRANCH   1   2
BRANCH   1  21
ATOM     21  C   UNL A   1      44.108  21.882  25.043  1.00  0.00     0.275 C 
BRANCH  21  22
ATOM     22  O   UNL A   1      43.615  23.174  24.633  1.00  0.00    -0.458 OA
BRANCH  22  23
ATOM     23  C   UNL A   1      44.378  24.234  25.008  1.00  0.00     0.338 C 
ATOM     24  O   UNL A   1      45.450  24.556  24.522  1.00  0.00    -0.246 OA
BRANCH  23  25
ATOM     25  C   UNL A   1      43.670  25.058  26.021  1.00  0.00     0.060 A 
ATOM     26  C   UNL A   1      44.136  26.358  26.254  1.00  0.00     0.016 A 
ATOM     27  C   UNL A   1      42.578  24.580  26.750  1.00  0.00     0.016 A 
ATOM     28  C   UNL A   1      43.532  27.170  27.224  1.00  0.00     0.010 A 
ATOM     29  C   UNL A   1      41.971  25.399  27.717  1.00  0.00     0.010 A 
ATOM     30  C   UNL A   1      42.451  26.696  27.980  1.00  0.00    -0.014 A 
BRANCH  30  31
ATOM     31  C   UNL A   1      41.891  27.505  29.104  1.00  0.00     0.031 A 
ATOM     32  C   UNL A   1      42.543  27.452  30.461  1.00  0.00     0.074 A 
ATOM     33  C   UNL A   1      40.813  28.299  28.945  1.00  0.00     0.049 A 
ATOM     34  N   UNL A   1      42.225  28.095  31.559  1.00  0.00    -0.248 NA
ATOM     35  C   UNL A   1      43.706  26.562  30.600  1.00  0.00     0.031 C 
ATOM     36  C   UNL A   1      40.085  28.494  27.697  1.00  0.00     0.029 A 
ATOM     37  N   UNL A   1      40.136  29.088  29.848  1.00  0.00    -0.354 N 
ATOM     38  C   UNL A   1      43.152  27.696  32.513  1.00  0.00     0.074 A 
ATOM     39  C   UNL A   1      44.006  26.711  31.882  1.00  0.00     0.031 C 
ATOM     40  C   UNL A   1      39.050  29.324  27.910  1.00  0.00     0.029 A 
ATOM     41  C   UNL A   1      39.040  29.725  29.316  1.00  0.00     0.049 A 
ATOM     42  H   UNL A   1      40.411  29.187  30.788  1.00  0.00     0.167 HD
ATOM     43  C   UNL A   1      43.306  28.124  33.789  1.00  0.00     0.031 A 
ATOM     44  C   UNL A   1      38.132  30.545  29.884  1.00  0.00     0.031 A 
ATOM     45  C   UNL A   1      42.466  29.093  34.442  1.00  0.00     0.049 A 
ATOM     46  C   UNL A   1      38.268  30.937  31.333  1.00  0.00     0.074 A 
ATOM     47  C   UNL A   1      42.584  29.606  35.724  1.00  0.00     0.029 A 
ATOM     48  N   UNL A   1      41.348  29.683  33.879  1.00  0.00    -0.354 N 
ATOM     49  N   UNL A   1      39.201  30.613  32.194  1.00  0.00    -0.248 NA
ATOM     50  C   UNL A   1      37.237  31.836  31.879  1.00  0.00     0.031 C 
ATOM     51  C   UNL A   1      41.502  30.460  35.958  1.00  0.00     0.029 A 
ATOM     52  C   UNL A   1      40.747  30.528  34.798  1.00  0.00     0.049 A 
ATOM     53  H   UNL A   1      41.027  29.526  32.961  1.00  0.00     0.167 HD
ATOM     54  C   UNL A   1      38.893  31.299  33.364  1.00  0.00     0.074 A 
ATOM     55  C   UNL A   1      37.693  32.065  33.102  1.00  0.00     0.031 C 
ATOM     56  C   UNL A   1      39.557  31.299  34.545  1.00  0.00     0.031 A 
BRANCH  43  57
ATOM     57  C   UNL A   1      44.436  27.527  34.577  1.00  0.00    -0.014 A 
ATOM     58  C   UNL A   1      45.698  28.141  34.614  1.00  0.00     0.009 A 
ATOM     59  C   UNL A   1      44.227  26.354  35.319  1.00  0.00     0.009 A 
ATOM     60  C   UNL A   1      46.740  27.570  35.348  1.00  0.00     0.001 A 
ATOM     61  C   UNL A   1      45.262  25.804  36.076  1.00  0.00     0.001 A 
ATOM     62  C   UNL A   1      46.519  26.405  36.081  1.00  0.00     0.000 A 
ENDBRANCH  43  57
BRANCH  44  63
ATOM     63  C   UNL A   1      36.998  31.081  29.082  1.00  0.00    -0.014 A 
ATOM     64  C   UNL A   1      36.988  32.420  28.662  1.00  0.00     0.009 A 
ATOM     65  C   UNL A   1      35.893  30.268  28.783  1.00  0.00     0.009 A 
ATOM     66  C   UNL A   1      35.880  32.945  27.991  1.00  0.00     0.001 A 
ATOM     67  C   UNL A   1      34.799  30.787  28.087  1.00  0.00     0.001 A 
ATOM     68  C   UNL A   1      34.788  32.127  27.702  1.00  0.00     0.000 A 
ENDBRANCH  44  63
BRANCH  56  69
ATOM     69  C   UNL A   1      39.041  32.189  35.643  1.00  0.00    -0.014 A 
ATOM     70  C   UNL A   1      38.168  31.709  36.631  1.00  0.00     0.009 A 
ATOM     71  C   UNL A   1      39.481  33.521  35.721  1.00  0.00     0.009 A 
ATOM     72  C   UNL A   1      37.724  32.551  37.654  1.00  0.00     0.001 A 
ATOM     73  C   UNL A   1      39.060  34.352  36.761  1.00  0.00     0.001 A 
ATOM     74  C   UNL A   1      38.175  33.869  37.722  1.00  0.00     0.000 A 
ENDBRANCH  56  69
ENDBRANCH  30  31
ENDBRANCH  23  25
ENDBRANCH  22  23
ENDBRANCH  21  22
ENDBRANCH   1  21
TORSDOF 13
ENDMDL
