MODEL 1
REMARK VINA RESULT:     -12.9      0.000      0.000
REMARK SMILES O=C(OCCOC(=O)c1cc(Cl)c2c(c1)[C@H]1C=CC[C@H]1[C@H](c1ccc(S(=O)(=O)N3CCOCC3)cc1)N2)c1ccc(-c2c3nc(c(-c4ccccc4)c4ccc([nH]4)c(-c4ccccc4)c4nc(c(-c5ccccc5)c5ccc2[nH]5)C=C4)C=C3)cc1
REMARK SMILES IDX 5 1 4 2 3 3 2 4 1 5 38 6 39 7 85 8 40 9 84 10 41 11 42 12
REMARK SMILES IDX 43 13 78 14 44 15 83 16 77 17 79 18 45 19 82 20 76 21 75 22
REMARK SMILES IDX 46 24 68 25 53 26 67 27 54 28 57 29 66 30 80 31 55 32 56 33
REMARK SMILES IDX 65 35 81 36 58 37 47 38 48 39 52 40 49 41 51 42 50 43 69 44
REMARK SMILES IDX 70 45 74 46 71 47 73 48 72 49 59 50 60 51 64 52 61 53 63 54
REMARK SMILES IDX 62 55 6 56 7 57 8 58 9 59 10 60 15 61 11 62 14 63 12 64
REMARK SMILES IDX 13 65 16 66 37 67 17 68 20 69 21 70 18 72 19 73 22 74 23 75
REMARK SMILES IDX 36 76 24 77 35 78 25 79 26 80 27 81 28 82 29 83 30 84 34 85
REMARK SMILES IDX 31 86 33 87 32 88
REMARK H PARENT 79 23 57 34 37 71
REMARK Flexibility Score: inf
ROOT
ATOM      1  C   UNL A   1      43.174  20.733  25.989  1.00  0.00     0.275 C 
ENDROOT
BRANCH   1   2
ATOM      2  C   UNL A   1      43.720  21.863  25.103  1.00  0.00     0.275 C 
BRANCH   2   3
ATOM      3  O   UNL A   1      44.409  22.903  25.811  1.00  0.00    -0.458 OA
BRANCH   3   4
ATOM      4  C   UNL A   1      44.358  24.236  25.588  1.00  0.00     0.338 C 
ATOM      5  O   UNL A   1      44.964  24.705  24.625  1.00  0.00    -0.246 OA
BRANCH   4   6
ATOM      6  C   UNL A   1      43.762  25.196  26.573  1.00  0.00     0.060 A 
ATOM      7  C   UNL A   1      44.064  26.552  26.709  1.00  0.00     0.016 A 
ATOM      8  C   UNL A   1      42.782  24.662  27.423  1.00  0.00     0.016 A 
ATOM      9  C   UNL A   1      43.342  27.371  27.578  1.00  0.00     0.010 A 
ATOM     10  C   UNL A   1      42.055  25.466  28.303  1.00  0.00     0.010 A 
ATOM     11  C   UNL A   1      42.345  26.828  28.386  1.00  0.00    -0.014 A 
BRANCH  11  12
ATOM     12  C   UNL A   1      41.860  27.620  29.530  1.00  0.00     0.031 A 
ATOM     13  C   UNL A   1      40.609  28.408  29.313  1.00  0.00     0.074 A 
ATOM     14  C   UNL A   1      42.432  27.555  30.744  1.00  0.00     0.049 A 
ATOM     15  N   UNL A   1      39.927  29.108  30.174  1.00  0.00    -0.248 NA
ATOM     16  C   UNL A   1      40.011  28.346  27.965  1.00  0.00     0.031 C 
ATOM     17  C   UNL A   1      43.540  26.682  31.103  1.00  0.00     0.029 A 
ATOM     18  N   UNL A   1      42.152  28.228  31.904  1.00  0.00    -0.354 N 
ATOM     19  C   UNL A   1      38.790  29.508  29.493  1.00  0.00     0.074 A 
ATOM     20  C   UNL A   1      38.896  29.037  28.134  1.00  0.00     0.031 C 
ATOM     21  C   UNL A   1      43.898  26.920  32.376  1.00  0.00     0.029 A 
ATOM     22  C   UNL A   1      43.033  27.955  32.922  1.00  0.00     0.049 A 
ATOM     23  H   UNL A   1      41.392  28.847  32.000  1.00  0.00     0.167 HD
ATOM     24  C   UNL A   1      37.728  30.179  29.979  1.00  0.00     0.031 A 
ATOM     25  C   UNL A   1      43.129  28.483  34.157  1.00  0.00     0.031 A 
ATOM     26  C   UNL A   1      37.655  30.683  31.317  1.00  0.00     0.049 A 
ATOM     27  C   UNL A   1      42.057  29.433  34.602  1.00  0.00     0.074 A 
ATOM     28  C   UNL A   1      36.647  31.427  31.896  1.00  0.00     0.029 A 
ATOM     29  N   UNL A   1      38.643  30.510  32.273  1.00  0.00    -0.354 N 
ATOM     30  N   UNL A   1      40.983  29.809  33.951  1.00  0.00    -0.248 NA
ATOM     31  C   UNL A   1      42.179  30.000  35.951  1.00  0.00     0.031 C 
ATOM     32  C   UNL A   1      37.054  31.758  33.190  1.00  0.00     0.029 A 
ATOM     33  C   UNL A   1      38.289  31.173  33.431  1.00  0.00     0.049 A 
ATOM     34  H   UNL A   1      39.470  29.992  32.147  1.00  0.00     0.167 HD
ATOM     35  C   UNL A   1      40.277  30.622  34.823  1.00  0.00     0.074 A 
ATOM     36  C   UNL A   1      41.050  30.693  36.047  1.00  0.00     0.031 C 
ATOM     37  C   UNL A   1      39.085  31.236  34.630  1.00  0.00     0.031 A 
BRANCH  24  38
ATOM     38  C   UNL A   1      36.587  30.414  29.045  1.00  0.00    -0.014 A 
ATOM     39  C   UNL A   1      36.263  31.714  28.625  1.00  0.00     0.009 A 
ATOM     40  C   UNL A   1      35.842  29.329  28.567  1.00  0.00     0.009 A 
ATOM     41  C   UNL A   1      35.208  31.921  27.736  1.00  0.00     0.001 A 
ATOM     42  C   UNL A   1      34.800  29.538  27.666  1.00  0.00     0.001 A 
ATOM     43  C   UNL A   1      34.484  30.831  27.251  1.00  0.00     0.000 A 
ENDBRANCH  24  38
BRANCH  25  44
ATOM     44  C   UNL A   1      44.265  28.113  35.041  1.00  0.00    -0.014 A 
ATOM     45  C   UNL A   1      45.484  28.801  34.977  1.00  0.00     0.009 A 
ATOM     46  C   UNL A   1      44.121  27.074  35.977  1.00  0.00     0.009 A 
ATOM     47  C   UNL A   1      46.539  28.453  35.826  1.00  0.00     0.001 A 
ATOM     48  C   UNL A   1      45.172  26.738  36.834  1.00  0.00     0.001 A 
ATOM     49  C   UNL A   1      46.381  27.426  36.756  1.00  0.00     0.000 A 
ENDBRANCH  25  44
BRANCH  37  50
ATOM     50  C   UNL A   1      38.530  32.045  35.760  1.00  0.00    -0.014 A 
ATOM     51  C   UNL A   1      37.804  31.429  36.789  1.00  0.00     0.009 A 
ATOM     52  C   UNL A   1      38.857  33.406  35.865  1.00  0.00     0.009 A 
ATOM     53  C   UNL A   1      37.413  32.167  37.907  1.00  0.00     0.001 A 
ATOM     54  C   UNL A   1      38.488  34.132  36.995  1.00  0.00     0.001 A 
ATOM     55  C   UNL A   1      37.765  33.513  38.013  1.00  0.00     0.000 A 
ENDBRANCH  37  50
ENDBRANCH  11  12
ENDBRANCH   4   6
ENDBRANCH   3   4
ENDBRANCH   2   3
ENDBRANCH   1   2
BRANCH   1  56
ATOM     56  O   UNL A   1      41.928  21.025  26.643  1.00  0.00    -0.458 OA
BRANCH  56  57
ATOM     57  C   UNL A   1      40.842  20.381  26.138  1.00  0.00     0.338 C 
ATOM     58  O   UNL A   1      40.755  19.202  25.861  1.00  0.00    -0.246 OA
BRANCH  57  59
ATOM     59  C   UNL A   1      39.704  21.320  26.072  1.00  0.00     0.062 A 
ATOM     60  C   UNL A   1      39.813  22.615  26.563  1.00  0.00     0.038 A 
ATOM     61  C   UNL A   1      38.535  20.917  25.421  1.00  0.00     0.022 A 
ATOM     62  C   UNL A   1      38.718  23.477  26.443  1.00  0.00     0.065 A 
ATOM     63  C   UNL A   1      37.419  21.775  25.351  1.00  0.00    -0.015 A 
ATOM     64  Cl  UNL A   1      38.949  25.139  26.878  1.00  0.00    -0.082 Cl
ATOM     65  C   UNL A   1      37.473  23.040  25.938  1.00  0.00     0.057 A 
ATOM     66  C   UNL A   1      36.226  21.366  24.546  1.00  0.00     0.049 C 
ATOM     67  N   UNL A   1      36.373  23.883  25.918  1.00  0.00    -0.376 N 
ATOM     68  C   UNL A   1      35.313  20.332  25.144  1.00  0.00    -0.023 C 
ATOM     69  C   UNL A   1      35.237  22.504  24.196  1.00  0.00     0.031 C 
ATOM     70  C   UNL A   1      35.057  23.487  25.414  1.00  0.00     0.114 C 
ATOM     71  H   UNL A   1      36.482  24.798  26.264  1.00  0.00     0.161 HD
ATOM     72  C   UNL A   1      34.065  20.488  24.695  1.00  0.00    -0.030 C 
ATOM     73  C   UNL A   1      34.020  21.645  23.760  1.00  0.00     0.034 C 
BRANCH  70  74
ATOM     74  C   UNL A   1      34.260  24.766  25.074  1.00  0.00    -0.025 A 
ATOM     75  C   UNL A   1      33.881  25.199  23.781  1.00  0.00     0.007 A 
ATOM     76  C   UNL A   1      33.896  25.608  26.114  1.00  0.00     0.007 A 
ATOM     77  C   UNL A   1      33.164  26.404  23.576  1.00  0.00     0.022 A 
ATOM     78  C   UNL A   1      33.059  26.687  25.931  1.00  0.00     0.022 A 
ATOM     79  C   UNL A   1      32.739  27.141  24.676  1.00  0.00     0.082 A 
BRANCH  79  80
ATOM     80  S   UNL A   1      31.939  28.725  24.548  1.00  0.00     0.243 S 
ATOM     81  O   UNL A   1      31.181  28.894  25.773  1.00  0.00    -0.207 OA
ATOM     82  O   UNL A   1      32.952  29.667  24.139  1.00  0.00    -0.207 OA
BRANCH  80  83
ATOM     83  N   UNL A   1      30.820  28.558  23.287  1.00  0.00    -0.193 NA
ATOM     84  C   UNL A   1      30.829  29.453  22.112  1.00  0.00     0.131 C 
ATOM     85  C   UNL A   1      29.606  27.710  23.386  1.00  0.00     0.131 C 
ATOM     86  C   UNL A   1      29.523  30.247  22.031  1.00  0.00     0.177 C 
ATOM     87  C   UNL A   1      28.302  28.488  23.108  1.00  0.00     0.177 C 
ATOM     88  O   UNL A   1      28.380  29.381  21.992  1.00  0.00    -0.379 OA
ENDBRANCH  80  83
ENDBRANCH  79  80
ENDBRANCH  70  74
ENDBRANCH  57  59
ENDBRANCH  56  57
ENDBRANCH   1  56
TORSDOF 14
ENDMDL
MODEL 2
REMARK VINA RESULT:     -12.6      0.838      5.626
REMARK SMILES O=C(OCCOC(=O)c1cc(Cl)c2c(c1)[C@H]1C=CC[C@H]1[C@H](c1ccc(S(=O)(=O)N3CCOCC3)cc1)N2)c1ccc(-c2c3nc(c(-c4ccccc4)c4ccc([nH]4)c(-c4ccccc4)c4nc(c(-c5ccccc5)c5ccc2[nH]5)C=C4)C=C3)cc1
REMARK SMILES IDX 5 1 4 2 3 3 2 4 1 5 38 6 39 7 85 8 40 9 84 10 41 11 42 12
REMARK SMILES IDX 43 13 78 14 44 15 83 16 77 17 79 18 45 19 82 20 76 21 75 22
REMARK SMILES IDX 46 24 68 25 53 26 67 27 54 28 57 29 66 30 80 31 55 32 56 33
REMARK SMILES IDX 65 35 81 36 58 37 47 38 48 39 52 40 49 41 51 42 50 43 69 44
REMARK SMILES IDX 70 45 74 46 71 47 73 48 72 49 59 50 60 51 64 52 61 53 63 54
REMARK SMILES IDX 62 55 6 56 7 57 8 58 9 59 10 60 15 61 11 62 14 63 12 64
REMARK SMILES IDX 13 65 16 66 37 67 17 68 20 69 21 70 18 72 19 73 22 74 23 75
REMARK SMILES IDX 36 76 24 77 35 78 25 79 26 80 27 81 28 82 29 83 30 84 34 85
REMARK SMILES IDX 31 86 33 87 32 88
REMARK H PARENT 79 23 57 34 37 71
REMARK Flexibility Score: inf
ROOT
ATOM      1  C   UNL A   1      42.911  20.197  25.865  1.00  0.00     0.275 C 
ENDROOT
BRANCH   1   2
ATOM      2  C   UNL A   1      44.084  21.069  25.395  1.00  0.00     0.275 C 
BRANCH   2   3
ATOM      3  O   UNL A   1      43.737  22.423  25.074  1.00  0.00    -0.458 OA
BRANCH   3   4
ATOM      4  C   UNL A   1      44.384  23.555  25.434  1.00  0.00     0.338 C 
ATOM      5  O   UNL A   1      45.573  23.682  25.144  1.00  0.00    -0.246 OA
BRANCH   4   6
ATOM      6  C   UNL A   1      43.775  24.579  26.344  1.00  0.00     0.060 A 
ATOM      7  C   UNL A   1      44.106  25.932  26.424  1.00  0.00     0.016 A 
ATOM      8  C   UNL A   1      42.748  24.112  27.179  1.00  0.00     0.016 A 
ATOM      9  C   UNL A   1      43.372  26.811  27.221  1.00  0.00     0.010 A 
ATOM     10  C   UNL A   1      42.008  24.978  27.987  1.00  0.00     0.010 A 
ATOM     11  C   UNL A   1      42.329  26.335  28.013  1.00  0.00    -0.014 A 
BRANCH  11  12
ATOM     12  C   UNL A   1      41.821  27.195  29.096  1.00  0.00     0.031 A 
ATOM     13  C   UNL A   1      42.597  27.186  30.373  1.00  0.00     0.074 A 
ATOM     14  C   UNL A   1      40.788  28.036  28.923  1.00  0.00     0.049 A 
ATOM     15  N   UNL A   1      42.420  27.913  31.440  1.00  0.00    -0.248 NA
ATOM     16  C   UNL A   1      43.767  26.288  30.433  1.00  0.00     0.031 C 
ATOM     17  C   UNL A   1      40.082  28.250  27.668  1.00  0.00     0.029 A 
ATOM     18  N   UNL A   1      40.159  28.877  29.804  1.00  0.00    -0.354 N 
ATOM     19  C   UNL A   1      43.492  27.612  32.262  1.00  0.00     0.074 A 
ATOM     20  C   UNL A   1      44.280  26.593  31.614  1.00  0.00     0.031 C 
ATOM     21  C   UNL A   1      39.069  29.109  27.870  1.00  0.00     0.029 A 
ATOM     22  C   UNL A   1      39.066  29.512  29.269  1.00  0.00     0.049 A 
ATOM     23  H   UNL A   1      40.462  29.012  30.731  1.00  0.00     0.167 HD
ATOM     24  C   UNL A   1      43.811  28.174  33.445  1.00  0.00     0.031 A 
ATOM     25  C   UNL A   1      38.164  30.330  29.844  1.00  0.00     0.031 A 
ATOM     26  C   UNL A   1      42.996  29.150  34.102  1.00  0.00     0.049 A 
ATOM     27  C   UNL A   1      38.403  30.756  31.262  1.00  0.00     0.074 A 
ATOM     28  C   UNL A   1      43.197  29.744  35.331  1.00  0.00     0.029 A 
ATOM     29  N   UNL A   1      41.813  29.657  33.587  1.00  0.00    -0.354 N 
ATOM     30  N   UNL A   1      39.420  30.466  32.037  1.00  0.00    -0.248 NA
ATOM     31  C   UNL A   1      37.408  31.646  31.874  1.00  0.00     0.031 C 
ATOM     32  C   UNL A   1      42.100  30.567  35.590  1.00  0.00     0.029 A 
ATOM     33  C   UNL A   1      41.246  30.527  34.497  1.00  0.00     0.049 A 
ATOM     34  H   UNL A   1      41.435  29.432  32.707  1.00  0.00     0.167 HD
ATOM     35  C   UNL A   1      39.214  31.169  33.212  1.00  0.00     0.074 A 
ATOM     36  C   UNL A   1      37.968  31.893  33.053  1.00  0.00     0.031 C 
ATOM     37  C   UNL A   1      39.999  31.224  34.315  1.00  0.00     0.031 A 
BRANCH  24  38
ATOM     38  C   UNL A   1      45.077  27.721  34.094  1.00  0.00    -0.014 A 
ATOM     39  C   UNL A   1      46.287  28.388  33.847  1.00  0.00     0.009 A 
ATOM     40  C   UNL A   1      45.058  26.631  34.974  1.00  0.00     0.009 A 
ATOM     41  C   UNL A   1      47.459  27.969  34.475  1.00  0.00     0.001 A 
ATOM     42  C   UNL A   1      46.228  26.226  35.613  1.00  0.00     0.001 A 
ATOM     43  C   UNL A   1      47.426  26.894  35.364  1.00  0.00     0.000 A 
ENDBRANCH  24  38
BRANCH  25  44
ATOM     44  C   UNL A   1      36.979  30.792  29.076  1.00  0.00    -0.014 A 
ATOM     45  C   UNL A   1      36.850  32.131  28.680  1.00  0.00     0.009 A 
ATOM     46  C   UNL A   1      35.974  29.879  28.712  1.00  0.00     0.009 A 
ATOM     47  C   UNL A   1      35.737  32.548  27.944  1.00  0.00     0.001 A 
ATOM     48  C   UNL A   1      34.870  30.296  27.965  1.00  0.00     0.001 A 
ATOM     49  C   UNL A   1      34.751  31.630  27.583  1.00  0.00     0.000 A 
ENDBRANCH  25  44
BRANCH  37  50
ATOM     50  C   UNL A   1      39.545  32.091  35.447  1.00  0.00    -0.014 A 
ATOM     51  C   UNL A   1      40.004  33.410  35.562  1.00  0.00     0.009 A 
ATOM     52  C   UNL A   1      38.548  31.628  36.319  1.00  0.00     0.009 A 
ATOM     53  C   UNL A   1      39.469  34.254  36.537  1.00  0.00     0.001 A 
ATOM     54  C   UNL A   1      37.998  32.481  37.273  1.00  0.00     0.001 A 
ATOM     55  C   UNL A   1      38.460  33.792  37.382  1.00  0.00     0.000 A 
ENDBRANCH  37  50
ENDBRANCH  11  12
ENDBRANCH   4   6
ENDBRANCH   3   4
ENDBRANCH   2   3
ENDBRANCH   1   2
BRANCH   1  56
ATOM     56  O   UNL A   1      41.717  20.921  26.208  1.00  0.00    -0.458 OA
BRANCH  56  57
ATOM     57  C   UNL A   1      40.551  20.278  25.937  1.00  0.00     0.338 C 
ATOM     58  O   UNL A   1      40.388  19.082  25.805  1.00  0.00    -0.246 OA
BRANCH  57  59
ATOM     59  C   UNL A   1      39.443  21.256  25.936  1.00  0.00     0.062 A 
ATOM     60  C   UNL A   1      39.608  22.528  26.470  1.00  0.00     0.038 A 
ATOM     61  C   UNL A   1      38.244  20.916  25.304  1.00  0.00     0.022 A 
ATOM     62  C   UNL A   1      38.540  23.429  26.410  1.00  0.00     0.065 A 
ATOM     63  C   UNL A   1      37.157  21.812  25.295  1.00  0.00    -0.015 A 
ATOM     64  Cl  UNL A   1      38.839  25.066  26.898  1.00  0.00    -0.082 Cl
ATOM     65  C   UNL A   1      37.269  23.052  25.924  1.00  0.00     0.057 A 
ATOM     66  C   UNL A   1      35.930  21.472  24.509  1.00  0.00     0.049 C 
ATOM     67  N   UNL A   1      36.197  23.931  25.965  1.00  0.00    -0.376 N 
ATOM     68  C   UNL A   1      34.998  20.447  25.094  1.00  0.00    -0.023 C 
ATOM     69  C   UNL A   1      34.971  22.654  24.227  1.00  0.00     0.031 C 
ATOM     70  C   UNL A   1      34.856  23.598  25.483  1.00  0.00     0.114 C 
ATOM     71  H   UNL A   1      36.346  24.829  26.340  1.00  0.00     0.161 HD
ATOM     72  C   UNL A   1      33.745  20.661  24.686  1.00  0.00    -0.030 C 
ATOM     73  C   UNL A   1      33.715  21.852  23.794  1.00  0.00     0.034 C 
BRANCH  70  74
ATOM     74  C   UNL A   1      34.094  24.913  25.211  1.00  0.00    -0.025 A 
ATOM     75  C   UNL A   1      33.262  25.605  26.123  1.00  0.00     0.007 A 
ATOM     76  C   UNL A   1      34.189  25.476  23.946  1.00  0.00     0.007 A 
ATOM     77  C   UNL A   1      32.590  26.799  25.764  1.00  0.00     0.022 A 
ATOM     78  C   UNL A   1      33.673  26.719  23.652  1.00  0.00     0.022 A 
ATOM     79  C   UNL A   1      32.820  27.362  24.513  1.00  0.00     0.082 A 
BRANCH  79  80
ATOM     80  S   UNL A   1      31.948  28.789  23.902  1.00  0.00     0.243 S 
ATOM     81  O   UNL A   1      31.516  29.528  25.073  1.00  0.00    -0.207 OA
ATOM     82  O   UNL A   1      32.788  29.383  22.890  1.00  0.00    -0.207 OA
BRANCH  80  83
ATOM     83  N   UNL A   1      30.557  28.176  23.156  1.00  0.00    -0.193 NA
ATOM     84  C   UNL A   1      29.652  29.035  22.367  1.00  0.00     0.131 C 
ATOM     85  C   UNL A   1      30.002  26.832  23.455  1.00  0.00     0.131 C 
ATOM     86  C   UNL A   1      28.260  29.080  23.006  1.00  0.00     0.177 C 
ATOM     87  C   UNL A   1      28.528  26.877  23.914  1.00  0.00     0.177 C 
ATOM     88  O   UNL A   1      27.704  27.766  23.151  1.00  0.00    -0.379 OA
ENDBRANCH  80  83
ENDBRANCH  79  80
ENDBRANCH  70  74
ENDBRANCH  57  59
ENDBRANCH  56  57
ENDBRANCH   1  56
TORSDOF 14
ENDMDL
MODEL 3
REMARK VINA RESULT:     -12.5      4.103     10.211
REMARK SMILES O=C(OCCOC(=O)c1cc(Cl)c2c(c1)[C@H]1C=CC[C@H]1[C@H](c1ccc(S(=O)(=O)N3CCOCC3)cc1)N2)c1ccc(-c2c3nc(c(-c4ccccc4)c4ccc([nH]4)c(-c4ccccc4)c4nc(c(-c5ccccc5)c5ccc2[nH]5)C=C4)C=C3)cc1
REMARK SMILES IDX 5 1 4 2 3 3 2 4 1 5 38 6 39 7 85 8 40 9 84 10 41 11 42 12
REMARK SMILES IDX 43 13 78 14 44 15 83 16 77 17 79 18 45 19 82 20 76 21 75 22
REMARK SMILES IDX 46 24 68 25 53 26 67 27 54 28 57 29 66 30 80 31 55 32 56 33
REMARK SMILES IDX 65 35 81 36 58 37 47 38 48 39 52 40 49 41 51 42 50 43 69 44
REMARK SMILES IDX 70 45 74 46 71 47 73 48 72 49 59 50 60 51 64 52 61 53 63 54
REMARK SMILES IDX 62 55 6 56 7 57 8 58 9 59 10 60 15 61 11 62 14 63 12 64
REMARK SMILES IDX 13 65 16 66 37 67 17 68 20 69 21 70 18 72 19 73 22 74 23 75
REMARK SMILES IDX 36 76 24 77 35 78 25 79 26 80 27 81 28 82 29 83 30 84 34 85
REMARK SMILES IDX 31 86 33 87 32 88
REMARK H PARENT 79 23 57 34 37 71
REMARK Flexibility Score: inf
ROOT
ATOM      1  C   UNL A   1      33.990  34.833  29.646  1.00  0.00     0.275 C 
ENDROOT
BRANCH   1   2
ATOM      2  C   UNL A   1      34.024  34.386  31.115  1.00  0.00     0.275 C 
BRANCH   2   3
ATOM      3  O   UNL A   1      34.341  33.002  31.316  1.00  0.00    -0.458 OA
BRANCH   3   4
ATOM      4  C   UNL A   1      35.382  32.479  32.003  1.00  0.00     0.338 C 
ATOM      5  O   UNL A   1      35.358  32.500  33.233  1.00  0.00    -0.246 OA
BRANCH   4   6
ATOM      6  C   UNL A   1      36.657  32.054  31.338  1.00  0.00     0.060 A 
ATOM      7  C   UNL A   1      37.060  32.347  30.034  1.00  0.00     0.016 A 
ATOM      8  C   UNL A   1      37.536  31.305  32.135  1.00  0.00     0.016 A 
ATOM      9  C   UNL A   1      38.333  32.004  29.576  1.00  0.00     0.010 A 
ATOM     10  C   UNL A   1      38.810  30.949  31.689  1.00  0.00     0.010 A 
ATOM     11  C   UNL A   1      39.206  31.294  30.397  1.00  0.00    -0.014 A 
BRANCH  11  12
ATOM     12  C   UNL A   1      40.373  30.640  29.781  1.00  0.00     0.031 A 
ATOM     13  C   UNL A   1      41.636  31.438  29.734  1.00  0.00     0.074 A 
ATOM     14  C   UNL A   1      40.354  29.356  29.385  1.00  0.00     0.049 A 
ATOM     15  N   UNL A   1      42.819  31.069  29.333  1.00  0.00    -0.248 NA
ATOM     16  C   UNL A   1      41.574  32.811  30.271  1.00  0.00     0.031 C 
ATOM     17  C   UNL A   1      39.232  28.444  29.553  1.00  0.00     0.029 A 
ATOM     18  N   UNL A   1      41.312  28.593  28.771  1.00  0.00    -0.354 N 
ATOM     19  C   UNL A   1      43.650  32.134  29.635  1.00  0.00     0.074 A 
ATOM     20  C   UNL A   1      42.839  33.190  30.187  1.00  0.00     0.031 C 
ATOM     21  C   UNL A   1      39.534  27.262  28.991  1.00  0.00     0.029 A 
ATOM     22  C   UNL A   1      40.877  27.335  28.434  1.00  0.00     0.049 A 
ATOM     23  H   UNL A   1      42.225  28.915  28.589  1.00  0.00     0.167 HD
ATOM     24  C   UNL A   1      44.989  32.204  29.497  1.00  0.00     0.031 A 
ATOM     25  C   UNL A   1      41.495  26.351  27.753  1.00  0.00     0.031 A 
ATOM     26  C   UNL A   1      45.778  31.168  28.903  1.00  0.00     0.049 A 
ATOM     27  C   UNL A   1      42.935  26.548  27.384  1.00  0.00     0.074 A 
ATOM     28  C   UNL A   1      47.137  31.161  28.662  1.00  0.00     0.029 A 
ATOM     29  N   UNL A   1      45.270  29.966  28.437  1.00  0.00    -0.354 N 
ATOM     30  N   UNL A   1      43.717  27.560  27.671  1.00  0.00    -0.248 NA
ATOM     31  C   UNL A   1      43.593  25.466  26.640  1.00  0.00     0.031 C 
ATOM     32  C   UNL A   1      47.442  29.975  27.992  1.00  0.00     0.029 A 
ATOM     33  C   UNL A   1      46.283  29.222  27.867  1.00  0.00     0.049 A 
ATOM     34  H   UNL A   1      44.329  29.684  28.504  1.00  0.00     0.167 HD
ATOM     35  C   UNL A   1      44.969  27.224  27.184  1.00  0.00     0.074 A 
ATOM     36  C   UNL A   1      44.840  25.915  26.572  1.00  0.00     0.031 C 
ATOM     37  C   UNL A   1      46.123  27.929  27.256  1.00  0.00     0.031 A 
BRANCH  24  38
ATOM     38  C   UNL A   1      45.658  33.449  29.979  1.00  0.00    -0.014 A 
ATOM     39  C   UNL A   1      45.782  34.566  29.138  1.00  0.00     0.009 A 
ATOM     40  C   UNL A   1      46.151  33.513  31.288  1.00  0.00     0.009 A 
ATOM     41  C   UNL A   1      46.391  35.731  29.605  1.00  0.00     0.001 A 
ATOM     42  C   UNL A   1      46.743  34.684  31.757  1.00  0.00     0.001 A 
ATOM     43  C   UNL A   1      46.862  35.791  30.917  1.00  0.00     0.000 A 
ENDBRANCH  24  38
BRANCH  25  44
ATOM     44  C   UNL A   1      40.756  25.112  27.397  1.00  0.00    -0.014 A 
ATOM     45  C   UNL A   1      41.096  23.878  27.969  1.00  0.00     0.009 A 
ATOM     46  C   UNL A   1      39.682  25.166  26.492  1.00  0.00     0.009 A 
ATOM     47  C   UNL A   1      40.382  22.723  27.637  1.00  0.00     0.001 A 
ATOM     48  C   UNL A   1      38.961  24.012  26.173  1.00  0.00     0.001 A 
ATOM     49  C   UNL A   1      39.313  22.792  26.743  1.00  0.00     0.000 A 
ENDBRANCH  25  44
BRANCH  37  50
ATOM     50  C   UNL A   1      47.350  27.312  26.660  1.00  0.00    -0.014 A 
ATOM     51  C   UNL A   1      48.144  26.436  27.412  1.00  0.00     0.009 A 
ATOM     52  C   UNL A   1      47.631  27.504  25.299  1.00  0.00     0.009 A 
ATOM     53  C   UNL A   1      49.204  25.759  26.806  1.00  0.00     0.001 A 
ATOM     54  C   UNL A   1      48.673  26.805  24.692  1.00  0.00     0.001 A 
ATOM     55  C   UNL A   1      49.459  25.936  25.446  1.00  0.00     0.000 A 
ENDBRANCH  37  50
ENDBRANCH  11  12
ENDBRANCH   4   6
ENDBRANCH   3   4
ENDBRANCH   2   3
ENDBRANCH   1   2
BRANCH   1  56
ATOM     56  O   UNL A   1      34.259  33.792  28.691  1.00  0.00    -0.458 OA
BRANCH  56  57
ATOM     57  C   UNL A   1      33.171  33.323  28.023  1.00  0.00     0.338 C 
ATOM     58  O   UNL A   1      32.159  33.936  27.751  1.00  0.00    -0.246 OA
BRANCH  57  59
ATOM     59  C   UNL A   1      33.441  31.948  27.556  1.00  0.00     0.062 A 
ATOM     60  C   UNL A   1      34.635  31.307  27.864  1.00  0.00     0.038 A 
ATOM     61  C   UNL A   1      32.435  31.258  26.874  1.00  0.00     0.022 A 
ATOM     62  C   UNL A   1      34.826  29.991  27.430  1.00  0.00     0.065 A 
ATOM     63  C   UNL A   1      32.656  29.951  26.397  1.00  0.00    -0.015 A 
ATOM     64  Cl  UNL A   1      36.232  29.152  27.998  1.00  0.00    -0.082 Cl
ATOM     65  C   UNL A   1      33.891  29.333  26.600  1.00  0.00     0.057 A 
ATOM     66  C   UNL A   1      31.525  29.192  25.778  1.00  0.00     0.049 C 
ATOM     67  N   UNL A   1      34.145  28.065  26.101  1.00  0.00    -0.376 N 
ATOM     68  C   UNL A   1      31.128  29.568  24.377  1.00  0.00    -0.023 C 
ATOM     69  C   UNL A   1      31.738  27.664  25.652  1.00  0.00     0.031 C 
ATOM     70  C   UNL A   1      33.220  27.335  25.233  1.00  0.00     0.114 C 
ATOM     71  H   UNL A   1      34.995  27.631  26.343  1.00  0.00     0.161 HD
ATOM     72  C   UNL A   1      30.601  28.520  23.739  1.00  0.00    -0.030 C 
ATOM     73  C   UNL A   1      30.602  27.341  24.647  1.00  0.00     0.034 C 
BRANCH  70  74
ATOM     74  C   UNL A   1      33.571  25.832  25.300  1.00  0.00    -0.025 A 
ATOM     75  C   UNL A   1      34.459  25.139  24.443  1.00  0.00     0.007 A 
ATOM     76  C   UNL A   1      32.943  25.054  26.262  1.00  0.00     0.007 A 
ATOM     77  C   UNL A   1      34.697  23.749  24.579  1.00  0.00     0.022 A 
ATOM     78  C   UNL A   1      33.299  23.744  26.499  1.00  0.00     0.022 A 
ATOM     79  C   UNL A   1      34.114  23.057  25.635  1.00  0.00     0.082 A 
BRANCH  79  80
ATOM     80  S   UNL A   1      34.240  21.294  25.843  1.00  0.00     0.243 S 
ATOM     81  O   UNL A   1      35.454  20.893  25.158  1.00  0.00    -0.207 OA
ATOM     82  O   UNL A   1      34.029  21.028  27.245  1.00  0.00    -0.207 OA
BRANCH  80  83
ATOM     83  N   UNL A   1      32.938  20.649  24.972  1.00  0.00    -0.193 NA
ATOM     84  C   UNL A   1      32.645  19.202  24.962  1.00  0.00     0.131 C 
ATOM     85  C   UNL A   1      32.179  21.422  23.957  1.00  0.00     0.131 C 
ATOM     86  C   UNL A   1      32.774  18.636  23.544  1.00  0.00     0.177 C 
ATOM     87  C   UNL A   1      32.153  20.738  22.573  1.00  0.00     0.177 C 
ATOM     88  O   UNL A   1      31.920  19.326  22.622  1.00  0.00    -0.379 OA
ENDBRANCH  80  83
ENDBRANCH  79  80
ENDBRANCH  70  74
ENDBRANCH  57  59
ENDBRANCH  56  57
ENDBRANCH   1  56
TORSDOF 14
ENDMDL
