MODEL 1
REMARK VINA RESULT:      -9.5      0.000      0.000
REMARK SMILES CC(C)C[NH+]1CC[NH+]([C@H](C)[C@@H](C)C(=O)OCCOC(=O)c2ccc(-c3c4nc(c(-c5ccccc5)c5ccc([nH]5)c(-c5ccccc5)c5nc(c(-c6ccccc6)c6ccc3[nH]6)C=C5)C=C4)cc2)CC1
REMARK SMILES IDX 16 1 15 2 13 3 14 4 11 5 12 6 9 7 10 8 8 9 5 10 6 11 70 12
REMARK SMILES IDX 7 14 69 15 4 17 2 18 1 19 3 20 17 21 18 22 19 23 20 24 21 25
REMARK SMILES IDX 22 26 68 27 23 28 67 29 24 30 25 31 26 32 61 33 27 34 66 35
REMARK SMILES IDX 60 36 62 37 28 38 65 39 59 40 58 41 29 43 51 44 36 45 50 46
REMARK SMILES IDX 37 47 40 48 49 49 63 50 38 51 39 52 48 54 64 55 41 56 30 57
REMARK SMILES IDX 31 58 35 59 32 60 34 61 33 62 52 63 53 64 57 65 54 66 56 67
REMARK SMILES IDX 55 68 42 69 43 70 47 71 44 72 46 73 45 74
REMARK H PARENT 5 13 8 16 62 42 40 53
REMARK Flexibility Score: inf
ROOT
ATOM      1  C   UNL A   1      42.653  18.439  26.649  1.00  0.00     0.274 C 
ENDROOT
BRANCH   1   2
ATOM      2  O   UNL A   1      41.572  19.181  26.050  1.00  0.00    -0.462 OA
BRANCH   2   3
ATOM      3  C   UNL A   1      41.055  20.165  26.830  1.00  0.00     0.314 C 
ATOM      4  O   UNL A   1      40.779  20.035  28.021  1.00  0.00    -0.252 OA
BRANCH   3   5
ATOM      5  C   UNL A   1      40.711  21.438  26.081  1.00  0.00     0.154 C 
ATOM      6  C   UNL A   1      42.022  22.231  25.995  1.00  0.00     0.026 C 
BRANCH   5   7
ATOM      7  C   UNL A   1      39.516  22.271  26.639  1.00  0.00     0.195 C 
ATOM      8  C   UNL A   1      40.043  23.574  27.283  1.00  0.00     0.076 C 
BRANCH   7   9
ATOM      9  N   UNL A   1      38.450  22.521  25.629  1.00  0.00    -0.323 N 
ATOM     10  N   UNL A   1      35.579  22.480  24.681  1.00  0.00    -0.325 N 
ATOM     11  C   UNL A   1      36.352  23.706  24.947  1.00  0.00     0.324 C 
ATOM     12  C   UNL A   1      36.557  21.451  24.251  1.00  0.00     0.324 C 
ATOM     13  H   UNL A   1      34.886  22.666  23.957  1.00  0.00     0.348 HD
ATOM     14  C   UNL A   1      37.446  23.524  26.024  1.00  0.00     0.324 C 
ATOM     15  C   UNL A   1      37.788  21.267  25.186  1.00  0.00     0.324 C 
ATOM     16  H   UNL A   1      38.951  22.925  24.838  1.00  0.00     0.348 HD
BRANCH  10  17
ATOM     17  C   UNL A   1      34.783  22.020  25.835  1.00  0.00     0.265 C 
BRANCH  17  18
ATOM     18  C   UNL A   1      33.356  21.523  25.491  1.00  0.00     0.038 C 
ATOM     19  C   UNL A   1      32.847  22.103  24.170  1.00  0.00     0.013 C 
ATOM     20  C   UNL A   1      33.325  19.995  25.443  1.00  0.00     0.013 C 
ENDBRANCH  17  18
ENDBRANCH  10  17
ENDBRANCH   7   9
ENDBRANCH   5   7
ENDBRANCH   3   5
ENDBRANCH   2   3
ENDBRANCH   1   2
BRANCH   1  21
ATOM     21  C   UNL A   1      43.775  18.194  25.640  1.00  0.00     0.275 C 
BRANCH  21  22
ATOM     22  O   UNL A   1      43.719  19.184  24.600  1.00  0.00    -0.458 OA
BRANCH  22  23
ATOM     23  C   UNL A   1      44.915  19.570  24.101  1.00  0.00     0.338 C 
ATOM     24  O   UNL A   1      45.687  18.885  23.452  1.00  0.00    -0.246 OA
BRANCH  23  25
ATOM     25  C   UNL A   1      45.199  20.976  24.475  1.00  0.00     0.060 A 
ATOM     26  C   UNL A   1      45.649  21.326  25.750  1.00  0.00     0.016 A 
ATOM     27  C   UNL A   1      44.903  21.981  23.551  1.00  0.00     0.016 A 
ATOM     28  C   UNL A   1      45.734  22.670  26.126  1.00  0.00     0.010 A 
ATOM     29  C   UNL A   1      45.068  23.323  23.901  1.00  0.00     0.010 A 
ATOM     30  C   UNL A   1      45.459  23.686  25.200  1.00  0.00    -0.014 A 
BRANCH  30  31
ATOM     31  C   UNL A   1      45.570  25.126  25.565  1.00  0.00     0.031 A 
ATOM     32  C   UNL A   1      46.907  25.817  25.536  1.00  0.00     0.074 A 
ATOM     33  C   UNL A   1      44.482  25.809  25.975  1.00  0.00     0.049 A 
ATOM     34  N   UNL A   1      47.246  26.985  26.024  1.00  0.00    -0.248 NA
ATOM     35  C   UNL A   1      48.012  25.096  24.882  1.00  0.00     0.031 C 
ATOM     36  C   UNL A   1      43.116  25.288  26.022  1.00  0.00     0.029 A 
ATOM     37  N   UNL A   1      44.364  27.093  26.448  1.00  0.00    -0.354 N 
ATOM     38  C   UNL A   1      48.608  27.118  25.782  1.00  0.00     0.074 A 
ATOM     39  C   UNL A   1      49.034  25.912  25.102  1.00  0.00     0.031 C 
ATOM     40  C   UNL A   1      42.296  26.244  26.484  1.00  0.00     0.029 A 
ATOM     41  C   UNL A   1      43.087  27.415  26.841  1.00  0.00     0.049 A 
ATOM     42  H   UNL A   1      45.119  27.722  26.500  1.00  0.00     0.167 HD
ATOM     43  C   UNL A   1      49.431  28.145  26.104  1.00  0.00     0.031 A 
ATOM     44  C   UNL A   1      42.607  28.507  27.466  1.00  0.00     0.031 A 
ATOM     45  C   UNL A   1      49.010  29.354  26.762  1.00  0.00     0.049 A 
ATOM     46  C   UNL A   1      43.545  29.612  27.853  1.00  0.00     0.074 A 
ATOM     47  C   UNL A   1      49.772  30.452  27.120  1.00  0.00     0.029 A 
ATOM     48  N   UNL A   1      47.709  29.625  27.155  1.00  0.00    -0.354 N 
ATOM     49  N   UNL A   1      44.836  29.704  27.658  1.00  0.00    -0.248 NA
ATOM     50  C   UNL A   1      42.956  30.758  28.562  1.00  0.00     0.031 C 
ATOM     51  C   UNL A   1      48.938  31.376  27.761  1.00  0.00     0.029 A 
ATOM     52  C   UNL A   1      47.649  30.870  27.761  1.00  0.00     0.049 A 
ATOM     53  H   UNL A   1      46.941  29.024  27.022  1.00  0.00     0.167 HD
ATOM     54  C   UNL A   1      45.215  30.920  28.208  1.00  0.00     0.074 A 
ATOM     55  C   UNL A   1      44.014  31.540  28.729  1.00  0.00     0.031 C 
ATOM     56  C   UNL A   1      46.451  31.472  28.280  1.00  0.00     0.031 A 
BRANCH  43  57
ATOM     57  C   UNL A   1      50.889  27.992  25.779  1.00  0.00    -0.014 A 
ATOM     58  C   UNL A   1      51.784  27.400  26.685  1.00  0.00     0.009 A 
ATOM     59  C   UNL A   1      51.368  28.408  24.525  1.00  0.00     0.009 A 
ATOM     60  C   UNL A   1      53.132  27.253  26.351  1.00  0.00     0.001 A 
ATOM     61  C   UNL A   1      52.711  28.240  24.186  1.00  0.00     0.001 A 
ATOM     62  C   UNL A   1      53.594  27.669  25.101  1.00  0.00     0.000 A 
ENDBRANCH  43  57
BRANCH  44  63
ATOM     63  C   UNL A   1      41.165  28.579  27.814  1.00  0.00    -0.014 A 
ATOM     64  C   UNL A   1      40.248  29.161  26.928  1.00  0.00     0.009 A 
ATOM     65  C   UNL A   1      40.699  28.052  29.029  1.00  0.00     0.009 A 
ATOM     66  C   UNL A   1      38.892  29.226  27.259  1.00  0.00     0.001 A 
ATOM     67  C   UNL A   1      39.341  28.093  29.344  1.00  0.00     0.001 A 
ATOM     68  C   UNL A   1      38.440  28.686  28.462  1.00  0.00     0.000 A 
ENDBRANCH  44  63
BRANCH  56  69
ATOM     69  C   UNL A   1      46.555  32.826  28.921  1.00  0.00    -0.014 A 
ATOM     70  C   UNL A   1      46.885  32.961  30.277  1.00  0.00     0.009 A 
ATOM     71  C   UNL A   1      46.343  33.979  28.150  1.00  0.00     0.009 A 
ATOM     72  C   UNL A   1      46.970  34.229  30.857  1.00  0.00     0.001 A 
ATOM     73  C   UNL A   1      46.450  35.244  28.727  1.00  0.00     0.001 A 
ATOM     74  C   UNL A   1      46.755  35.368  30.082  1.00  0.00     0.000 A 
ENDBRANCH  56  69
ENDBRANCH  30  31
ENDBRANCH  23  25
ENDBRANCH  22  23
ENDBRANCH  21  22
ENDBRANCH   1  21
TORSDOF 15
ENDMDL
MODEL 2
REMARK VINA RESULT:      -9.3      5.234      9.609
REMARK SMILES CC(C)C[NH+]1CC[NH+]([C@H](C)[C@@H](C)C(=O)OCCOC(=O)c2ccc(-c3c4nc(c(-c5ccccc5)c5ccc([nH]5)c(-c5ccccc5)c5nc(c(-c6ccccc6)c6ccc3[nH]6)C=C5)C=C4)cc2)CC1
REMARK SMILES IDX 16 1 15 2 13 3 14 4 11 5 12 6 9 7 10 8 8 9 5 10 6 11 70 12
REMARK SMILES IDX 7 14 69 15 4 17 2 18 1 19 3 20 17 21 18 22 19 23 20 24 21 25
REMARK SMILES IDX 22 26 68 27 23 28 67 29 24 30 25 31 26 32 61 33 27 34 66 35
REMARK SMILES IDX 60 36 62 37 28 38 65 39 59 40 58 41 29 43 51 44 36 45 50 46
REMARK SMILES IDX 37 47 40 48 49 49 63 50 38 51 39 52 48 54 64 55 41 56 30 57
REMARK SMILES IDX 31 58 35 59 32 60 34 61 33 62 52 63 53 64 57 65 54 66 56 67
REMARK SMILES IDX 55 68 42 69 43 70 47 71 44 72 46 73 45 74
REMARK H PARENT 5 13 8 16 62 42 40 53
REMARK Flexibility Score: inf
ROOT
ATOM      1  C   UNL A   1      32.439  30.099  26.117  1.00  0.00     0.274 C 
ENDROOT
BRANCH   1   2
ATOM      2  O   UNL A   1      32.708  28.689  26.252  1.00  0.00    -0.462 OA
BRANCH   2   3
ATOM      3  C   UNL A   1      31.660  27.948  26.693  1.00  0.00     0.314 C 
ATOM      4  O   UNL A   1      31.304  27.879  27.868  1.00  0.00    -0.252 OA
BRANCH   3   5
ATOM      5  C   UNL A   1      31.015  27.083  25.628  1.00  0.00     0.154 C 
ATOM      6  C   UNL A   1      30.995  25.663  26.209  1.00  0.00     0.026 C 
BRANCH   5   7
ATOM      7  C   UNL A   1      31.635  27.161  24.199  1.00  0.00     0.195 C 
ATOM      8  C   UNL A   1      32.115  25.759  23.760  1.00  0.00     0.076 C 
BRANCH   7   9
ATOM      9  N   UNL A   1      30.733  27.797  23.199  1.00  0.00    -0.323 N 
ATOM     10  N   UNL A   1      28.859  29.982  22.271  1.00  0.00    -0.325 N 
ATOM     11  C   UNL A   1      30.190  29.723  21.693  1.00  0.00     0.324 C 
ATOM     12  C   UNL A   1      28.353  28.677  22.763  1.00  0.00     0.324 C 
ATOM     13  H   UNL A   1      28.249  30.377  21.556  1.00  0.00     0.348 HD
ATOM     14  C   UNL A   1      31.190  29.105  22.697  1.00  0.00     0.324 C 
ATOM     15  C   UNL A   1      29.330  27.884  23.680  1.00  0.00     0.324 C 
ATOM     16  H   UNL A   1      30.768  27.164  22.400  1.00  0.00     0.348 HD
BRANCH  10  17
ATOM     17  C   UNL A   1      28.867  30.996  23.342  1.00  0.00     0.265 C 
BRANCH  17  18
ATOM     18  C   UNL A   1      28.323  32.388  22.930  1.00  0.00     0.038 C 
ATOM     19  C   UNL A   1      29.291  33.515  23.293  1.00  0.00     0.013 C 
ATOM     20  C   UNL A   1      28.019  32.416  21.431  1.00  0.00     0.013 C 
ENDBRANCH  17  18
ENDBRANCH  10  17
ENDBRANCH   7   9
ENDBRANCH   5   7
ENDBRANCH   3   5
ENDBRANCH   2   3
ENDBRANCH   1   2
BRANCH   1  21
ATOM     21  C   UNL A   1      33.107  30.896  27.237  1.00  0.00     0.275 C 
BRANCH  21  22
ATOM     22  O   UNL A   1      34.169  30.120  27.819  1.00  0.00    -0.458 OA
BRANCH  22  23
ATOM     23  C   UNL A   1      34.986  30.795  28.659  1.00  0.00     0.338 C 
ATOM     24  O   UNL A   1      34.719  31.818  29.267  1.00  0.00    -0.246 OA
BRANCH  23  25
ATOM     25  C   UNL A   1      36.306  30.127  28.740  1.00  0.00     0.060 A 
ATOM     26  C   UNL A   1      36.789  29.583  29.933  1.00  0.00     0.016 A 
ATOM     27  C   UNL A   1      37.127  30.142  27.610  1.00  0.00     0.016 A 
ATOM     28  C   UNL A   1      38.106  29.123  30.017  1.00  0.00     0.010 A 
ATOM     29  C   UNL A   1      38.415  29.606  27.674  1.00  0.00     0.010 A 
ATOM     30  C   UNL A   1      38.932  29.116  28.885  1.00  0.00    -0.014 A 
BRANCH  30  31
ATOM     31  C   UNL A   1      40.330  28.604  28.941  1.00  0.00     0.031 A 
ATOM     32  C   UNL A   1      41.469  29.536  29.260  1.00  0.00     0.074 A 
ATOM     33  C   UNL A   1      40.593  27.313  28.656  1.00  0.00     0.049 A 
ATOM     34  N   UNL A   1      42.758  29.338  29.141  1.00  0.00    -0.248 NA
ATOM     35  C   UNL A   1      41.111  30.870  29.771  1.00  0.00     0.031 C 
ATOM     36  C   UNL A   1      39.594  26.283  28.364  1.00  0.00     0.029 A 
ATOM     37  N   UNL A   1      41.792  26.652  28.549  1.00  0.00    -0.354 N 
ATOM     38  C   UNL A   1      43.362  30.533  29.511  1.00  0.00     0.074 A 
ATOM     39  C   UNL A   1      42.299  31.452  29.862  1.00  0.00     0.031 C 
ATOM     40  C   UNL A   1      40.219  25.121  28.124  1.00  0.00     0.029 A 
ATOM     41  C   UNL A   1      41.660  25.339  28.165  1.00  0.00     0.049 A 
ATOM     42  H   UNL A   1      42.662  27.076  28.729  1.00  0.00     0.167 HD
ATOM     43  C   UNL A   1      44.682  30.841  29.549  1.00  0.00     0.031 A 
ATOM     44  C   UNL A   1      42.587  24.421  27.832  1.00  0.00     0.031 A 
ATOM     45  C   UNL A   1      45.744  29.927  29.220  1.00  0.00     0.049 A 
ATOM     46  C   UNL A   1      44.039  24.798  27.837  1.00  0.00     0.074 A 
ATOM     47  C   UNL A   1      47.110  30.149  29.238  1.00  0.00     0.029 A 
ATOM     48  N   UNL A   1      45.558  28.613  28.821  1.00  0.00    -0.354 N 
ATOM     49  N   UNL A   1      44.592  25.944  28.146  1.00  0.00    -0.248 NA
ATOM     50  C   UNL A   1      44.992  23.755  27.430  1.00  0.00     0.031 C 
ATOM     51  C   UNL A   1      47.751  28.978  28.817  1.00  0.00     0.029 A 
ATOM     52  C   UNL A   1      46.785  28.015  28.580  1.00  0.00     0.049 A 
ATOM     53  H   UNL A   1      44.684  28.169  28.725  1.00  0.00     0.167 HD
ATOM     54  C   UNL A   1      45.958  25.759  27.983  1.00  0.00     0.074 A 
ATOM     55  C   UNL A   1      46.151  24.386  27.565  1.00  0.00     0.031 C 
ATOM     56  C   UNL A   1      46.963  26.651  28.159  1.00  0.00     0.031 A 
BRANCH  43  57
ATOM     57  C   UNL A   1      45.054  32.246  29.927  1.00  0.00    -0.014 A 
ATOM     58  C   UNL A   1      45.220  32.624  31.269  1.00  0.00     0.009 A 
ATOM     59  C   UNL A   1      45.285  33.197  28.919  1.00  0.00     0.009 A 
ATOM     60  C   UNL A   1      45.584  33.933  31.593  1.00  0.00     0.001 A 
ATOM     61  C   UNL A   1      45.671  34.498  29.245  1.00  0.00     0.001 A 
ATOM     62  C   UNL A   1      45.813  34.867  30.582  1.00  0.00     0.000 A 
ENDBRANCH  43  57
BRANCH  44  63
ATOM     63  C   UNL A   1      42.158  23.063  27.411  1.00  0.00    -0.014 A 
ATOM     64  C   UNL A   1      42.116  22.719  26.053  1.00  0.00     0.009 A 
ATOM     65  C   UNL A   1      41.802  22.101  28.370  1.00  0.00     0.009 A 
ATOM     66  C   UNL A   1      41.714  21.440  25.662  1.00  0.00     0.001 A 
ATOM     67  C   UNL A   1      41.428  20.815  27.977  1.00  0.00     0.001 A 
ATOM     68  C   UNL A   1      41.377  20.488  26.624  1.00  0.00     0.000 A 
ENDBRANCH  44  63
BRANCH  56  69
ATOM     69  C   UNL A   1      48.361  26.156  27.927  1.00  0.00    -0.014 A 
ATOM     70  C   UNL A   1      49.108  25.585  28.968  1.00  0.00     0.009 A 
ATOM     71  C   UNL A   1      48.926  26.242  26.646  1.00  0.00     0.009 A 
ATOM     72  C   UNL A   1      50.411  25.137  28.735  1.00  0.00     0.001 A 
ATOM     73  C   UNL A   1      50.219  25.774  26.412  1.00  0.00     0.001 A 
ATOM     74  C   UNL A   1      50.963  25.230  27.458  1.00  0.00     0.000 A 
ENDBRANCH  56  69
ENDBRANCH  30  31
ENDBRANCH  23  25
ENDBRANCH  22  23
ENDBRANCH  21  22
ENDBRANCH   1  21
TORSDOF 15
ENDMDL
MODEL 3
REMARK VINA RESULT:      -9.2      4.058      8.723
REMARK SMILES CC(C)C[NH+]1CC[NH+]([C@H](C)[C@@H](C)C(=O)OCCOC(=O)c2ccc(-c3c4nc(c(-c5ccccc5)c5ccc([nH]5)c(-c5ccccc5)c5nc(c(-c6ccccc6)c6ccc3[nH]6)C=C5)C=C4)cc2)CC1
REMARK SMILES IDX 16 1 15 2 13 3 14 4 11 5 12 6 9 7 10 8 8 9 5 10 6 11 70 12
REMARK SMILES IDX 7 14 69 15 4 17 2 18 1 19 3 20 17 21 18 22 19 23 20 24 21 25
REMARK SMILES IDX 22 26 68 27 23 28 67 29 24 30 25 31 26 32 61 33 27 34 66 35
REMARK SMILES IDX 60 36 62 37 28 38 65 39 59 40 58 41 29 43 51 44 36 45 50 46
REMARK SMILES IDX 37 47 40 48 49 49 63 50 38 51 39 52 48 54 64 55 41 56 30 57
REMARK SMILES IDX 31 58 35 59 32 60 34 61 33 62 52 63 53 64 57 65 54 66 56 67
REMARK SMILES IDX 55 68 42 69 43 70 47 71 44 72 46 73 45 74
REMARK H PARENT 5 13 8 16 62 42 40 53
REMARK Flexibility Score: inf
ROOT
ATOM      1  C   UNL A   1      33.209  28.384  27.147  1.00  0.00     0.274 C 
ENDROOT
BRANCH   1   2
ATOM      2  O   UNL A   1      32.554  27.818  25.994  1.00  0.00    -0.462 OA
BRANCH   2   3
ATOM      3  C   UNL A   1      31.824  26.701  26.244  1.00  0.00     0.314 C 
ATOM      4  O   UNL A   1      30.745  26.694  26.834  1.00  0.00    -0.252 OA
BRANCH   3   5
ATOM      5  C   UNL A   1      32.508  25.406  25.849  1.00  0.00     0.154 C 
ATOM      6  C   UNL A   1      33.215  25.705  24.520  1.00  0.00     0.026 C 
BRANCH   5   7
ATOM      7  C   UNL A   1      31.610  24.132  25.803  1.00  0.00     0.195 C 
ATOM      8  C   UNL A   1      31.045  23.941  24.377  1.00  0.00     0.076 C 
BRANCH   7   9
ATOM      9  N   UNL A   1      32.294  22.911  26.316  1.00  0.00    -0.323 N 
ATOM     10  N   UNL A   1      34.341  20.694  26.128  1.00  0.00    -0.325 N 
ATOM     11  C   UNL A   1      34.373  21.777  27.127  1.00  0.00     0.324 C 
ATOM     12  C   UNL A   1      32.912  20.466  25.801  1.00  0.00     0.324 C 
ATOM     13  H   UNL A   1      34.775  19.858  26.519  1.00  0.00     0.348 HD
ATOM     14  C   UNL A   1      33.720  23.089  26.636  1.00  0.00     0.324 C 
ATOM     15  C   UNL A   1      32.102  21.740  25.422  1.00  0.00     0.324 C 
ATOM     16  H   UNL A   1      31.829  22.726  27.204  1.00  0.00     0.348 HD
BRANCH  10  17
ATOM     17  C   UNL A   1      35.133  20.982  24.918  1.00  0.00     0.265 C 
BRANCH  17  18
ATOM     18  C   UNL A   1      36.612  21.364  25.179  1.00  0.00     0.038 C 
ATOM     19  C   UNL A   1      37.555  20.173  24.995  1.00  0.00     0.013 C 
ATOM     20  C   UNL A   1      37.032  22.515  24.263  1.00  0.00     0.013 C 
ENDBRANCH  17  18
ENDBRANCH  10  17
ENDBRANCH   7   9
ENDBRANCH   5   7
ENDBRANCH   3   5
ENDBRANCH   2   3
ENDBRANCH   1   2
BRANCH   1  21
ATOM     21  C   UNL A   1      32.942  29.885  27.249  1.00  0.00     0.275 C 
BRANCH  21  22
ATOM     22  O   UNL A   1      34.179  30.608  27.125  1.00  0.00    -0.458 OA
BRANCH  22  23
ATOM     23  C   UNL A   1      34.760  30.966  28.292  1.00  0.00     0.338 C 
ATOM     24  O   UNL A   1      34.317  31.749  29.115  1.00  0.00    -0.246 OA
BRANCH  23  25
ATOM     25  C   UNL A   1      36.066  30.283  28.447  1.00  0.00     0.060 A 
ATOM     26  C   UNL A   1      36.482  29.749  29.670  1.00  0.00     0.016 A 
ATOM     27  C   UNL A   1      36.943  30.271  27.360  1.00  0.00     0.016 A 
ATOM     28  C   UNL A   1      37.786  29.274  29.827  1.00  0.00     0.010 A 
ATOM     29  C   UNL A   1      38.219  29.720  27.496  1.00  0.00     0.010 A 
ATOM     30  C   UNL A   1      38.668  29.240  28.738  1.00  0.00    -0.014 A 
BRANCH  30  31
ATOM     31  C   UNL A   1      40.054  28.712  28.871  1.00  0.00     0.031 A 
ATOM     32  C   UNL A   1      41.186  29.631  29.246  1.00  0.00     0.074 A 
ATOM     33  C   UNL A   1      40.316  27.416  28.607  1.00  0.00     0.049 A 
ATOM     34  N   UNL A   1      42.477  29.417  29.197  1.00  0.00    -0.248 NA
ATOM     35  C   UNL A   1      40.818  30.972  29.730  1.00  0.00     0.031 C 
ATOM     36  C   UNL A   1      39.321  26.397  28.268  1.00  0.00     0.029 A 
ATOM     37  N   UNL A   1      41.510  26.739  28.567  1.00  0.00    -0.354 N 
ATOM     38  C   UNL A   1      43.076  30.606  29.593  1.00  0.00     0.074 A 
ATOM     39  C   UNL A   1      42.007  31.540  29.882  1.00  0.00     0.031 C 
ATOM     40  C   UNL A   1      39.943  25.226  28.067  1.00  0.00     0.029 A 
ATOM     41  C   UNL A   1      41.382  25.426  28.184  1.00  0.00     0.049 A 
ATOM     42  H   UNL A   1      42.375  27.154  28.792  1.00  0.00     0.167 HD
ATOM     43  C   UNL A   1      44.395  30.899  29.699  1.00  0.00     0.031 A 
ATOM     44  C   UNL A   1      42.314  24.495  27.905  1.00  0.00     0.031 A 
ATOM     45  C   UNL A   1      45.462  29.969  29.433  1.00  0.00     0.049 A 
ATOM     46  C   UNL A   1      43.769  24.854  27.986  1.00  0.00     0.074 A 
ATOM     47  C   UNL A   1      46.828  30.175  29.522  1.00  0.00     0.029 A 
ATOM     48  N   UNL A   1      45.281  28.655  29.031  1.00  0.00    -0.354 N 
ATOM     49  N   UNL A   1      44.319  25.995  28.319  1.00  0.00    -0.248 NA
ATOM     50  C   UNL A   1      44.729  23.798  27.636  1.00  0.00     0.031 C 
ATOM     51  C   UNL A   1      47.476  28.994  29.142  1.00  0.00     0.029 A 
ATOM     52  C   UNL A   1      46.511  28.041  28.859  1.00  0.00     0.049 A 
ATOM     53  H   UNL A   1      44.408  28.222  28.890  1.00  0.00     0.167 HD
ATOM     54  C   UNL A   1      45.689  25.792  28.229  1.00  0.00     0.074 A 
ATOM     55  C   UNL A   1      45.887  24.415  27.829  1.00  0.00     0.031 C 
ATOM     56  C   UNL A   1      46.694  26.673  28.454  1.00  0.00     0.031 A 
BRANCH  43  57
ATOM     57  C   UNL A   1      44.764  32.301  30.090  1.00  0.00    -0.014 A 
ATOM     58  C   UNL A   1      44.965  32.659  31.432  1.00  0.00     0.009 A 
ATOM     59  C   UNL A   1      44.958  33.270  29.092  1.00  0.00     0.009 A 
ATOM     60  C   UNL A   1      45.325  33.966  31.768  1.00  0.00     0.001 A 
ATOM     61  C   UNL A   1      45.340  34.570  29.428  1.00  0.00     0.001 A 
ATOM     62  C   UNL A   1      45.516  34.919  30.766  1.00  0.00     0.000 A 
ENDBRANCH  43  57
BRANCH  44  63
ATOM     63  C   UNL A   1      41.891  23.140  27.469  1.00  0.00    -0.014 A 
ATOM     64  C   UNL A   1      41.844  22.814  26.106  1.00  0.00     0.009 A 
ATOM     65  C   UNL A   1      41.547  22.163  28.417  1.00  0.00     0.009 A 
ATOM     66  C   UNL A   1      41.447  21.537  25.701  1.00  0.00     0.001 A 
ATOM     67  C   UNL A   1      41.178  20.880  28.009  1.00  0.00     0.001 A 
ATOM     68  C   UNL A   1      41.122  20.571  26.652  1.00  0.00     0.000 A 
ENDBRANCH  44  63
BRANCH  56  69
ATOM     69  C   UNL A   1      48.096  26.159  28.300  1.00  0.00    -0.014 A 
ATOM     70  C   UNL A   1      48.754  26.210  27.062  1.00  0.00     0.009 A 
ATOM     71  C   UNL A   1      48.774  25.640  29.414  1.00  0.00     0.009 A 
ATOM     72  C   UNL A   1      50.055  25.719  26.936  1.00  0.00     0.001 A 
ATOM     73  C   UNL A   1      50.081  25.171  29.289  1.00  0.00     0.001 A 
ATOM     74  C   UNL A   1      50.718  25.204  28.050  1.00  0.00     0.000 A 
ENDBRANCH  56  69
ENDBRANCH  30  31
ENDBRANCH  23  25
ENDBRANCH  22  23
ENDBRANCH  21  22
ENDBRANCH   1  21
TORSDOF 15
ENDMDL
