MODEL 1
REMARK VINA RESULT:      -9.0      0.000      0.000
REMARK SMILES CC(C)(C)C[C@@H](O)[C@@H](F)C(=O)OCCOC(=O)c1ccc(-c2c3nc(c(-c4ccccc4)c4ccc([nH]4)c(-c4ccccc4)c4nc(c(-c5ccccc5)c5ccc2[nH]5)C=C4)C=C3)cc1
REMARK SMILES IDX 13 1 12 2 10 3 11 4 8 5 9 6 6 7 5 8 2 9 1 10 3 11 4 12 7 13
REMARK SMILES IDX 14 15 15 16 16 17 17 18 18 19 19 20 65 21 20 22 64 23 21 24
REMARK SMILES IDX 22 25 23 26 58 27 24 28 63 29 57 30 59 31 25 32 62 33 56 34
REMARK SMILES IDX 55 35 26 37 48 38 33 39 47 40 34 41 37 42 46 43 60 44 35 45
REMARK SMILES IDX 36 46 45 48 61 49 38 50 27 51 28 52 32 53 29 54 31 55 30 56
REMARK SMILES IDX 49 57 50 58 54 59 51 60 53 61 52 62 39 63 40 64 44 65 41 66
REMARK SMILES IDX 43 67 42 68
REMARK H PARENT 7 14 59 36 37 47
REMARK Flexibility Score: inf
ROOT
ATOM      1  C   UNL A   1      33.738  34.841  28.976  1.00  0.00     0.274 C 
ENDROOT
BRANCH   1   2
ATOM      2  O   UNL A   1      32.630  35.035  29.879  1.00  0.00    -0.460 OA
BRANCH   2   3
ATOM      3  C   UNL A   1      32.747  36.071  30.758  1.00  0.00     0.343 C 
ATOM      4  O   UNL A   1      32.867  37.246  30.428  1.00  0.00    -0.249 OA
BRANCH   3   5
ATOM      5  C   UNL A   1      32.786  35.607  32.204  1.00  0.00     0.304 C 
ATOM      6  F   UNL A   1      31.856  36.274  32.953  1.00  0.00    -0.232 F 
BRANCH   5   7
ATOM      7  C   UNL A   1      34.163  35.765  32.868  1.00  0.00     0.160 C 
BRANCH   7   8
ATOM      8  C   UNL A   1      35.163  34.770  32.245  1.00  0.00     0.041 C 
BRANCH   8   9
ATOM      9  C   UNL A   1      36.019  33.933  33.238  1.00  0.00    -0.036 C 
ATOM     10  C   UNL A   1      35.970  32.423  32.953  1.00  0.00     0.011 C 
ATOM     11  C   UNL A   1      35.467  34.172  34.657  1.00  0.00     0.011 C 
ATOM     12  C   UNL A   1      37.484  34.403  33.197  1.00  0.00     0.011 C 
ENDBRANCH   8   9
ENDBRANCH   7   8
BRANCH   7  13
ATOM     13  O   UNL A   1      34.688  37.067  32.623  1.00  0.00    -0.389 OA
ATOM     14  H   UNL A   1      35.565  37.145  33.031  1.00  0.00     0.211 HD
ENDBRANCH   7  13
ENDBRANCH   5   7
ENDBRANCH   3   5
ENDBRANCH   2   3
ENDBRANCH   1   2
BRANCH   1  15
ATOM     15  C   UNL A   1      33.492  33.691  27.996  1.00  0.00     0.275 C 
BRANCH  15  16
ATOM     16  O   UNL A   1      34.691  32.933  27.750  1.00  0.00    -0.458 OA
BRANCH  16  17
ATOM     17  C   UNL A   1      34.564  31.598  27.922  1.00  0.00     0.338 C 
ATOM     18  O   UNL A   1      33.663  30.886  27.508  1.00  0.00    -0.246 OA
BRANCH  17  19
ATOM     19  C   UNL A   1      35.762  31.064  28.588  1.00  0.00     0.060 A 
ATOM     20  C   UNL A   1      36.994  31.668  28.324  1.00  0.00     0.016 A 
ATOM     21  C   UNL A   1      35.692  29.917  29.379  1.00  0.00     0.016 A 
ATOM     22  C   UNL A   1      38.168  31.111  28.820  1.00  0.00     0.010 A 
ATOM     23  C   UNL A   1      36.871  29.372  29.899  1.00  0.00     0.010 A 
ATOM     24  C   UNL A   1      38.116  29.957  29.609  1.00  0.00    -0.014 A 
BRANCH  24  25
ATOM     25  C   UNL A   1      39.376  29.358  30.105  1.00  0.00     0.031 A 
ATOM     26  C   UNL A   1      40.036  29.900  31.340  1.00  0.00     0.074 A 
ATOM     27  C   UNL A   1      39.910  28.302  29.463  1.00  0.00     0.049 A 
ATOM     28  N   UNL A   1      41.176  29.553  31.884  1.00  0.00    -0.248 NA
ATOM     29  C   UNL A   1      39.323  30.969  32.055  1.00  0.00     0.031 C 
ATOM     30  C   UNL A   1      39.335  27.647  28.288  1.00  0.00     0.029 A 
ATOM     31  N   UNL A   1      41.056  27.594  29.716  1.00  0.00    -0.354 N 
ATOM     32  C   UNL A   1      41.328  30.377  32.992  1.00  0.00     0.074 A 
ATOM     33  C   UNL A   1      40.170  31.244  33.039  1.00  0.00     0.031 C 
ATOM     34  C   UNL A   1      40.127  26.625  27.926  1.00  0.00     0.029 A 
ATOM     35  C   UNL A   1      41.284  26.583  28.815  1.00  0.00     0.049 A 
ATOM     36  H   UNL A   1      41.658  27.791  30.470  1.00  0.00     0.167 HD
ATOM     37  C   UNL A   1      42.343  30.409  33.887  1.00  0.00     0.031 A 
ATOM     38  C   UNL A   1      42.321  25.735  28.703  1.00  0.00     0.031 A 
ATOM     39  C   UNL A   1      43.490  29.541  33.851  1.00  0.00     0.049 A 
ATOM     40  C   UNL A   1      43.465  25.833  29.672  1.00  0.00     0.074 A 
ATOM     41  C   UNL A   1      44.565  29.495  34.722  1.00  0.00     0.029 A 
ATOM     42  N   UNL A   1      43.707  28.563  32.895  1.00  0.00    -0.354 N 
ATOM     43  N   UNL A   1      43.607  26.632  30.700  1.00  0.00    -0.248 NA
ATOM     44  C   UNL A   1      44.593  24.916  29.456  1.00  0.00     0.031 C 
ATOM     45  C   UNL A   1      45.452  28.510  34.271  1.00  0.00     0.029 A 
ATOM     46  C   UNL A   1      44.908  27.921  33.140  1.00  0.00     0.049 A 
ATOM     47  H   UNL A   1      43.097  28.355  32.150  1.00  0.00     0.167 HD
ATOM     48  C   UNL A   1      44.835  26.308  31.262  1.00  0.00     0.074 A 
ATOM     49  C   UNL A   1      45.390  25.231  30.469  1.00  0.00     0.031 C 
ATOM     50  C   UNL A   1      45.447  26.855  32.339  1.00  0.00     0.031 A 
BRANCH  37  51
ATOM     51  C   UNL A   1      42.275  31.448  34.966  1.00  0.00    -0.014 A 
ATOM     52  C   UNL A   1      42.801  32.735  34.772  1.00  0.00     0.009 A 
ATOM     53  C   UNL A   1      41.647  31.142  36.184  1.00  0.00     0.009 A 
ATOM     54  C   UNL A   1      42.718  33.689  35.789  1.00  0.00     0.001 A 
ATOM     55  C   UNL A   1      41.552  32.104  37.190  1.00  0.00     0.001 A 
ATOM     56  C   UNL A   1      42.092  33.374  36.995  1.00  0.00     0.000 A 
ENDBRANCH  37  51
BRANCH  38  57
ATOM     57  C   UNL A   1      42.344  24.737  27.605  1.00  0.00    -0.014 A 
ATOM     58  C   UNL A   1      42.944  25.046  26.376  1.00  0.00     0.009 A 
ATOM     59  C   UNL A   1      41.764  23.472  27.786  1.00  0.00     0.009 A 
ATOM     60  C   UNL A   1      42.948  24.108  25.340  1.00  0.00     0.001 A 
ATOM     61  C   UNL A   1      41.789  22.531  26.755  1.00  0.00     0.001 A 
ATOM     62  C   UNL A   1      42.375  22.852  25.532  1.00  0.00     0.000 A 
ENDBRANCH  38  57
BRANCH  50  63
ATOM     63  C   UNL A   1      46.777  26.282  32.728  1.00  0.00    -0.014 A 
ATOM     64  C   UNL A   1      47.970  26.823  32.226  1.00  0.00     0.009 A 
ATOM     65  C   UNL A   1      46.836  25.208  33.628  1.00  0.00     0.009 A 
ATOM     66  C   UNL A   1      49.200  26.281  32.601  1.00  0.00     0.001 A 
ATOM     67  C   UNL A   1      48.069  24.680  34.015  1.00  0.00     0.001 A 
ATOM     68  C   UNL A   1      49.249  25.212  33.496  1.00  0.00     0.000 A 
ENDBRANCH  50  63
ENDBRANCH  24  25
ENDBRANCH  17  19
ENDBRANCH  16  17
ENDBRANCH  15  16
ENDBRANCH   1  15
TORSDOF 15
ENDMDL
MODEL 2
REMARK VINA RESULT:      -8.9      3.823      5.929
REMARK SMILES CC(C)(C)C[C@@H](O)[C@@H](F)C(=O)OCCOC(=O)c1ccc(-c2c3nc(c(-c4ccccc4)c4ccc([nH]4)c(-c4ccccc4)c4nc(c(-c5ccccc5)c5ccc2[nH]5)C=C4)C=C3)cc1
REMARK SMILES IDX 13 1 12 2 10 3 11 4 8 5 9 6 6 7 5 8 2 9 1 10 3 11 4 12 7 13
REMARK SMILES IDX 14 15 15 16 16 17 17 18 18 19 19 20 65 21 20 22 64 23 21 24
REMARK SMILES IDX 22 25 23 26 58 27 24 28 63 29 57 30 59 31 25 32 62 33 56 34
REMARK SMILES IDX 55 35 26 37 48 38 33 39 47 40 34 41 37 42 46 43 60 44 35 45
REMARK SMILES IDX 36 46 45 48 61 49 38 50 27 51 28 52 32 53 29 54 31 55 30 56
REMARK SMILES IDX 49 57 50 58 54 59 51 60 53 61 52 62 39 63 40 64 44 65 41 66
REMARK SMILES IDX 43 67 42 68
REMARK H PARENT 7 14 59 36 37 47
REMARK Flexibility Score: inf
ROOT
ATOM      1  C   UNL A   1      32.526  28.280  25.530  1.00  0.00     0.274 C 
ENDROOT
BRANCH   1   2
ATOM      2  O   UNL A   1      32.776  28.940  24.272  1.00  0.00    -0.460 OA
BRANCH   2   3
ATOM      3  C   UNL A   1      32.602  28.182  23.152  1.00  0.00     0.343 C 
ATOM      4  O   UNL A   1      33.513  27.816  22.417  1.00  0.00    -0.249 OA
BRANCH   3   5
ATOM      5  C   UNL A   1      31.139  27.891  22.867  1.00  0.00     0.304 C 
ATOM      6  F   UNL A   1      31.009  26.783  22.076  1.00  0.00    -0.232 F 
BRANCH   5   7
ATOM      7  C   UNL A   1      30.393  29.062  22.206  1.00  0.00     0.160 C 
BRANCH   7   8
ATOM      8  C   UNL A   1      29.543  29.803  23.257  1.00  0.00     0.041 C 
BRANCH   8   9
ATOM      9  C   UNL A   1      28.086  30.160  22.845  1.00  0.00    -0.036 C 
ATOM     10  C   UNL A   1      27.504  31.337  23.644  1.00  0.00     0.011 C 
ATOM     11  C   UNL A   1      27.204  28.922  23.104  1.00  0.00     0.011 C 
ATOM     12  C   UNL A   1      28.029  30.496  21.345  1.00  0.00     0.011 C 
ENDBRANCH   8   9
ENDBRANCH   7   8
BRANCH   7  13
ATOM     13  O   UNL A   1      31.319  30.017  21.694  1.00  0.00    -0.389 OA
ATOM     14  H   UNL A   1      30.900  30.892  21.666  1.00  0.00     0.211 HD
ENDBRANCH   7  13
ENDBRANCH   5   7
ENDBRANCH   3   5
ENDBRANCH   2   3
ENDBRANCH   1   2
BRANCH   1  15
ATOM     15  C   UNL A   1      32.875  29.165  26.729  1.00  0.00     0.275 C 
BRANCH  15  16
ATOM     16  O   UNL A   1      34.233  29.640  26.666  1.00  0.00    -0.458 OA
BRANCH  16  17
ATOM     17  C   UNL A   1      34.589  30.478  27.665  1.00  0.00     0.338 C 
ATOM     18  O   UNL A   1      33.894  31.335  28.188  1.00  0.00    -0.246 OA
BRANCH  17  19
ATOM     19  C   UNL A   1      35.933  30.132  28.153  1.00  0.00     0.060 A 
ATOM     20  C   UNL A   1      37.012  30.263  27.276  1.00  0.00     0.016 A 
ATOM     21  C   UNL A   1      36.116  29.585  29.423  1.00  0.00     0.016 A 
ATOM     22  C   UNL A   1      38.276  29.816  27.648  1.00  0.00     0.010 A 
ATOM     23  C   UNL A   1      37.392  29.159  29.806  1.00  0.00     0.010 A 
ATOM     24  C   UNL A   1      38.475  29.257  28.915  1.00  0.00    -0.014 A 
BRANCH  24  25
ATOM     25  C   UNL A   1      39.819  28.758  29.287  1.00  0.00     0.031 A 
ATOM     26  C   UNL A   1      40.725  29.594  30.143  1.00  0.00     0.074 A 
ATOM     27  C   UNL A   1      40.211  27.537  28.880  1.00  0.00     0.049 A 
ATOM     28  N   UNL A   1      41.959  29.357  30.512  1.00  0.00    -0.248 NA
ATOM     29  C   UNL A   1      40.173  30.859  30.652  1.00  0.00     0.031 C 
ATOM     30  C   UNL A   1      39.402  26.606  28.093  1.00  0.00     0.029 A 
ATOM     31  N   UNL A   1      41.393  26.870  29.080  1.00  0.00    -0.354 N 
ATOM     32  C   UNL A   1      42.340  30.452  31.275  1.00  0.00     0.074 A 
ATOM     33  C   UNL A   1      41.210  31.357  31.312  1.00  0.00     0.031 C 
ATOM     34  C   UNL A   1      40.107  25.482  27.885  1.00  0.00     0.029 A 
ATOM     35  C   UNL A   1      41.430  25.634  28.484  1.00  0.00     0.049 A 
ATOM     36  H   UNL A   1      42.142  27.241  29.600  1.00  0.00     0.167 HD
ATOM     37  C   UNL A   1      43.525  30.684  31.888  1.00  0.00     0.031 A 
ATOM     38  C   UNL A   1      42.427  24.735  28.406  1.00  0.00     0.031 A 
ATOM     39  C   UNL A   1      44.645  29.782  31.865  1.00  0.00     0.049 A 
ATOM     40  C   UNL A   1      43.752  25.044  29.041  1.00  0.00     0.074 A 
ATOM     41  C   UNL A   1      45.884  29.929  32.465  1.00  0.00     0.029 A 
ATOM     42  N   UNL A   1      44.659  28.562  31.210  1.00  0.00    -0.354 N 
ATOM     43  N   UNL A   1      44.106  26.094  29.740  1.00  0.00    -0.248 NA
ATOM     44  C   UNL A   1      44.816  24.045  28.868  1.00  0.00     0.031 C 
ATOM     45  C   UNL A   1      46.662  28.810  32.142  1.00  0.00     0.029 A 
ATOM     46  C   UNL A   1      45.892  27.954  31.372  1.00  0.00     0.049 A 
ATOM     47  H   UNL A   1      43.904  28.183  30.703  1.00  0.00     0.167 HD
ATOM     48  C   UNL A   1      45.430  25.878  30.100  1.00  0.00     0.074 A 
ATOM     49  C   UNL A   1      45.810  24.593  29.554  1.00  0.00     0.031 C 
ATOM     50  C   UNL A   1      46.255  26.677  30.818  1.00  0.00     0.031 A 
BRANCH  37  51
ATOM     51  C   UNL A   1      43.681  31.990  32.610  1.00  0.00    -0.014 A 
ATOM     52  C   UNL A   1      44.149  33.135  31.948  1.00  0.00     0.009 A 
ATOM     53  C   UNL A   1      43.325  32.079  33.964  1.00  0.00     0.009 A 
ATOM     54  C   UNL A   1      44.279  34.342  32.639  1.00  0.00     0.001 A 
ATOM     55  C   UNL A   1      43.441  33.292  34.646  1.00  0.00     0.001 A 
ATOM     56  C   UNL A   1      43.922  34.420  33.985  1.00  0.00     0.000 A 
ENDBRANCH  37  51
BRANCH  38  57
ATOM     57  C   UNL A   1      42.222  23.467  27.665  1.00  0.00    -0.014 A 
ATOM     58  C   UNL A   1      42.564  23.371  26.308  1.00  0.00     0.009 A 
ATOM     59  C   UNL A   1      41.680  22.347  28.314  1.00  0.00     0.009 A 
ATOM     60  C   UNL A   1      42.353  22.179  25.611  1.00  0.00     0.001 A 
ATOM     61  C   UNL A   1      41.491  21.150  27.620  1.00  0.00     0.001 A 
ATOM     62  C   UNL A   1      41.821  21.071  26.268  1.00  0.00     0.000 A 
ENDBRANCH  38  57
BRANCH  50  63
ATOM     63  C   UNL A   1      47.644  26.168  31.068  1.00  0.00    -0.014 A 
ATOM     64  C   UNL A   1      48.637  26.270  30.081  1.00  0.00     0.009 A 
ATOM     65  C   UNL A   1      47.968  25.608  32.312  1.00  0.00     0.009 A 
ATOM     66  C   UNL A   1      49.925  25.796  30.331  1.00  0.00     0.001 A 
ATOM     67  C   UNL A   1      49.263  25.151  32.563  1.00  0.00     0.001 A 
ATOM     68  C   UNL A   1      50.238  25.239  31.571  1.00  0.00     0.000 A 
ENDBRANCH  50  63
ENDBRANCH  24  25
ENDBRANCH  17  19
ENDBRANCH  16  17
ENDBRANCH  15  16
ENDBRANCH   1  15
TORSDOF 15
ENDMDL
MODEL 3
REMARK VINA RESULT:      -8.8      3.876      5.633
REMARK SMILES CC(C)(C)C[C@@H](O)[C@@H](F)C(=O)OCCOC(=O)c1ccc(-c2c3nc(c(-c4ccccc4)c4ccc([nH]4)c(-c4ccccc4)c4nc(c(-c5ccccc5)c5ccc2[nH]5)C=C4)C=C3)cc1
REMARK SMILES IDX 13 1 12 2 10 3 11 4 8 5 9 6 6 7 5 8 2 9 1 10 3 11 4 12 7 13
REMARK SMILES IDX 14 15 15 16 16 17 17 18 18 19 19 20 65 21 20 22 64 23 21 24
REMARK SMILES IDX 22 25 23 26 58 27 24 28 63 29 57 30 59 31 25 32 62 33 56 34
REMARK SMILES IDX 55 35 26 37 48 38 33 39 47 40 34 41 37 42 46 43 60 44 35 45
REMARK SMILES IDX 36 46 45 48 61 49 38 50 27 51 28 52 32 53 29 54 31 55 30 56
REMARK SMILES IDX 49 57 50 58 54 59 51 60 53 61 52 62 39 63 40 64 44 65 41 66
REMARK SMILES IDX 43 67 42 68
REMARK H PARENT 7 14 59 36 37 47
REMARK Flexibility Score: inf
ROOT
ATOM      1  C   UNL A   1      34.751  34.893  32.184  1.00  0.00     0.274 C 
ENDROOT
BRANCH   1   2
ATOM      2  O   UNL A   1      34.947  34.210  30.929  1.00  0.00    -0.460 OA
BRANCH   2   3
ATOM      3  C   UNL A   1      33.984  34.406  29.983  1.00  0.00     0.343 C 
ATOM      4  O   UNL A   1      32.906  34.952  30.199  1.00  0.00    -0.249 OA
BRANCH   3   5
ATOM      5  C   UNL A   1      34.357  33.810  28.638  1.00  0.00     0.304 C 
ATOM      6  F   UNL A   1      33.317  33.085  28.123  1.00  0.00    -0.232 F 
BRANCH   5   7
ATOM      7  C   UNL A   1      35.609  32.919  28.681  1.00  0.00     0.160 C 
BRANCH   7   8
ATOM      8  C   UNL A   1      35.493  31.800  27.627  1.00  0.00     0.041 C 
BRANCH   8   9
ATOM      9  C   UNL A   1      35.945  30.379  28.071  1.00  0.00    -0.036 C 
ATOM     10  C   UNL A   1      35.881  30.172  29.593  1.00  0.00     0.011 C 
ATOM     11  C   UNL A   1      37.408  30.186  27.621  1.00  0.00     0.011 C 
ATOM     12  C   UNL A   1      35.077  29.311  27.384  1.00  0.00     0.011 C 
ENDBRANCH   8   9
ENDBRANCH   7   8
BRANCH   7  13
ATOM     13  O   UNL A   1      36.768  33.674  28.339  1.00  0.00    -0.389 OA
ATOM     14  H   UNL A   1      37.228  33.244  27.600  1.00  0.00     0.211 HD
ENDBRANCH   7  13
ENDBRANCH   5   7
ENDBRANCH   3   5
ENDBRANCH   2   3
ENDBRANCH   1   2
BRANCH   1  15
ATOM     15  C   UNL A   1      34.783  33.934  33.376  1.00  0.00     0.275 C 
BRANCH  15  16
ATOM     16  O   UNL A   1      35.403  32.679  33.037  1.00  0.00    -0.458 OA
BRANCH  16  17
ATOM     17  C   UNL A   1      36.577  32.438  33.663  1.00  0.00     0.338 C 
ATOM     18  O   UNL A   1      36.816  32.567  34.853  1.00  0.00    -0.246 OA
BRANCH  17  19
ATOM     19  C   UNL A   1      37.537  31.853  32.714  1.00  0.00     0.060 A 
ATOM     20  C   UNL A   1      38.329  30.785  33.143  1.00  0.00     0.016 A 
ATOM     21  C   UNL A   1      37.734  32.417  31.454  1.00  0.00     0.016 A 
ATOM     22  C   UNL A   1      39.345  30.294  32.330  1.00  0.00     0.010 A 
ATOM     23  C   UNL A   1      38.739  31.906  30.625  1.00  0.00     0.010 A 
ATOM     24  C   UNL A   1      39.560  30.853  31.066  1.00  0.00    -0.014 A 
BRANCH  24  25
ATOM     25  C   UNL A   1      40.664  30.340  30.222  1.00  0.00     0.031 A 
ATOM     26  C   UNL A   1      41.902  31.163  30.016  1.00  0.00     0.074 A 
ATOM     27  C   UNL A   1      40.565  29.118  29.667  1.00  0.00     0.049 A 
ATOM     28  N   UNL A   1      42.940  30.913  29.256  1.00  0.00    -0.248 NA
ATOM     29  C   UNL A   1      41.986  32.429  30.760  1.00  0.00     0.031 C 
ATOM     30  C   UNL A   1      39.440  28.199  29.838  1.00  0.00     0.029 A 
ATOM     31  N   UNL A   1      41.432  28.440  28.848  1.00  0.00    -0.354 N 
ATOM     32  C   UNL A   1      43.789  32.001  29.412  1.00  0.00     0.074 A 
ATOM     33  C   UNL A   1      43.144  32.914  30.332  1.00  0.00     0.031 C 
ATOM     34  C   UNL A   1      39.689  27.071  29.154  1.00  0.00     0.029 A 
ATOM     35  C   UNL A   1      40.967  27.208  28.462  1.00  0.00     0.049 A 
ATOM     36  H   UNL A   1      42.303  28.802  28.565  1.00  0.00     0.167 HD
ATOM     37  C   UNL A   1      44.996  32.218  28.838  1.00  0.00     0.031 A 
ATOM     38  C   UNL A   1      41.499  26.301  27.623  1.00  0.00     0.031 A 
ATOM     39  C   UNL A   1      45.645  31.307  27.934  1.00  0.00     0.049 A 
ATOM     40  C   UNL A   1      42.809  26.595  26.951  1.00  0.00     0.074 A 
ATOM     41  C   UNL A   1      46.874  31.441  27.310  1.00  0.00     0.029 A 
ATOM     42  N   UNL A   1      45.120  30.092  27.530  1.00  0.00    -0.354 N 
ATOM     43  N   UNL A   1      43.590  27.638  27.089  1.00  0.00    -0.248 NA
ATOM     44  C   UNL A   1      43.304  25.589  26.002  1.00  0.00     0.031 C 
ATOM     45  C   UNL A   1      47.076  30.317  26.499  1.00  0.00     0.029 A 
ATOM     46  C   UNL A   1      45.988  29.472  26.648  1.00  0.00     0.049 A 
ATOM     47  H   UNL A   1      44.256  29.723  27.826  1.00  0.00     0.167 HD
ATOM     48  C   UNL A   1      44.675  27.409  26.253  1.00  0.00     0.074 A 
ATOM     49  C   UNL A   1      44.458  26.123  25.623  1.00  0.00     0.031 C 
ATOM     50  C   UNL A   1      45.754  28.195  26.027  1.00  0.00     0.031 A 
BRANCH  37  51
ATOM     51  C   UNL A   1      45.678  33.519  29.146  1.00  0.00    -0.014 A 
ATOM     52  C   UNL A   1      45.447  34.664  28.369  1.00  0.00     0.009 A 
ATOM     53  C   UNL A   1      46.541  33.603  30.250  1.00  0.00     0.009 A 
ATOM     54  C   UNL A   1      46.088  35.865  28.680  1.00  0.00     0.001 A 
ATOM     55  C   UNL A   1      47.166  34.810  30.566  1.00  0.00     0.001 A 
ATOM     56  C   UNL A   1      46.944  35.938  29.779  1.00  0.00     0.000 A 
ENDBRANCH  37  51
BRANCH  38  57
ATOM     57  C   UNL A   1      40.772  25.039  27.342  1.00  0.00    -0.014 A 
ATOM     58  C   UNL A   1      39.632  25.041  26.526  1.00  0.00     0.009 A 
ATOM     59  C   UNL A   1      41.217  23.828  27.893  1.00  0.00     0.009 A 
ATOM     60  C   UNL A   1      38.942  23.852  26.277  1.00  0.00     0.001 A 
ATOM     61  C   UNL A   1      40.537  22.638  27.625  1.00  0.00     0.001 A 
ATOM     62  C   UNL A   1      39.397  22.653  26.824  1.00  0.00     0.000 A 
ENDBRANCH  38  57
BRANCH  50  63
ATOM     63  C   UNL A   1      46.788  27.674  25.074  1.00  0.00    -0.014 A 
ATOM     64  C   UNL A   1      46.812  28.096  23.736  1.00  0.00     0.009 A 
ATOM     65  C   UNL A   1      47.763  26.774  25.527  1.00  0.00     0.009 A 
ATOM     66  C   UNL A   1      47.782  27.604  22.862  1.00  0.00     0.001 A 
ATOM     67  C   UNL A   1      48.743  26.298  24.654  1.00  0.00     0.001 A 
ATOM     68  C   UNL A   1      48.747  26.708  23.321  1.00  0.00     0.000 A 
ENDBRANCH  50  63
ENDBRANCH  24  25
ENDBRANCH  17  19
ENDBRANCH  16  17
ENDBRANCH  15  16
ENDBRANCH   1  15
TORSDOF 15
ENDMDL
