MODEL 1
REMARK VINA RESULT:     -11.5      0.000      0.000
REMARK SMILES Cc1cc2cc(-c3ccc([C@@H](C)C(=O)OCCOC(=O)c4ccc(-c5c6nc(c(-c7ccccc7)c7ccc([nH]7)c(-c7ccccc7)c7nc(c(-c8ccccc8)c8ccc5[nH]8)C=C7)C=C6)cc4)cc3)ccc2[nH]1
REMARK SMILES IDX 16 1 15 2 13 3 14 4 11 5 12 6 10 7 7 8 8 9 70 10 9 11 69 12
REMARK SMILES IDX 6 13 1 14 2 15 3 16 74 17 4 18 73 19 5 21 72 22 71 23 17 24
REMARK SMILES IDX 18 25 19 26 20 27 21 28 22 29 68 30 23 31 67 32 24 33 25 34
REMARK SMILES IDX 26 35 61 36 27 37 66 38 60 39 62 40 28 41 65 42 59 43 58 44
REMARK SMILES IDX 29 46 51 47 36 48 50 49 37 50 40 51 49 52 63 53 38 54 39 55
REMARK SMILES IDX 48 57 64 58 41 59 30 60 31 61 35 62 32 63 34 64 33 65 52 66
REMARK SMILES IDX 53 67 57 68 54 69 56 70 55 71 42 72 43 73 47 74 44 75 46 76
REMARK SMILES IDX 45 77
REMARK H PARENT 74 20 62 45 40 56
REMARK Flexibility Score: inf
ROOT
ATOM      1  C   UNL A   1      44.012  21.372  25.261  1.00  0.00     0.274 C 
ENDROOT
BRANCH   1   2
ATOM      2  O   UNL A   1      42.580  21.434  25.397  1.00  0.00    -0.462 OA
BRANCH   2   3
ATOM      3  C   UNL A   1      42.075  21.381  26.657  1.00  0.00     0.313 C 
ATOM      4  O   UNL A   1      42.649  21.824  27.649  1.00  0.00    -0.252 OA
BRANCH   3   5
ATOM      5  C   UNL A   1      40.735  20.663  26.750  1.00  0.00     0.126 C 
ATOM      6  C   UNL A   1      40.860  19.256  26.169  1.00  0.00     0.025 C 
BRANCH   5   7
ATOM      7  C   UNL A   1      39.540  21.419  26.189  1.00  0.00    -0.034 A 
ATOM      8  C   UNL A   1      37.275  22.839  25.233  1.00  0.00    -0.018 A 
ATOM      9  C   UNL A   1      37.483  21.492  24.901  1.00  0.00     0.009 A 
ATOM     10  C   UNL A   1      38.236  23.476  26.025  1.00  0.00     0.009 A 
ATOM     11  C   UNL A   1      38.593  20.791  25.374  1.00  0.00     0.005 A 
ATOM     12  C   UNL A   1      39.351  22.775  26.501  1.00  0.00     0.005 A 
BRANCH   8  13
ATOM     13  C   UNL A   1      36.050  23.528  24.797  1.00  0.00    -0.018 A 
ATOM     14  C   UNL A   1      31.076  27.062  25.304  1.00  0.00     0.064 C 
ATOM     15  C   UNL A   1      32.277  26.214  25.118  1.00  0.00     0.013 A 
ATOM     16  C   UNL A   1      33.319  25.933  25.977  1.00  0.00     0.031 A 
ATOM     17  N   UNL A   1      32.517  25.530  23.950  1.00  0.00    -0.359 N 
ATOM     18  C   UNL A   1      34.202  25.040  25.316  1.00  0.00     0.000 A 
ATOM     19  C   UNL A   1      33.683  24.803  24.046  1.00  0.00     0.046 A 
ATOM     20  H   UNL A   1      31.937  25.558  23.154  1.00  0.00     0.166 HD
ATOM     21  C   UNL A   1      35.398  24.403  25.688  1.00  0.00     0.019 A 
ATOM     22  C   UNL A   1      34.311  23.960  23.123  1.00  0.00     0.027 A 
ATOM     23  C   UNL A   1      35.499  23.328  23.523  1.00  0.00     0.011 A 
ENDBRANCH   8  13
ENDBRANCH   5   7
ENDBRANCH   3   5
ENDBRANCH   2   3
ENDBRANCH   1   2
BRANCH   1  24
ATOM     24  C   UNL A   1      44.528  22.466  24.326  1.00  0.00     0.275 C 
BRANCH  24  25
ATOM     25  O   UNL A   1      43.815  23.699  24.534  1.00  0.00    -0.458 OA
BRANCH  25  26
ATOM     26  C   UNL A   1      44.565  24.726  24.993  1.00  0.00     0.338 C 
ATOM     27  O   UNL A   1      45.676  25.063  24.625  1.00  0.00    -0.246 OA
BRANCH  26  28
ATOM     28  C   UNL A   1      43.792  25.493  25.977  1.00  0.00     0.060 A 
ATOM     29  C   UNL A   1      44.206  26.794  26.271  1.00  0.00     0.016 A 
ATOM     30  C   UNL A   1      42.738  24.907  26.680  1.00  0.00     0.016 A 
ATOM     31  C   UNL A   1      43.586  27.513  27.286  1.00  0.00     0.010 A 
ATOM     32  C   UNL A   1      42.108  25.632  27.696  1.00  0.00     0.010 A 
ATOM     33  C   UNL A   1      42.544  26.930  28.019  1.00  0.00    -0.014 A 
BRANCH  33  34
ATOM     34  C   UNL A   1      41.966  27.662  29.169  1.00  0.00     0.031 A 
ATOM     35  C   UNL A   1      42.650  27.611  30.505  1.00  0.00     0.074 A 
ATOM     36  C   UNL A   1      40.854  28.401  29.007  1.00  0.00     0.049 A 
ATOM     37  N   UNL A   1      42.287  28.151  31.641  1.00  0.00    -0.248 NA
ATOM     38  C   UNL A   1      43.908  26.852  30.572  1.00  0.00     0.031 C 
ATOM     39  C   UNL A   1      40.125  28.570  27.749  1.00  0.00     0.029 A 
ATOM     40  N   UNL A   1      40.147  29.154  29.909  1.00  0.00    -0.354 N 
ATOM     41  C   UNL A   1      43.259  27.782  32.560  1.00  0.00     0.074 A 
ATOM     42  C   UNL A   1      44.220  26.962  31.855  1.00  0.00     0.031 C 
ATOM     43  C   UNL A   1      39.077  29.384  27.959  1.00  0.00     0.029 A 
ATOM     44  C   UNL A   1      39.041  29.761  29.369  1.00  0.00     0.049 A 
ATOM     45  H   UNL A   1      40.409  29.250  30.854  1.00  0.00     0.167 HD
ATOM     46  C   UNL A   1      43.345  28.100  33.874  1.00  0.00     0.031 A 
ATOM     47  C   UNL A   1      38.095  30.522  29.951  1.00  0.00     0.031 A 
ATOM     48  C   UNL A   1      42.393  28.917  34.577  1.00  0.00     0.049 A 
ATOM     49  C   UNL A   1      38.188  30.822  31.420  1.00  0.00     0.074 A 
ATOM     50  C   UNL A   1      42.394  29.292  35.909  1.00  0.00     0.029 A 
ATOM     51  N   UNL A   1      41.269  29.487  34.002  1.00  0.00    -0.354 N 
ATOM     52  N   UNL A   1      39.109  30.459  32.281  1.00  0.00    -0.248 NA
ATOM     53  C   UNL A   1      37.110  31.637  31.997  1.00  0.00     0.031 C 
ATOM     54  C   UNL A   1      41.250  30.063  36.148  1.00  0.00     0.029 A 
ATOM     55  C   UNL A   1      40.561  30.200  34.954  1.00  0.00     0.049 A 
ATOM     56  H   UNL A   1      41.012  29.398  33.055  1.00  0.00     0.167 HD
ATOM     57  C   UNL A   1      38.732  31.017  33.494  1.00  0.00     0.074 A 
ATOM     58  C   UNL A   1      37.508  31.755  33.256  1.00  0.00     0.031 C 
ATOM     59  C   UNL A   1      39.345  30.926  34.699  1.00  0.00     0.031 A 
BRANCH  46  60
ATOM     60  C   UNL A   1      44.499  27.526  34.644  1.00  0.00    -0.014 A 
ATOM     61  C   UNL A   1      45.731  28.192  34.714  1.00  0.00     0.009 A 
ATOM     62  C   UNL A   1      44.341  26.309  35.326  1.00  0.00     0.009 A 
ATOM     63  C   UNL A   1      46.794  27.635  35.429  1.00  0.00     0.001 A 
ATOM     64  C   UNL A   1      45.397  25.766  36.058  1.00  0.00     0.001 A 
ATOM     65  C   UNL A   1      46.625  26.424  36.102  1.00  0.00     0.000 A 
ENDBRANCH  46  60
BRANCH  47  66
ATOM     66  C   UNL A   1      36.964  31.043  29.142  1.00  0.00    -0.014 A 
ATOM     67  C   UNL A   1      36.932  32.386  28.740  1.00  0.00     0.009 A 
ATOM     68  C   UNL A   1      35.907  30.197  28.775  1.00  0.00     0.009 A 
ATOM     69  C   UNL A   1      35.853  32.876  28.002  1.00  0.00     0.001 A 
ATOM     70  C   UNL A   1      34.842  30.683  28.016  1.00  0.00     0.001 A 
ATOM     71  C   UNL A   1      34.811  32.024  27.637  1.00  0.00     0.000 A 
ENDBRANCH  47  66
BRANCH  59  72
ATOM     72  C   UNL A   1      38.715  31.668  35.843  1.00  0.00    -0.014 A 
ATOM     73  C   UNL A   1      37.944  30.997  36.805  1.00  0.00     0.009 A 
ATOM     74  C   UNL A   1      38.917  33.050  35.971  1.00  0.00     0.009 A 
ATOM     75  C   UNL A   1      37.364  31.705  37.859  1.00  0.00     0.001 A 
ATOM     76  C   UNL A   1      38.354  33.751  37.038  1.00  0.00     0.001 A 
ATOM     77  C   UNL A   1      37.571  33.080  37.976  1.00  0.00     0.000 A 
ENDBRANCH  59  72
ENDBRANCH  33  34
ENDBRANCH  26  28
ENDBRANCH  25  26
ENDBRANCH  24  25
ENDBRANCH   1  24
TORSDOF 13
ENDMDL
MODEL 2
REMARK VINA RESULT:     -11.5      3.770      6.729
REMARK SMILES Cc1cc2cc(-c3ccc([C@@H](C)C(=O)OCCOC(=O)c4ccc(-c5c6nc(c(-c7ccccc7)c7ccc([nH]7)c(-c7ccccc7)c7nc(c(-c8ccccc8)c8ccc5[nH]8)C=C7)C=C6)cc4)cc3)ccc2[nH]1
REMARK SMILES IDX 16 1 15 2 13 3 14 4 11 5 12 6 10 7 7 8 8 9 70 10 9 11 69 12
REMARK SMILES IDX 6 13 1 14 2 15 3 16 74 17 4 18 73 19 5 21 72 22 71 23 17 24
REMARK SMILES IDX 18 25 19 26 20 27 21 28 22 29 68 30 23 31 67 32 24 33 25 34
REMARK SMILES IDX 26 35 61 36 27 37 66 38 60 39 62 40 28 41 65 42 59 43 58 44
REMARK SMILES IDX 29 46 51 47 36 48 50 49 37 50 40 51 49 52 63 53 38 54 39 55
REMARK SMILES IDX 48 57 64 58 41 59 30 60 31 61 35 62 32 63 34 64 33 65 52 66
REMARK SMILES IDX 53 67 57 68 54 69 56 70 55 71 42 72 43 73 47 74 44 75 46 76
REMARK SMILES IDX 45 77
REMARK H PARENT 74 20 62 45 40 56
REMARK Flexibility Score: inf
ROOT
ATOM      1  C   UNL A   1      42.184  20.686  26.127  1.00  0.00     0.274 C 
ENDROOT
BRANCH   1   2
ATOM      2  O   UNL A   1      42.665  21.699  25.224  1.00  0.00    -0.462 OA
BRANCH   2   3
ATOM      3  C   UNL A   1      43.216  22.810  25.778  1.00  0.00     0.313 C 
ATOM      4  O   UNL A   1      43.103  23.119  26.962  1.00  0.00    -0.252 OA
BRANCH   3   5
ATOM      5  C   UNL A   1      43.956  23.690  24.779  1.00  0.00     0.126 C 
ATOM      6  C   UNL A   1      45.186  22.953  24.251  1.00  0.00     0.025 C 
BRANCH   5   7
ATOM      7  C   UNL A   1      44.283  25.098  25.254  1.00  0.00    -0.034 A 
ATOM      8  C   UNL A   1      44.897  27.754  26.048  1.00  0.00    -0.018 A 
ATOM      9  C   UNL A   1      45.778  26.693  26.311  1.00  0.00     0.009 A 
ATOM     10  C   UNL A   1      43.688  27.460  25.409  1.00  0.00     0.009 A 
ATOM     11  C   UNL A   1      45.480  25.388  25.917  1.00  0.00     0.005 A 
ATOM     12  C   UNL A   1      43.386  26.151  25.013  1.00  0.00     0.005 A 
BRANCH   8  13
ATOM     13  C   UNL A   1      45.278  29.133  26.390  1.00  0.00    -0.018 A 
ATOM     14  C   UNL A   1      44.471  34.933  28.178  1.00  0.00     0.064 C 
ATOM     15  C   UNL A   1      44.728  33.535  27.760  1.00  0.00     0.013 A 
ATOM     16  C   UNL A   1      43.881  32.448  27.692  1.00  0.00     0.031 A 
ATOM     17  N   UNL A   1      45.967  33.112  27.341  1.00  0.00    -0.359 N 
ATOM     18  C   UNL A   1      44.625  31.345  27.199  1.00  0.00     0.000 A 
ATOM     19  C   UNL A   1      45.930  31.781  26.988  1.00  0.00     0.046 A 
ATOM     20  H   UNL A   1      46.770  33.682  27.299  1.00  0.00     0.166 HD
ATOM     21  C   UNL A   1      44.302  30.009  26.904  1.00  0.00     0.019 A 
ATOM     22  C   UNL A   1      46.934  30.938  26.502  1.00  0.00     0.027 A 
ATOM     23  C   UNL A   1      46.583  29.612  26.206  1.00  0.00     0.011 A 
ENDBRANCH   8  13
ENDBRANCH   5   7
ENDBRANCH   3   5
ENDBRANCH   2   3
ENDBRANCH   1   2
BRANCH   1  24
ATOM     24  C   UNL A   1      40.655  20.644  26.148  1.00  0.00     0.275 C 
BRANCH  24  25
ATOM     25  O   UNL A   1      40.124  21.693  26.978  1.00  0.00    -0.458 OA
BRANCH  25  26
ATOM     26  C   UNL A   1      39.266  22.535  26.360  1.00  0.00     0.338 C 
ATOM     27  O   UNL A   1      38.420  22.263  25.527  1.00  0.00    -0.246 OA
BRANCH  26  28
ATOM     28  C   UNL A   1      39.418  23.884  26.920  1.00  0.00     0.060 A 
ATOM     29  C   UNL A   1      40.103  24.837  26.164  1.00  0.00     0.016 A 
ATOM     30  C   UNL A   1      38.985  24.180  28.213  1.00  0.00     0.016 A 
ATOM     31  C   UNL A   1      40.384  26.088  26.704  1.00  0.00     0.010 A 
ATOM     32  C   UNL A   1      39.260  25.440  28.754  1.00  0.00     0.010 A 
ATOM     33  C   UNL A   1      39.980  26.391  28.010  1.00  0.00    -0.014 A 
BRANCH  33  34
ATOM     34  C   UNL A   1      40.380  27.683  28.613  1.00  0.00     0.031 A 
ATOM     35  C   UNL A   1      41.793  27.879  29.086  1.00  0.00     0.074 A 
ATOM     36  C   UNL A   1      39.492  28.689  28.701  1.00  0.00     0.049 A 
ATOM     37  N   UNL A   1      42.331  28.919  29.671  1.00  0.00    -0.248 NA
ATOM     38  C   UNL A   1      42.720  26.759  28.870  1.00  0.00     0.031 C 
ATOM     39  C   UNL A   1      38.106  28.639  28.233  1.00  0.00     0.029 A 
ATOM     40  N   UNL A   1      39.630  29.955  29.210  1.00  0.00    -0.354 N 
ATOM     41  C   UNL A   1      43.653  28.571  29.912  1.00  0.00     0.074 A 
ATOM     42  C   UNL A   1      43.833  27.221  29.423  1.00  0.00     0.031 C 
ATOM     43  C   UNL A   1      37.523  29.825  28.471  1.00  0.00     0.029 A 
ATOM     44  C   UNL A   1      38.481  30.703  29.139  1.00  0.00     0.049 A 
ATOM     45  H   UNL A   1      40.472  30.295  29.591  1.00  0.00     0.167 HD
ATOM     46  C   UNL A   1      44.630  29.310  30.489  1.00  0.00     0.031 A 
ATOM     47  C   UNL A   1      38.225  31.949  29.579  1.00  0.00     0.031 A 
ATOM     48  C   UNL A   1      44.456  30.653  30.974  1.00  0.00     0.049 A 
ATOM     49  C   UNL A   1      39.314  32.732  30.257  1.00  0.00     0.074 A 
ATOM     50  C   UNL A   1      45.387  31.482  31.575  1.00  0.00     0.029 A 
ATOM     51  N   UNL A   1      43.268  31.363  30.912  1.00  0.00    -0.354 N 
ATOM     52  N   UNL A   1      40.559  32.387  30.486  1.00  0.00    -0.248 NA
ATOM     53  C   UNL A   1      38.962  34.075  30.735  1.00  0.00     0.031 C 
ATOM     54  C   UNL A   1      44.752  32.684  31.908  1.00  0.00     0.029 A 
ATOM     55  C   UNL A   1      43.438  32.616  31.476  1.00  0.00     0.049 A 
ATOM     56  H   UNL A   1      42.428  31.027  30.524  1.00  0.00     0.167 HD
ATOM     57  C   UNL A   1      41.141  33.477  31.118  1.00  0.00     0.074 A 
ATOM     58  C   UNL A   1      40.120  34.499  31.221  1.00  0.00     0.031 C 
ATOM     59  C   UNL A   1      42.410  33.619  31.571  1.00  0.00     0.031 A 
BRANCH  46  60
ATOM     60  C   UNL A   1      45.973  28.660  30.656  1.00  0.00    -0.014 A 
ATOM     61  C   UNL A   1      46.305  27.964  31.827  1.00  0.00     0.009 A 
ATOM     62  C   UNL A   1      46.913  28.730  29.615  1.00  0.00     0.009 A 
ATOM     63  C   UNL A   1      47.563  27.374  31.965  1.00  0.00     0.001 A 
ATOM     64  C   UNL A   1      48.161  28.121  29.746  1.00  0.00     0.001 A 
ATOM     65  C   UNL A   1      48.489  27.451  30.924  1.00  0.00     0.000 A 
ENDBRANCH  46  60
BRANCH  47  66
ATOM     66  C   UNL A   1      36.870  32.530  29.406  1.00  0.00    -0.014 A 
ATOM     67  C   UNL A   1      36.514  33.168  28.209  1.00  0.00     0.009 A 
ATOM     68  C   UNL A   1      35.929  32.456  30.443  1.00  0.00     0.009 A 
ATOM     69  C   UNL A   1      35.247  33.736  28.061  1.00  0.00     0.001 A 
ATOM     70  C   UNL A   1      34.655  33.003  30.285  1.00  0.00     0.001 A 
ATOM     71  C   UNL A   1      34.318  33.649  29.098  1.00  0.00     0.000 A 
ENDBRANCH  47  66
BRANCH  59  72
ATOM     72  C   UNL A   1      42.768  34.938  32.193  1.00  0.00    -0.014 A 
ATOM     73  C   UNL A   1      43.454  35.921  31.463  1.00  0.00     0.009 A 
ATOM     74  C   UNL A   1      42.392  35.207  33.518  1.00  0.00     0.009 A 
ATOM     75  C   UNL A   1      43.781  37.140  32.061  1.00  0.00     0.001 A 
ATOM     76  C   UNL A   1      42.702  36.435  34.104  1.00  0.00     0.001 A 
ATOM     77  C   UNL A   1      43.403  37.397  33.379  1.00  0.00     0.000 A 
ENDBRANCH  59  72
ENDBRANCH  33  34
ENDBRANCH  26  28
ENDBRANCH  25  26
ENDBRANCH  24  25
ENDBRANCH   1  24
TORSDOF 13
ENDMDL
MODEL 3
REMARK VINA RESULT:     -11.5      4.621      6.958
REMARK SMILES Cc1cc2cc(-c3ccc([C@@H](C)C(=O)OCCOC(=O)c4ccc(-c5c6nc(c(-c7ccccc7)c7ccc([nH]7)c(-c7ccccc7)c7nc(c(-c8ccccc8)c8ccc5[nH]8)C=C7)C=C6)cc4)cc3)ccc2[nH]1
REMARK SMILES IDX 16 1 15 2 13 3 14 4 11 5 12 6 10 7 7 8 8 9 70 10 9 11 69 12
REMARK SMILES IDX 6 13 1 14 2 15 3 16 74 17 4 18 73 19 5 21 72 22 71 23 17 24
REMARK SMILES IDX 18 25 19 26 20 27 21 28 22 29 68 30 23 31 67 32 24 33 25 34
REMARK SMILES IDX 26 35 61 36 27 37 66 38 60 39 62 40 28 41 65 42 59 43 58 44
REMARK SMILES IDX 29 46 51 47 36 48 50 49 37 50 40 51 49 52 63 53 38 54 39 55
REMARK SMILES IDX 48 57 64 58 41 59 30 60 31 61 35 62 32 63 34 64 33 65 52 66
REMARK SMILES IDX 53 67 57 68 54 69 56 70 55 71 42 72 43 73 47 74 44 75 46 76
REMARK SMILES IDX 45 77
REMARK H PARENT 74 20 62 45 40 56
REMARK Flexibility Score: inf
ROOT
ATOM      1  C   UNL A   1      42.654  18.689  26.640  1.00  0.00     0.274 C 
ENDROOT
BRANCH   1   2
ATOM      2  O   UNL A   1      41.837  19.817  26.279  1.00  0.00    -0.462 OA
BRANCH   2   3
ATOM      3  C   UNL A   1      41.211  20.475  27.289  1.00  0.00     0.313 C 
ATOM      4  O   UNL A   1      40.774  19.932  28.301  1.00  0.00    -0.252 OA
BRANCH   3   5
ATOM      5  C   UNL A   1      41.042  21.968  27.036  1.00  0.00     0.126 C 
ATOM      6  C   UNL A   1      41.461  22.755  28.276  1.00  0.00     0.025 C 
BRANCH   5   7
ATOM      7  C   UNL A   1      39.683  22.399  26.506  1.00  0.00    -0.034 A 
ATOM      8  C   UNL A   1      37.180  23.196  25.428  1.00  0.00    -0.018 A 
ATOM      9  C   UNL A   1      37.951  24.074  26.205  1.00  0.00     0.009 A 
ATOM     10  C   UNL A   1      37.667  21.900  25.225  1.00  0.00     0.009 A 
ATOM     11  C   UNL A   1      39.183  23.686  26.732  1.00  0.00     0.005 A 
ATOM     12  C   UNL A   1      38.902  21.508  25.752  1.00  0.00     0.005 A 
BRANCH   8  13
ATOM     13  C   UNL A   1      35.930  23.661  24.808  1.00  0.00    -0.018 A 
ATOM     14  C   UNL A   1      30.651  26.731  24.360  1.00  0.00     0.064 C 
ATOM     15  C   UNL A   1      31.930  25.982  24.405  1.00  0.00     0.013 A 
ATOM     16  C   UNL A   1      32.938  25.984  25.346  1.00  0.00     0.031 A 
ATOM     17  N   UNL A   1      32.297  25.101  23.416  1.00  0.00    -0.359 N 
ATOM     18  C   UNL A   1      33.931  25.063  24.923  1.00  0.00     0.000 A 
ATOM     19  C   UNL A   1      33.512  24.524  23.710  1.00  0.00     0.046 A 
ATOM     20  H   UNL A   1      31.765  24.910  22.609  1.00  0.00     0.166 HD
ATOM     21  C   UNL A   1      35.153  24.632  25.469  1.00  0.00     0.019 A 
ATOM     22  C   UNL A   1      34.265  23.575  23.010  1.00  0.00     0.027 A 
ATOM     23  C   UNL A   1      35.475  23.154  23.581  1.00  0.00     0.011 A 
ENDBRANCH   8  13
ENDBRANCH   5   7
ENDBRANCH   3   5
ENDBRANCH   2   3
ENDBRANCH   1   2
BRANCH   1  24
ATOM     24  C   UNL A   1      43.563  18.270  25.483  1.00  0.00     0.275 C 
BRANCH  24  25
ATOM     25  O   UNL A   1      43.636  19.305  24.486  1.00  0.00    -0.458 OA
BRANCH  25  26
ATOM     26  C   UNL A   1      44.887  19.625  24.082  1.00  0.00     0.338 C 
ATOM     27  O   UNL A   1      45.661  18.943  23.435  1.00  0.00    -0.246 OA
BRANCH  26  28
ATOM     28  C   UNL A   1      45.178  21.016  24.453  1.00  0.00     0.060 A 
ATOM     29  C   UNL A   1      45.653  21.267  25.742  1.00  0.00     0.016 A 
ATOM     30  C   UNL A   1      44.890  22.069  23.584  1.00  0.00     0.016 A 
ATOM     31  C   UNL A   1      45.822  22.575  26.182  1.00  0.00     0.010 A 
ATOM     32  C   UNL A   1      45.067  23.384  24.023  1.00  0.00     0.010 A 
ATOM     33  C   UNL A   1      45.512  23.643  25.332  1.00  0.00    -0.014 A 
BRANCH  33  34
ATOM     34  C   UNL A   1      45.590  25.029  25.848  1.00  0.00     0.031 A 
ATOM     35  C   UNL A   1      46.900  25.763  25.822  1.00  0.00     0.074 A 
ATOM     36  C   UNL A   1      44.481  25.642  26.300  1.00  0.00     0.049 A 
ATOM     37  N   UNL A   1      47.184  26.964  26.256  1.00  0.00    -0.248 NA
ATOM     38  C   UNL A   1      48.042  25.050  25.227  1.00  0.00     0.031 C 
ATOM     39  C   UNL A   1      43.142  25.054  26.332  1.00  0.00     0.029 A 
ATOM     40  N   UNL A   1      44.309  26.901  26.816  1.00  0.00    -0.354 N 
ATOM     41  C   UNL A   1      48.538  27.144  26.008  1.00  0.00     0.074 A 
ATOM     42  C   UNL A   1      49.022  25.925  25.396  1.00  0.00     0.031 C 
ATOM     43  C   UNL A   1      42.282  25.956  26.834  1.00  0.00     0.029 A 
ATOM     44  C   UNL A   1      43.016  27.167  27.192  1.00  0.00     0.049 A 
ATOM     45  H   UNL A   1      45.043  27.552  26.908  1.00  0.00     0.167 HD
ATOM     46  C   UNL A   1      49.308  28.228  26.264  1.00  0.00     0.031 A 
ATOM     47  C   UNL A   1      42.487  28.259  27.775  1.00  0.00     0.031 A 
ATOM     48  C   UNL A   1      48.829  29.442  26.869  1.00  0.00     0.049 A 
ATOM     49  C   UNL A   1      43.372  29.431  28.092  1.00  0.00     0.074 A 
ATOM     50  C   UNL A   1      49.535  30.593  27.169  1.00  0.00     0.029 A 
ATOM     51  N   UNL A   1      47.519  29.660  27.264  1.00  0.00    -0.354 N 
ATOM     52  N   UNL A   1      44.654  29.584  27.859  1.00  0.00    -0.248 NA
ATOM     53  C   UNL A   1      42.736  30.580  28.751  1.00  0.00     0.031 C 
ATOM     54  C   UNL A   1      48.657  31.498  27.779  1.00  0.00     0.029 A 
ATOM     55  C   UNL A   1      47.398  30.922  27.819  1.00  0.00     0.049 A 
ATOM     56  H   UNL A   1      46.784  29.013  27.164  1.00  0.00     0.167 HD
ATOM     57  C   UNL A   1      44.972  30.852  28.325  1.00  0.00     0.074 A 
ATOM     58  C   UNL A   1      43.748  31.432  28.839  1.00  0.00     0.031 C 
ATOM     59  C   UNL A   1      46.172  31.481  28.327  1.00  0.00     0.031 A 
BRANCH  46  60
ATOM     60  C   UNL A   1      50.766  28.130  25.918  1.00  0.00    -0.014 A 
ATOM     61  C   UNL A   1      51.258  28.608  24.695  1.00  0.00     0.009 A 
ATOM     62  C   UNL A   1      51.662  27.568  26.842  1.00  0.00     0.009 A 
ATOM     63  C   UNL A   1      52.617  28.499  24.391  1.00  0.00     0.001 A 
ATOM     64  C   UNL A   1      53.022  27.480  26.545  1.00  0.00     0.001 A 
ATOM     65  C   UNL A   1      53.498  27.937  25.317  1.00  0.00     0.000 A 
ENDBRANCH  46  60
BRANCH  47  66
ATOM     66  C   UNL A   1      41.042  28.288  28.115  1.00  0.00    -0.014 A 
ATOM     67  C   UNL A   1      40.556  27.595  29.232  1.00  0.00     0.009 A 
ATOM     68  C   UNL A   1      40.141  29.007  27.316  1.00  0.00     0.009 A 
ATOM     69  C   UNL A   1      39.192  27.605  29.532  1.00  0.00     0.001 A 
ATOM     70  C   UNL A   1      38.781  29.037  27.631  1.00  0.00     0.001 A 
ATOM     71  C   UNL A   1      38.307  28.329  28.734  1.00  0.00     0.000 A 
ENDBRANCH  47  66
BRANCH  59  72
ATOM     72  C   UNL A   1      46.210  32.878  28.876  1.00  0.00    -0.014 A 
ATOM     73  C   UNL A   1      46.486  33.117  30.231  1.00  0.00     0.009 A 
ATOM     74  C   UNL A   1      45.990  33.968  28.020  1.00  0.00     0.009 A 
ATOM     75  C   UNL A   1      46.513  34.423  30.723  1.00  0.00     0.001 A 
ATOM     76  C   UNL A   1      46.040  35.273  28.511  1.00  0.00     0.001 A 
ATOM     77  C   UNL A   1      46.292  35.500  29.863  1.00  0.00     0.000 A 
ENDBRANCH  59  72
ENDBRANCH  33  34
ENDBRANCH  26  28
ENDBRANCH  25  26
ENDBRANCH  24  25
ENDBRANCH   1  24
TORSDOF 13
ENDMDL
