MODEL 1
REMARK VINA RESULT:     -10.3      0.000      0.000
REMARK SMILES Cc1ccc([C@H](C)[N@@H+](CC(=O)OCCOC(=O)c2ccc(-c3c4nc(c(-c5ccccc5)c5ccc([nH]5)c(-c5ccccc5)c5nc(c(-c6ccccc6)c6ccc3[nH]6)C=C5)C=C4)cc2)CC(F)(F)F)cc1
REMARK SMILES IDX 13 1 12 2 10 3 11 4 9 5 8 6 6 8 7 9 5 10 1 11 2 12 3 13
REMARK SMILES IDX 72 14 4 15 71 16 66 17 67 18 68 19 69 20 70 21 14 22 15 23
REMARK SMILES IDX 16 24 17 25 18 26 19 27 65 28 20 29 64 30 21 31 22 32 23 33
REMARK SMILES IDX 58 34 24 35 63 36 57 37 59 38 25 39 62 40 56 41 55 42 26 44
REMARK SMILES IDX 48 45 33 46 47 47 34 48 37 49 46 50 60 51 35 52 36 53 45 55
REMARK SMILES IDX 61 56 38 57 27 58 28 59 32 60 29 61 31 62 30 63 49 64 50 65
REMARK SMILES IDX 54 66 51 67 53 68 52 69 39 70 40 71 44 72 41 73 43 74 42 75
REMARK H PARENT 8 7 59 43 37 54
REMARK Flexibility Score: inf
ROOT
ATOM      1  C   UNL A   1      33.556  28.412  27.061  1.00  0.00     0.274 C 
ENDROOT
BRANCH   1   2
ATOM      2  O   UNL A   1      32.702  28.418  25.897  1.00  0.00    -0.458 OA
BRANCH   2   3
ATOM      3  C   UNL A   1      33.134  27.681  24.858  1.00  0.00     0.361 C 
ATOM      4  O   UNL A   1      34.214  27.854  24.359  1.00  0.00    -0.245 OA
BRANCH   3   5
ATOM      5  C   UNL A   1      32.144  26.665  24.310  1.00  0.00     0.387 C 
BRANCH   5   6
ATOM      6  N   UNL A   1      32.560  25.300  24.717  1.00  0.00    -0.312 N 
ATOM      7  H   UNL A   1      33.323  25.341  25.394  1.00  0.00     0.349 HD
BRANCH   6   8
ATOM      8  C   UNL A   1      33.300  24.579  23.656  1.00  0.00     0.212 C 
ATOM      9  C   UNL A   1      33.149  25.170  22.259  1.00  0.00     0.081 C 
BRANCH   8  10
ATOM     10  C   UNL A   1      34.735  24.180  24.029  1.00  0.00     0.009 A 
ATOM     11  C   UNL A   1      38.094  21.880  25.504  1.00  0.00     0.044 C 
ATOM     12  C   UNL A   1      37.014  22.764  24.948  1.00  0.00    -0.051 A 
ATOM     13  C   UNL A   1      36.568  22.602  23.633  1.00  0.00     0.004 A 
ATOM     14  C   UNL A   1      36.397  23.731  25.751  1.00  0.00     0.004 A 
ATOM     15  C   UNL A   1      35.448  23.307  23.177  1.00  0.00     0.010 A 
ATOM     16  C   UNL A   1      35.278  24.445  25.293  1.00  0.00     0.010 A 
ENDBRANCH   8  10
ENDBRANCH   6   8
BRANCH   6  17
ATOM     17  C   UNL A   1      31.583  24.615  25.634  1.00  0.00     0.380 C 
BRANCH  17  18
ATOM     18  C   UNL A   1      31.716  23.364  26.583  1.00  0.00     0.438 C 
ATOM     19  F   UNL A   1      30.636  23.206  27.378  1.00  0.00    -0.165 F 
ATOM     20  F   UNL A   1      31.761  22.249  25.797  1.00  0.00    -0.165 F 
ATOM     21  F   UNL A   1      32.796  23.284  27.372  1.00  0.00    -0.165 F 
ENDBRANCH  17  18
ENDBRANCH   6  17
ENDBRANCH   5   6
ENDBRANCH   3   5
ENDBRANCH   2   3
ENDBRANCH   1   2
BRANCH   1  22
ATOM     22  C   UNL A   1      34.825  29.341  27.202  1.00  0.00     0.275 C 
BRANCH  22  23
ATOM     23  O   UNL A   1      35.494  29.865  28.457  1.00  0.00    -0.458 OA
BRANCH  23  24
ATOM     24  C   UNL A   1      36.525  29.590  29.319  1.00  0.00     0.338 C 
ATOM     25  O   UNL A   1      36.443  29.757  30.529  1.00  0.00    -0.246 OA
BRANCH  24  26
ATOM     26  C   UNL A   1      37.791  29.109  28.750  1.00  0.00     0.060 A 
ATOM     27  C   UNL A   1      38.522  29.559  27.637  1.00  0.00     0.016 A 
ATOM     28  C   UNL A   1      38.315  28.100  29.472  1.00  0.00     0.016 A 
ATOM     29  C   UNL A   1      39.794  28.982  27.386  1.00  0.00     0.010 A 
ATOM     30  C   UNL A   1      39.661  28.102  29.573  1.00  0.00     0.010 A 
ATOM     31  C   UNL A   1      40.351  28.210  28.399  1.00  0.00    -0.014 A 
BRANCH  31  32
ATOM     32  C   UNL A   1      41.443  27.237  28.482  1.00  0.00     0.031 A 
ATOM     33  C   UNL A   1      41.208  25.836  28.162  1.00  0.00     0.074 A 
ATOM     34  C   UNL A   1      42.691  27.799  28.430  1.00  0.00     0.049 A 
ATOM     35  N   UNL A   1      41.569  24.853  28.906  1.00  0.00    -0.248 NA
ATOM     36  C   UNL A   1      40.550  25.434  26.916  1.00  0.00     0.031 C 
ATOM     37  C   UNL A   1      44.019  27.298  28.126  1.00  0.00     0.029 A 
ATOM     38  N   UNL A   1      42.948  29.170  28.619  1.00  0.00    -0.354 N 
ATOM     39  C   UNL A   1      41.574  23.761  28.066  1.00  0.00     0.074 A 
ATOM     40  C   UNL A   1      40.722  24.106  26.946  1.00  0.00     0.031 C 
ATOM     41  C   UNL A   1      44.927  28.232  28.513  1.00  0.00     0.029 A 
ATOM     42  C   UNL A   1      44.219  29.365  29.116  1.00  0.00     0.049 A 
ATOM     43  H   UNL A   1      42.306  29.891  28.424  1.00  0.00     0.167 HD
ATOM     44  C   UNL A   1      42.595  22.858  28.128  1.00  0.00     0.031 A 
ATOM     45  C   UNL A   1      44.233  29.855  30.389  1.00  0.00     0.031 A 
ATOM     46  C   UNL A   1      43.717  23.410  28.899  1.00  0.00     0.049 A 
ATOM     47  C   UNL A   1      44.461  28.705  31.338  1.00  0.00     0.074 A 
ATOM     48  C   UNL A   1      44.932  23.936  28.487  1.00  0.00     0.029 A 
ATOM     49  N   UNL A   1      43.544  23.821  30.215  1.00  0.00    -0.354 N 
ATOM     50  N   UNL A   1      44.463  27.456  30.963  1.00  0.00    -0.248 NA
ATOM     51  C   UNL A   1      44.681  28.857  32.768  1.00  0.00     0.031 C 
ATOM     52  C   UNL A   1      45.442  24.741  29.541  1.00  0.00     0.029 A 
ATOM     53  C   UNL A   1      44.548  24.697  30.596  1.00  0.00     0.049 A 
ATOM     54  H   UNL A   1      42.806  23.530  30.798  1.00  0.00     0.167 HD
ATOM     55  C   UNL A   1      44.606  26.647  32.039  1.00  0.00     0.074 A 
ATOM     56  C   UNL A   1      44.789  27.571  33.147  1.00  0.00     0.031 C 
ATOM     57  C   UNL A   1      44.526  25.290  31.930  1.00  0.00     0.031 A 
BRANCH  44  58
ATOM     58  C   UNL A   1      42.742  21.661  27.219  1.00  0.00    -0.014 A 
ATOM     59  C   UNL A   1      41.872  20.564  27.372  1.00  0.00     0.009 A 
ATOM     60  C   UNL A   1      43.639  21.594  26.137  1.00  0.00     0.009 A 
ATOM     61  C   UNL A   1      41.924  19.446  26.532  1.00  0.00     0.001 A 
ATOM     62  C   UNL A   1      43.711  20.464  25.304  1.00  0.00     0.001 A 
ATOM     63  C   UNL A   1      42.851  19.390  25.503  1.00  0.00     0.000 A 
ENDBRANCH  44  58
BRANCH  45  64
ATOM     64  C   UNL A   1      43.199  30.956  30.594  1.00  0.00    -0.014 A 
ATOM     65  C   UNL A   1      43.469  32.243  30.067  1.00  0.00     0.009 A 
ATOM     66  C   UNL A   1      41.868  30.685  30.960  1.00  0.00     0.009 A 
ATOM     67  C   UNL A   1      42.447  33.183  29.847  1.00  0.00     0.001 A 
ATOM     68  C   UNL A   1      40.850  31.639  30.760  1.00  0.00     0.001 A 
ATOM     69  C   UNL A   1      41.135  32.876  30.183  1.00  0.00     0.000 A 
ENDBRANCH  45  64
BRANCH  57  70
ATOM     70  C   UNL A   1      44.486  24.382  33.115  1.00  0.00    -0.014 A 
ATOM     71  C   UNL A   1      43.309  24.055  33.797  1.00  0.00     0.009 A 
ATOM     72  C   UNL A   1      45.672  23.735  33.512  1.00  0.00     0.009 A 
ATOM     73  C   UNL A   1      43.336  23.205  34.903  1.00  0.00     0.001 A 
ATOM     74  C   UNL A   1      45.691  22.834  34.572  1.00  0.00     0.001 A 
ATOM     75  C   UNL A   1      44.526  22.594  35.287  1.00  0.00     0.000 A 
ENDBRANCH  57  70
ENDBRANCH  31  32
ENDBRANCH  24  26
ENDBRANCH  23  24
ENDBRANCH  22  23
ENDBRANCH   1  22
TORSDOF 16
ENDMDL
MODEL 2
REMARK VINA RESULT:     -10.2      1.772      3.456
REMARK SMILES Cc1ccc([C@H](C)[N@@H+](CC(=O)OCCOC(=O)c2ccc(-c3c4nc(c(-c5ccccc5)c5ccc([nH]5)c(-c5ccccc5)c5nc(c(-c6ccccc6)c6ccc3[nH]6)C=C5)C=C4)cc2)CC(F)(F)F)cc1
REMARK SMILES IDX 13 1 12 2 10 3 11 4 9 5 8 6 6 8 7 9 5 10 1 11 2 12 3 13
REMARK SMILES IDX 72 14 4 15 71 16 66 17 67 18 68 19 69 20 70 21 14 22 15 23
REMARK SMILES IDX 16 24 17 25 18 26 19 27 65 28 20 29 64 30 21 31 22 32 23 33
REMARK SMILES IDX 58 34 24 35 63 36 57 37 59 38 25 39 62 40 56 41 55 42 26 44
REMARK SMILES IDX 48 45 33 46 47 47 34 48 37 49 46 50 60 51 35 52 36 53 45 55
REMARK SMILES IDX 61 56 38 57 27 58 28 59 32 60 29 61 31 62 30 63 49 64 50 65
REMARK SMILES IDX 54 66 51 67 53 68 52 69 39 70 40 71 44 72 41 73 43 74 42 75
REMARK H PARENT 8 7 59 43 37 54
REMARK Flexibility Score: inf
ROOT
ATOM      1  C   UNL A   1      33.403  30.568  27.181  1.00  0.00     0.274 C 
ENDROOT
BRANCH   1   2
ATOM      2  O   UNL A   1      32.245  29.859  26.692  1.00  0.00    -0.458 OA
BRANCH   2   3
ATOM      3  C   UNL A   1      32.427  29.171  25.551  1.00  0.00     0.361 C 
ATOM      4  O   UNL A   1      32.933  29.670  24.579  1.00  0.00    -0.245 OA
BRANCH   3   5
ATOM      5  C   UNL A   1      31.889  27.749  25.542  1.00  0.00     0.387 C 
BRANCH   5   6
ATOM      6  N   UNL A   1      32.048  27.169  24.185  1.00  0.00    -0.312 N 
ATOM      7  H   UNL A   1      32.211  27.903  23.494  1.00  0.00     0.349 HD
BRANCH   6   8
ATOM      8  C   UNL A   1      30.776  26.668  23.616  1.00  0.00     0.212 C 
ATOM      9  C   UNL A   1      30.021  25.688  24.508  1.00  0.00     0.081 C 
BRANCH   8  10
ATOM     10  C   UNL A   1      29.897  27.741  22.959  1.00  0.00     0.009 A 
ATOM     11  C   UNL A   1      27.805  31.471  22.280  1.00  0.00     0.044 C 
ATOM     12  C   UNL A   1      28.496  30.141  22.396  1.00  0.00    -0.051 A 
ATOM     13  C   UNL A   1      29.826  29.993  21.995  1.00  0.00     0.004 A 
ATOM     14  C   UNL A   1      27.837  29.040  22.957  1.00  0.00     0.004 A 
ATOM     15  C   UNL A   1      30.515  28.805  22.265  1.00  0.00     0.010 A 
ATOM     16  C   UNL A   1      28.524  27.845  23.222  1.00  0.00     0.010 A 
ENDBRANCH   8  10
ENDBRANCH   6   8
BRANCH   6  17
ATOM     17  C   UNL A   1      33.363  26.470  23.973  1.00  0.00     0.380 C 
BRANCH  17  18
ATOM     18  C   UNL A   1      33.941  25.109  24.519  1.00  0.00     0.438 C 
ATOM     19  F   UNL A   1      34.691  24.464  23.599  1.00  0.00    -0.165 F 
ATOM     20  F   UNL A   1      34.790  25.400  25.547  1.00  0.00    -0.165 F 
ATOM     21  F   UNL A   1      33.079  24.212  25.016  1.00  0.00    -0.165 F 
ENDBRANCH  17  18
ENDBRANCH   6  17
ENDBRANCH   5   6
ENDBRANCH   3   5
ENDBRANCH   2   3
ENDBRANCH   1   2
BRANCH   1  22
ATOM     22  C   UNL A   1      34.750  29.847  27.579  1.00  0.00     0.275 C 
BRANCH  22  23
ATOM     23  O   UNL A   1      35.690  30.140  28.731  1.00  0.00    -0.458 OA
BRANCH  23  24
ATOM     24  C   UNL A   1      36.616  29.535  29.542  1.00  0.00     0.338 C 
ATOM     25  O   UNL A   1      36.473  29.431  30.753  1.00  0.00    -0.246 OA
BRANCH  24  26
ATOM     26  C   UNL A   1      37.846  29.023  28.923  1.00  0.00     0.060 A 
ATOM     27  C   UNL A   1      38.505  29.410  27.743  1.00  0.00     0.016 A 
ATOM     28  C   UNL A   1      38.419  28.057  29.666  1.00  0.00     0.016 A 
ATOM     29  C   UNL A   1      39.761  28.822  27.446  1.00  0.00     0.010 A 
ATOM     30  C   UNL A   1      39.769  28.066  29.683  1.00  0.00     0.010 A 
ATOM     31  C   UNL A   1      40.383  28.108  28.464  1.00  0.00    -0.014 A 
BRANCH  31  32
ATOM     32  C   UNL A   1      41.483  27.143  28.534  1.00  0.00     0.031 A 
ATOM     33  C   UNL A   1      41.259  25.745  28.193  1.00  0.00     0.074 A 
ATOM     34  C   UNL A   1      42.727  27.715  28.491  1.00  0.00     0.049 A 
ATOM     35  N   UNL A   1      41.628  24.754  28.922  1.00  0.00    -0.248 NA
ATOM     36  C   UNL A   1      40.605  25.357  26.940  1.00  0.00     0.031 C 
ATOM     37  C   UNL A   1      44.059  27.229  28.181  1.00  0.00     0.029 A 
ATOM     38  N   UNL A   1      42.973  29.085  28.701  1.00  0.00    -0.354 N 
ATOM     39  C   UNL A   1      41.642  23.675  28.065  1.00  0.00     0.074 A 
ATOM     40  C   UNL A   1      40.787  24.029  26.950  1.00  0.00     0.031 C 
ATOM     41  C   UNL A   1      44.959  28.164  28.582  1.00  0.00     0.029 A 
ATOM     42  C   UNL A   1      44.243  29.283  29.201  1.00  0.00     0.049 A 
ATOM     43  H   UNL A   1      42.326  29.804  28.516  1.00  0.00     0.167 HD
ATOM     44  C   UNL A   1      42.669  22.778  28.115  1.00  0.00     0.031 A 
ATOM     45  C   UNL A   1      44.252  29.754  30.481  1.00  0.00     0.031 A 
ATOM     46  C   UNL A   1      43.787  23.328  28.894  1.00  0.00     0.049 A 
ATOM     47  C   UNL A   1      44.488  28.591  31.413  1.00  0.00     0.074 A 
ATOM     48  C   UNL A   1      44.998  23.869  28.492  1.00  0.00     0.029 A 
ATOM     49  N   UNL A   1      43.609  23.718  30.217  1.00  0.00    -0.354 N 
ATOM     50  N   UNL A   1      44.500  27.348  31.020  1.00  0.00    -0.248 NA
ATOM     51  C   UNL A   1      44.706  28.724  32.845  1.00  0.00     0.031 C 
ATOM     52  C   UNL A   1      45.501  24.662  29.557  1.00  0.00     0.029 A 
ATOM     53  C   UNL A   1      44.607  24.595  30.611  1.00  0.00     0.049 A 
ATOM     54  H   UNL A   1      42.873  23.412  30.795  1.00  0.00     0.167 HD
ATOM     55  C   UNL A   1      44.649  26.524  32.084  1.00  0.00     0.074 A 
ATOM     56  C   UNL A   1      44.824  27.432  33.205  1.00  0.00     0.031 C 
ATOM     57  C   UNL A   1      44.579  25.169  31.955  1.00  0.00     0.031 A 
BRANCH  44  58
ATOM     58  C   UNL A   1      42.826  21.597  27.188  1.00  0.00    -0.014 A 
ATOM     59  C   UNL A   1      41.997  20.471  27.355  1.00  0.00     0.009 A 
ATOM     60  C   UNL A   1      43.691  21.569  26.078  1.00  0.00     0.009 A 
ATOM     61  C   UNL A   1      42.058  19.363  26.502  1.00  0.00     0.001 A 
ATOM     62  C   UNL A   1      43.772  20.451  25.231  1.00  0.00     0.001 A 
ATOM     63  C   UNL A   1      42.954  19.349  25.444  1.00  0.00     0.000 A 
ENDBRANCH  44  58
BRANCH  45  64
ATOM     64  C   UNL A   1      43.209  30.843  30.702  1.00  0.00    -0.014 A 
ATOM     65  C   UNL A   1      43.436  32.121  30.133  1.00  0.00     0.009 A 
ATOM     66  C   UNL A   1      41.899  30.561  31.130  1.00  0.00     0.009 A 
ATOM     67  C   UNL A   1      42.391  33.039  29.933  1.00  0.00     0.001 A 
ATOM     68  C   UNL A   1      40.858  31.494  30.949  1.00  0.00     0.001 A 
ATOM     69  C   UNL A   1      41.099  32.720  30.330  1.00  0.00     0.000 A 
ENDBRANCH  45  64
BRANCH  57  70
ATOM     70  C   UNL A   1      44.545  24.242  33.125  1.00  0.00    -0.014 A 
ATOM     71  C   UNL A   1      45.571  23.339  33.424  1.00  0.00     0.009 A 
ATOM     72  C   UNL A   1      43.479  24.345  34.040  1.00  0.00     0.009 A 
ATOM     73  C   UNL A   1      45.480  22.494  34.529  1.00  0.00     0.001 A 
ATOM     74  C   UNL A   1      43.418  23.551  35.180  1.00  0.00     0.001 A 
ATOM     75  C   UNL A   1      44.405  22.602  35.407  1.00  0.00     0.000 A 
ENDBRANCH  57  70
ENDBRANCH  31  32
ENDBRANCH  24  26
ENDBRANCH  23  24
ENDBRANCH  22  23
ENDBRANCH   1  22
TORSDOF 16
ENDMDL
MODEL 3
REMARK VINA RESULT:     -10.1      4.043      6.586
REMARK SMILES Cc1ccc([C@H](C)[N@@H+](CC(=O)OCCOC(=O)c2ccc(-c3c4nc(c(-c5ccccc5)c5ccc([nH]5)c(-c5ccccc5)c5nc(c(-c6ccccc6)c6ccc3[nH]6)C=C5)C=C4)cc2)CC(F)(F)F)cc1
REMARK SMILES IDX 13 1 12 2 10 3 11 4 9 5 8 6 6 8 7 9 5 10 1 11 2 12 3 13
REMARK SMILES IDX 72 14 4 15 71 16 66 17 67 18 68 19 69 20 70 21 14 22 15 23
REMARK SMILES IDX 16 24 17 25 18 26 19 27 65 28 20 29 64 30 21 31 22 32 23 33
REMARK SMILES IDX 58 34 24 35 63 36 57 37 59 38 25 39 62 40 56 41 55 42 26 44
REMARK SMILES IDX 48 45 33 46 47 47 34 48 37 49 46 50 60 51 35 52 36 53 45 55
REMARK SMILES IDX 61 56 38 57 27 58 28 59 32 60 29 61 31 62 30 63 49 64 50 65
REMARK SMILES IDX 54 66 51 67 53 68 52 69 39 70 40 71 44 72 41 73 43 74 42 75
REMARK H PARENT 8 7 59 43 37 54
REMARK Flexibility Score: inf
ROOT
ATOM      1  C   UNL A   1      35.411  32.147  31.697  1.00  0.00     0.274 C 
ENDROOT
BRANCH   1   2
ATOM      2  O   UNL A   1      35.661  32.887  32.912  1.00  0.00    -0.458 OA
BRANCH   2   3
ATOM      3  C   UNL A   1      35.920  34.197  32.748  1.00  0.00     0.361 C 
ATOM      4  O   UNL A   1      35.166  34.928  32.161  1.00  0.00    -0.245 OA
BRANCH   3   5
ATOM      5  C   UNL A   1      37.257  34.679  33.288  1.00  0.00     0.387 C 
BRANCH   5   6
ATOM      6  N   UNL A   1      38.355  33.926  32.633  1.00  0.00    -0.312 N 
ATOM      7  H   UNL A   1      38.039  32.998  32.350  1.00  0.00     0.349 HD
BRANCH   6   8
ATOM      8  C   UNL A   1      39.398  33.478  33.584  1.00  0.00     0.212 C 
ATOM      9  C   UNL A   1      39.040  33.655  35.055  1.00  0.00     0.081 C 
BRANCH   8  10
ATOM     10  C   UNL A   1      40.044  32.128  33.242  1.00  0.00     0.009 A 
ATOM     11  C   UNL A   1      41.291  27.992  33.538  1.00  0.00     0.044 C 
ATOM     12  C   UNL A   1      40.905  29.427  33.315  1.00  0.00    -0.051 A 
ATOM     13  C   UNL A   1      39.655  29.753  32.782  1.00  0.00     0.004 A 
ATOM     14  C   UNL A   1      41.768  30.466  33.685  1.00  0.00     0.004 A 
ATOM     15  C   UNL A   1      39.233  31.086  32.738  1.00  0.00     0.010 A 
ATOM     16  C   UNL A   1      41.350  31.805  33.635  1.00  0.00     0.010 A 
ENDBRANCH   8  10
ENDBRANCH   6   8
BRANCH   6  17
ATOM     17  C   UNL A   1      38.675  34.405  31.243  1.00  0.00     0.380 C 
BRANCH  17  18
ATOM     18  C   UNL A   1      38.240  33.895  29.817  1.00  0.00     0.438 C 
ATOM     19  F   UNL A   1      36.975  34.253  29.508  1.00  0.00    -0.165 F 
ATOM     20  F   UNL A   1      39.033  34.512  28.894  1.00  0.00    -0.165 F 
ATOM     21  F   UNL A   1      38.348  32.585  29.557  1.00  0.00    -0.165 F 
ENDBRANCH  17  18
ENDBRANCH   6  17
ENDBRANCH   5   6
ENDBRANCH   3   5
ENDBRANCH   2   3
ENDBRANCH   1   2
BRANCH   1  22
ATOM     22  C   UNL A   1      35.900  30.663  31.477  1.00  0.00     0.275 C 
BRANCH  22  23
ATOM     23  O   UNL A   1      36.816  30.105  30.406  1.00  0.00    -0.458 OA
BRANCH  23  24
ATOM     24  C   UNL A   1      36.803  29.646  29.114  1.00  0.00     0.338 C 
ATOM     25  O   UNL A   1      35.795  29.643  28.419  1.00  0.00    -0.246 OA
BRANCH  24  26
ATOM     26  C   UNL A   1      38.050  29.103  28.561  1.00  0.00     0.060 A 
ATOM     27  C   UNL A   1      38.810  29.508  27.449  1.00  0.00     0.016 A 
ATOM     28  C   UNL A   1      38.523  28.079  29.296  1.00  0.00     0.016 A 
ATOM     29  C   UNL A   1      40.056  28.873  27.214  1.00  0.00     0.010 A 
ATOM     30  C   UNL A   1      39.867  28.022  29.408  1.00  0.00     0.010 A 
ATOM     31  C   UNL A   1      40.570  28.087  28.239  1.00  0.00    -0.014 A 
BRANCH  31  32
ATOM     32  C   UNL A   1      41.617  27.067  28.341  1.00  0.00     0.031 A 
ATOM     33  C   UNL A   1      41.321  25.674  28.035  1.00  0.00     0.074 A 
ATOM     34  C   UNL A   1      42.890  27.572  28.292  1.00  0.00     0.049 A 
ATOM     35  N   UNL A   1      41.633  24.685  28.792  1.00  0.00    -0.248 NA
ATOM     36  C   UNL A   1      40.655  25.288  26.789  1.00  0.00     0.031 C 
ATOM     37  C   UNL A   1      44.195  27.009  28.003  1.00  0.00     0.029 A 
ATOM     38  N   UNL A   1      43.206  28.932  28.468  1.00  0.00    -0.354 N 
ATOM     39  C   UNL A   1      41.595  23.584  27.964  1.00  0.00     0.074 A 
ATOM     40  C   UNL A   1      40.766  23.954  26.835  1.00  0.00     0.031 C 
ATOM     41  C   UNL A   1      45.142  27.905  28.386  1.00  0.00     0.029 A 
ATOM     42  C   UNL A   1      44.482  29.076  28.972  1.00  0.00     0.049 A 
ATOM     43  H   UNL A   1      42.599  29.679  28.260  1.00  0.00     0.167 HD
ATOM     44  C   UNL A   1      42.573  22.636  28.044  1.00  0.00     0.031 A 
ATOM     45  C   UNL A   1      44.509  29.579  30.239  1.00  0.00     0.031 A 
ATOM     46  C   UNL A   1      43.714  23.147  28.816  1.00  0.00     0.049 A 
ATOM     47  C   UNL A   1      44.679  28.430  31.202  1.00  0.00     0.074 A 
ATOM     48  C   UNL A   1      44.954  23.613  28.408  1.00  0.00     0.029 A 
ATOM     49  N   UNL A   1      43.551  23.580  30.127  1.00  0.00    -0.354 N 
ATOM     50  N   UNL A   1      44.627  27.179  30.841  1.00  0.00    -0.248 NA
ATOM     51  C   UNL A   1      44.896  28.589  32.632  1.00  0.00     0.031 C 
ATOM     52  C   UNL A   1      45.493  24.406  29.456  1.00  0.00     0.029 A 
ATOM     53  C   UNL A   1      44.591  24.414  30.505  1.00  0.00     0.049 A 
ATOM     54  H   UNL A   1      42.796  23.329  30.708  1.00  0.00     0.167 HD
ATOM     55  C   UNL A   1      44.726  26.376  31.927  1.00  0.00     0.074 A 
ATOM     56  C   UNL A   1      44.944  27.303  33.026  1.00  0.00     0.031 C 
ATOM     57  C   UNL A   1      44.586  25.023  31.833  1.00  0.00     0.031 A 
BRANCH  44  58
ATOM     58  C   UNL A   1      42.673  21.424  27.149  1.00  0.00    -0.014 A 
ATOM     59  C   UNL A   1      43.629  21.404  26.116  1.00  0.00     0.009 A 
ATOM     60  C   UNL A   1      41.931  20.242  27.330  1.00  0.00     0.009 A 
ATOM     61  C   UNL A   1      43.805  20.294  25.281  1.00  0.00     0.001 A 
ATOM     62  C   UNL A   1      42.088  19.133  26.482  1.00  0.00     0.001 A 
ATOM     63  C   UNL A   1      43.027  19.160  25.458  1.00  0.00     0.000 A 
ENDBRANCH  44  58
BRANCH  45  64
ATOM     64  C   UNL A   1      43.524  30.727  30.425  1.00  0.00    -0.014 A 
ATOM     65  C   UNL A   1      44.037  32.041  30.561  1.00  0.00     0.009 A 
ATOM     66  C   UNL A   1      42.156  30.607  30.122  1.00  0.00     0.009 A 
ATOM     67  C   UNL A   1      43.239  33.175  30.332  1.00  0.00     0.001 A 
ATOM     68  C   UNL A   1      41.353  31.746  29.916  1.00  0.00     0.001 A 
ATOM     69  C   UNL A   1      41.899  33.027  29.998  1.00  0.00     0.000 A 
ENDBRANCH  45  64
BRANCH  57  70
ATOM     70  C   UNL A   1      44.498  24.131  33.027  1.00  0.00    -0.014 A 
ATOM     71  C   UNL A   1      45.522  23.262  33.418  1.00  0.00     0.009 A 
ATOM     72  C   UNL A   1      43.372  24.235  33.868  1.00  0.00     0.009 A 
ATOM     73  C   UNL A   1      45.379  22.447  34.541  1.00  0.00     0.001 A 
ATOM     74  C   UNL A   1      43.255  23.472  35.026  1.00  0.00     0.001 A 
ATOM     75  C   UNL A   1      44.247  22.555  35.345  1.00  0.00     0.000 A 
ENDBRANCH  57  70
ENDBRANCH  31  32
ENDBRANCH  24  26
ENDBRANCH  23  24
ENDBRANCH  22  23
ENDBRANCH   1  22
TORSDOF 16
ENDMDL
