MODEL 1
REMARK VINA RESULT:     -10.3      0.000      0.000
REMARK SMILES CCOc1cc(OCC)cc(-c2ccc([C@@H](C)C(=O)OCCOC(=O)c3ccc(-c4c5nc(c(-c6ccccc6)c6ccc([nH]6)c(-c6ccccc6)c6nc(c(-c7ccccc7)c7ccc4[nH]7)C=C6)C=C5)cc3)cc2)c1
REMARK SMILES IDX 21 1 20 2 18 3 19 4 16 5 17 6 15 7 12 8 13 9 75 10 14 11
REMARK SMILES IDX 74 12 11 13 4 14 5 15 76 16 6 17 10 18 3 19 2 20 1 21 7 22
REMARK SMILES IDX 8 23 9 24 22 25 23 26 24 27 25 28 26 29 27 30 73 31 28 32
REMARK SMILES IDX 72 33 29 34 30 35 31 36 66 37 32 38 71 39 65 40 67 41 33 42
REMARK SMILES IDX 70 43 64 44 63 45 34 47 56 48 41 49 55 50 42 51 45 52 54 53
REMARK SMILES IDX 68 54 43 55 44 56 53 58 69 59 46 60 35 61 36 62 40 63 37 64
REMARK SMILES IDX 39 65 38 66 57 67 58 68 62 69 59 70 61 71 60 72 47 73 48 74
REMARK SMILES IDX 52 75 49 76 51 77 50 78
REMARK H PARENT 67 46 45 57
REMARK Flexibility Score: inf
ROOT
ATOM      1  C   UNL A   1      42.712  18.875  26.443  1.00  0.00     0.274 C 
ENDROOT
BRANCH   1   2
ATOM      2  O   UNL A   1      41.957  20.049  26.092  1.00  0.00    -0.462 OA
BRANCH   2   3
ATOM      3  C   UNL A   1      41.220  20.629  27.074  1.00  0.00     0.313 C 
ATOM      4  O   UNL A   1      40.775  20.033  28.050  1.00  0.00    -0.252 OA
BRANCH   3   5
ATOM      5  C   UNL A   1      40.952  22.112  26.840  1.00  0.00     0.126 C 
ATOM      6  C   UNL A   1      41.409  22.926  28.048  1.00  0.00     0.025 C 
BRANCH   5   7
ATOM      7  C   UNL A   1      39.538  22.463  26.410  1.00  0.00    -0.034 A 
ATOM      8  C   UNL A   1      36.911  23.100  25.554  1.00  0.00    -0.018 A 
ATOM      9  C   UNL A   1      37.702  24.042  26.231  1.00  0.00     0.009 A 
ATOM     10  C   UNL A   1      37.444  21.825  25.335  1.00  0.00     0.009 A 
ATOM     11  C   UNL A   1      38.998  23.734  26.641  1.00  0.00     0.005 A 
ATOM     12  C   UNL A   1      38.740  21.510  25.757  1.00  0.00     0.005 A 
BRANCH   8  13
ATOM     13  C   UNL A   1      35.583  23.483  25.054  1.00  0.00    -0.011 A 
ATOM     14  C   UNL A   1      34.078  24.149  23.275  1.00  0.00     0.123 A 
ATOM     15  C   UNL A   1      33.002  24.139  24.164  1.00  0.00     0.092 A 
ATOM     16  C   UNL A   1      35.364  23.844  23.720  1.00  0.00     0.055 A 
ATOM     17  C   UNL A   1      33.203  23.812  25.505  1.00  0.00     0.123 A 
ATOM     18  C   UNL A   1      34.488  23.488  25.935  1.00  0.00     0.055 A 
BRANCH  14  19
ATOM     19  O   UNL A   1      33.852  24.582  21.997  1.00  0.00    -0.494 OA
BRANCH  19  20
ATOM     20  C   UNL A   1      32.977  25.715  21.919  1.00  0.00     0.226 C 
ATOM     21  C   UNL A   1      33.665  26.987  22.388  1.00  0.00     0.049 C 
ENDBRANCH  19  20
ENDBRANCH  14  19
BRANCH  17  22
ATOM     22  O   UNL A   1      32.088  23.812  26.299  1.00  0.00    -0.494 OA
BRANCH  22  23
ATOM     23  C   UNL A   1      31.036  22.901  25.966  1.00  0.00     0.226 C 
ATOM     24  C   UNL A   1      29.900  22.963  26.977  1.00  0.00     0.049 C 
ENDBRANCH  22  23
ENDBRANCH  17  22
ENDBRANCH   8  13
ENDBRANCH   5   7
ENDBRANCH   3   5
ENDBRANCH   2   3
ENDBRANCH   1   2
BRANCH   1  25
ATOM     25  C   UNL A   1      43.400  18.283  25.213  1.00  0.00     0.275 C 
BRANCH  25  26
ATOM     26  O   UNL A   1      44.809  18.576  25.230  1.00  0.00    -0.458 OA
BRANCH  26  27
ATOM     27  C   UNL A   1      45.263  19.304  24.185  1.00  0.00     0.338 C 
ATOM     28  O   UNL A   1      45.627  18.906  23.095  1.00  0.00    -0.246 OA
BRANCH  27  29
ATOM     29  C   UNL A   1      45.207  20.725  24.540  1.00  0.00     0.060 A 
ATOM     30  C   UNL A   1      44.853  21.659  23.562  1.00  0.00     0.016 A 
ATOM     31  C   UNL A   1      45.583  21.136  25.818  1.00  0.00     0.016 A 
ATOM     32  C   UNL A   1      44.883  23.019  23.854  1.00  0.00     0.010 A 
ATOM     33  C   UNL A   1      45.601  22.498  26.113  1.00  0.00     0.010 A 
ATOM     34  C   UNL A   1      45.265  23.448  25.131  1.00  0.00    -0.014 A 
BRANCH  34  35
ATOM     35  C   UNL A   1      45.375  24.888  25.452  1.00  0.00     0.031 A 
ATOM     36  C   UNL A   1      46.723  25.546  25.413  1.00  0.00     0.074 A 
ATOM     37  C   UNL A   1      44.288  25.582  25.826  1.00  0.00     0.049 A 
ATOM     38  N   UNL A   1      47.083  26.719  25.864  1.00  0.00    -0.248 NA
ATOM     39  C   UNL A   1      47.811  24.773  24.792  1.00  0.00     0.031 C 
ATOM     40  C   UNL A   1      42.917  25.069  25.844  1.00  0.00     0.029 A 
ATOM     41  N   UNL A   1      44.173  26.867  26.293  1.00  0.00    -0.354 N 
ATOM     42  C   UNL A   1      48.446  26.813  25.615  1.00  0.00     0.074 A 
ATOM     43  C   UNL A   1      48.848  25.578  24.977  1.00  0.00     0.031 C 
ATOM     44  C   UNL A   1      42.100  26.025  26.316  1.00  0.00     0.029 A 
ATOM     45  C   UNL A   1      42.898  27.190  26.689  1.00  0.00     0.049 A 
ATOM     46  H   UNL A   1      44.929  27.495  26.339  1.00  0.00     0.167 HD
ATOM     47  C   UNL A   1      49.284  27.835  25.905  1.00  0.00     0.031 A 
ATOM     48  C   UNL A   1      42.437  28.281  27.329  1.00  0.00     0.031 A 
ATOM     49  C   UNL A   1      48.874  29.058  26.539  1.00  0.00     0.049 A 
ATOM     50  C   UNL A   1      43.399  29.372  27.707  1.00  0.00     0.074 A 
ATOM     51  C   UNL A   1      49.645  30.157  26.877  1.00  0.00     0.029 A 
ATOM     52  N   UNL A   1      47.575  29.342  26.933  1.00  0.00    -0.354 N 
ATOM     53  N   UNL A   1      44.690  29.445  27.490  1.00  0.00    -0.248 NA
ATOM     54  C   UNL A   1      42.843  30.528  28.424  1.00  0.00     0.031 C 
ATOM     55  C   UNL A   1      48.818  31.090  27.511  1.00  0.00     0.029 A 
ATOM     56  C   UNL A   1      47.525  30.592  27.524  1.00  0.00     0.049 A 
ATOM     57  H   UNL A   1      46.804  28.743  26.810  1.00  0.00     0.167 HD
ATOM     58  C   UNL A   1      45.095  30.665  28.016  1.00  0.00     0.074 A 
ATOM     59  C   UNL A   1      43.913  31.301  28.560  1.00  0.00     0.031 C 
ATOM     60  C   UNL A   1      46.335  31.212  28.042  1.00  0.00     0.031 A 
BRANCH  47  61
ATOM     61  C   UNL A   1      50.739  27.650  25.579  1.00  0.00    -0.014 A 
ATOM     62  C   UNL A   1      51.328  28.288  24.477  1.00  0.00     0.009 A 
ATOM     63  C   UNL A   1      51.536  26.844  26.407  1.00  0.00     0.009 A 
ATOM     64  C   UNL A   1      52.684  28.097  24.194  1.00  0.00     0.001 A 
ATOM     65  C   UNL A   1      52.895  26.675  26.136  1.00  0.00     0.001 A 
ATOM     66  C   UNL A   1      53.465  27.295  25.025  1.00  0.00     0.000 A 
ENDBRANCH  47  61
BRANCH  48  67
ATOM     67  C   UNL A   1      40.999  28.376  27.689  1.00  0.00    -0.014 A 
ATOM     68  C   UNL A   1      40.112  29.116  26.893  1.00  0.00     0.009 A 
ATOM     69  C   UNL A   1      40.506  27.725  28.831  1.00  0.00     0.009 A 
ATOM     70  C   UNL A   1      38.763  29.217  27.245  1.00  0.00     0.001 A 
ATOM     71  C   UNL A   1      39.152  27.806  29.164  1.00  0.00     0.001 A 
ATOM     72  C   UNL A   1      38.284  28.558  28.376  1.00  0.00     0.000 A 
ENDBRANCH  48  67
BRANCH  60  73
ATOM     73  C   UNL A   1      46.469  32.588  28.625  1.00  0.00    -0.014 A 
ATOM     74  C   UNL A   1      46.788  32.781  29.977  1.00  0.00     0.009 A 
ATOM     75  C   UNL A   1      46.341  33.707  27.786  1.00  0.00     0.009 A 
ATOM     76  C   UNL A   1      46.955  34.072  30.481  1.00  0.00     0.001 A 
ATOM     77  C   UNL A   1      46.532  34.994  28.287  1.00  0.00     0.001 A 
ATOM     78  C   UNL A   1      46.834  35.175  29.636  1.00  0.00     0.000 A 
ENDBRANCH  60  73
ENDBRANCH  34  35
ENDBRANCH  27  29
ENDBRANCH  26  27
ENDBRANCH  25  26
ENDBRANCH   1  25
TORSDOF 17
ENDMDL
MODEL 2
REMARK VINA RESULT:     -10.3      7.063     12.454
REMARK SMILES CCOc1cc(OCC)cc(-c2ccc([C@@H](C)C(=O)OCCOC(=O)c3ccc(-c4c5nc(c(-c6ccccc6)c6ccc([nH]6)c(-c6ccccc6)c6nc(c(-c7ccccc7)c7ccc4[nH]7)C=C6)C=C5)cc3)cc2)c1
REMARK SMILES IDX 21 1 20 2 18 3 19 4 16 5 17 6 15 7 12 8 13 9 75 10 14 11
REMARK SMILES IDX 74 12 11 13 4 14 5 15 76 16 6 17 10 18 3 19 2 20 1 21 7 22
REMARK SMILES IDX 8 23 9 24 22 25 23 26 24 27 25 28 26 29 27 30 73 31 28 32
REMARK SMILES IDX 72 33 29 34 30 35 31 36 66 37 32 38 71 39 65 40 67 41 33 42
REMARK SMILES IDX 70 43 64 44 63 45 34 47 56 48 41 49 55 50 42 51 45 52 54 53
REMARK SMILES IDX 68 54 43 55 44 56 53 58 69 59 46 60 35 61 36 62 40 63 37 64
REMARK SMILES IDX 39 65 38 66 57 67 58 68 62 69 59 70 61 71 60 72 47 73 48 74
REMARK SMILES IDX 52 75 49 76 51 77 50 78
REMARK H PARENT 67 46 45 57
REMARK Flexibility Score: inf
ROOT
ATOM      1  C   UNL A   1      33.318  36.039  29.078  1.00  0.00     0.274 C 
ENDROOT
BRANCH   1   2
ATOM      2  O   UNL A   1      33.708  34.663  29.245  1.00  0.00    -0.462 OA
BRANCH   2   3
ATOM      3  C   UNL A   1      34.593  34.157  28.348  1.00  0.00     0.313 C 
ATOM      4  O   UNL A   1      34.831  34.656  27.253  1.00  0.00    -0.252 OA
BRANCH   3   5
ATOM      5  C   UNL A   1      35.258  32.865  28.811  1.00  0.00     0.126 C 
ATOM      6  C   UNL A   1      36.776  32.987  28.706  1.00  0.00     0.025 C 
BRANCH   5   7
ATOM      7  C   UNL A   1      34.736  31.592  28.165  1.00  0.00    -0.034 A 
ATOM      8  C   UNL A   1      33.810  29.217  26.923  1.00  0.00    -0.018 A 
ATOM      9  C   UNL A   1      32.974  30.337  27.065  1.00  0.00     0.009 A 
ATOM     10  C   UNL A   1      35.110  29.295  27.436  1.00  0.00     0.009 A 
ATOM     11  C   UNL A   1      33.432  31.509  27.664  1.00  0.00     0.005 A 
ATOM     12  C   UNL A   1      35.567  30.467  28.050  1.00  0.00     0.005 A 
BRANCH   8  13
ATOM     13  C   UNL A   1      33.327  28.029  26.207  1.00  0.00    -0.011 A 
ATOM     14  C   UNL A   1      32.032  25.983  26.085  1.00  0.00     0.123 A 
ATOM     15  C   UNL A   1      32.395  25.818  24.748  1.00  0.00     0.092 A 
ATOM     16  C   UNL A   1      32.512  27.070  26.817  1.00  0.00     0.055 A 
ATOM     17  C   UNL A   1      33.232  26.746  24.128  1.00  0.00     0.123 A 
ATOM     18  C   UNL A   1      33.688  27.839  24.862  1.00  0.00     0.055 A 
BRANCH  14  19
ATOM     19  O   UNL A   1      31.300  24.992  26.680  1.00  0.00    -0.494 OA
BRANCH  19  20
ATOM     20  C   UNL A   1      31.730  23.671  26.329  1.00  0.00     0.226 C 
ATOM     21  C   UNL A   1      32.753  23.133  27.317  1.00  0.00     0.049 C 
ENDBRANCH  19  20
ENDBRANCH  14  19
BRANCH  17  22
ATOM     22  O   UNL A   1      33.520  26.512  22.810  1.00  0.00    -0.494 OA
BRANCH  22  23
ATOM     23  C   UNL A   1      32.437  26.553  21.876  1.00  0.00     0.226 C 
ATOM     24  C   UNL A   1      32.614  25.525  20.768  1.00  0.00     0.049 C 
ENDBRANCH  22  23
ENDBRANCH  17  22
ENDBRANCH   8  13
ENDBRANCH   5   7
ENDBRANCH   3   5
ENDBRANCH   2   3
ENDBRANCH   1   2
BRANCH   1  25
ATOM     25  C   UNL A   1      32.527  36.530  30.291  1.00  0.00     0.275 C 
BRANCH  25  26
ATOM     26  O   UNL A   1      32.517  35.534  31.329  1.00  0.00    -0.458 OA
BRANCH  26  27
ATOM     27  C   UNL A   1      33.171  35.870  32.463  1.00  0.00     0.338 C 
ATOM     28  O   UNL A   1      32.900  36.757  33.251  1.00  0.00    -0.246 OA
BRANCH  27  29
ATOM     29  C   UNL A   1      34.284  34.937  32.661  1.00  0.00     0.060 A 
ATOM     30  C   UNL A   1      34.030  33.682  33.222  1.00  0.00     0.016 A 
ATOM     31  C   UNL A   1      35.585  35.337  32.364  1.00  0.00     0.016 A 
ATOM     32  C   UNL A   1      35.084  32.818  33.502  1.00  0.00     0.010 A 
ATOM     33  C   UNL A   1      36.640  34.466  32.634  1.00  0.00     0.010 A 
ATOM     34  C   UNL A   1      36.398  33.209  33.217  1.00  0.00    -0.014 A 
BRANCH  34  35
ATOM     35  C   UNL A   1      37.545  32.343  33.568  1.00  0.00     0.031 A 
ATOM     36  C   UNL A   1      38.308  32.613  34.831  1.00  0.00     0.074 A 
ATOM     37  C   UNL A   1      37.931  31.362  32.735  1.00  0.00     0.049 A 
ATOM     38  N   UNL A   1      39.460  32.134  35.220  1.00  0.00    -0.248 NA
ATOM     39  C   UNL A   1      37.692  33.559  35.777  1.00  0.00     0.031 C 
ATOM     40  C   UNL A   1      37.235  30.964  31.510  1.00  0.00     0.029 A 
ATOM     41  N   UNL A   1      39.026  30.536  32.783  1.00  0.00    -0.354 N 
ATOM     42  C   UNL A   1      39.727  32.745  36.438  1.00  0.00     0.074 A 
ATOM     43  C   UNL A   1      38.619  33.631  36.722  1.00  0.00     0.031 C 
ATOM     44  C   UNL A   1      37.931  29.983  30.913  1.00  0.00     0.029 A 
ATOM     45  C   UNL A   1      39.147  29.729  31.680  1.00  0.00     0.049 A 
ATOM     46  H   UNL A   1      39.662  30.525  33.535  1.00  0.00     0.167 HD
ATOM     47  C   UNL A   1      40.807  32.586  37.238  1.00  0.00     0.031 A 
ATOM     48  C   UNL A   1      40.152  28.914  31.305  1.00  0.00     0.031 A 
ATOM     49  C   UNL A   1      41.903  31.703  36.946  1.00  0.00     0.049 A 
ATOM     50  C   UNL A   1      41.374  28.809  32.173  1.00  0.00     0.074 A 
ATOM     51  C   UNL A   1      43.045  31.467  37.692  1.00  0.00     0.029 A 
ATOM     52  N   UNL A   1      41.992  30.907  35.813  1.00  0.00    -0.354 N 
ATOM     53  N   UNL A   1      41.632  29.406  33.311  1.00  0.00    -0.248 NA
ATOM     54  C   UNL A   1      42.448  27.923  31.700  1.00  0.00     0.031 C 
ATOM     55  C   UNL A   1      43.844  30.558  36.989  1.00  0.00     0.029 A 
ATOM     56  C   UNL A   1      43.176  30.192  35.832  1.00  0.00     0.049 A 
ATOM     57  H   UNL A   1      41.312  30.860  35.103  1.00  0.00     0.167 HD
ATOM     58  C   UNL A   1      42.881  28.946  33.706  1.00  0.00     0.074 A 
ATOM     59  C   UNL A   1      43.329  28.019  32.688  1.00  0.00     0.031 C 
ATOM     60  C   UNL A   1      43.593  29.261  34.816  1.00  0.00     0.031 A 
BRANCH  47  61
ATOM     61  C   UNL A   1      40.874  33.422  38.483  1.00  0.00    -0.014 A 
ATOM     62  C   UNL A   1      40.332  32.972  39.697  1.00  0.00     0.009 A 
ATOM     63  C   UNL A   1      41.515  34.670  38.444  1.00  0.00     0.009 A 
ATOM     64  C   UNL A   1      40.406  33.772  40.841  1.00  0.00     0.001 A 
ATOM     65  C   UNL A   1      41.608  35.456  39.594  1.00  0.00     0.001 A 
ATOM     66  C   UNL A   1      41.046  35.009  40.790  1.00  0.00     0.000 A 
ENDBRANCH  47  61
BRANCH  48  67
ATOM     67  C   UNL A   1      40.060  28.166  30.025  1.00  0.00    -0.014 A 
ATOM     68  C   UNL A   1      40.612  28.695  28.849  1.00  0.00     0.009 A 
ATOM     69  C   UNL A   1      39.420  26.917  29.973  1.00  0.00     0.009 A 
ATOM     70  C   UNL A   1      40.508  27.996  27.643  1.00  0.00     0.001 A 
ATOM     71  C   UNL A   1      39.343  26.209  28.772  1.00  0.00     0.001 A 
ATOM     72  C   UNL A   1      39.879  26.752  27.607  1.00  0.00     0.000 A 
ENDBRANCH  48  67
BRANCH  60  73
ATOM     73  C   UNL A   1      44.901  28.556  35.020  1.00  0.00    -0.014 A 
ATOM     74  C   UNL A   1      44.969  27.319  35.680  1.00  0.00     0.009 A 
ATOM     75  C   UNL A   1      46.073  29.109  34.482  1.00  0.00     0.009 A 
ATOM     76  C   UNL A   1      46.194  26.661  35.811  1.00  0.00     0.001 A 
ATOM     77  C   UNL A   1      47.290  28.438  34.595  1.00  0.00     0.001 A 
ATOM     78  C   UNL A   1      47.350  27.217  35.264  1.00  0.00     0.000 A 
ENDBRANCH  60  73
ENDBRANCH  34  35
ENDBRANCH  27  29
ENDBRANCH  26  27
ENDBRANCH  25  26
ENDBRANCH   1  25
TORSDOF 17
ENDMDL
MODEL 3
REMARK VINA RESULT:     -10.1      1.639      6.166
REMARK SMILES CCOc1cc(OCC)cc(-c2ccc([C@@H](C)C(=O)OCCOC(=O)c3ccc(-c4c5nc(c(-c6ccccc6)c6ccc([nH]6)c(-c6ccccc6)c6nc(c(-c7ccccc7)c7ccc4[nH]7)C=C6)C=C5)cc3)cc2)c1
REMARK SMILES IDX 21 1 20 2 18 3 19 4 16 5 17 6 15 7 12 8 13 9 75 10 14 11
REMARK SMILES IDX 74 12 11 13 4 14 5 15 76 16 6 17 10 18 3 19 2 20 1 21 7 22
REMARK SMILES IDX 8 23 9 24 22 25 23 26 24 27 25 28 26 29 27 30 73 31 28 32
REMARK SMILES IDX 72 33 29 34 30 35 31 36 66 37 32 38 71 39 65 40 67 41 33 42
REMARK SMILES IDX 70 43 64 44 63 45 34 47 56 48 41 49 55 50 42 51 45 52 54 53
REMARK SMILES IDX 68 54 43 55 44 56 53 58 69 59 46 60 35 61 36 62 40 63 37 64
REMARK SMILES IDX 39 65 38 66 57 67 58 68 62 69 59 70 61 71 60 72 47 73 48 74
REMARK SMILES IDX 52 75 49 76 51 77 50 78
REMARK H PARENT 67 46 45 57
REMARK Flexibility Score: inf
ROOT
ATOM      1  C   UNL A   1      42.632  19.081  26.445  1.00  0.00     0.274 C 
ENDROOT
BRANCH   1   2
ATOM      2  O   UNL A   1      41.932  20.272  26.040  1.00  0.00    -0.462 OA
BRANCH   2   3
ATOM      3  C   UNL A   1      41.054  20.807  26.927  1.00  0.00     0.313 C 
ATOM      4  O   UNL A   1      40.774  20.307  28.012  1.00  0.00    -0.252 OA
BRANCH   3   5
ATOM      5  C   UNL A   1      40.402  22.096  26.436  1.00  0.00     0.126 C 
ATOM      6  C   UNL A   1      40.533  23.188  27.495  1.00  0.00     0.025 C 
BRANCH   5   7
ATOM      7  C   UNL A   1      38.977  21.956  25.927  1.00  0.00    -0.034 A 
ATOM      8  C   UNL A   1      36.298  21.714  25.028  1.00  0.00    -0.018 A 
ATOM      9  C   UNL A   1      37.194  20.637  24.940  1.00  0.00     0.009 A 
ATOM     10  C   UNL A   1      36.771  22.924  25.550  1.00  0.00     0.009 A 
ATOM     11  C   UNL A   1      38.507  20.750  25.393  1.00  0.00     0.005 A 
ATOM     12  C   UNL A   1      38.093  23.044  25.993  1.00  0.00     0.005 A 
BRANCH   8  13
ATOM     13  C   UNL A   1      34.896  21.536  24.627  1.00  0.00    -0.011 A 
ATOM     14  C   UNL A   1      32.894  22.262  23.469  1.00  0.00     0.123 A 
ATOM     15  C   UNL A   1      32.237  21.090  23.845  1.00  0.00     0.092 A 
ATOM     16  C   UNL A   1      34.209  22.495  23.874  1.00  0.00     0.055 A 
ATOM     17  C   UNL A   1      32.893  20.135  24.621  1.00  0.00     0.123 A 
ATOM     18  C   UNL A   1      34.213  20.368  25.003  1.00  0.00     0.055 A 
BRANCH  14  19
ATOM     19  O   UNL A   1      32.176  23.217  22.802  1.00  0.00    -0.494 OA
BRANCH  19  20
ATOM     20  C   UNL A   1      32.969  24.323  22.353  1.00  0.00     0.226 C 
ATOM     21  C   UNL A   1      32.123  25.568  22.140  1.00  0.00     0.049 C 
ENDBRANCH  19  20
ENDBRANCH  14  19
BRANCH  17  22
ATOM     22  O   UNL A   1      32.176  19.010  24.928  1.00  0.00    -0.494 OA
BRANCH  22  23
ATOM     23  C   UNL A   1      32.812  17.744  24.735  1.00  0.00     0.226 C 
ATOM     24  C   UNL A   1      33.004  17.432  23.257  1.00  0.00     0.049 C 
ENDBRANCH  22  23
ENDBRANCH  17  22
ENDBRANCH   8  13
ENDBRANCH   5   7
ENDBRANCH   3   5
ENDBRANCH   2   3
ENDBRANCH   1   2
BRANCH   1  25
ATOM     25  C   UNL A   1      43.481  18.533  25.298  1.00  0.00     0.275 C 
BRANCH  25  26
ATOM     26  O   UNL A   1      44.716  19.261  25.188  1.00  0.00    -0.458 OA
BRANCH  26  27
ATOM     27  C   UNL A   1      44.780  20.146  24.168  1.00  0.00     0.338 C 
ATOM     28  O   UNL A   1      44.528  19.958  22.993  1.00  0.00    -0.246 OA
BRANCH  27  29
ATOM     29  C   UNL A   1      45.165  21.456  24.704  1.00  0.00     0.060 A 
ATOM     30  C   UNL A   1      45.475  21.572  26.062  1.00  0.00     0.016 A 
ATOM     31  C   UNL A   1      45.138  22.578  23.878  1.00  0.00     0.016 A 
ATOM     32  C   UNL A   1      45.753  22.822  26.609  1.00  0.00     0.010 A 
ATOM     33  C   UNL A   1      45.428  23.827  24.424  1.00  0.00     0.010 A 
ATOM     34  C   UNL A   1      45.723  23.959  25.793  1.00  0.00    -0.014 A 
BRANCH  34  35
ATOM     35  C   UNL A   1      45.943  25.309  26.357  1.00  0.00     0.031 A 
ATOM     36  C   UNL A   1      44.771  26.084  26.883  1.00  0.00     0.074 A 
ATOM     37  C   UNL A   1      47.171  25.854  26.346  1.00  0.00     0.049 A 
ATOM     38  N   UNL A   1      44.695  27.347  27.212  1.00  0.00    -0.248 NA
ATOM     39  C   UNL A   1      43.515  25.335  27.052  1.00  0.00     0.031 C 
ATOM     40  C   UNL A   1      48.397  25.178  25.917  1.00  0.00     0.029 A 
ATOM     41  N   UNL A   1      47.584  27.119  26.682  1.00  0.00    -0.354 N 
ATOM     42  C   UNL A   1      43.376  27.555  27.592  1.00  0.00     0.074 A 
ATOM     43  C   UNL A   1      42.687  26.291  27.450  1.00  0.00     0.031 C 
ATOM     44  C   UNL A   1      49.422  26.043  25.998  1.00  0.00     0.029 A 
ATOM     45  C   UNL A   1      48.914  27.343  26.426  1.00  0.00     0.049 A 
ATOM     46  H   UNL A   1      46.985  27.797  27.069  1.00  0.00     0.167 HD
ATOM     47  C   UNL A   1      42.794  28.703  28.010  1.00  0.00     0.031 A 
ATOM     48  C   UNL A   1      49.629  28.483  26.479  1.00  0.00     0.031 A 
ATOM     49  C   UNL A   1      43.488  29.955  28.147  1.00  0.00     0.049 A 
ATOM     50  C   UNL A   1      48.945  29.761  26.875  1.00  0.00     0.074 A 
ATOM     51  C   UNL A   1      42.990  31.177  28.564  1.00  0.00     0.029 A 
ATOM     52  N   UNL A   1      44.834  30.142  27.869  1.00  0.00    -0.354 N 
ATOM     53  N   UNL A   1      47.693  29.957  27.211  1.00  0.00    -0.248 NA
ATOM     54  C   UNL A   1      49.771  30.977  26.893  1.00  0.00     0.031 C 
ATOM     55  C   UNL A   1      44.028  32.114  28.500  1.00  0.00     0.029 A 
ATOM     56  C   UNL A   1      45.180  31.463  28.090  1.00  0.00     0.049 A 
ATOM     57  H   UNL A   1      45.449  29.439  27.560  1.00  0.00     0.167 HD
ATOM     58  C   UNL A   1      47.588  31.309  27.509  1.00  0.00     0.074 A 
ATOM     59  C   UNL A   1      48.902  31.885  27.317  1.00  0.00     0.031 C 
ATOM     60  C   UNL A   1      46.499  32.011  27.910  1.00  0.00     0.031 A 
BRANCH  47  61
ATOM     61  C   UNL A   1      41.322  28.665  28.303  1.00  0.00    -0.014 A 
ATOM     62  C   UNL A   1      40.371  28.953  27.312  1.00  0.00     0.009 A 
ATOM     63  C   UNL A   1      40.881  28.309  29.587  1.00  0.00     0.009 A 
ATOM     64  C   UNL A   1      39.006  28.914  27.611  1.00  0.00     0.001 A 
ATOM     65  C   UNL A   1      39.517  28.247  29.877  1.00  0.00     0.001 A 
ATOM     66  C   UNL A   1      38.581  28.558  28.891  1.00  0.00     0.000 A 
ENDBRANCH  47  61
BRANCH  48  67
ATOM     67  C   UNL A   1      51.067  28.472  26.108  1.00  0.00    -0.014 A 
ATOM     68  C   UNL A   1      51.461  28.658  24.775  1.00  0.00     0.009 A 
ATOM     69  C   UNL A   1      52.055  28.277  27.086  1.00  0.00     0.009 A 
ATOM     70  C   UNL A   1      52.814  28.630  24.427  1.00  0.00     0.001 A 
ATOM     71  C   UNL A   1      53.408  28.277  26.739  1.00  0.00     0.001 A 
ATOM     72  C   UNL A   1      53.785  28.445  25.409  1.00  0.00     0.000 A 
ENDBRANCH  48  67
BRANCH  60  73
ATOM     73  C   UNL A   1      46.693  33.465  28.225  1.00  0.00    -0.014 A 
ATOM     74  C   UNL A   1      46.496  34.456  27.252  1.00  0.00     0.009 A 
ATOM     75  C   UNL A   1      47.013  33.848  29.537  1.00  0.00     0.009 A 
ATOM     76  C   UNL A   1      46.635  35.805  27.587  1.00  0.00     0.001 A 
ATOM     77  C   UNL A   1      47.128  35.196  29.873  1.00  0.00     0.001 A 
ATOM     78  C   UNL A   1      46.944  36.173  28.896  1.00  0.00     0.000 A 
ENDBRANCH  60  73
ENDBRANCH  34  35
ENDBRANCH  27  29
ENDBRANCH  26  27
ENDBRANCH  25  26
ENDBRANCH   1  25
TORSDOF 17
ENDMDL
