MODEL 1
REMARK VINA RESULT:     -11.7      0.000      0.000
REMARK SMILES O=C(OCCOC(=O)[C@@H]1CCCC[C@@H]1C(=O)Nc1cc(C(F)(F)F)cc(C(F)(F)F)c1)c1ccc(-c2c3nc(c(-c4ccccc4)c4ccc([nH]4)c(-c4ccccc4)c4nc(c(-c5ccccc5)c5ccc2[nH]5)C=C4)C=C3)cc1
REMARK SMILES IDX 5 1 4 2 3 3 2 4 1 5 32 6 33 7 79 8 34 9 78 10 35 11 36 12
REMARK SMILES IDX 37 13 72 14 38 15 77 16 71 17 73 18 39 19 76 20 70 21 69 22
REMARK SMILES IDX 40 24 62 25 47 26 61 27 48 28 51 29 60 30 74 31 49 32 50 33
REMARK SMILES IDX 59 35 75 36 52 37 41 38 42 39 46 40 43 41 45 42 44 43 63 44
REMARK SMILES IDX 64 45 68 46 65 47 67 48 66 49 53 50 54 51 58 52 55 53 57 54
REMARK SMILES IDX 56 55 6 56 7 57 8 58 9 59 10 60 14 61 11 62 13 63 12 64
REMARK SMILES IDX 15 65 16 66 17 67 18 69 19 70 31 71 20 72 26 73 25 74 21 75
REMARK SMILES IDX 22 76 23 77 24 78 27 79 28 80 29 81 30 82
REMARK H PARENT 73 23 51 34 17 68
REMARK Flexibility Score: inf
ROOT
ATOM      1  C   UNL A   1      33.860  28.240  25.650  1.00  0.00     0.274 C 
ENDROOT
BRANCH   1   2
ATOM      2  C   UNL A   1      33.263  29.598  26.028  1.00  0.00     0.275 C 
BRANCH   2   3
ATOM      3  O   UNL A   1      33.433  29.927  27.417  1.00  0.00    -0.458 OA
BRANCH   3   4
ATOM      4  C   UNL A   1      34.331  30.772  27.982  1.00  0.00     0.338 C 
ATOM      5  O   UNL A   1      34.067  31.974  28.008  1.00  0.00    -0.246 OA
BRANCH   4   6
ATOM      6  C   UNL A   1      35.713  30.357  28.401  1.00  0.00     0.060 A 
ATOM      7  C   UNL A   1      36.077  29.767  29.618  1.00  0.00     0.016 A 
ATOM      8  C   UNL A   1      36.705  30.448  27.403  1.00  0.00     0.016 A 
ATOM      9  C   UNL A   1      37.316  29.138  29.786  1.00  0.00     0.010 A 
ATOM     10  C   UNL A   1      37.937  29.795  27.556  1.00  0.00     0.010 A 
ATOM     11  C   UNL A   1      38.242  29.109  28.745  1.00  0.00    -0.014 A 
BRANCH  11  12
ATOM     12  C   UNL A   1      39.602  28.565  28.981  1.00  0.00     0.031 A 
ATOM     13  C   UNL A   1      40.545  29.453  29.735  1.00  0.00     0.074 A 
ATOM     14  C   UNL A   1      39.985  27.333  28.586  1.00  0.00     0.049 A 
ATOM     15  N   UNL A   1      41.797  29.263  30.051  1.00  0.00    -0.248 NA
ATOM     16  C   UNL A   1      40.004  30.756  30.161  1.00  0.00     0.031 C 
ATOM     17  C   UNL A   1      39.161  26.365  27.860  1.00  0.00     0.029 A 
ATOM     18  N   UNL A   1      41.182  26.675  28.754  1.00  0.00    -0.354 N 
ATOM     19  C   UNL A   1      42.188  30.438  30.676  1.00  0.00     0.074 A 
ATOM     20  C   UNL A   1      41.089  31.366  30.593  1.00  0.00     0.031 C 
ATOM     21  C   UNL A   1      39.870  25.237  27.658  1.00  0.00     0.029 A 
ATOM     22  C   UNL A   1      41.204  25.401  28.229  1.00  0.00     0.049 A 
ATOM     23  H   UNL A   1      41.956  27.079  29.209  1.00  0.00     0.167 HD
ATOM     24  C   UNL A   1      43.340  30.710  31.327  1.00  0.00     0.031 A 
ATOM     25  C   UNL A   1      42.188  24.478  28.228  1.00  0.00     0.031 A 
ATOM     26  C   UNL A   1      44.415  29.775  31.443  1.00  0.00     0.049 A 
ATOM     27  C   UNL A   1      43.490  24.815  28.918  1.00  0.00     0.074 A 
ATOM     28  C   UNL A   1      45.625  29.927  32.087  1.00  0.00     0.029 A 
ATOM     29  N   UNL A   1      44.396  28.500  30.897  1.00  0.00    -0.354 N 
ATOM     30  N   UNL A   1      43.829  25.909  29.558  1.00  0.00    -0.248 NA
ATOM     31  C   UNL A   1      44.539  23.783  28.904  1.00  0.00     0.031 C 
ATOM     32  C   UNL A   1      46.362  28.756  31.888  1.00  0.00     0.029 A 
ATOM     33  C   UNL A   1      45.584  27.856  31.173  1.00  0.00     0.049 A 
ATOM     34  H   UNL A   1      43.646  28.113  30.389  1.00  0.00     0.167 HD
ATOM     35  C   UNL A   1      45.109  25.686  30.052  1.00  0.00     0.074 A 
ATOM     36  C   UNL A   1      45.482  24.345  29.649  1.00  0.00     0.031 C 
ATOM     37  C   UNL A   1      45.909  26.511  30.772  1.00  0.00     0.031 A 
BRANCH  24  38
ATOM     38  C   UNL A   1      43.450  32.084  31.919  1.00  0.00    -0.014 A 
ATOM     39  C   UNL A   1      44.013  33.148  31.190  1.00  0.00     0.009 A 
ATOM     40  C   UNL A   1      43.108  32.285  33.262  1.00  0.00     0.009 A 
ATOM     41  C   UNL A   1      44.309  34.357  31.821  1.00  0.00     0.001 A 
ATOM     42  C   UNL A   1      43.368  33.510  33.878  1.00  0.00     0.001 A 
ATOM     43  C   UNL A   1      43.988  34.535  33.164  1.00  0.00     0.000 A 
ENDBRANCH  24  38
BRANCH  25  44
ATOM     44  C   UNL A   1      42.005  23.146  27.578  1.00  0.00    -0.014 A 
ATOM     45  C   UNL A   1      41.314  22.111  28.232  1.00  0.00     0.009 A 
ATOM     46  C   UNL A   1      42.573  22.877  26.323  1.00  0.00     0.009 A 
ATOM     47  C   UNL A   1      41.231  20.834  27.665  1.00  0.00     0.001 A 
ATOM     48  C   UNL A   1      42.465  21.608  25.743  1.00  0.00     0.001 A 
ATOM     49  C   UNL A   1      41.806  20.584  26.420  1.00  0.00     0.000 A 
ENDBRANCH  25  44
BRANCH  37  50
ATOM     50  C   UNL A   1      47.243  25.980  31.212  1.00  0.00    -0.014 A 
ATOM     51  C   UNL A   1      48.350  25.984  30.351  1.00  0.00     0.009 A 
ATOM     52  C   UNL A   1      47.414  25.571  32.544  1.00  0.00     0.009 A 
ATOM     53  C   UNL A   1      49.600  25.571  30.814  1.00  0.00     0.001 A 
ATOM     54  C   UNL A   1      48.671  25.191  33.013  1.00  0.00     0.001 A 
ATOM     55  C   UNL A   1      49.761  25.186  32.146  1.00  0.00     0.000 A 
ENDBRANCH  37  50
ENDBRANCH  11  12
ENDBRANCH   4   6
ENDBRANCH   3   4
ENDBRANCH   2   3
ENDBRANCH   1   2
BRANCH   1  56
ATOM     56  O   UNL A   1      33.409  27.194  26.526  1.00  0.00    -0.462 OA
BRANCH  56  57
ATOM     57  C   UNL A   1      32.100  26.827  26.422  1.00  0.00     0.309 C 
ATOM     58  O   UNL A   1      31.240  27.089  27.259  1.00  0.00    -0.252 OA
BRANCH  57  59
ATOM     59  C   UNL A   1      31.891  25.906  25.223  1.00  0.00     0.111 C 
ATOM     60  C   UNL A   1      30.465  25.846  24.716  1.00  0.00     0.016 C 
ATOM     61  C   UNL A   1      32.433  24.507  25.476  1.00  0.00     0.093 C 
ATOM     62  C   UNL A   1      30.228  24.908  23.534  1.00  0.00     0.001 C 
ATOM     63  C   UNL A   1      32.297  23.674  24.184  1.00  0.00     0.014 C 
ATOM     64  C   UNL A   1      30.849  23.540  23.736  1.00  0.00     0.001 C 
BRANCH  61  65
ATOM     65  C   UNL A   1      31.769  23.821  26.691  1.00  0.00     0.228 C 
ATOM     66  O   UNL A   1      30.682  24.190  27.140  1.00  0.00    -0.274 OA
ATOM     67  N   UNL A   1      32.315  22.681  27.221  1.00  0.00    -0.326 N 
ATOM     68  H   UNL A   1      31.858  22.293  28.003  1.00  0.00     0.169 HD
BRANCH  67  69
ATOM     69  C   UNL A   1      33.452  22.012  26.766  1.00  0.00     0.042 A 
ATOM     70  C   UNL A   1      33.265  20.776  26.160  1.00  0.00     0.039 A 
ATOM     71  C   UNL A   1      34.697  22.632  26.729  1.00  0.00     0.039 A 
ATOM     72  C   UNL A   1      34.282  20.234  25.363  1.00  0.00     0.058 A 
ATOM     73  C   UNL A   1      35.692  22.168  25.864  1.00  0.00     0.058 A 
ATOM     74  C   UNL A   1      35.478  20.958  25.189  1.00  0.00     0.026 A 
BRANCH  72  75
ATOM     75  C   UNL A   1      34.022  18.944  24.629  1.00  0.00     0.416 C 
ATOM     76  F   UNL A   1      33.297  18.063  25.371  1.00  0.00    -0.166 F 
ATOM     77  F   UNL A   1      33.317  19.139  23.481  1.00  0.00    -0.166 F 
ATOM     78  F   UNL A   1      35.158  18.290  24.268  1.00  0.00    -0.166 F 
ENDBRANCH  72  75
BRANCH  73  79
ATOM     79  C   UNL A   1      36.911  23.018  25.600  1.00  0.00     0.416 C 
ATOM     80  F   UNL A   1      38.076  22.367  25.851  1.00  0.00    -0.166 F 
ATOM     81  F   UNL A   1      36.976  23.433  24.303  1.00  0.00    -0.166 F 
ATOM     82  F   UNL A   1      36.943  24.159  26.345  1.00  0.00    -0.166 F 
ENDBRANCH  73  79
ENDBRANCH  67  69
ENDBRANCH  61  65
ENDBRANCH  57  59
ENDBRANCH  56  57
ENDBRANCH   1  56
TORSDOF 15
ENDMDL
MODEL 2
REMARK VINA RESULT:     -11.5      3.247      7.973
REMARK SMILES O=C(OCCOC(=O)[C@@H]1CCCC[C@@H]1C(=O)Nc1cc(C(F)(F)F)cc(C(F)(F)F)c1)c1ccc(-c2c3nc(c(-c4ccccc4)c4ccc([nH]4)c(-c4ccccc4)c4nc(c(-c5ccccc5)c5ccc2[nH]5)C=C4)C=C3)cc1
REMARK SMILES IDX 5 1 4 2 3 3 2 4 1 5 32 6 33 7 79 8 34 9 78 10 35 11 36 12
REMARK SMILES IDX 37 13 72 14 38 15 77 16 71 17 73 18 39 19 76 20 70 21 69 22
REMARK SMILES IDX 40 24 62 25 47 26 61 27 48 28 51 29 60 30 74 31 49 32 50 33
REMARK SMILES IDX 59 35 75 36 52 37 41 38 42 39 46 40 43 41 45 42 44 43 63 44
REMARK SMILES IDX 64 45 68 46 65 47 67 48 66 49 53 50 54 51 58 52 55 53 57 54
REMARK SMILES IDX 56 55 6 56 7 57 8 58 9 59 10 60 14 61 11 62 13 63 12 64
REMARK SMILES IDX 15 65 16 66 17 67 18 69 19 70 31 71 20 72 26 73 25 74 21 75
REMARK SMILES IDX 22 76 23 77 24 78 27 79 28 80 29 81 30 82
REMARK H PARENT 73 23 51 34 17 68
REMARK Flexibility Score: inf
ROOT
ATOM      1  C   UNL A   1      38.494  21.228  25.623  1.00  0.00     0.274 C 
ENDROOT
BRANCH   1   2
ATOM      2  C   UNL A   1      38.890  19.869  25.041  1.00  0.00     0.275 C 
BRANCH   2   3
ATOM      3  O   UNL A   1      39.895  19.190  25.813  1.00  0.00    -0.458 OA
BRANCH   3   4
ATOM      4  C   UNL A   1      41.203  19.512  25.970  1.00  0.00     0.338 C 
ATOM      5  O   UNL A   1      42.043  18.622  25.849  1.00  0.00    -0.246 OA
BRANCH   4   6
ATOM      6  C   UNL A   1      41.674  20.847  26.475  1.00  0.00     0.060 A 
ATOM      7  C   UNL A   1      42.212  21.889  25.709  1.00  0.00     0.016 A 
ATOM      8  C   UNL A   1      41.412  21.111  27.834  1.00  0.00     0.016 A 
ATOM      9  C   UNL A   1      42.326  23.189  26.218  1.00  0.00     0.010 A 
ATOM     10  C   UNL A   1      41.497  22.416  28.341  1.00  0.00     0.010 A 
ATOM     11  C   UNL A   1      41.933  23.474  27.524  1.00  0.00    -0.014 A 
BRANCH  11  12
ATOM     12  C   UNL A   1      42.189  24.819  28.095  1.00  0.00     0.031 A 
ATOM     13  C   UNL A   1      43.619  25.136  28.418  1.00  0.00     0.074 A 
ATOM     14  C   UNL A   1      41.221  25.739  28.289  1.00  0.00     0.049 A 
ATOM     15  N   UNL A   1      44.134  26.206  28.958  1.00  0.00    -0.248 NA
ATOM     16  C   UNL A   1      44.598  24.076  28.119  1.00  0.00     0.031 C 
ATOM     17  C   UNL A   1      39.796  25.564  28.001  1.00  0.00     0.029 A 
ATOM     18  N   UNL A   1      41.297  27.026  28.771  1.00  0.00    -0.354 N 
ATOM     19  C   UNL A   1      45.486  25.921  29.091  1.00  0.00     0.074 A 
ATOM     20  C   UNL A   1      45.687  24.553  28.686  1.00  0.00     0.031 C 
ATOM     21  C   UNL A   1      39.137  26.701  28.299  1.00  0.00     0.029 A 
ATOM     22  C   UNL A   1      40.088  27.686  28.809  1.00  0.00     0.049 A 
ATOM     23  H   UNL A   1      42.141  27.438  29.063  1.00  0.00     0.167 HD
ATOM     24  C   UNL A   1      46.494  26.742  29.456  1.00  0.00     0.031 A 
ATOM     25  C   UNL A   1      39.796  28.944  29.200  1.00  0.00     0.031 A 
ATOM     26  C   UNL A   1      46.298  28.110  29.819  1.00  0.00     0.049 A 
ATOM     27  C   UNL A   1      40.929  29.837  29.652  1.00  0.00     0.074 A 
ATOM     28  C   UNL A   1      47.239  29.047  30.194  1.00  0.00     0.029 A 
ATOM     29  N   UNL A   1      45.061  28.737  29.845  1.00  0.00    -0.354 N 
ATOM     30  N   UNL A   1      42.213  29.575  29.718  1.00  0.00    -0.248 NA
ATOM     31  C   UNL A   1      40.577  31.205  30.064  1.00  0.00     0.031 C 
ATOM     32  C   UNL A   1      46.563  30.233  30.496  1.00  0.00     0.029 A 
ATOM     33  C   UNL A   1      45.209  30.048  30.250  1.00  0.00     0.049 A 
ATOM     34  H   UNL A   1      44.205  28.310  29.611  1.00  0.00     0.167 HD
ATOM     35  C   UNL A   1      42.824  30.750  30.142  1.00  0.00     0.074 A 
ATOM     36  C   UNL A   1      41.770  31.731  30.305  1.00  0.00     0.031 C 
ATOM     37  C   UNL A   1      44.136  31.000  30.378  1.00  0.00     0.031 A 
BRANCH  24  38
ATOM     38  C   UNL A   1      47.863  26.129  29.483  1.00  0.00    -0.014 A 
ATOM     39  C   UNL A   1      48.406  25.613  30.674  1.00  0.00     0.009 A 
ATOM     40  C   UNL A   1      48.666  26.186  28.337  1.00  0.00     0.009 A 
ATOM     41  C   UNL A   1      49.751  25.247  30.736  1.00  0.00     0.001 A 
ATOM     42  C   UNL A   1      50.000  25.779  28.392  1.00  0.00     0.001 A 
ATOM     43  C   UNL A   1      50.546  25.333  29.596  1.00  0.00     0.000 A 
ENDBRANCH  24  38
BRANCH  25  44
ATOM     44  C   UNL A   1      38.395  29.461  29.177  1.00  0.00    -0.014 A 
ATOM     45  C   UNL A   1      37.901  30.160  28.063  1.00  0.00     0.009 A 
ATOM     46  C   UNL A   1      37.560  29.314  30.296  1.00  0.00     0.009 A 
ATOM     47  C   UNL A   1      36.622  30.731  28.084  1.00  0.00     0.001 A 
ATOM     48  C   UNL A   1      36.271  29.860  30.305  1.00  0.00     0.001 A 
ATOM     49  C   UNL A   1      35.809  30.579  29.206  1.00  0.00     0.000 A 
ENDBRANCH  25  44
BRANCH  37  50
ATOM     50  C   UNL A   1      44.517  32.393  30.792  1.00  0.00    -0.014 A 
ATOM     51  C   UNL A   1      44.626  32.748  32.144  1.00  0.00     0.009 A 
ATOM     52  C   UNL A   1      44.875  33.328  29.807  1.00  0.00     0.009 A 
ATOM     53  C   UNL A   1      45.071  34.023  32.501  1.00  0.00     0.001 A 
ATOM     54  C   UNL A   1      45.352  34.587  30.167  1.00  0.00     0.001 A 
ATOM     55  C   UNL A   1      45.444  34.935  31.513  1.00  0.00     0.000 A 
ENDBRANCH  37  50
ENDBRANCH  11  12
ENDBRANCH   4   6
ENDBRANCH   3   4
ENDBRANCH   2   3
ENDBRANCH   1   2
BRANCH   1  56
ATOM     56  O   UNL A   1      37.458  21.859  24.851  1.00  0.00    -0.462 OA
BRANCH  56  57
ATOM     57  C   UNL A   1      36.645  22.732  25.512  1.00  0.00     0.309 C 
ATOM     58  O   UNL A   1      37.046  23.701  26.150  1.00  0.00    -0.252 OA
BRANCH  57  59
ATOM     59  C   UNL A   1      35.200  22.241  25.495  1.00  0.00     0.111 C 
ATOM     60  C   UNL A   1      34.973  20.980  24.685  1.00  0.00     0.016 C 
ATOM     61  C   UNL A   1      34.229  23.335  25.073  1.00  0.00     0.093 C 
ATOM     62  C   UNL A   1      33.528  20.488  24.632  1.00  0.00     0.001 C 
ATOM     63  C   UNL A   1      32.786  22.802  25.198  1.00  0.00     0.014 C 
ATOM     64  C   UNL A   1      32.541  21.592  24.307  1.00  0.00     0.001 C 
BRANCH  61  65
ATOM     65  C   UNL A   1      34.532  23.890  23.663  1.00  0.00     0.228 C 
ATOM     66  O   UNL A   1      35.135  23.231  22.813  1.00  0.00    -0.274 OA
ATOM     67  N   UNL A   1      34.010  25.095  23.270  1.00  0.00    -0.326 N 
ATOM     68  H   UNL A   1      34.247  25.407  22.367  1.00  0.00     0.169 HD
BRANCH  67  69
ATOM     69  C   UNL A   1      33.177  25.926  24.021  1.00  0.00     0.042 A 
ATOM     70  C   UNL A   1      33.762  26.657  25.048  1.00  0.00     0.039 A 
ATOM     71  C   UNL A   1      31.861  26.175  23.642  1.00  0.00     0.039 A 
ATOM     72  C   UNL A   1      33.087  27.762  25.583  1.00  0.00     0.058 A 
ATOM     73  C   UNL A   1      31.205  27.326  24.084  1.00  0.00     0.058 A 
ATOM     74  C   UNL A   1      31.825  28.113  25.065  1.00  0.00     0.026 A 
BRANCH  72  75
ATOM     75  C   UNL A   1      33.781  28.606  26.620  1.00  0.00     0.416 C 
ATOM     76  F   UNL A   1      33.904  29.905  26.233  1.00  0.00    -0.166 F 
ATOM     77  F   UNL A   1      33.105  28.628  27.801  1.00  0.00    -0.166 F 
ATOM     78  F   UNL A   1      35.038  28.177  26.912  1.00  0.00    -0.166 F 
ENDBRANCH  72  75
BRANCH  73  79
ATOM     79  C   UNL A   1      29.911  27.748  23.431  1.00  0.00     0.416 C 
ATOM     80  F   UNL A   1      30.004  27.840  22.079  1.00  0.00    -0.166 F 
ATOM     81  F   UNL A   1      28.897  26.874  23.687  1.00  0.00    -0.166 F 
ATOM     82  F   UNL A   1      29.460  28.960  23.865  1.00  0.00    -0.166 F 
ENDBRANCH  73  79
ENDBRANCH  67  69
ENDBRANCH  61  65
ENDBRANCH  57  59
ENDBRANCH  56  57
ENDBRANCH   1  56
TORSDOF 15
ENDMDL
MODEL 3
REMARK VINA RESULT:     -11.4      3.565      8.145
REMARK SMILES O=C(OCCOC(=O)[C@@H]1CCCC[C@@H]1C(=O)Nc1cc(C(F)(F)F)cc(C(F)(F)F)c1)c1ccc(-c2c3nc(c(-c4ccccc4)c4ccc([nH]4)c(-c4ccccc4)c4nc(c(-c5ccccc5)c5ccc2[nH]5)C=C4)C=C3)cc1
REMARK SMILES IDX 5 1 4 2 3 3 2 4 1 5 32 6 33 7 79 8 34 9 78 10 35 11 36 12
REMARK SMILES IDX 37 13 72 14 38 15 77 16 71 17 73 18 39 19 76 20 70 21 69 22
REMARK SMILES IDX 40 24 62 25 47 26 61 27 48 28 51 29 60 30 74 31 49 32 50 33
REMARK SMILES IDX 59 35 75 36 52 37 41 38 42 39 46 40 43 41 45 42 44 43 63 44
REMARK SMILES IDX 64 45 68 46 65 47 67 48 66 49 53 50 54 51 58 52 55 53 57 54
REMARK SMILES IDX 56 55 6 56 7 57 8 58 9 59 10 60 14 61 11 62 13 63 12 64
REMARK SMILES IDX 15 65 16 66 17 67 18 69 19 70 31 71 20 72 26 73 25 74 21 75
REMARK SMILES IDX 22 76 23 77 24 78 27 79 28 80 29 81 30 82
REMARK H PARENT 73 23 51 34 17 68
REMARK Flexibility Score: inf
ROOT
ATOM      1  C   UNL A   1      36.923  22.720  23.833  1.00  0.00     0.274 C 
ENDROOT
BRANCH   1   2
ATOM      2  C   UNL A   1      37.532  21.574  24.644  1.00  0.00     0.275 C 
BRANCH   2   3
ATOM      3  O   UNL A   1      38.029  21.988  25.928  1.00  0.00    -0.458 OA
BRANCH   3   4
ATOM      4  C   UNL A   1      39.199  22.607  26.223  1.00  0.00     0.338 C 
ATOM      5  O   UNL A   1      40.243  21.963  26.124  1.00  0.00    -0.246 OA
BRANCH   4   6
ATOM      6  C   UNL A   1      39.283  23.969  26.852  1.00  0.00     0.060 A 
ATOM      7  C   UNL A   1      38.906  24.314  28.156  1.00  0.00     0.016 A 
ATOM      8  C   UNL A   1      39.937  24.954  26.085  1.00  0.00     0.016 A 
ATOM      9  C   UNL A   1      39.310  25.520  28.741  1.00  0.00     0.010 A 
ATOM     10  C   UNL A   1      40.369  26.152  26.675  1.00  0.00     0.010 A 
ATOM     11  C   UNL A   1      40.079  26.432  28.022  1.00  0.00    -0.014 A 
BRANCH  11  12
ATOM     12  C   UNL A   1      40.380  27.764  28.602  1.00  0.00     0.031 A 
ATOM     13  C   UNL A   1      41.804  27.999  29.009  1.00  0.00     0.074 A 
ATOM     14  C   UNL A   1      39.458  28.740  28.734  1.00  0.00     0.049 A 
ATOM     15  N   UNL A   1      42.349  29.041  29.575  1.00  0.00    -0.248 NA
ATOM     16  C   UNL A   1      42.735  26.881  28.774  1.00  0.00     0.031 C 
ATOM     17  C   UNL A   1      38.045  28.648  28.362  1.00  0.00     0.029 A 
ATOM     18  N   UNL A   1      39.581  30.024  29.215  1.00  0.00    -0.354 N 
ATOM     19  C   UNL A   1      43.670  28.678  29.790  1.00  0.00     0.074 A 
ATOM     20  C   UNL A   1      43.814  27.297  29.404  1.00  0.00     0.031 C 
ATOM     21  C   UNL A   1      37.438  29.823  28.615  1.00  0.00     0.029 A 
ATOM     22  C   UNL A   1      38.412  30.755  29.177  1.00  0.00     0.049 A 
ATOM     23  H   UNL A   1      40.429  30.389  29.555  1.00  0.00     0.167 HD
ATOM     24  C   UNL A   1      44.702  29.441  30.212  1.00  0.00     0.031 A 
ATOM     25  C   UNL A   1      38.173  32.030  29.545  1.00  0.00     0.031 A 
ATOM     26  C   UNL A   1      44.566  30.821  30.557  1.00  0.00     0.049 A 
ATOM     27  C   UNL A   1      39.328  32.859  30.061  1.00  0.00     0.074 A 
ATOM     28  C   UNL A   1      45.536  31.704  30.984  1.00  0.00     0.029 A 
ATOM     29  N   UNL A   1      43.368  31.520  30.506  1.00  0.00    -0.354 N 
ATOM     30  N   UNL A   1      40.588  32.522  30.205  1.00  0.00    -0.248 NA
ATOM     31  C   UNL A   1      39.032  34.248  30.446  1.00  0.00     0.031 C 
ATOM     32  C   UNL A   1      44.914  32.929  31.240  1.00  0.00     0.029 A 
ATOM     33  C   UNL A   1      43.569  32.823  30.914  1.00  0.00     0.049 A 
ATOM     34  H   UNL A   1      42.504  31.142  30.223  1.00  0.00     0.167 HD
ATOM     35  C   UNL A   1      41.241  33.663  30.661  1.00  0.00     0.074 A 
ATOM     36  C   UNL A   1      40.238  34.705  30.755  1.00  0.00     0.031 C 
ATOM     37  C   UNL A   1      42.548  33.837  30.974  1.00  0.00     0.031 A 
BRANCH  24  38
ATOM     38  C   UNL A   1      46.028  28.749  30.323  1.00  0.00    -0.014 A 
ATOM     39  C   UNL A   1      46.436  28.149  31.529  1.00  0.00     0.009 A 
ATOM     40  C   UNL A   1      46.929  28.810  29.253  1.00  0.00     0.009 A 
ATOM     41  C   UNL A   1      47.750  27.703  31.685  1.00  0.00     0.001 A 
ATOM     42  C   UNL A   1      48.229  28.325  29.401  1.00  0.00     0.001 A 
ATOM     43  C   UNL A   1      48.644  27.794  30.622  1.00  0.00     0.000 A 
ENDBRANCH  24  38
BRANCH  25  44
ATOM     44  C   UNL A   1      36.809  32.628  29.436  1.00  0.00    -0.014 A 
ATOM     45  C   UNL A   1      36.392  33.268  28.256  1.00  0.00     0.009 A 
ATOM     46  C   UNL A   1      35.933  32.620  30.534  1.00  0.00     0.009 A 
ATOM     47  C   UNL A   1      35.152  33.916  28.191  1.00  0.00     0.001 A 
ATOM     48  C   UNL A   1      34.683  33.243  30.459  1.00  0.00     0.001 A 
ATOM     49  C   UNL A   1      34.298  33.901  29.293  1.00  0.00     0.000 A 
ENDBRANCH  25  44
BRANCH  37  50
ATOM     50  C   UNL A   1      42.985  35.208  31.404  1.00  0.00    -0.014 A 
ATOM     51  C   UNL A   1      43.053  35.561  32.760  1.00  0.00     0.009 A 
ATOM     52  C   UNL A   1      43.438  36.120  30.437  1.00  0.00     0.009 A 
ATOM     53  C   UNL A   1      43.550  36.810  33.136  1.00  0.00     0.001 A 
ATOM     54  C   UNL A   1      43.966  37.352  30.817  1.00  0.00     0.001 A 
ATOM     55  C   UNL A   1      44.016  37.698  32.166  1.00  0.00     0.000 A 
ENDBRANCH  37  50
ENDBRANCH  11  12
ENDBRANCH   4   6
ENDBRANCH   3   4
ENDBRANCH   2   3
ENDBRANCH   1   2
BRANCH   1  56
ATOM     56  O   UNL A   1      35.493  22.770  23.969  1.00  0.00    -0.462 OA
BRANCH  56  57
ATOM     57  C   UNL A   1      34.984  23.774  24.739  1.00  0.00     0.309 C 
ATOM     58  O   UNL A   1      35.644  24.438  25.533  1.00  0.00    -0.252 OA
BRANCH  57  59
ATOM     59  C   UNL A   1      33.464  23.836  24.607  1.00  0.00     0.111 C 
ATOM     60  C   UNL A   1      32.866  22.769  23.713  1.00  0.00     0.016 C 
ATOM     61  C   UNL A   1      32.982  25.220  24.193  1.00  0.00     0.093 C 
ATOM     62  C   UNL A   1      31.349  22.831  23.544  1.00  0.00     0.001 C 
ATOM     63  C   UNL A   1      31.439  25.237  24.199  1.00  0.00     0.014 C 
ATOM     64  C   UNL A   1      30.849  24.227  23.226  1.00  0.00     0.001 C 
BRANCH  61  65
ATOM     65  C   UNL A   1      33.571  25.675  22.838  1.00  0.00     0.228 C 
ATOM     66  O   UNL A   1      33.956  24.872  21.986  1.00  0.00    -0.274 OA
ATOM     67  N   UNL A   1      33.552  27.001  22.490  1.00  0.00    -0.326 N 
ATOM     68  H   UNL A   1      33.952  27.237  21.622  1.00  0.00     0.169 HD
BRANCH  67  69
ATOM     69  C   UNL A   1      33.022  28.051  23.241  1.00  0.00     0.042 A 
ATOM     70  C   UNL A   1      31.804  28.577  22.831  1.00  0.00     0.039 A 
ATOM     71  C   UNL A   1      33.576  28.428  24.461  1.00  0.00     0.039 A 
ATOM     72  C   UNL A   1      31.048  29.350  23.723  1.00  0.00     0.058 A 
ATOM     73  C   UNL A   1      32.806  29.112  25.405  1.00  0.00     0.058 A 
ATOM     74  C   UNL A   1      31.541  29.579  25.022  1.00  0.00     0.026 A 
BRANCH  72  75
ATOM     75  C   UNL A   1      29.681  29.823  23.298  1.00  0.00     0.416 C 
ATOM     76  F   UNL A   1      29.646  30.192  21.989  1.00  0.00    -0.166 F 
ATOM     77  F   UNL A   1      28.735  28.855  23.443  1.00  0.00    -0.166 F 
ATOM     78  F   UNL A   1      29.237  30.896  24.007  1.00  0.00    -0.166 F 
ENDBRANCH  72  75
BRANCH  73  79
ATOM     79  C   UNL A   1      33.302  29.240  26.826  1.00  0.00     0.416 C 
ATOM     80  F   UNL A   1      34.654  29.168  26.924  1.00  0.00    -0.166 F 
ATOM     81  F   UNL A   1      32.939  30.425  27.391  1.00  0.00    -0.166 F 
ATOM     82  F   UNL A   1      32.807  28.277  27.656  1.00  0.00    -0.166 F 
ENDBRANCH  73  79
ENDBRANCH  67  69
ENDBRANCH  61  65
ENDBRANCH  57  59
ENDBRANCH  56  57
ENDBRANCH   1  56
TORSDOF 15
ENDMDL
