MODEL 1
REMARK VINA RESULT:     -10.3      0.000      0.000
REMARK SMILES CCc1ncc(S(=O)(=O)NCc2ccc(C(=O)OCCOC(=O)c3ccc(-c4c5nc(c(-c6ccccc6)c6ccc([nH]6)c(-c6ccccc6)c6nc(c(-c7ccccc7)c7ccc4[nH]7)C=C6)C=C5)cc3)o2)[nH]1
REMARK SMILES IDX 18 1 16 2 17 3 15 4 12 5 13 6 72 7 14 8 11 9 10 10 7 12 8 13
REMARK SMILES IDX 9 14 6 15 3 16 4 17 73 18 5 19 2 21 1 22 19 23 20 24 21 25
REMARK SMILES IDX 22 26 23 27 24 28 25 29 71 30 26 31 70 32 27 33 28 34 29 35
REMARK SMILES IDX 64 36 30 37 69 38 63 39 65 40 31 41 68 42 62 43 61 44 32 46
REMARK SMILES IDX 54 47 39 48 53 49 40 50 43 51 52 52 66 53 41 54 42 55 51 57
REMARK SMILES IDX 67 58 44 59 33 60 34 61 38 62 35 63 37 64 36 65 55 66 56 67
REMARK SMILES IDX 60 68 57 69 59 70 58 71 45 72 46 73 50 74 47 75 49 76 48 77
REMARK H PARENT 10 11 73 20 65 45 43 56
REMARK Flexibility Score: inf
ROOT
ATOM      1  O   UNL A   1      41.665  20.563  25.855  1.00  0.00    -0.456 OA
ENDROOT
BRANCH   1   2
ATOM      2  C   UNL A   1      41.459  21.545  26.782  1.00  0.00     0.374 C 
ATOM      3  O   UNL A   1      42.262  21.861  27.647  1.00  0.00    -0.242 OA
BRANCH   2   4
ATOM      4  C   UNL A   1      40.199  22.204  26.530  1.00  0.00     0.211 A 
ATOM      5  C   UNL A   1      38.137  22.268  25.732  1.00  0.00     0.119 A 
ATOM      6  C   UNL A   1      38.345  23.466  26.381  1.00  0.00     0.048 A 
ATOM      7  O   UNL A   1      39.282  21.532  25.770  1.00  0.00    -0.453 OA
ATOM      8  C   UNL A   1      39.656  23.411  26.923  1.00  0.00     0.058 A 
BRANCH   5   9
ATOM      9  C   UNL A   1      37.017  21.654  24.980  1.00  0.00     0.174 C 
BRANCH   9  10
ATOM     10  N   UNL A   1      35.881  22.559  24.784  1.00  0.00    -0.202 NA
ATOM     11  H   UNL A   1      36.212  23.497  25.008  1.00  0.00     0.141 HD
BRANCH  10  12
ATOM     12  S   UNL A   1      34.463  22.338  25.637  1.00  0.00     0.258 S 
ATOM     13  O   UNL A   1      33.510  23.340  25.217  1.00  0.00    -0.205 OA
ATOM     14  O   UNL A   1      34.805  22.175  27.028  1.00  0.00    -0.205 OA
BRANCH  12  15
ATOM     15  C   UNL A   1      33.717  20.832  25.169  1.00  0.00     0.167 A 
ATOM     16  C   UNL A   1      33.611  18.647  24.731  1.00  0.00     0.106 A 
ATOM     17  N   UNL A   1      32.377  19.094  24.600  1.00  0.00    -0.240 NA
ATOM     18  N   UNL A   1      34.452  19.674  25.077  1.00  0.00    -0.332 N 
ATOM     19  C   UNL A   1      32.439  20.442  24.838  1.00  0.00     0.153 A 
ATOM     20  H   UNL A   1      35.420  19.595  25.235  1.00  0.00     0.169 HD
BRANCH  16  21
ATOM     21  C   UNL A   1      34.045  17.230  24.541  1.00  0.00     0.072 C 
ATOM     22  C   UNL A   1      33.925  16.716  23.115  1.00  0.00     0.012 C 
ENDBRANCH  16  21
ENDBRANCH  12  15
ENDBRANCH  10  12
ENDBRANCH   9  10
ENDBRANCH   5   9
ENDBRANCH   2   4
ENDBRANCH   1   2
BRANCH   1  23
ATOM     23  C   UNL A   1      42.004  19.269  26.389  1.00  0.00     0.275 C 
BRANCH  23  24
ATOM     24  C   UNL A   1      43.208  18.646  25.670  1.00  0.00     0.275 C 
BRANCH  24  25
ATOM     25  O   UNL A   1      43.496  19.298  24.415  1.00  0.00    -0.458 OA
BRANCH  25  26
ATOM     26  C   UNL A   1      44.791  19.647  24.224  1.00  0.00     0.338 C 
ATOM     27  O   UNL A   1      45.660  18.970  23.699  1.00  0.00    -0.246 OA
BRANCH  26  28
ATOM     28  C   UNL A   1      45.004  21.054  24.613  1.00  0.00     0.060 A 
ATOM     29  C   UNL A   1      45.490  21.301  25.899  1.00  0.00     0.016 A 
ATOM     30  C   UNL A   1      44.680  22.119  23.770  1.00  0.00     0.016 A 
ATOM     31  C   UNL A   1      45.660  22.604  26.353  1.00  0.00     0.010 A 
ATOM     32  C   UNL A   1      44.843  23.433  24.228  1.00  0.00     0.010 A 
ATOM     33  C   UNL A   1      45.327  23.683  25.525  1.00  0.00    -0.014 A 
BRANCH  33  34
ATOM     34  C   UNL A   1      45.448  25.062  26.054  1.00  0.00     0.031 A 
ATOM     35  C   UNL A   1      46.768  25.775  25.995  1.00  0.00     0.074 A 
ATOM     36  C   UNL A   1      44.361  25.696  26.531  1.00  0.00     0.049 A 
ATOM     37  N   UNL A   1      47.077  26.977  26.409  1.00  0.00    -0.248 NA
ATOM     38  C   UNL A   1      47.885  25.041  25.381  1.00  0.00     0.031 C 
ATOM     39  C   UNL A   1      43.011  25.135  26.588  1.00  0.00     0.029 A 
ATOM     40  N   UNL A   1      44.222  26.959  27.048  1.00  0.00    -0.354 N 
ATOM     41  C   UNL A   1      48.426  27.140  26.123  1.00  0.00     0.074 A 
ATOM     42  C   UNL A   1      48.879  25.908  25.512  1.00  0.00     0.031 C 
ATOM     43  C   UNL A   1      42.178  26.056  27.098  1.00  0.00     0.029 A 
ATOM     44  C   UNL A   1      42.941  27.254  27.441  1.00  0.00     0.049 A 
ATOM     45  H   UNL A   1      44.971  27.594  27.130  1.00  0.00     0.167 HD
ATOM     46  C   UNL A   1      49.215  28.217  26.349  1.00  0.00     0.031 A 
ATOM     47  C   UNL A   1      42.440  28.356  28.028  1.00  0.00     0.031 A 
ATOM     48  C   UNL A   1      48.769  29.441  26.958  1.00  0.00     0.049 A 
ATOM     49  C   UNL A   1      43.353  29.511  28.335  1.00  0.00     0.074 A 
ATOM     50  C   UNL A   1      49.496  30.589  27.223  1.00  0.00     0.029 A 
ATOM     51  N   UNL A   1      47.477  29.676  27.399  1.00  0.00    -0.354 N 
ATOM     52  N   UNL A   1      44.629  29.647  28.066  1.00  0.00    -0.248 NA
ATOM     53  C   UNL A   1      42.756  30.660  29.030  1.00  0.00     0.031 C 
ATOM     54  C   UNL A   1      48.653  31.503  27.866  1.00  0.00     0.029 A 
ATOM     55  C   UNL A   1      47.391  30.941  27.958  1.00  0.00     0.049 A 
ATOM     56  H   UNL A   1      46.729  29.039  27.325  1.00  0.00     0.167 HD
ATOM     57  C   UNL A   1      44.983  30.901  28.544  1.00  0.00     0.074 A 
ATOM     58  C   UNL A   1      43.785  31.492  29.106  1.00  0.00     0.031 C 
ATOM     59  C   UNL A   1      46.194  31.510  28.520  1.00  0.00     0.031 A 
BRANCH  46  60
ATOM     60  C   UNL A   1      50.663  28.095  25.970  1.00  0.00    -0.014 A 
ATOM     61  C   UNL A   1      51.623  27.648  26.891  1.00  0.00     0.009 A 
ATOM     62  C   UNL A   1      51.068  28.416  24.665  1.00  0.00     0.009 A 
ATOM     63  C   UNL A   1      52.966  27.556  26.519  1.00  0.00     0.001 A 
ATOM     64  C   UNL A   1      52.407  28.302  24.291  1.00  0.00     0.001 A 
ATOM     65  C   UNL A   1      53.357  27.881  25.220  1.00  0.00     0.000 A 
ENDBRANCH  46  60
BRANCH  47  66
ATOM     66  C   UNL A   1      41.001  28.413  28.391  1.00  0.00    -0.014 A 
ATOM     67  C   UNL A   1      40.069  29.006  27.528  1.00  0.00     0.009 A 
ATOM     68  C   UNL A   1      40.555  27.874  29.609  1.00  0.00     0.009 A 
ATOM     69  C   UNL A   1      38.719  29.071  27.884  1.00  0.00     0.001 A 
ATOM     70  C   UNL A   1      39.202  27.919  29.949  1.00  0.00     0.001 A 
ATOM     71  C   UNL A   1      38.286  28.524  29.090  1.00  0.00     0.000 A 
ENDBRANCH  47  66
BRANCH  59  72
ATOM     72  C   UNL A   1      46.276  32.891  29.103  1.00  0.00    -0.014 A 
ATOM     73  C   UNL A   1      46.080  34.027  28.303  1.00  0.00     0.009 A 
ATOM     74  C   UNL A   1      46.521  33.055  30.475  1.00  0.00     0.009 A 
ATOM     75  C   UNL A   1      46.153  35.304  28.865  1.00  0.00     0.001 A 
ATOM     76  C   UNL A   1      46.572  34.332  31.036  1.00  0.00     0.001 A 
ATOM     77  C   UNL A   1      46.396  35.455  30.229  1.00  0.00     0.000 A 
ENDBRANCH  59  72
ENDBRANCH  33  34
ENDBRANCH  26  28
ENDBRANCH  25  26
ENDBRANCH  24  25
ENDBRANCH  23  24
ENDBRANCH   1  23
TORSDOF 16
ENDMDL
MODEL 2
REMARK VINA RESULT:     -10.2      4.462      6.694
REMARK SMILES CCc1ncc(S(=O)(=O)NCc2ccc(C(=O)OCCOC(=O)c3ccc(-c4c5nc(c(-c6ccccc6)c6ccc([nH]6)c(-c6ccccc6)c6nc(c(-c7ccccc7)c7ccc4[nH]7)C=C6)C=C5)cc3)o2)[nH]1
REMARK SMILES IDX 18 1 16 2 17 3 15 4 12 5 13 6 72 7 14 8 11 9 10 10 7 12 8 13
REMARK SMILES IDX 9 14 6 15 3 16 4 17 73 18 5 19 2 21 1 22 19 23 20 24 21 25
REMARK SMILES IDX 22 26 23 27 24 28 25 29 71 30 26 31 70 32 27 33 28 34 29 35
REMARK SMILES IDX 64 36 30 37 69 38 63 39 65 40 31 41 68 42 62 43 61 44 32 46
REMARK SMILES IDX 54 47 39 48 53 49 40 50 43 51 52 52 66 53 41 54 42 55 51 57
REMARK SMILES IDX 67 58 44 59 33 60 34 61 38 62 35 63 37 64 36 65 55 66 56 67
REMARK SMILES IDX 60 68 57 69 59 70 58 71 45 72 46 73 50 74 47 75 49 76 48 77
REMARK H PARENT 10 11 73 20 65 45 43 56
REMARK Flexibility Score: inf
ROOT
ATOM      1  O   UNL A   1      41.769  21.298  25.542  1.00  0.00    -0.456 OA
ENDROOT
BRANCH   1   2
ATOM      2  C   UNL A   1      40.923  21.225  26.613  1.00  0.00     0.374 C 
ATOM      3  O   UNL A   1      41.156  20.605  27.639  1.00  0.00    -0.242 OA
BRANCH   2   4
ATOM      4  C   UNL A   1      39.765  22.058  26.384  1.00  0.00     0.211 A 
ATOM      5  C   UNL A   1      37.696  22.400  25.681  1.00  0.00     0.119 A 
ATOM      6  C   UNL A   1      38.118  23.581  26.252  1.00  0.00     0.048 A 
ATOM      7  O   UNL A   1      38.717  21.500  25.705  1.00  0.00    -0.453 OA
ATOM      8  C   UNL A   1      39.433  23.351  26.735  1.00  0.00     0.058 A 
BRANCH   5   9
ATOM      9  C   UNL A   1      36.457  21.930  25.016  1.00  0.00     0.174 C 
BRANCH   9  10
ATOM     10  N   UNL A   1      35.648  21.042  25.855  1.00  0.00    -0.202 NA
ATOM     11  H   UNL A   1      35.822  20.091  25.529  1.00  0.00     0.141 HD
BRANCH  10  12
ATOM     12  S   UNL A   1      33.990  21.223  25.932  1.00  0.00     0.258 S 
ATOM     13  O   UNL A   1      33.598  22.282  25.030  1.00  0.00    -0.205 OA
ATOM     14  O   UNL A   1      33.613  21.255  27.323  1.00  0.00    -0.205 OA
BRANCH  12  15
ATOM     15  C   UNL A   1      33.206  19.808  25.277  1.00  0.00     0.167 A 
ATOM     16  C   UNL A   1      32.654  17.651  25.139  1.00  0.00     0.106 A 
ATOM     17  N   UNL A   1      31.963  18.254  24.192  1.00  0.00    -0.240 NA
ATOM     18  N   UNL A   1      33.419  18.563  25.820  1.00  0.00    -0.332 N 
ATOM     19  C   UNL A   1      32.320  19.576  24.250  1.00  0.00     0.153 A 
ATOM     20  H   UNL A   1      34.020  18.361  26.573  1.00  0.00     0.169 HD
BRANCH  16  21
ATOM     21  C   UNL A   1      32.614  16.189  25.445  1.00  0.00     0.072 C 
ATOM     22  C   UNL A   1      33.959  15.486  25.351  1.00  0.00     0.012 C 
ENDBRANCH  16  21
ENDBRANCH  12  15
ENDBRANCH  10  12
ENDBRANCH   9  10
ENDBRANCH   5   9
ENDBRANCH   2   4
ENDBRANCH   1   2
BRANCH   1  23
ATOM     23  C   UNL A   1      43.143  20.966  25.816  1.00  0.00     0.275 C 
BRANCH  23  24
ATOM     24  C   UNL A   1      44.118  21.890  25.074  1.00  0.00     0.275 C 
BRANCH  24  25
ATOM     25  O   UNL A   1      43.549  23.188  24.806  1.00  0.00    -0.458 OA
BRANCH  25  26
ATOM     26  C   UNL A   1      44.317  24.245  25.165  1.00  0.00     0.338 C 
ATOM     27  O   UNL A   1      45.357  24.604  24.639  1.00  0.00    -0.246 OA
BRANCH  26  28
ATOM     28  C   UNL A   1      43.647  25.029  26.220  1.00  0.00     0.060 A 
ATOM     29  C   UNL A   1      43.938  26.394  26.293  1.00  0.00     0.016 A 
ATOM     30  C   UNL A   1      42.800  24.442  27.162  1.00  0.00     0.016 A 
ATOM     31  C   UNL A   1      43.387  27.181  27.297  1.00  0.00     0.010 A 
ATOM     32  C   UNL A   1      42.250  25.233  28.180  1.00  0.00     0.010 A 
ATOM     33  C   UNL A   1      42.547  26.606  28.258  1.00  0.00    -0.014 A 
BRANCH  33  34
ATOM     34  C   UNL A   1      42.028  27.448  29.361  1.00  0.00     0.031 A 
ATOM     35  C   UNL A   1      42.776  27.526  30.660  1.00  0.00     0.074 A 
ATOM     36  C   UNL A   1      40.921  28.191  29.177  1.00  0.00     0.049 A 
ATOM     37  N   UNL A   1      42.483  28.199  31.744  1.00  0.00    -0.248 NA
ATOM     38  C   UNL A   1      44.022  26.749  30.749  1.00  0.00     0.031 C 
ATOM     39  C   UNL A   1      40.137  28.248  27.942  1.00  0.00     0.029 A 
ATOM     40  N   UNL A   1      40.270  29.047  30.029  1.00  0.00    -0.354 N 
ATOM     41  C   UNL A   1      43.497  27.916  32.650  1.00  0.00     0.074 A 
ATOM     42  C   UNL A   1      44.405  27.000  31.994  1.00  0.00     0.031 C 
ATOM     43  C   UNL A   1      39.119  29.108  28.113  1.00  0.00     0.029 A 
ATOM     44  C   UNL A   1      39.156  29.627  29.478  1.00  0.00     0.049 A 
ATOM     45  H   UNL A   1      40.575  29.228  30.948  1.00  0.00     0.167 HD
ATOM     46  C   UNL A   1      43.656  28.378  33.913  1.00  0.00     0.031 A 
ATOM     47  C   UNL A   1      38.253  30.468  30.016  1.00  0.00     0.031 A 
ATOM     48  C   UNL A   1      42.754  29.286  34.569  1.00  0.00     0.049 A 
ATOM     49  C   UNL A   1      38.413  30.908  31.445  1.00  0.00     0.074 A 
ATOM     50  C   UNL A   1      42.836  29.812  35.847  1.00  0.00     0.029 A 
ATOM     51  N   UNL A   1      41.602  29.802  33.998  1.00  0.00    -0.354 N 
ATOM     52  N   UNL A   1      39.372  30.626  32.293  1.00  0.00    -0.248 NA
ATOM     53  C   UNL A   1      37.362  31.778  31.991  1.00  0.00     0.031 C 
ATOM     54  C   UNL A   1      41.709  30.613  36.064  1.00  0.00     0.029 A 
ATOM     55  C   UNL A   1      40.950  30.621  34.905  1.00  0.00     0.049 A 
ATOM     56  H   UNL A   1      41.292  29.615  33.081  1.00  0.00     0.167 HD
ATOM     57  C   UNL A   1      39.049  31.296  33.465  1.00  0.00     0.074 A 
ATOM     58  C   UNL A   1      37.814  32.010  33.215  1.00  0.00     0.031 C 
ATOM     59  C   UNL A   1      39.718  31.317  34.644  1.00  0.00     0.031 A 
BRANCH  46  60
ATOM     60  C   UNL A   1      44.838  27.865  34.685  1.00  0.00    -0.014 A 
ATOM     61  C   UNL A   1      46.068  28.540  34.670  1.00  0.00     0.009 A 
ATOM     62  C   UNL A   1      44.710  26.697  35.452  1.00  0.00     0.009 A 
ATOM     63  C   UNL A   1      47.156  28.035  35.385  1.00  0.00     0.001 A 
ATOM     64  C   UNL A   1      45.793  26.208  36.182  1.00  0.00     0.001 A 
ATOM     65  C   UNL A   1      47.018  26.872  36.142  1.00  0.00     0.000 A 
ENDBRANCH  46  60
BRANCH  47  66
ATOM     66  C   UNL A   1      37.097  30.931  29.207  1.00  0.00    -0.014 A 
ATOM     67  C   UNL A   1      36.058  30.049  28.876  1.00  0.00     0.009 A 
ATOM     68  C   UNL A   1      37.032  32.260  28.759  1.00  0.00     0.009 A 
ATOM     69  C   UNL A   1      34.982  30.488  28.100  1.00  0.00     0.001 A 
ATOM     70  C   UNL A   1      35.943  32.700  28.004  1.00  0.00     0.001 A 
ATOM     71  C   UNL A   1      34.923  31.812  27.669  1.00  0.00     0.000 A 
ENDBRANCH  47  66
BRANCH  59  72
ATOM     72  C   UNL A   1      39.134  32.153  35.746  1.00  0.00    -0.014 A 
ATOM     73  C   UNL A   1      38.235  31.605  36.673  1.00  0.00     0.009 A 
ATOM     74  C   UNL A   1      39.514  33.498  35.876  1.00  0.00     0.009 A 
ATOM     75  C   UNL A   1      37.707  32.397  37.695  1.00  0.00     0.001 A 
ATOM     76  C   UNL A   1      39.002  34.281  36.912  1.00  0.00     0.001 A 
ATOM     77  C   UNL A   1      38.093  33.731  37.815  1.00  0.00     0.000 A 
ENDBRANCH  59  72
ENDBRANCH  33  34
ENDBRANCH  26  28
ENDBRANCH  25  26
ENDBRANCH  24  25
ENDBRANCH  23  24
ENDBRANCH   1  23
TORSDOF 16
ENDMDL
MODEL 3
REMARK VINA RESULT:     -10.0      3.603      7.181
REMARK SMILES CCc1ncc(S(=O)(=O)NCc2ccc(C(=O)OCCOC(=O)c3ccc(-c4c5nc(c(-c6ccccc6)c6ccc([nH]6)c(-c6ccccc6)c6nc(c(-c7ccccc7)c7ccc4[nH]7)C=C6)C=C5)cc3)o2)[nH]1
REMARK SMILES IDX 18 1 16 2 17 3 15 4 12 5 13 6 72 7 14 8 11 9 10 10 7 12 8 13
REMARK SMILES IDX 9 14 6 15 3 16 4 17 73 18 5 19 2 21 1 22 19 23 20 24 21 25
REMARK SMILES IDX 22 26 23 27 24 28 25 29 71 30 26 31 70 32 27 33 28 34 29 35
REMARK SMILES IDX 64 36 30 37 69 38 63 39 65 40 31 41 68 42 62 43 61 44 32 46
REMARK SMILES IDX 54 47 39 48 53 49 40 50 43 51 52 52 66 53 41 54 42 55 51 57
REMARK SMILES IDX 67 58 44 59 33 60 34 61 38 62 35 63 37 64 36 65 55 66 56 67
REMARK SMILES IDX 60 68 57 69 59 70 58 71 45 72 46 73 50 74 47 75 49 76 48 77
REMARK H PARENT 10 11 73 20 65 45 43 56
REMARK Flexibility Score: inf
ROOT
ATOM      1  O   UNL A   1      41.751  19.478  26.033  1.00  0.00    -0.456 OA
ENDROOT
BRANCH   1   2
ATOM      2  C   UNL A   1      42.746  18.556  25.864  1.00  0.00     0.374 C 
ATOM      3  O   UNL A   1      42.618  17.356  26.050  1.00  0.00    -0.242 OA
BRANCH   2   4
ATOM      4  C   UNL A   1      43.933  19.200  25.353  1.00  0.00     0.211 A 
ATOM      5  C   UNL A   1      45.007  20.902  24.434  1.00  0.00     0.119 A 
ATOM      6  C   UNL A   1      45.959  19.950  24.731  1.00  0.00     0.048 A 
ATOM      7  O   UNL A   1      43.775  20.420  24.754  1.00  0.00    -0.453 OA
ATOM      8  C   UNL A   1      45.275  18.873  25.353  1.00  0.00     0.058 A 
BRANCH   5   9
ATOM      9  C   UNL A   1      45.016  22.248  23.814  1.00  0.00     0.174 C 
BRANCH   9  10
ATOM     10  N   UNL A   1      43.845  23.058  24.161  1.00  0.00    -0.202 NA
ATOM     11  H   UNL A   1      43.594  23.585  23.326  1.00  0.00     0.141 HD
BRANCH  10  12
ATOM     12  S   UNL A   1      43.914  24.156  25.416  1.00  0.00     0.258 S 
ATOM     13  O   UNL A   1      43.240  23.593  26.563  1.00  0.00    -0.205 OA
ATOM     14  O   UNL A   1      43.538  25.447  24.894  1.00  0.00    -0.205 OA
BRANCH  12  15
ATOM     15  C   UNL A   1      45.564  24.342  25.953  1.00  0.00     0.167 A 
ATOM     16  C   UNL A   1      47.630  25.183  25.973  1.00  0.00     0.106 A 
ATOM     17  N   UNL A   1      47.581  24.341  26.986  1.00  0.00    -0.240 NA
ATOM     18  N   UNL A   1      46.422  25.212  25.323  1.00  0.00    -0.332 N 
ATOM     19  C   UNL A   1      46.324  23.797  26.963  1.00  0.00     0.153 A 
ATOM     20  H   UNL A   1      46.205  25.763  24.537  1.00  0.00     0.169 HD
BRANCH  16  21
ATOM     21  C   UNL A   1      48.817  26.002  25.581  1.00  0.00     0.072 C 
ATOM     22  C   UNL A   1      48.809  26.477  24.137  1.00  0.00     0.012 C 
ENDBRANCH  16  21
ENDBRANCH  12  15
ENDBRANCH  10  12
ENDBRANCH   9  10
ENDBRANCH   5   9
ENDBRANCH   2   4
ENDBRANCH   1   2
BRANCH   1  23
ATOM     23  C   UNL A   1      41.399  19.763  27.399  1.00  0.00     0.275 C 
BRANCH  23  24
ATOM     24  C   UNL A   1      40.839  21.183  27.566  1.00  0.00     0.275 C 
BRANCH  24  25
ATOM     25  O   UNL A   1      40.455  21.772  26.307  1.00  0.00    -0.458 OA
BRANCH  25  26
ATOM     26  C   UNL A   1      39.440  22.668  26.369  1.00  0.00     0.338 C 
ATOM     27  O   UNL A   1      38.251  22.436  26.227  1.00  0.00    -0.246 OA
BRANCH  26  28
ATOM     28  C   UNL A   1      39.950  23.989  26.785  1.00  0.00     0.060 A 
ATOM     29  C   UNL A   1      40.191  24.187  28.147  1.00  0.00     0.016 A 
ATOM     30  C   UNL A   1      40.131  25.038  25.882  1.00  0.00     0.016 A 
ATOM     31  C   UNL A   1      40.617  25.424  28.618  1.00  0.00     0.010 A 
ATOM     32  C   UNL A   1      40.553  26.288  26.356  1.00  0.00     0.010 A 
ATOM     33  C   UNL A   1      40.791  26.490  27.727  1.00  0.00    -0.014 A 
BRANCH  33  34
ATOM     34  C   UNL A   1      41.176  27.819  28.258  1.00  0.00     0.031 A 
ATOM     35  C   UNL A   1      42.621  28.223  28.293  1.00  0.00     0.074 A 
ATOM     36  C   UNL A   1      40.225  28.686  28.653  1.00  0.00     0.049 A 
ATOM     37  N   UNL A   1      43.157  29.336  28.725  1.00  0.00    -0.248 NA
ATOM     38  C   UNL A   1      43.589  27.249  27.764  1.00  0.00     0.031 C 
ATOM     39  C   UNL A   1      38.784  28.436  28.614  1.00  0.00     0.029 A 
ATOM     40  N   UNL A   1      40.332  29.958  29.155  1.00  0.00    -0.354 N 
ATOM     41  C   UNL A   1      44.526  29.193  28.537  1.00  0.00     0.074 A 
ATOM     42  C   UNL A   1      44.738  27.879  27.965  1.00  0.00     0.031 C 
ATOM     43  C   UNL A   1      38.140  29.528  29.059  1.00  0.00     0.029 A 
ATOM     44  C   UNL A   1      39.123  30.534  29.452  1.00  0.00     0.049 A 
ATOM     45  H   UNL A   1      41.195  30.414  29.288  1.00  0.00     0.167 HD
ATOM     46  C   UNL A   1      45.516  30.074  28.816  1.00  0.00     0.031 A 
ATOM     47  C   UNL A   1      38.838  31.731  29.997  1.00  0.00     0.031 A 
ATOM     48  C   UNL A   1      45.309  31.377  29.387  1.00  0.00     0.049 A 
ATOM     49  C   UNL A   1      39.959  32.662  30.366  1.00  0.00     0.074 A 
ATOM     50  C   UNL A   1      46.251  32.342  29.700  1.00  0.00     0.029 A 
ATOM     51  N   UNL A   1      44.073  31.900  29.732  1.00  0.00    -0.354 N 
ATOM     52  N   UNL A   1      41.249  32.510  30.190  1.00  0.00    -0.248 NA
ATOM     53  C   UNL A   1      39.583  33.928  31.012  1.00  0.00     0.031 C 
ATOM     54  C   UNL A   1      45.587  33.432  30.277  1.00  0.00     0.029 A 
ATOM     55  C   UNL A   1      44.229  33.163  30.279  1.00  0.00     0.049 A 
ATOM     56  H   UNL A   1      43.210  31.441  29.606  1.00  0.00     0.167 HD
ATOM     57  C   UNL A   1      41.837  33.664  30.689  1.00  0.00     0.074 A 
ATOM     58  C   UNL A   1      40.762  34.515  31.159  1.00  0.00     0.031 C 
ATOM     59  C   UNL A   1      43.151  33.992  30.751  1.00  0.00     0.031 A 
BRANCH  46  60
ATOM     60  C   UNL A   1      46.924  29.629  28.544  1.00  0.00    -0.014 A 
ATOM     61  C   UNL A   1      47.673  28.943  29.512  1.00  0.00     0.009 A 
ATOM     62  C   UNL A   1      47.502  29.887  27.291  1.00  0.00     0.009 A 
ATOM     63  C   UNL A   1      48.985  28.552  29.241  1.00  0.00     0.001 A 
ATOM     64  C   UNL A   1      48.806  29.475  27.016  1.00  0.00     0.001 A 
ATOM     65  C   UNL A   1      49.551  28.816  27.993  1.00  0.00     0.000 A 
ENDBRANCH  46  60
BRANCH  47  66
ATOM     66  C   UNL A   1      37.425  32.109  30.255  1.00  0.00    -0.014 A 
ATOM     67  C   UNL A   1      36.790  31.732  31.447  1.00  0.00     0.009 A 
ATOM     68  C   UNL A   1      36.703  32.849  29.304  1.00  0.00     0.009 A 
ATOM     69  C   UNL A   1      35.455  32.077  31.675  1.00  0.00     0.001 A 
ATOM     70  C   UNL A   1      35.378  33.212  29.546  1.00  0.00     0.001 A 
ATOM     71  C   UNL A   1      34.752  32.820  30.728  1.00  0.00     0.000 A 
ENDBRANCH  47  66
BRANCH  59  72
ATOM     72  C   UNL A   1      43.495  35.332  31.333  1.00  0.00    -0.014 A 
ATOM     73  C   UNL A   1      43.667  36.456  30.511  1.00  0.00     0.009 A 
ATOM     74  C   UNL A   1      43.615  35.477  32.724  1.00  0.00     0.009 A 
ATOM     75  C   UNL A   1      43.980  37.696  31.072  1.00  0.00     0.001 A 
ATOM     76  C   UNL A   1      43.906  36.723  33.282  1.00  0.00     0.001 A 
ATOM     77  C   UNL A   1      44.096  37.829  32.454  1.00  0.00     0.000 A 
ENDBRANCH  59  72
ENDBRANCH  33  34
ENDBRANCH  26  28
ENDBRANCH  25  26
ENDBRANCH  24  25
ENDBRANCH  23  24
ENDBRANCH   1  23
TORSDOF 16
ENDMDL
