MODEL 1
REMARK VINA RESULT:     -11.0      0.000      0.000
REMARK SMILES O=C(OCCOC(=O)[C@@H]1[C@@H](C(=O)N2CC[NH+](C/C=C/c3ccccc3)CC2)[C@@H]2C=C[C@H]1C2)c1ccc(-c2c3nc(c(-c4ccccc4)c4ccc([nH]4)c(-c4ccccc4)c4nc(c(-c5ccccc5)c5ccc2[nH]5)C=C4)C=C3)cc1
REMARK SMILES IDX 5 1 4 2 3 3 2 4 1 5 33 6 34 7 80 8 35 9 79 10 36 11 37 12
REMARK SMILES IDX 38 13 73 14 39 15 78 16 72 17 74 18 40 19 77 20 71 21 70 22
REMARK SMILES IDX 41 24 63 25 48 26 62 27 49 28 52 29 61 30 75 31 50 32 51 33
REMARK SMILES IDX 60 35 76 36 53 37 42 38 43 39 47 40 44 41 46 42 45 43 64 44
REMARK SMILES IDX 65 45 69 46 66 47 68 48 67 49 54 50 55 51 59 52 56 53 58 54
REMARK SMILES IDX 57 55 6 56 7 57 8 58 9 59 10 60 31 61 28 62 30 63 32 64
REMARK SMILES IDX 29 65 11 66 12 67 13 68 14 69 27 70 15 71 26 72 16 73 17 75
REMARK SMILES IDX 18 76 19 77 20 78 21 79 25 80 22 81 24 82 23 83
REMARK H PARENT 74 23 52 34 16 74
REMARK Flexibility Score: inf
ROOT
ATOM      1  C   UNL A   1      36.572  21.747  25.822  1.00  0.00     0.274 C 
ENDROOT
BRANCH   1   2
ATOM      2  C   UNL A   1      37.998  21.433  25.294  1.00  0.00     0.275 C 
BRANCH   2   3
ATOM      3  O   UNL A   1      38.968  21.263  26.360  1.00  0.00    -0.458 OA
BRANCH   3   4
ATOM      4  C   UNL A   1      40.217  20.724  26.161  1.00  0.00     0.338 C 
ATOM      5  O   UNL A   1      40.372  19.517  26.023  1.00  0.00    -0.246 OA
BRANCH   4   6
ATOM      6  C   UNL A   1      41.389  21.584  26.584  1.00  0.00     0.060 A 
ATOM      7  C   UNL A   1      42.420  21.945  25.736  1.00  0.00     0.016 A 
ATOM      8  C   UNL A   1      41.463  22.088  27.899  1.00  0.00     0.016 A 
ATOM      9  C   UNL A   1      43.338  22.952  26.141  1.00  0.00     0.010 A 
ATOM     10  C   UNL A   1      42.318  23.184  28.253  1.00  0.00     0.010 A 
ATOM     11  C   UNL A   1      43.175  23.768  27.313  1.00  0.00    -0.014 A 
BRANCH  11  12
ATOM     12  C   UNL A   1      44.028  25.167  27.545  1.00  0.00     0.031 A 
ATOM     13  C   UNL A   1      42.984  26.264  27.841  1.00  0.00     0.074 A 
ATOM     14  C   UNL A   1      45.400  25.456  27.801  1.00  0.00     0.049 A 
ATOM     15  N   UNL A   1      43.049  27.403  28.490  1.00  0.00    -0.248 NA
ATOM     16  C   UNL A   1      41.615  25.905  27.422  1.00  0.00     0.031 C 
ATOM     17  C   UNL A   1      46.701  24.707  27.878  1.00  0.00     0.029 A 
ATOM     18  N   UNL A   1      45.920  26.644  28.281  1.00  0.00    -0.354 N 
ATOM     19  C   UNL A   1      41.726  27.820  28.653  1.00  0.00     0.074 A 
ATOM     20  C   UNL A   1      40.891  26.804  28.053  1.00  0.00     0.031 C 
ATOM     21  C   UNL A   1      47.615  25.287  28.682  1.00  0.00     0.029 A 
ATOM     22  C   UNL A   1      47.169  26.615  29.044  1.00  0.00     0.049 A 
ATOM     23  H   UNL A   1      45.458  27.497  28.113  1.00  0.00     0.167 HD
ATOM     24  C   UNL A   1      41.174  28.935  29.194  1.00  0.00     0.031 A 
ATOM     25  C   UNL A   1      47.846  27.558  29.974  1.00  0.00     0.031 A 
ATOM     26  C   UNL A   1      41.846  30.105  29.690  1.00  0.00     0.049 A 
ATOM     27  C   UNL A   1      47.230  29.456  30.853  1.00  0.00     0.074 A 
ATOM     28  C   UNL A   1      41.267  31.324  30.006  1.00  0.00     0.029 A 
ATOM     29  N   UNL A   1      43.206  30.255  29.916  1.00  0.00    -0.354 N 
ATOM     30  N   UNL A   1      45.958  29.975  31.128  1.00  0.00    -0.248 NA
ATOM     31  C   UNL A   1      48.066  30.893  31.226  1.00  0.00     0.031 C 
ATOM     32  C   UNL A   1      42.277  32.219  30.364  1.00  0.00     0.029 A 
ATOM     33  C   UNL A   1      43.483  31.539  30.369  1.00  0.00     0.049 A 
ATOM     34  H   UNL A   1      43.879  29.551  29.774  1.00  0.00     0.167 HD
ATOM     35  C   UNL A   1      45.872  31.336  31.073  1.00  0.00     0.074 A 
ATOM     36  C   UNL A   1      47.169  31.861  31.312  1.00  0.00     0.031 C 
ATOM     37  C   UNL A   1      44.786  32.058  30.704  1.00  0.00     0.031 A 
BRANCH  24  38
ATOM     38  C   UNL A   1      39.665  28.991  29.078  1.00  0.00    -0.014 A 
ATOM     39  C   UNL A   1      39.022  29.456  27.918  1.00  0.00     0.009 A 
ATOM     40  C   UNL A   1      38.900  28.717  30.223  1.00  0.00     0.009 A 
ATOM     41  C   UNL A   1      37.644  29.686  27.929  1.00  0.00     0.001 A 
ATOM     42  C   UNL A   1      37.523  28.926  30.221  1.00  0.00     0.001 A 
ATOM     43  C   UNL A   1      36.897  29.424  29.080  1.00  0.00     0.000 A 
ENDBRANCH  24  38
BRANCH  25  44
ATOM     44  C   UNL A   1      49.467  26.851  29.958  1.00  0.00    -0.014 A 
ATOM     45  C   UNL A   1      50.007  25.939  30.911  1.00  0.00     0.009 A 
ATOM     46  C   UNL A   1      50.395  27.345  28.999  1.00  0.00     0.009 A 
ATOM     47  C   UNL A   1      51.396  25.732  31.035  1.00  0.00     0.001 A 
ATOM     48  C   UNL A   1      51.767  27.047  29.065  1.00  0.00     0.001 A 
ATOM     49  C   UNL A   1      52.275  26.291  30.117  1.00  0.00     0.000 A 
ENDBRANCH  25  44
BRANCH  37  50
ATOM     50  C   UNL A   1      44.969  33.532  30.795  1.00  0.00    -0.014 A 
ATOM     51  C   UNL A   1      44.783  34.244  31.988  1.00  0.00     0.009 A 
ATOM     52  C   UNL A   1      45.232  34.216  29.601  1.00  0.00     0.009 A 
ATOM     53  C   UNL A   1      44.808  35.639  31.962  1.00  0.00     0.001 A 
ATOM     54  C   UNL A   1      45.268  35.603  29.584  1.00  0.00     0.001 A 
ATOM     55  C   UNL A   1      45.041  36.313  30.761  1.00  0.00     0.000 A 
ENDBRANCH  37  50
ENDBRANCH  11  12
ENDBRANCH   4   6
ENDBRANCH   3   4
ENDBRANCH   2   3
ENDBRANCH   1   2
BRANCH   1  56
ATOM     56  O   UNL A   1      36.259  23.137  25.715  1.00  0.00    -0.462 OA
BRANCH  56  57
ATOM     57  C   UNL A   1      34.936  23.499  25.706  1.00  0.00     0.310 C 
ATOM     58  O   UNL A   1      34.161  23.390  26.638  1.00  0.00    -0.252 OA
BRANCH  57  59
ATOM     59  C   UNL A   1      34.621  24.059  24.342  1.00  0.00     0.119 C 
ATOM     60  C   UNL A   1      33.303  24.807  24.513  1.00  0.00     0.100 C 
ATOM     61  C   UNL A   1      34.294  23.010  23.225  1.00  0.00     0.027 C 
ATOM     62  C   UNL A   1      32.426  24.176  23.308  1.00  0.00     0.025 C 
ATOM     63  C   UNL A   1      33.182  22.055  23.621  1.00  0.00    -0.027 C 
ATOM     64  C   UNL A   1      33.481  23.874  22.255  1.00  0.00     0.017 C 
ATOM     65  C   UNL A   1      32.046  22.758  23.655  1.00  0.00    -0.027 C 
BRANCH  60  66
ATOM     66  C   UNL A   1      33.279  26.318  24.505  1.00  0.00     0.227 C 
ATOM     67  O   UNL A   1      33.611  26.628  23.374  1.00  0.00    -0.275 OA
ATOM     68  N   UNL A   1      32.830  27.345  25.314  1.00  0.00    -0.331 N 
ATOM     69  C   UNL A   1      32.644  28.682  24.687  1.00  0.00     0.181 C 
ATOM     70  C   UNL A   1      33.139  27.563  26.718  1.00  0.00     0.181 C 
ATOM     71  C   UNL A   1      31.491  29.507  25.254  1.00  0.00     0.284 C 
ATOM     72  C   UNL A   1      32.269  28.714  27.384  1.00  0.00     0.284 C 
ATOM     73  N   UNL A   1      31.836  29.899  26.604  1.00  0.00    -0.329 N 
ATOM     74  H   UNL A   1      31.029  30.186  27.159  1.00  0.00     0.348 HD
BRANCH  73  75
ATOM     75  C   UNL A   1      32.507  31.211  26.688  1.00  0.00     0.291 C 
BRANCH  75  76
ATOM     76  C   UNL A   1      33.647  31.458  27.679  1.00  0.00     0.034 C 
ATOM     77  C   UNL A   1      33.881  32.595  28.383  1.00  0.00     0.009 C 
BRANCH  77  78
ATOM     78  C   UNL A   1      35.043  32.771  29.294  1.00  0.00    -0.026 A 
ATOM     79  C   UNL A   1      34.964  32.324  31.012  1.00  0.00     0.008 A 
ATOM     80  C   UNL A   1      36.641  33.157  28.564  1.00  0.00     0.008 A 
ATOM     81  C   UNL A   1      36.468  32.079  32.003  1.00  0.00     0.001 A 
ATOM     82  C   UNL A   1      38.206  32.994  29.557  1.00  0.00     0.001 A 
ATOM     83  C   UNL A   1      38.113  32.388  31.264  1.00  0.00     0.000 A 
ENDBRANCH  77  78
ENDBRANCH  75  76
ENDBRANCH  73  75
ENDBRANCH  60  66
ENDBRANCH  57  59
ENDBRANCH  56  57
ENDBRANCH   1  56
TORSDOF 15
ENDMDL
MODEL 2
REMARK VINA RESULT:     -11.0      2.563      7.205
REMARK SMILES O=C(OCCOC(=O)[C@@H]1[C@@H](C(=O)N2CC[NH+](C/C=C/c3ccccc3)CC2)[C@@H]2C=C[C@H]1C2)c1ccc(-c2c3nc(c(-c4ccccc4)c4ccc([nH]4)c(-c4ccccc4)c4nc(c(-c5ccccc5)c5ccc2[nH]5)C=C4)C=C3)cc1
REMARK SMILES IDX 5 1 4 2 3 3 2 4 1 5 33 6 34 7 80 8 35 9 79 10 36 11 37 12
REMARK SMILES IDX 38 13 73 14 39 15 78 16 72 17 74 18 40 19 77 20 71 21 70 22
REMARK SMILES IDX 41 24 63 25 48 26 62 27 49 28 52 29 61 30 75 31 50 32 51 33
REMARK SMILES IDX 60 35 76 36 53 37 42 38 43 39 47 40 44 41 46 42 45 43 64 44
REMARK SMILES IDX 65 45 69 46 66 47 68 48 67 49 54 50 55 51 59 52 56 53 58 54
REMARK SMILES IDX 57 55 6 56 7 57 8 58 9 59 10 60 31 61 28 62 30 63 32 64
REMARK SMILES IDX 29 65 11 66 12 67 13 68 14 69 27 70 15 71 26 72 16 73 17 75
REMARK SMILES IDX 18 76 19 77 20 78 21 79 25 80 22 81 24 82 23 83
REMARK H PARENT 74 23 52 34 16 74
REMARK Flexibility Score: inf
ROOT
ATOM      1  C   UNL A   1      31.898  23.885  25.423  1.00  0.00     0.274 C 
ENDROOT
BRANCH   1   2
ATOM      2  C   UNL A   1      32.503  22.461  25.552  1.00  0.00     0.275 C 
BRANCH   2   3
ATOM      3  O   UNL A   1      33.459  22.159  24.502  1.00  0.00    -0.458 OA
BRANCH   3   4
ATOM      4  C   UNL A   1      34.568  21.371  24.698  1.00  0.00     0.338 C 
ATOM      5  O   UNL A   1      34.459  20.185  24.987  1.00  0.00    -0.246 OA
BRANCH   4   6
ATOM      6  C   UNL A   1      35.858  22.100  25.008  1.00  0.00     0.060 A 
ATOM      7  C   UNL A   1      35.976  23.477  25.015  1.00  0.00     0.016 A 
ATOM      8  C   UNL A   1      37.022  21.376  25.336  1.00  0.00     0.016 A 
ATOM      9  C   UNL A   1      37.145  24.076  25.558  1.00  0.00     0.010 A 
ATOM     10  C   UNL A   1      38.145  21.986  25.990  1.00  0.00     0.010 A 
ATOM     11  C   UNL A   1      38.160  23.355  26.276  1.00  0.00    -0.014 A 
BRANCH  11  12
ATOM     12  C   UNL A   1      39.288  24.116  27.219  1.00  0.00     0.031 A 
ATOM     13  C   UNL A   1      40.644  23.459  26.881  1.00  0.00     0.074 A 
ATOM     14  C   UNL A   1      39.295  25.329  27.967  1.00  0.00     0.049 A 
ATOM     15  N   UNL A   1      41.883  23.883  26.965  1.00  0.00    -0.248 NA
ATOM     16  C   UNL A   1      40.516  22.147  26.218  1.00  0.00     0.031 C 
ATOM     17  C   UNL A   1      38.320  26.408  28.347  1.00  0.00     0.029 A 
ATOM     18  N   UNL A   1      40.405  25.996  28.453  1.00  0.00    -0.354 N 
ATOM     19  C   UNL A   1      42.650  22.950  26.263  1.00  0.00     0.074 A 
ATOM     20  C   UNL A   1      41.731  21.958  25.751  1.00  0.00     0.031 C 
ATOM     21  C   UNL A   1      38.898  27.605  28.577  1.00  0.00     0.029 A 
ATOM     22  C   UNL A   1      40.335  27.445  28.644  1.00  0.00     0.049 A 
ATOM     23  H   UNL A   1      41.230  25.503  28.669  1.00  0.00     0.167 HD
ATOM     24  C   UNL A   1      43.984  22.828  26.052  1.00  0.00     0.031 A 
ATOM     25  C   UNL A   1      41.343  28.526  28.806  1.00  0.00     0.031 A 
ATOM     26  C   UNL A   1      45.045  23.623  26.609  1.00  0.00     0.049 A 
ATOM     27  C   UNL A   1      43.519  28.544  28.664  1.00  0.00     0.074 A 
ATOM     28  C   UNL A   1      46.400  23.335  26.581  1.00  0.00     0.029 A 
ATOM     29  N   UNL A   1      44.918  24.812  27.310  1.00  0.00    -0.354 N 
ATOM     30  N   UNL A   1      44.404  27.717  27.958  1.00  0.00    -0.248 NA
ATOM     31  C   UNL A   1      44.735  29.379  29.516  1.00  0.00     0.031 C 
ATOM     32  C   UNL A   1      47.079  24.313  27.311  1.00  0.00     0.029 A 
ATOM     33  C   UNL A   1      46.166  25.271  27.715  1.00  0.00     0.049 A 
ATOM     34  H   UNL A   1      44.065  25.267  27.496  1.00  0.00     0.167 HD
ATOM     35  C   UNL A   1      45.631  27.570  28.535  1.00  0.00     0.074 A 
ATOM     36  C   UNL A   1      45.864  28.707  29.353  1.00  0.00     0.031 C 
ATOM     37  C   UNL A   1      46.425  26.473  28.469  1.00  0.00     0.031 A 
BRANCH  24  38
ATOM     38  C   UNL A   1      44.372  21.587  25.277  1.00  0.00    -0.014 A 
ATOM     39  C   UNL A   1      44.792  21.643  23.937  1.00  0.00     0.009 A 
ATOM     40  C   UNL A   1      44.150  20.335  25.874  1.00  0.00     0.009 A 
ATOM     41  C   UNL A   1      44.938  20.465  23.201  1.00  0.00     0.001 A 
ATOM     42  C   UNL A   1      44.320  19.162  25.143  1.00  0.00     0.001 A 
ATOM     43  C   UNL A   1      44.700  19.227  23.803  1.00  0.00     0.000 A 
ENDBRANCH  24  38
BRANCH  25  44
ATOM     44  C   UNL A   1      40.293  29.793  29.455  1.00  0.00    -0.014 A 
ATOM     45  C   UNL A   1      39.063  30.248  28.896  1.00  0.00     0.009 A 
ATOM     46  C   UNL A   1      40.778  30.556  30.554  1.00  0.00     0.009 A 
ATOM     47  C   UNL A   1      38.501  31.489  29.254  1.00  0.00     0.001 A 
ATOM     48  C   UNL A   1      40.151  31.740  30.976  1.00  0.00     0.001 A 
ATOM     49  C   UNL A   1      39.049  32.238  30.287  1.00  0.00     0.000 A 
ENDBRANCH  25  44
BRANCH  37  50
ATOM     50  C   UNL A   1      47.739  26.623  29.150  1.00  0.00    -0.014 A 
ATOM     51  C   UNL A   1      48.846  27.219  28.532  1.00  0.00     0.009 A 
ATOM     52  C   UNL A   1      47.869  26.039  30.417  1.00  0.00     0.009 A 
ATOM     53  C   UNL A   1      50.089  27.175  29.167  1.00  0.00     0.001 A 
ATOM     54  C   UNL A   1      49.104  26.010  31.049  1.00  0.00     0.001 A 
ATOM     55  C   UNL A   1      50.215  26.565  30.417  1.00  0.00     0.000 A 
ENDBRANCH  37  50
ENDBRANCH  11  12
ENDBRANCH   4   6
ENDBRANCH   3   4
ENDBRANCH   2   3
ENDBRANCH   1   2
BRANCH   1  56
ATOM     56  O   UNL A   1      32.816  24.894  25.849  1.00  0.00    -0.462 OA
BRANCH  56  57
ATOM     57  C   UNL A   1      32.331  26.160  26.053  1.00  0.00     0.310 C 
ATOM     58  O   UNL A   1      31.298  26.443  26.633  1.00  0.00    -0.252 OA
BRANCH  57  59
ATOM     59  C   UNL A   1      33.305  27.132  25.438  1.00  0.00     0.119 C 
ATOM     60  C   UNL A   1      32.769  28.514  25.797  1.00  0.00     0.100 C 
ATOM     61  C   UNL A   1      33.353  27.163  23.872  1.00  0.00     0.027 C 
ATOM     62  C   UNL A   1      32.748  29.229  24.345  1.00  0.00     0.025 C 
ATOM     63  C   UNL A   1      31.989  27.390  23.245  1.00  0.00    -0.027 C 
ATOM     64  C   UNL A   1      33.919  28.567  23.635  1.00  0.00     0.017 C 
ATOM     65  C   UNL A   1      31.630  28.648  23.517  1.00  0.00    -0.027 C 
BRANCH  60  66
ATOM     66  C   UNL A   1      33.472  29.357  26.836  1.00  0.00     0.227 C 
ATOM     67  O   UNL A   1      34.262  28.598  27.371  1.00  0.00    -0.275 OA
ATOM     68  N   UNL A   1      33.581  30.693  27.176  1.00  0.00    -0.331 N 
ATOM     69  C   UNL A   1      34.739  31.092  28.024  1.00  0.00     0.181 C 
ATOM     70  C   UNL A   1      32.501  31.626  27.448  1.00  0.00     0.181 C 
ATOM     71  C   UNL A   1      35.297  32.485  27.739  1.00  0.00     0.284 C 
ATOM     72  C   UNL A   1      32.988  33.132  27.586  1.00  0.00     0.284 C 
ATOM     73  N   UNL A   1      34.315  33.461  28.162  1.00  0.00    -0.329 N 
ATOM     74  H   UNL A   1      34.460  34.383  27.748  1.00  0.00     0.348 HD
BRANCH  73  75
ATOM     75  C   UNL A   1      34.501  33.926  29.549  1.00  0.00     0.291 C 
BRANCH  75  76
ATOM     76  C   UNL A   1      35.419  33.180  30.521  1.00  0.00     0.034 C 
ATOM     77  C   UNL A   1      35.039  32.324  31.505  1.00  0.00     0.009 C 
BRANCH  77  78
ATOM     78  C   UNL A   1      35.995  31.673  32.440  1.00  0.00    -0.026 A 
ATOM     79  C   UNL A   1      36.652  30.051  32.131  1.00  0.00     0.008 A 
ATOM     80  C   UNL A   1      36.723  32.679  33.742  1.00  0.00     0.008 A 
ATOM     81  C   UNL A   1      38.146  29.452  32.975  1.00  0.00     0.001 A 
ATOM     82  C   UNL A   1      38.210  32.079  34.687  1.00  0.00     0.001 A 
ATOM     83  C   UNL A   1      38.957  30.486  34.249  1.00  0.00     0.000 A 
ENDBRANCH  77  78
ENDBRANCH  75  76
ENDBRANCH  73  75
ENDBRANCH  60  66
ENDBRANCH  57  59
ENDBRANCH  56  57
ENDBRANCH   1  56
TORSDOF 15
ENDMDL
MODEL 3
REMARK VINA RESULT:     -10.7      1.610      2.011
REMARK SMILES O=C(OCCOC(=O)[C@@H]1[C@@H](C(=O)N2CC[NH+](C/C=C/c3ccccc3)CC2)[C@@H]2C=C[C@H]1C2)c1ccc(-c2c3nc(c(-c4ccccc4)c4ccc([nH]4)c(-c4ccccc4)c4nc(c(-c5ccccc5)c5ccc2[nH]5)C=C4)C=C3)cc1
REMARK SMILES IDX 5 1 4 2 3 3 2 4 1 5 33 6 34 7 80 8 35 9 79 10 36 11 37 12
REMARK SMILES IDX 38 13 73 14 39 15 78 16 72 17 74 18 40 19 77 20 71 21 70 22
REMARK SMILES IDX 41 24 63 25 48 26 62 27 49 28 52 29 61 30 75 31 50 32 51 33
REMARK SMILES IDX 60 35 76 36 53 37 42 38 43 39 47 40 44 41 46 42 45 43 64 44
REMARK SMILES IDX 65 45 69 46 66 47 68 48 67 49 54 50 55 51 59 52 56 53 58 54
REMARK SMILES IDX 57 55 6 56 7 57 8 58 9 59 10 60 31 61 28 62 30 63 32 64
REMARK SMILES IDX 29 65 11 66 12 67 13 68 14 69 27 70 15 71 26 72 16 73 17 75
REMARK SMILES IDX 18 76 19 77 20 78 21 79 25 80 22 81 24 82 23 83
REMARK H PARENT 74 23 52 34 16 74
REMARK Flexibility Score: inf
ROOT
ATOM      1  C   UNL A   1      35.914  22.139  25.576  1.00  0.00     0.274 C 
ENDROOT
BRANCH   1   2
ATOM      2  C   UNL A   1      36.475  20.709  25.344  1.00  0.00     0.275 C 
BRANCH   2   3
ATOM      3  O   UNL A   1      37.802  20.714  24.756  1.00  0.00    -0.458 OA
BRANCH   3   4
ATOM      4  C   UNL A   1      38.919  20.261  25.417  1.00  0.00     0.338 C 
ATOM      5  O   UNL A   1      38.979  19.115  25.848  1.00  0.00    -0.246 OA
BRANCH   4   6
ATOM      6  C   UNL A   1      39.830  21.324  25.992  1.00  0.00     0.060 A 
ATOM      7  C   UNL A   1      41.208  21.218  26.021  1.00  0.00     0.016 A 
ATOM      8  C   UNL A   1      39.289  22.516  26.517  1.00  0.00     0.016 A 
ATOM      9  C   UNL A   1      41.991  22.359  26.344  1.00  0.00     0.010 A 
ATOM     10  C   UNL A   1      40.085  23.692  26.725  1.00  0.00     0.010 A 
ATOM     11  C   UNL A   1      41.461  23.689  26.475  1.00  0.00    -0.014 A 
BRANCH  11  12
ATOM     12  C   UNL A   1      42.427  25.033  26.462  1.00  0.00     0.031 A 
ATOM     13  C   UNL A   1      41.631  26.141  27.185  1.00  0.00     0.074 A 
ATOM     14  C   UNL A   1      43.813  25.252  26.214  1.00  0.00     0.049 A 
ATOM     15  N   UNL A   1      41.999  27.223  27.832  1.00  0.00    -0.248 NA
ATOM     16  C   UNL A   1      40.184  25.867  27.275  1.00  0.00     0.031 C 
ATOM     17  C   UNL A   1      45.004  24.452  25.765  1.00  0.00     0.029 A 
ATOM     18  N   UNL A   1      44.546  26.379  26.541  1.00  0.00    -0.354 N 
ATOM     19  C   UNL A   1      40.854  27.674  28.493  1.00  0.00     0.074 A 
ATOM     20  C   UNL A   1      39.796  26.739  28.179  1.00  0.00     0.031 C 
ATOM     21  C   UNL A   1      46.182  24.933  26.212  1.00  0.00     0.029 A 
ATOM     22  C   UNL A   1      45.981  26.245  26.790  1.00  0.00     0.049 A 
ATOM     23  H   UNL A   1      44.108  27.258  26.605  1.00  0.00     0.167 HD
ATOM     24  C   UNL A   1      40.606  28.763  29.264  1.00  0.00     0.031 A 
ATOM     25  C   UNL A   1      47.007  27.086  27.462  1.00  0.00     0.031 A 
ATOM     26  C   UNL A   1      41.484  29.865  29.548  1.00  0.00     0.049 A 
ATOM     27  C   UNL A   1      46.872  28.931  28.617  1.00  0.00     0.074 A 
ATOM     28  C   UNL A   1      41.137  31.075  30.127  1.00  0.00     0.029 A 
ATOM     29  N   UNL A   1      42.840  29.947  29.268  1.00  0.00    -0.354 N 
ATOM     30  N   UNL A   1      45.821  29.472  29.370  1.00  0.00    -0.248 NA
ATOM     31  C   UNL A   1      47.875  30.302  28.744  1.00  0.00     0.031 C 
ATOM     32  C   UNL A   1      42.262  31.902  30.142  1.00  0.00     0.029 A 
ATOM     33  C   UNL A   1      43.343  31.180  29.665  1.00  0.00     0.049 A 
ATOM     34  H   UNL A   1      43.371  29.232  28.848  1.00  0.00     0.167 HD
ATOM     35  C   UNL A   1      45.807  30.835  29.431  1.00  0.00     0.074 A 
ATOM     36  C   UNL A   1      47.132  31.293  29.210  1.00  0.00     0.031 C 
ATOM     37  C   UNL A   1      44.708  31.624  29.530  1.00  0.00     0.031 A 
BRANCH  24  38
ATOM     38  C   UNL A   1      39.165  28.882  29.711  1.00  0.00    -0.014 A 
ATOM     39  C   UNL A   1      38.153  29.345  28.854  1.00  0.00     0.009 A 
ATOM     40  C   UNL A   1      38.871  28.671  31.068  1.00  0.00     0.009 A 
ATOM     41  C   UNL A   1      36.884  29.637  29.364  1.00  0.00     0.001 A 
ATOM     42  C   UNL A   1      37.599  28.941  31.567  1.00  0.00     0.001 A 
ATOM     43  C   UNL A   1      36.611  29.437  30.719  1.00  0.00     0.000 A 
ENDBRANCH  24  38
BRANCH  25  44
ATOM     44  C   UNL A   1      48.464  26.324  26.811  1.00  0.00    -0.014 A 
ATOM     45  C   UNL A   1      49.279  25.352  27.462  1.00  0.00     0.009 A 
ATOM     46  C   UNL A   1      48.984  26.827  25.586  1.00  0.00     0.009 A 
ATOM     47  C   UNL A   1      50.599  25.091  27.043  1.00  0.00     0.001 A 
ATOM     48  C   UNL A   1      50.262  26.479  25.117  1.00  0.00     0.001 A 
ATOM     49  C   UNL A   1      51.092  25.659  25.876  1.00  0.00     0.000 A 
ENDBRANCH  25  44
BRANCH  37  50
ATOM     50  C   UNL A   1      45.003  33.078  29.636  1.00  0.00    -0.014 A 
ATOM     51  C   UNL A   1      45.328  33.696  30.851  1.00  0.00     0.009 A 
ATOM     52  C   UNL A   1      44.836  33.847  28.477  1.00  0.00     0.009 A 
ATOM     53  C   UNL A   1      45.428  35.087  30.904  1.00  0.00     0.001 A 
ATOM     54  C   UNL A   1      44.950  35.229  28.534  1.00  0.00     0.001 A 
ATOM     55  C   UNL A   1      45.230  35.848  29.749  1.00  0.00     0.000 A 
ENDBRANCH  37  50
ENDBRANCH  11  12
ENDBRANCH   4   6
ENDBRANCH   3   4
ENDBRANCH   2   3
ENDBRANCH   1   2
BRANCH   1  56
ATOM     56  O   UNL A   1      34.915  22.480  24.614  1.00  0.00    -0.462 OA
BRANCH  56  57
ATOM     57  C   UNL A   1      35.302  23.195  23.510  1.00  0.00     0.310 C 
ATOM     58  O   UNL A   1      36.352  23.063  22.907  1.00  0.00    -0.252 OA
BRANCH  57  59
ATOM     59  C   UNL A   1      34.197  24.165  23.177  1.00  0.00     0.119 C 
ATOM     60  C   UNL A   1      33.268  24.141  24.386  1.00  0.00     0.100 C 
ATOM     61  C   UNL A   1      33.255  23.757  21.993  1.00  0.00     0.027 C 
ATOM     62  C   UNL A   1      31.836  23.882  23.676  1.00  0.00     0.025 C 
ATOM     63  C   UNL A   1      32.645  22.378  22.175  1.00  0.00    -0.027 C 
ATOM     64  C   UNL A   1      32.005  24.576  22.333  1.00  0.00     0.017 C 
ATOM     65  C   UNL A   1      31.772  22.458  23.184  1.00  0.00    -0.027 C 
BRANCH  60  66
ATOM     66  C   UNL A   1      33.227  25.313  25.339  1.00  0.00     0.227 C 
ATOM     67  O   UNL A   1      33.331  24.818  26.447  1.00  0.00    -0.275 OA
ATOM     68  N   UNL A   1      33.294  26.693  25.277  1.00  0.00    -0.331 N 
ATOM     69  C   UNL A   1      33.642  27.420  26.529  1.00  0.00     0.181 C 
ATOM     70  C   UNL A   1      32.471  27.583  24.473  1.00  0.00     0.181 C 
ATOM     71  C   UNL A   1      34.461  28.694  26.329  1.00  0.00     0.284 C 
ATOM     72  C   UNL A   1      32.976  29.089  24.482  1.00  0.00     0.284 C 
ATOM     73  N   UNL A   1      33.618  29.678  25.683  1.00  0.00    -0.329 N 
ATOM     74  H   UNL A   1      34.144  30.434  25.245  1.00  0.00     0.348 HD
BRANCH  73  75
ATOM     75  C   UNL A   1      32.908  30.561  26.628  1.00  0.00     0.291 C 
BRANCH  75  76
ATOM     76  C   UNL A   1      33.646  31.253  27.776  1.00  0.00     0.034 C 
ATOM     77  C   UNL A   1      34.767  32.014  27.683  1.00  0.00     0.009 C 
BRANCH  77  78
ATOM     78  C   UNL A   1      35.452  32.614  28.858  1.00  0.00    -0.026 A 
ATOM     79  C   UNL A   1      34.743  32.556  30.488  1.00  0.00     0.008 A 
ATOM     80  C   UNL A   1      37.163  33.133  28.667  1.00  0.00     0.008 A 
ATOM     81  C   UNL A   1      35.749  32.840  31.974  1.00  0.00     0.001 A 
ATOM     82  C   UNL A   1      38.216  33.508  30.156  1.00  0.00     0.001 A 
ATOM     83  C   UNL A   1      37.515  33.292  31.814  1.00  0.00     0.000 A 
ENDBRANCH  77  78
ENDBRANCH  75  76
ENDBRANCH  73  75
ENDBRANCH  60  66
ENDBRANCH  57  59
ENDBRANCH  56  57
ENDBRANCH   1  56
TORSDOF 15
ENDMDL
