MODEL 1
REMARK VINA RESULT:     -11.5      0.000      0.000
REMARK SMILES Cc1c(CC(=O)OCCOC(=O)c2ccc(-c3c4nc(c(-c5ccccc5)c5ccc([nH]5)c(-c5ccccc5)c5nc(c(-c6ccccc6)c6ccc3[nH]6)C=C5)C=C4)cc2)cc(-c2ccc(S(C)(=O)=O)cc2)n1-c1ccccc1
REMARK SMILES IDX 8 1 7 2 5 3 6 4 4 5 3 6 1 7 2 8 73 9 61 10 62 11 74 12 75 13
REMARK SMILES IDX 79 14 76 15 78 16 77 17 63 18 64 19 72 20 65 21 71 22 66 23
REMARK SMILES IDX 67 24 68 25 69 26 70 27 9 28 10 29 11 30 12 31 13 32 14 33
REMARK SMILES IDX 60 34 15 35 59 36 16 37 17 38 18 39 53 40 19 41 58 42 52 43
REMARK SMILES IDX 54 44 20 45 57 46 51 47 50 48 21 50 43 51 28 52 42 53 29 54
REMARK SMILES IDX 32 55 41 56 55 57 30 58 31 59 40 61 56 62 33 63 22 64 23 65
REMARK SMILES IDX 27 66 24 67 26 68 25 69 44 70 45 71 49 72 46 73 48 74 47 75
REMARK SMILES IDX 34 76 35 77 39 78 36 79 38 80 37 81
REMARK H PARENT 54 49 32 60
REMARK Flexibility Score: inf
ROOT
ATOM      1  C   UNL A   1      34.313  34.693  31.181  1.00  0.00     0.274 C 
ENDROOT
BRANCH   1   2
ATOM      2  O   UNL A   1      33.295  34.442  30.211  1.00  0.00    -0.462 OA
BRANCH   2   3
ATOM      3  C   UNL A   1      33.209  35.268  29.138  1.00  0.00     0.310 C 
ATOM      4  O   UNL A   1      32.807  36.426  29.186  1.00  0.00    -0.252 OA
BRANCH   3   5
ATOM      5  C   UNL A   1      33.807  34.640  27.892  1.00  0.00     0.160 C 
BRANCH   5   6
ATOM      6  C   UNL A   1      34.160  33.173  27.964  1.00  0.00    -0.015 A 
ATOM      7  C   UNL A   1      36.706  33.225  28.531  1.00  0.00     0.065 C 
ATOM      8  C   UNL A   1      35.387  32.588  28.258  1.00  0.00     0.024 A 
ATOM      9  N   UNL A   1      35.259  31.213  28.183  1.00  0.00    -0.314 N 
ATOM     10  C   UNL A   1      33.310  32.100  27.569  1.00  0.00     0.033 A 
ATOM     11  C   UNL A   1      34.021  30.912  27.636  1.00  0.00     0.053 A 
BRANCH   9  12
ATOM     12  C   UNL A   1      36.305  30.306  28.480  1.00  0.00     0.046 A 
ATOM     13  C   UNL A   1      37.331  30.110  27.555  1.00  0.00     0.026 A 
ATOM     14  C   UNL A   1      36.342  29.700  29.742  1.00  0.00     0.026 A 
ATOM     15  C   UNL A   1      38.411  29.301  27.902  1.00  0.00     0.002 A 
ATOM     16  C   UNL A   1      37.414  28.872  30.069  1.00  0.00     0.002 A 
ATOM     17  C   UNL A   1      38.449  28.680  29.152  1.00  0.00     0.000 A 
ENDBRANCH   9  12
BRANCH  11  18
ATOM     18  C   UNL A   1      33.598  29.572  27.238  1.00  0.00    -0.001 A 
ATOM     19  C   UNL A   1      34.426  28.749  26.464  1.00  0.00     0.011 A 
ATOM     20  C   UNL A   1      32.324  29.120  27.609  1.00  0.00     0.011 A 
ATOM     21  C   UNL A   1      33.981  27.494  26.047  1.00  0.00     0.021 A 
ATOM     22  C   UNL A   1      31.870  27.869  27.191  1.00  0.00     0.021 A 
ATOM     23  C   UNL A   1      32.699  27.067  26.406  1.00  0.00     0.067 A 
BRANCH  23  24
ATOM     24  S   UNL A   1      32.153  25.460  25.886  1.00  0.00     0.175 S 
ATOM     25  C   UNL A   1      33.637  24.491  25.847  1.00  0.00     0.163 C 
ATOM     26  O   UNL A   1      31.292  24.945  26.917  1.00  0.00    -0.224 OA
ATOM     27  O   UNL A   1      31.683  25.581  24.505  1.00  0.00    -0.224 OA
ENDBRANCH  23  24
ENDBRANCH  11  18
ENDBRANCH   5   6
ENDBRANCH   3   5
ENDBRANCH   2   3
ENDBRANCH   1   2
BRANCH   1  28
ATOM     28  C   UNL A   1      34.825  33.363  31.793  1.00  0.00     0.275 C 
BRANCH  28  29
ATOM     29  O   UNL A   1      36.228  32.823  31.700  1.00  0.00    -0.458 OA
BRANCH  29  30
ATOM     30  C   UNL A   1      36.995  32.084  32.572  1.00  0.00     0.338 C 
ATOM     31  O   UNL A   1      36.578  31.667  33.640  1.00  0.00    -0.246 OA
BRANCH  30  32
ATOM     32  C   UNL A   1      38.465  31.796  32.045  1.00  0.00     0.060 A 
ATOM     33  C   UNL A   1      39.462  30.936  32.589  1.00  0.00     0.016 A 
ATOM     34  C   UNL A   1      38.885  32.286  30.848  1.00  0.00     0.016 A 
ATOM     35  C   UNL A   1      40.773  30.478  31.879  1.00  0.00     0.010 A 
ATOM     36  C   UNL A   1      40.152  31.825  30.242  1.00  0.00     0.010 A 
ATOM     37  C   UNL A   1      41.203  30.880  30.588  1.00  0.00    -0.014 A 
BRANCH  37  38
ATOM     38  C   UNL A   1      41.910  29.796  29.310  1.00  0.00     0.031 A 
ATOM     39  C   UNL A   1      42.964  30.733  28.797  1.00  0.00     0.074 A 
ATOM     40  C   UNL A   1      42.159  28.412  28.818  1.00  0.00     0.049 A 
ATOM     41  N   UNL A   1      43.559  31.401  29.748  1.00  0.00    -0.248 NA
ATOM     42  C   UNL A   1      43.842  30.565  27.656  1.00  0.00     0.031 C 
ATOM     43  C   UNL A   1      41.516  27.087  29.126  1.00  0.00     0.029 A 
ATOM     44  N   UNL A   1      43.243  27.821  27.953  1.00  0.00    -0.354 N 
ATOM     45  C   UNL A   1      44.712  30.705  29.798  1.00  0.00     0.074 A 
ATOM     46  C   UNL A   1      45.001  30.599  28.342  1.00  0.00     0.031 C 
ATOM     47  C   UNL A   1      42.087  26.008  28.470  1.00  0.00     0.029 A 
ATOM     48  C   UNL A   1      43.266  26.371  27.664  1.00  0.00     0.049 A 
ATOM     49  H   UNL A   1      43.942  28.405  27.578  1.00  0.00     0.167 HD
ATOM     50  C   UNL A   1      45.054  29.824  30.812  1.00  0.00     0.031 A 
ATOM     51  C   UNL A   1      44.228  25.568  26.958  1.00  0.00     0.031 A 
ATOM     52  C   UNL A   1      46.373  29.357  30.685  1.00  0.00     0.049 A 
ATOM     53  C   UNL A   1      45.435  25.895  27.754  1.00  0.00     0.074 A 
ATOM     54  C   UNL A   1      47.473  29.701  29.942  1.00  0.00     0.029 A 
ATOM     55  N   UNL A   1      46.731  28.247  31.400  1.00  0.00    -0.354 N 
ATOM     56  N   UNL A   1      45.779  25.116  28.744  1.00  0.00    -0.248 NA
ATOM     57  C   UNL A   1      46.490  26.772  27.224  1.00  0.00     0.031 C 
ATOM     58  C   UNL A   1      48.104  28.451  29.727  1.00  0.00     0.029 A 
ATOM     59  C   UNL A   1      47.431  27.497  30.503  1.00  0.00     0.049 A 
ATOM     60  H   UNL A   1      46.530  28.038  32.341  1.00  0.00     0.167 HD
ATOM     61  C   UNL A   1      46.965  25.650  29.149  1.00  0.00     0.074 A 
ATOM     62  C   UNL A   1      47.495  26.321  27.984  1.00  0.00     0.031 C 
ATOM     63  C   UNL A   1      47.032  26.114  30.420  1.00  0.00     0.031 A 
BRANCH  50  64
ATOM     64  C   UNL A   1      44.237  29.271  32.066  1.00  0.00    -0.014 A 
ATOM     65  C   UNL A   1      44.102  29.875  33.355  1.00  0.00     0.009 A 
ATOM     66  C   UNL A   1      43.613  28.020  31.965  1.00  0.00     0.009 A 
ATOM     67  C   UNL A   1      43.596  29.205  34.494  1.00  0.00     0.001 A 
ATOM     68  C   UNL A   1      43.019  27.381  33.077  1.00  0.00     0.001 A 
ATOM     69  C   UNL A   1      43.059  27.943  34.351  1.00  0.00     0.000 A 
ENDBRANCH  50  64
BRANCH  51  70
ATOM     70  C   UNL A   1      44.831  24.154  26.204  1.00  0.00    -0.014 A 
ATOM     71  C   UNL A   1      44.711  22.790  26.506  1.00  0.00     0.009 A 
ATOM     72  C   UNL A   1      45.650  24.301  24.996  1.00  0.00     0.009 A 
ATOM     73  C   UNL A   1      45.362  21.747  25.708  1.00  0.00     0.001 A 
ATOM     74  C   UNL A   1      46.338  23.312  24.249  1.00  0.00     0.001 A 
ATOM     75  C   UNL A   1      46.181  22.004  24.602  1.00  0.00     0.000 A 
ENDBRANCH  51  70
BRANCH  63  76
ATOM     76  C   UNL A   1      46.037  25.401  31.335  1.00  0.00    -0.014 A 
ATOM     77  C   UNL A   1      46.317  25.282  32.697  1.00  0.00     0.009 A 
ATOM     78  C   UNL A   1      44.960  24.636  30.832  1.00  0.00     0.009 A 
ATOM     79  C   UNL A   1      45.537  24.461  33.527  1.00  0.00     0.001 A 
ATOM     80  C   UNL A   1      44.159  23.838  31.661  1.00  0.00     0.001 A 
ATOM     81  C   UNL A   1      44.452  23.750  33.015  1.00  0.00     0.000 A 
ENDBRANCH  63  76
ENDBRANCH  37  38
ENDBRANCH  30  32
ENDBRANCH  29  30
ENDBRANCH  28  29
ENDBRANCH   1  28
TORSDOF 15
ENDMDL
MODEL 2
REMARK VINA RESULT:     -11.5      3.083      5.397
REMARK SMILES Cc1c(CC(=O)OCCOC(=O)c2ccc(-c3c4nc(c(-c5ccccc5)c5ccc([nH]5)c(-c5ccccc5)c5nc(c(-c6ccccc6)c6ccc3[nH]6)C=C5)C=C4)cc2)cc(-c2ccc(S(C)(=O)=O)cc2)n1-c1ccccc1
REMARK SMILES IDX 8 1 7 2 5 3 6 4 4 5 3 6 1 7 2 8 73 9 61 10 62 11 74 12 75 13
REMARK SMILES IDX 79 14 76 15 78 16 77 17 63 18 64 19 72 20 65 21 71 22 66 23
REMARK SMILES IDX 67 24 68 25 69 26 70 27 9 28 10 29 11 30 12 31 13 32 14 33
REMARK SMILES IDX 60 34 15 35 59 36 16 37 17 38 18 39 53 40 19 41 58 42 52 43
REMARK SMILES IDX 54 44 20 45 57 46 51 47 50 48 21 50 43 51 28 52 42 53 29 54
REMARK SMILES IDX 32 55 41 56 55 57 30 58 31 59 40 61 56 62 33 63 22 64 23 65
REMARK SMILES IDX 27 66 24 67 26 68 25 69 44 70 45 71 49 72 46 73 48 74 47 75
REMARK SMILES IDX 34 76 35 77 39 78 36 79 38 80 37 81
REMARK H PARENT 54 49 32 60
REMARK Flexibility Score: inf
ROOT
ATOM      1  C   UNL A   1      31.861  30.120  26.813  1.00  0.00     0.274 C 
ENDROOT
BRANCH   1   2
ATOM      2  O   UNL A   1      31.551  28.957  26.041  1.00  0.00    -0.462 OA
BRANCH   2   3
ATOM      3  C   UNL A   1      31.245  27.810  26.699  1.00  0.00     0.310 C 
ATOM      4  O   UNL A   1      31.200  27.703  27.920  1.00  0.00    -0.252 OA
BRANCH   3   5
ATOM      5  C   UNL A   1      30.817  26.709  25.745  1.00  0.00     0.160 C 
BRANCH   5   6
ATOM      6  C   UNL A   1      31.768  25.550  25.564  1.00  0.00    -0.015 A 
ATOM      7  C   UNL A   1      34.015  26.740  24.980  1.00  0.00     0.065 C 
ATOM      8  C   UNL A   1      33.125  25.578  25.262  1.00  0.00     0.024 A 
ATOM      9  N   UNL A   1      33.591  24.280  25.162  1.00  0.00    -0.314 N 
ATOM     10  C   UNL A   1      31.393  24.177  25.507  1.00  0.00     0.033 A 
ATOM     11  C   UNL A   1      32.507  23.417  25.183  1.00  0.00     0.053 A 
BRANCH   9  12
ATOM     12  C   UNL A   1      34.945  23.945  24.920  1.00  0.00     0.046 A 
ATOM     13  C   UNL A   1      35.844  23.897  25.987  1.00  0.00     0.026 A 
ATOM     14  C   UNL A   1      35.334  23.568  23.629  1.00  0.00     0.026 A 
ATOM     15  C   UNL A   1      37.147  23.460  25.757  1.00  0.00     0.002 A 
ATOM     16  C   UNL A   1      36.646  23.157  23.405  1.00  0.00     0.002 A 
ATOM     17  C   UNL A   1      37.548  23.097  24.469  1.00  0.00     0.000 A 
ENDBRANCH   9  12
BRANCH  11  18
ATOM     18  C   UNL A   1      32.587  21.982  24.922  1.00  0.00    -0.001 A 
ATOM     19  C   UNL A   1      33.119  21.100  25.872  1.00  0.00     0.011 A 
ATOM     20  C   UNL A   1      32.157  21.488  23.683  1.00  0.00     0.011 A 
ATOM     21  C   UNL A   1      33.238  19.740  25.582  1.00  0.00     0.021 A 
ATOM     22  C   UNL A   1      32.278  20.131  23.383  1.00  0.00     0.021 A 
ATOM     23  C   UNL A   1      32.826  19.267  24.332  1.00  0.00     0.067 A 
BRANCH  23  24
ATOM     24  S   UNL A   1      32.965  17.532  23.983  1.00  0.00     0.175 S 
ATOM     25  C   UNL A   1      34.620  17.123  24.472  1.00  0.00     0.163 C 
ATOM     26  O   UNL A   1      32.045  16.845  24.851  1.00  0.00    -0.224 OA
ATOM     27  O   UNL A   1      32.894  17.369  22.531  1.00  0.00    -0.224 OA
ENDBRANCH  23  24
ENDBRANCH  11  18
ENDBRANCH   5   6
ENDBRANCH   3   5
ENDBRANCH   2   3
ENDBRANCH   1   2
BRANCH   1  28
ATOM     28  C   UNL A   1      33.393  30.359  26.850  1.00  0.00     0.275 C 
BRANCH  28  29
ATOM     29  O   UNL A   1      34.325  29.982  27.970  1.00  0.00    -0.458 OA
BRANCH  29  30
ATOM     30  C   UNL A   1      35.215  30.716  28.721  1.00  0.00     0.338 C 
ATOM     31  O   UNL A   1      34.876  31.636  29.447  1.00  0.00    -0.246 OA
BRANCH  30  32
ATOM     32  C   UNL A   1      36.721  30.235  28.580  1.00  0.00     0.060 A 
ATOM     33  C   UNL A   1      37.492  29.423  29.461  1.00  0.00     0.016 A 
ATOM     34  C   UNL A   1      37.423  30.465  27.438  1.00  0.00     0.016 A 
ATOM     35  C   UNL A   1      38.862  28.752  29.136  1.00  0.00     0.010 A 
ATOM     36  C   UNL A   1      38.729  29.815  27.204  1.00  0.00     0.010 A 
ATOM     37  C   UNL A   1      39.582  28.879  27.921  1.00  0.00    -0.014 A 
BRANCH  37  38
ATOM     38  C   UNL A   1      40.411  27.532  27.023  1.00  0.00     0.031 A 
ATOM     39  C   UNL A   1      41.236  28.373  26.094  1.00  0.00     0.074 A 
ATOM     40  C   UNL A   1      40.893  26.122  27.016  1.00  0.00     0.049 A 
ATOM     41  N   UNL A   1      41.745  29.426  26.675  1.00  0.00    -0.248 NA
ATOM     42  C   UNL A   1      42.065  27.943  24.986  1.00  0.00     0.031 C 
ATOM     43  C   UNL A   1      40.534  24.915  27.840  1.00  0.00     0.029 A 
ATOM     44  N   UNL A   1      42.020  25.437  26.286  1.00  0.00    -0.354 N 
ATOM     45  C   UNL A   1      43.011  28.988  26.824  1.00  0.00     0.074 A 
ATOM     46  C   UNL A   1      43.233  28.408  25.472  1.00  0.00     0.031 C 
ATOM     47  C   UNL A   1      41.263  23.777  27.535  1.00  0.00     0.029 A 
ATOM     48  C   UNL A   1      42.305  24.005  26.517  1.00  0.00     0.049 A 
ATOM     49  H   UNL A   1      42.573  25.948  25.650  1.00  0.00     0.167 HD
ATOM     50  C   UNL A   1      43.570  28.602  28.031  1.00  0.00     0.031 A 
ATOM     51  C   UNL A   1      43.362  23.164  26.023  1.00  0.00     0.031 A 
ATOM     52  C   UNL A   1      44.945  28.337  27.917  1.00  0.00     0.049 A 
ATOM     53  C   UNL A   1      44.526  23.944  26.505  1.00  0.00     0.074 A 
ATOM     54  C   UNL A   1      45.916  28.557  26.973  1.00  0.00     0.029 A 
ATOM     55  N   UNL A   1      45.549  27.634  28.924  1.00  0.00    -0.354 N 
ATOM     56  N   UNL A   1      45.067  23.643  27.655  1.00  0.00    -0.248 NA
ATOM     57  C   UNL A   1      45.362  24.724  25.580  1.00  0.00     0.031 C 
ATOM     58  C   UNL A   1      46.762  27.431  27.131  1.00  0.00     0.029 A 
ATOM     59  C   UNL A   1      46.328  26.731  28.265  1.00  0.00     0.049 A 
ATOM     60  H   UNL A   1      45.444  27.752  29.895  1.00  0.00     0.167 HD
ATOM     61  C   UNL A   1      46.150  24.469  27.703  1.00  0.00     0.074 A 
ATOM     62  C   UNL A   1      46.476  24.746  26.323  1.00  0.00     0.031 C 
ATOM     63  C   UNL A   1      46.197  25.367  28.716  1.00  0.00     0.031 A 
BRANCH  50  64
ATOM     64  C   UNL A   1      42.946  28.420  29.488  1.00  0.00    -0.014 A 
ATOM     65  C   UNL A   1      42.653  27.196  30.166  1.00  0.00     0.009 A 
ATOM     66  C   UNL A   1      42.564  29.563  30.205  1.00  0.00     0.009 A 
ATOM     67  C   UNL A   1      41.855  27.108  31.332  1.00  0.00     0.001 A 
ATOM     68  C   UNL A   1      41.849  29.487  31.421  1.00  0.00     0.001 A 
ATOM     69  C   UNL A   1      41.444  28.266  31.957  1.00  0.00     0.000 A 
ENDBRANCH  50  64
BRANCH  51  70
ATOM     70  C   UNL A   1      44.181  21.687  25.740  1.00  0.00    -0.014 A 
ATOM     71  C   UNL A   1      45.512  21.384  25.418  1.00  0.00     0.009 A 
ATOM     72  C   UNL A   1      43.419  20.437  25.827  1.00  0.00     0.009 A 
ATOM     73  C   UNL A   1      45.972  20.012  25.187  1.00  0.00     0.001 A 
ATOM     74  C   UNL A   1      43.831  19.110  25.546  1.00  0.00     0.001 A 
ATOM     75  C   UNL A   1      45.139  18.887  25.233  1.00  0.00     0.000 A 
ENDBRANCH  51  70
BRANCH  63  76
ATOM     76  C   UNL A   1      45.410  24.887  29.934  1.00  0.00    -0.014 A 
ATOM     77  C   UNL A   1      45.809  25.282  31.212  1.00  0.00     0.009 A 
ATOM     78  C   UNL A   1      44.442  23.860  29.853  1.00  0.00     0.009 A 
ATOM     79  C   UNL A   1      45.245  24.700  32.359  1.00  0.00     0.001 A 
ATOM     80  C   UNL A   1      43.853  23.297  30.993  1.00  0.00     0.001 A 
ATOM     81  C   UNL A   1      44.259  23.720  32.252  1.00  0.00     0.000 A 
ENDBRANCH  63  76
ENDBRANCH  37  38
ENDBRANCH  30  32
ENDBRANCH  29  30
ENDBRANCH  28  29
ENDBRANCH   1  28
TORSDOF 15
ENDMDL
MODEL 3
REMARK VINA RESULT:     -10.9      4.289      8.327
REMARK SMILES Cc1c(CC(=O)OCCOC(=O)c2ccc(-c3c4nc(c(-c5ccccc5)c5ccc([nH]5)c(-c5ccccc5)c5nc(c(-c6ccccc6)c6ccc3[nH]6)C=C5)C=C4)cc2)cc(-c2ccc(S(C)(=O)=O)cc2)n1-c1ccccc1
REMARK SMILES IDX 8 1 7 2 5 3 6 4 4 5 3 6 1 7 2 8 73 9 61 10 62 11 74 12 75 13
REMARK SMILES IDX 79 14 76 15 78 16 77 17 63 18 64 19 72 20 65 21 71 22 66 23
REMARK SMILES IDX 67 24 68 25 69 26 70 27 9 28 10 29 11 30 12 31 13 32 14 33
REMARK SMILES IDX 60 34 15 35 59 36 16 37 17 38 18 39 53 40 19 41 58 42 52 43
REMARK SMILES IDX 54 44 20 45 57 46 51 47 50 48 21 50 43 51 28 52 42 53 29 54
REMARK SMILES IDX 32 55 41 56 55 57 30 58 31 59 40 61 56 62 33 63 22 64 23 65
REMARK SMILES IDX 27 66 24 67 26 68 25 69 44 70 45 71 49 72 46 73 48 74 47 75
REMARK SMILES IDX 34 76 35 77 39 78 36 79 38 80 37 81
REMARK H PARENT 54 49 32 60
REMARK Flexibility Score: inf
ROOT
ATOM      1  C   UNL A   1      35.510  20.787  24.791  1.00  0.00     0.274 C 
ENDROOT
BRANCH   1   2
ATOM      2  O   UNL A   1      34.258  21.463  24.928  1.00  0.00    -0.462 OA
BRANCH   2   3
ATOM      3  C   UNL A   1      33.574  21.787  23.802  1.00  0.00     0.310 C 
ATOM      4  O   UNL A   1      32.531  21.248  23.446  1.00  0.00    -0.252 OA
BRANCH   3   5
ATOM      5  C   UNL A   1      34.171  22.998  23.107  1.00  0.00     0.160 C 
BRANCH   5   6
ATOM      6  C   UNL A   1      33.616  24.350  23.486  1.00  0.00    -0.015 A 
ATOM      7  C   UNL A   1      34.525  24.681  25.909  1.00  0.00     0.065 C 
ATOM      8  C   UNL A   1      33.793  25.061  24.668  1.00  0.00     0.024 A 
ATOM      9  N   UNL A   1      33.078  26.243  24.593  1.00  0.00    -0.314 N 
ATOM     10  C   UNL A   1      32.650  25.084  22.740  1.00  0.00     0.033 A 
ATOM     11  C   UNL A   1      32.273  26.203  23.466  1.00  0.00     0.053 A 
BRANCH   9  12
ATOM     12  C   UNL A   1      33.084  27.234  25.604  1.00  0.00     0.046 A 
ATOM     13  C   UNL A   1      34.108  28.181  25.636  1.00  0.00     0.026 A 
ATOM     14  C   UNL A   1      32.005  27.304  26.494  1.00  0.00     0.026 A 
ATOM     15  C   UNL A   1      34.045  29.217  26.566  1.00  0.00     0.002 A 
ATOM     16  C   UNL A   1      31.965  28.329  27.438  1.00  0.00     0.002 A 
ATOM     17  C   UNL A   1      32.981  29.286  27.468  1.00  0.00     0.000 A 
ENDBRANCH   9  12
BRANCH  11  18
ATOM     18  C   UNL A   1      31.246  27.193  23.148  1.00  0.00    -0.001 A 
ATOM     19  C   UNL A   1      31.583  28.442  22.611  1.00  0.00     0.011 A 
ATOM     20  C   UNL A   1      29.903  26.896  23.421  1.00  0.00     0.011 A 
ATOM     21  C   UNL A   1      30.593  29.394  22.366  1.00  0.00     0.021 A 
ATOM     22  C   UNL A   1      28.909  27.845  23.185  1.00  0.00     0.021 A 
ATOM     23  C   UNL A   1      29.261  29.092  22.666  1.00  0.00     0.067 A 
BRANCH  23  24
ATOM     24  S   UNL A   1      28.009  30.305  22.331  1.00  0.00     0.175 S 
ATOM     25  C   UNL A   1      28.751  31.839  22.823  1.00  0.00     0.163 C 
ATOM     26  O   UNL A   1      27.804  30.327  20.907  1.00  0.00    -0.224 OA
ATOM     27  O   UNL A   1      26.897  30.053  23.249  1.00  0.00    -0.224 OA
ENDBRANCH  23  24
ENDBRANCH  11  18
ENDBRANCH   5   6
ENDBRANCH   3   5
ENDBRANCH   2   3
ENDBRANCH   1   2
BRANCH   1  28
ATOM     28  C   UNL A   1      36.594  21.461  25.672  1.00  0.00     0.275 C 
BRANCH  28  29
ATOM     29  O   UNL A   1      38.040  21.663  25.304  1.00  0.00    -0.458 OA
BRANCH  29  30
ATOM     30  C   UNL A   1      39.187  20.987  25.654  1.00  0.00     0.338 C 
ATOM     31  O   UNL A   1      39.365  19.804  25.415  1.00  0.00    -0.246 OA
BRANCH  30  32
ATOM     32  C   UNL A   1      40.272  21.896  26.372  1.00  0.00     0.060 A 
ATOM     33  C   UNL A   1      41.521  22.368  25.874  1.00  0.00     0.016 A 
ATOM     34  C   UNL A   1      40.016  22.465  27.581  1.00  0.00     0.016 A 
ATOM     35  C   UNL A   1      42.407  23.483  26.512  1.00  0.00     0.010 A 
ATOM     36  C   UNL A   1      40.912  23.500  28.139  1.00  0.00     0.010 A 
ATOM     37  C   UNL A   1      42.129  24.178  27.717  1.00  0.00    -0.014 A 
BRANCH  37  38
ATOM     38  C   UNL A   1      42.315  25.967  27.987  1.00  0.00     0.031 A 
ATOM     39  C   UNL A   1      42.652  25.926  29.449  1.00  0.00     0.074 A 
ATOM     40  C   UNL A   1      42.623  27.309  27.420  1.00  0.00     0.049 A 
ATOM     41  N   UNL A   1      43.457  24.946  29.760  1.00  0.00    -0.248 NA
ATOM     42  C   UNL A   1      42.807  27.034  30.370  1.00  0.00     0.031 C 
ATOM     43  C   UNL A   1      42.614  27.851  26.016  1.00  0.00     0.029 A 
ATOM     44  N   UNL A   1      43.202  28.561  28.028  1.00  0.00    -0.354 N 
ATOM     45  C   UNL A   1      44.600  25.649  29.885  1.00  0.00     0.074 A 
ATOM     46  C   UNL A   1      44.097  26.800  30.684  1.00  0.00     0.031 C 
ATOM     47  C   UNL A   1      43.015  29.173  25.911  1.00  0.00     0.029 A 
ATOM     48  C   UNL A   1      43.451  29.756  27.193  1.00  0.00     0.049 A 
ATOM     49  H   UNL A   1      43.416  28.584  28.989  1.00  0.00     0.167 HD
ATOM     50  C   UNL A   1      45.641  25.624  28.970  1.00  0.00     0.031 A 
ATOM     51  C   UNL A   1      44.070  31.014  27.512  1.00  0.00     0.031 A 
ATOM     52  C   UNL A   1      46.764  26.332  29.428  1.00  0.00     0.049 A 
ATOM     53  C   UNL A   1      45.379  30.515  27.997  1.00  0.00     0.074 A 
ATOM     54  C   UNL A   1      47.174  26.866  30.623  1.00  0.00     0.029 A 
ATOM     55  N   UNL A   1      47.723  26.675  28.512  1.00  0.00    -0.354 N 
ATOM     56  N   UNL A   1      46.382  30.437  27.165  1.00  0.00    -0.248 NA
ATOM     57  C   UNL A   1      45.722  30.527  29.427  1.00  0.00     0.031 C 
ATOM     58  C   UNL A   1      47.901  28.012  30.217  1.00  0.00     0.029 A 
ATOM     59  C   UNL A   1      48.016  27.969  28.821  1.00  0.00     0.049 A 
ATOM     60  H   UNL A   1      48.109  26.117  27.799  1.00  0.00     0.167 HD
ATOM     61  C   UNL A   1      47.414  30.063  27.973  1.00  0.00     0.074 A 
ATOM     62  C   UNL A   1      47.054  30.537  29.290  1.00  0.00     0.031 C 
ATOM     63  C   UNL A   1      48.013  28.879  27.701  1.00  0.00     0.031 A 
BRANCH  50  64
ATOM     64  C   UNL A   1      45.785  24.943  27.535  1.00  0.00    -0.014 A 
ATOM     65  C   UNL A   1      45.648  25.565  26.255  1.00  0.00     0.009 A 
ATOM     66  C   UNL A   1      46.010  23.560  27.465  1.00  0.00     0.009 A 
ATOM     67  C   UNL A   1      45.519  24.854  25.038  1.00  0.00     0.001 A 
ATOM     68  C   UNL A   1      45.977  22.851  26.243  1.00  0.00     0.001 A 
ATOM     69  C   UNL A   1      45.676  23.483  25.038  1.00  0.00     0.000 A 
ENDBRANCH  50  64
BRANCH  51  70
ATOM     70  C   UNL A   1      44.534  32.640  27.244  1.00  0.00    -0.014 A 
ATOM     71  C   UNL A   1      44.944  33.668  28.105  1.00  0.00     0.009 A 
ATOM     72  C   UNL A   1      44.529  33.151  25.869  1.00  0.00     0.009 A 
ATOM     73  C   UNL A   1      45.263  35.016  27.627  1.00  0.00     0.001 A 
ATOM     74  C   UNL A   1      44.773  34.464  25.395  1.00  0.00     0.001 A 
ATOM     75  C   UNL A   1      45.163  35.417  26.289  1.00  0.00     0.000 A 
ENDBRANCH  51  70
BRANCH  63  76
ATOM     76  C   UNL A   1      47.877  28.501  26.227  1.00  0.00    -0.014 A 
ATOM     77  C   UNL A   1      46.678  28.754  25.559  1.00  0.00     0.009 A 
ATOM     78  C   UNL A   1      48.819  27.681  25.565  1.00  0.00     0.009 A 
ATOM     79  C   UNL A   1      46.441  28.237  24.275  1.00  0.00     0.001 A 
ATOM     80  C   UNL A   1      48.602  27.188  24.271  1.00  0.00     0.001 A 
ATOM     81  C   UNL A   1      47.406  27.467  23.625  1.00  0.00     0.000 A 
ENDBRANCH  63  76
ENDBRANCH  37  38
ENDBRANCH  30  32
ENDBRANCH  29  30
ENDBRANCH  28  29
ENDBRANCH   1  28
TORSDOF 15
ENDMDL
