MODEL 1
REMARK VINA RESULT:     -10.8      0.000      0.000
REMARK SMILES Cc1ccc(OCC(=O)NC(=S)Nc2ccc(C(=O)OCCOC(=O)c3ccc(-c4c5nc(c(-c6ccccc6)c6ccc([nH]6)c(-c6ccccc6)c6nc(c(-c7ccccc7)c7ccc4[nH]7)C=C6)C=C5)cc3)cc2)cc1
REMARK SMILES IDX 18 1 19 2 17 3 14 4 15 5 75 6 16 7 74 8 13 9 11 11 12 12
REMARK SMILES IDX 10 13 8 14 9 15 7 17 6 18 5 19 1 20 2 21 3 22 77 23 4 24
REMARK SMILES IDX 76 25 20 26 21 27 22 28 23 29 24 30 25 31 26 32 27 33 73 34
REMARK SMILES IDX 28 35 72 36 29 37 30 38 31 39 66 40 32 41 71 42 65 43 67 44
REMARK SMILES IDX 33 45 70 46 64 47 63 48 34 50 56 51 41 52 55 53 42 54 45 55
REMARK SMILES IDX 54 56 68 57 43 58 44 59 53 61 69 62 46 63 35 64 36 65 40 66
REMARK SMILES IDX 37 67 39 68 38 69 57 70 58 71 62 72 59 73 61 74 60 75 47 76
REMARK SMILES IDX 48 77 52 78 49 79 51 80 50 81
REMARK H PARENT 13 10 10 16 67 49 45 60
REMARK Flexibility Score: inf
ROOT
ATOM      1  C   UNL A   1      34.920  19.315  24.774  1.00  0.00     0.338 C 
ATOM      2  O   UNL A   1      34.750  18.111  24.610  1.00  0.00    -0.246 OA
ENDROOT
BRANCH   1   3
ATOM      3  C   UNL A   1      33.863  20.338  24.739  1.00  0.00     0.060 A 
ATOM      4  C   UNL A   1      32.001  22.439  24.635  1.00  0.00     0.040 A 
ATOM      5  C   UNL A   1      32.699  22.165  25.795  1.00  0.00     0.027 A 
ATOM      6  C   UNL A   1      32.134  21.554  23.559  1.00  0.00     0.027 A 
ATOM      7  C   UNL A   1      33.673  21.163  25.845  1.00  0.00     0.018 A 
ATOM      8  C   UNL A   1      33.047  20.490  23.616  1.00  0.00     0.018 A 
BRANCH   4   9
ATOM      9  N   UNL A   1      31.047  23.458  24.551  1.00  0.00    -0.332 N 
ATOM     10  H   UNL A   1      30.132  23.100  24.495  1.00  0.00     0.169 HD
BRANCH   9  11
ATOM     11  C   UNL A   1      31.061  24.803  24.526  1.00  0.00     0.177 C 
ATOM     12  S   UNL A   1      30.484  25.579  25.903  1.00  0.00    -0.040 S 
BRANCH  11  13
ATOM     13  N   UNL A   1      31.242  25.610  23.428  1.00  0.00    -0.300 N 
ATOM     14  C   UNL A   1      31.947  25.819  22.241  1.00  0.00     0.264 C 
ATOM     15  O   UNL A   1      31.306  26.113  21.227  1.00  0.00    -0.271 OA
ATOM     16  H   UNL A   1      30.604  26.355  23.516  1.00  0.00     0.172 HD
BRANCH  14  17
ATOM     17  C   UNL A   1      33.457  25.831  22.230  1.00  0.00     0.329 C 
BRANCH  17  18
ATOM     18  O   UNL A   1      33.828  24.468  22.437  1.00  0.00    -0.484 OA
BRANCH  18  19
ATOM     19  C   UNL A   1      34.772  24.217  23.387  1.00  0.00     0.120 A 
ATOM     20  C   UNL A   1      37.835  23.024  26.160  1.00  0.00     0.044 C 
ATOM     21  C   UNL A   1      36.775  23.464  25.194  1.00  0.00    -0.051 A 
ATOM     22  C   UNL A   1      36.765  22.936  23.902  1.00  0.00     0.007 A 
ATOM     23  C   UNL A   1      35.787  24.387  25.565  1.00  0.00     0.007 A 
ATOM     24  C   UNL A   1      35.748  23.286  23.017  1.00  0.00     0.047 A 
ATOM     25  C   UNL A   1      34.789  24.770  24.661  1.00  0.00     0.047 A 
ENDBRANCH  18  19
ENDBRANCH  17  18
ENDBRANCH  14  17
ENDBRANCH  11  13
ENDBRANCH   9  11
ENDBRANCH   4   9
ENDBRANCH   1   3
BRANCH   1  26
ATOM     26  O   UNL A   1      36.084  19.954  24.977  1.00  0.00    -0.458 OA
BRANCH  26  27
ATOM     27  C   UNL A   1      37.325  19.259  24.800  1.00  0.00     0.275 C 
BRANCH  27  28
ATOM     28  C   UNL A   1      38.647  19.862  25.324  1.00  0.00     0.275 C 
BRANCH  28  29
ATOM     29  O   UNL A   1      39.828  19.079  25.668  1.00  0.00    -0.458 OA
BRANCH  29  30
ATOM     30  C   UNL A   1      41.084  19.432  26.005  1.00  0.00     0.338 C 
ATOM     31  O   UNL A   1      42.044  18.681  25.898  1.00  0.00    -0.246 OA
BRANCH  30  32
ATOM     32  C   UNL A   1      41.272  20.787  26.510  1.00  0.00     0.060 A 
ATOM     33  C   UNL A   1      41.579  21.819  25.608  1.00  0.00     0.016 A 
ATOM     34  C   UNL A   1      41.091  21.026  27.866  1.00  0.00     0.016 A 
ATOM     35  C   UNL A   1      41.622  23.129  26.052  1.00  0.00     0.010 A 
ATOM     36  C   UNL A   1      41.022  22.325  28.292  1.00  0.00     0.010 A 
ATOM     37  C   UNL A   1      41.356  23.356  27.401  1.00  0.00    -0.014 A 
BRANCH  37  38
ATOM     38  C   UNL A   1      41.841  24.529  28.093  1.00  0.00     0.031 A 
ATOM     39  C   UNL A   1      40.989  25.691  28.348  1.00  0.00     0.074 A 
ATOM     40  C   UNL A   1      43.069  24.320  28.619  1.00  0.00     0.049 A 
ATOM     41  N   UNL A   1      41.445  26.881  28.516  1.00  0.00    -0.248 NA
ATOM     42  C   UNL A   1      39.528  25.618  28.407  1.00  0.00     0.031 C 
ATOM     43  C   UNL A   1      43.783  25.042  29.652  1.00  0.00     0.029 A 
ATOM     44  N   UNL A   1      44.001  23.366  28.178  1.00  0.00    -0.354 N 
ATOM     45  C   UNL A   1      40.421  27.616  29.072  1.00  0.00     0.074 A 
ATOM     46  C   UNL A   1      39.219  26.850  28.836  1.00  0.00     0.031 C 
ATOM     47  C   UNL A   1      45.093  24.738  29.544  1.00  0.00     0.029 A 
ATOM     48  C   UNL A   1      45.256  23.942  28.331  1.00  0.00     0.049 A 
ATOM     49  H   UNL A   1      43.804  22.467  27.830  1.00  0.00     0.167 HD
ATOM     50  C   UNL A   1      40.727  28.663  29.889  1.00  0.00     0.031 A 
ATOM     51  C   UNL A   1      46.003  24.281  27.238  1.00  0.00     0.031 A 
ATOM     52  C   UNL A   1      42.174  28.781  30.045  1.00  0.00     0.049 A 
ATOM     53  C   UNL A   1      46.213  25.776  27.210  1.00  0.00     0.074 A 
ATOM     54  C   UNL A   1      43.023  28.300  31.029  1.00  0.00     0.029 A 
ATOM     55  N   UNL A   1      42.969  29.095  28.951  1.00  0.00    -0.354 N 
ATOM     56  N   UNL A   1      45.349  26.640  27.672  1.00  0.00    -0.248 NA
ATOM     57  C   UNL A   1      47.423  26.402  26.694  1.00  0.00     0.031 C 
ATOM     58  C   UNL A   1      44.332  28.254  30.490  1.00  0.00     0.029 A 
ATOM     59  C   UNL A   1      44.277  28.724  29.189  1.00  0.00     0.049 A 
ATOM     60  H   UNL A   1      42.645  29.522  28.124  1.00  0.00     0.167 HD
ATOM     61  C   UNL A   1      45.910  27.889  27.641  1.00  0.00     0.074 A 
ATOM     62  C   UNL A   1      47.189  27.694  26.979  1.00  0.00     0.031 C 
ATOM     63  C   UNL A   1      45.313  28.981  28.200  1.00  0.00     0.031 A 
BRANCH  50  64
ATOM     64  C   UNL A   1      39.745  29.317  30.830  1.00  0.00    -0.014 A 
ATOM     65  C   UNL A   1      39.385  28.652  32.019  1.00  0.00     0.009 A 
ATOM     66  C   UNL A   1      39.138  30.563  30.607  1.00  0.00     0.009 A 
ATOM     67  C   UNL A   1      38.419  29.156  32.897  1.00  0.00     0.001 A 
ATOM     68  C   UNL A   1      38.151  31.065  31.474  1.00  0.00     0.001 A 
ATOM     69  C   UNL A   1      37.786  30.358  32.614  1.00  0.00     0.000 A 
ENDBRANCH  50  64
BRANCH  51  70
ATOM     70  C   UNL A   1      45.789  23.440  26.015  1.00  0.00    -0.014 A 
ATOM     71  C   UNL A   1      45.985  22.044  26.108  1.00  0.00     0.009 A 
ATOM     72  C   UNL A   1      45.126  23.932  24.880  1.00  0.00     0.009 A 
ATOM     73  C   UNL A   1      45.455  21.168  25.152  1.00  0.00     0.001 A 
ATOM     74  C   UNL A   1      44.614  23.052  23.911  1.00  0.00     0.001 A 
ATOM     75  C   UNL A   1      44.753  21.672  24.063  1.00  0.00     0.000 A 
ENDBRANCH  51  70
BRANCH  63  76
ATOM     76  C   UNL A   1      45.706  30.416  27.970  1.00  0.00    -0.014 A 
ATOM     77  C   UNL A   1      46.727  31.068  28.667  1.00  0.00     0.009 A 
ATOM     78  C   UNL A   1      45.130  31.116  26.883  1.00  0.00     0.009 A 
ATOM     79  C   UNL A   1      47.122  32.367  28.328  1.00  0.00     0.001 A 
ATOM     80  C   UNL A   1      45.561  32.386  26.503  1.00  0.00     0.001 A 
ATOM     81  C   UNL A   1      46.551  33.019  27.238  1.00  0.00     0.000 A 
ENDBRANCH  63  76
ENDBRANCH  37  38
ENDBRANCH  30  32
ENDBRANCH  29  30
ENDBRANCH  28  29
ENDBRANCH  27  28
ENDBRANCH  26  27
ENDBRANCH   1  26
TORSDOF 17
ENDMDL
MODEL 2
REMARK VINA RESULT:     -10.7      4.673     10.134
REMARK SMILES Cc1ccc(OCC(=O)NC(=S)Nc2ccc(C(=O)OCCOC(=O)c3ccc(-c4c5nc(c(-c6ccccc6)c6ccc([nH]6)c(-c6ccccc6)c6nc(c(-c7ccccc7)c7ccc4[nH]7)C=C6)C=C5)cc3)cc2)cc1
REMARK SMILES IDX 18 1 19 2 17 3 14 4 15 5 75 6 16 7 74 8 13 9 11 11 12 12
REMARK SMILES IDX 10 13 8 14 9 15 7 17 6 18 5 19 1 20 2 21 3 22 77 23 4 24
REMARK SMILES IDX 76 25 20 26 21 27 22 28 23 29 24 30 25 31 26 32 27 33 73 34
REMARK SMILES IDX 28 35 72 36 29 37 30 38 31 39 66 40 32 41 71 42 65 43 67 44
REMARK SMILES IDX 33 45 70 46 64 47 63 48 34 50 56 51 41 52 55 53 42 54 45 55
REMARK SMILES IDX 54 56 68 57 43 58 44 59 53 61 69 62 46 63 35 64 36 65 40 66
REMARK SMILES IDX 37 67 39 68 38 69 57 70 58 71 62 72 59 73 61 74 60 75 47 76
REMARK SMILES IDX 48 77 52 78 49 79 51 80 50 81
REMARK H PARENT 13 10 10 16 67 49 45 60
REMARK Flexibility Score: inf
ROOT
ATOM      1  C   UNL A   1      34.646  32.228  27.918  1.00  0.00     0.338 C 
ATOM      2  O   UNL A   1      35.786  32.541  27.588  1.00  0.00    -0.246 OA
ENDROOT
BRANCH   1   3
ATOM      3  C   UNL A   1      33.961  30.982  27.539  1.00  0.00     0.060 A 
ATOM      4  C   UNL A   1      32.655  28.675  26.608  1.00  0.00     0.040 A 
ATOM      5  C   UNL A   1      31.949  29.832  26.877  1.00  0.00     0.027 A 
ATOM      6  C   UNL A   1      34.011  28.635  26.951  1.00  0.00     0.027 A 
ATOM      7  C   UNL A   1      32.592  31.005  27.282  1.00  0.00     0.018 A 
ATOM      8  C   UNL A   1      34.662  29.779  27.438  1.00  0.00     0.018 A 
BRANCH   4   9
ATOM      9  N   UNL A   1      32.039  27.500  26.169  1.00  0.00    -0.332 N 
ATOM     10  H   UNL A   1      32.353  26.712  26.670  1.00  0.00     0.169 HD
BRANCH   9  11
ATOM     11  C   UNL A   1      31.126  27.169  25.239  1.00  0.00     0.177 C 
ATOM     12  S   UNL A   1      30.271  25.745  25.507  1.00  0.00    -0.040 S 
BRANCH  11  13
ATOM     13  N   UNL A   1      30.992  27.708  23.981  1.00  0.00    -0.300 N 
ATOM     14  C   UNL A   1      30.798  27.455  22.621  1.00  0.00     0.264 C 
ATOM     15  O   UNL A   1      29.956  28.129  22.018  1.00  0.00    -0.271 OA
ATOM     16  H   UNL A   1      31.061  28.685  24.083  1.00  0.00     0.172 HD
BRANCH  14  17
ATOM     17  C   UNL A   1      31.691  26.491  21.878  1.00  0.00     0.329 C 
BRANCH  17  18
ATOM     18  O   UNL A   1      32.934  26.540  22.580  1.00  0.00    -0.484 OA
BRANCH  18  19
ATOM     19  C   UNL A   1      33.463  25.354  22.993  1.00  0.00     0.120 A 
ATOM     20  C   UNL A   1      35.460  21.863  24.517  1.00  0.00     0.044 C 
ATOM     21  C   UNL A   1      34.741  23.070  23.990  1.00  0.00    -0.051 A 
ATOM     22  C   UNL A   1      34.896  24.297  24.638  1.00  0.00     0.007 A 
ATOM     23  C   UNL A   1      33.924  22.994  22.853  1.00  0.00     0.007 A 
ATOM     24  C   UNL A   1      34.288  25.437  24.120  1.00  0.00     0.047 A 
ATOM     25  C   UNL A   1      33.279  24.133  22.357  1.00  0.00     0.047 A 
ENDBRANCH  18  19
ENDBRANCH  17  18
ENDBRANCH  14  17
ENDBRANCH  11  13
ENDBRANCH   9  11
ENDBRANCH   4   9
ENDBRANCH   1   3
BRANCH   1  26
ATOM     26  O   UNL A   1      33.781  32.952  28.647  1.00  0.00    -0.458 OA
BRANCH  26  27
ATOM     27  C   UNL A   1      33.618  34.352  28.388  1.00  0.00     0.275 C 
BRANCH  27  28
ATOM     28  C   UNL A   1      33.169  35.313  29.509  1.00  0.00     0.275 C 
BRANCH  28  29
ATOM     29  O   UNL A   1      33.813  35.412  30.814  1.00  0.00    -0.458 OA
BRANCH  29  30
ATOM     30  C   UNL A   1      34.047  34.504  31.782  1.00  0.00     0.338 C 
ATOM     31  O   UNL A   1      33.238  34.234  32.659  1.00  0.00    -0.246 OA
BRANCH  30  32
ATOM     32  C   UNL A   1      35.336  33.822  31.744  1.00  0.00     0.060 A 
ATOM     33  C   UNL A   1      36.309  34.245  30.825  1.00  0.00     0.016 A 
ATOM     34  C   UNL A   1      35.581  32.805  32.658  1.00  0.00     0.016 A 
ATOM     35  C   UNL A   1      37.581  33.701  30.872  1.00  0.00     0.010 A 
ATOM     36  C   UNL A   1      36.862  32.342  32.786  1.00  0.00     0.010 A 
ATOM     37  C   UNL A   1      37.830  32.741  31.851  1.00  0.00    -0.014 A 
BRANCH  37  38
ATOM     38  C   UNL A   1      38.882  31.759  31.713  1.00  0.00     0.031 A 
ATOM     39  C   UNL A   1      38.704  30.529  30.941  1.00  0.00     0.074 A 
ATOM     40  C   UNL A   1      40.055  32.219  32.205  1.00  0.00     0.049 A 
ATOM     41  N   UNL A   1      39.377  29.454  31.155  1.00  0.00    -0.248 NA
ATOM     42  C   UNL A   1      37.719  30.391  29.868  1.00  0.00     0.031 C 
ATOM     43  C   UNL A   1      41.410  31.760  31.984  1.00  0.00     0.029 A 
ATOM     44  N   UNL A   1      40.202  33.232  33.168  1.00  0.00    -0.354 N 
ATOM     45  C   UNL A   1      39.202  28.658  30.044  1.00  0.00     0.074 A 
ATOM     46  C   UNL A   1      38.051  29.197  29.356  1.00  0.00     0.031 C 
ATOM     47  C   UNL A   1      42.182  32.238  32.983  1.00  0.00     0.029 A 
ATOM     48  C   UNL A   1      41.293  32.876  33.950  1.00  0.00     0.049 A 
ATOM     49  H   UNL A   1      39.642  34.035  33.267  1.00  0.00     0.167 HD
ATOM     50  C   UNL A   1      40.191  27.790  29.691  1.00  0.00     0.031 A 
ATOM     51  C   UNL A   1      41.122  32.506  35.255  1.00  0.00     0.031 A 
ATOM     52  C   UNL A   1      41.325  27.912  30.602  1.00  0.00     0.049 A 
ATOM     53  C   UNL A   1      41.550  31.069  35.435  1.00  0.00     0.074 A 
ATOM     54  C   UNL A   1      42.497  28.644  30.500  1.00  0.00     0.029 A 
ATOM     55  N   UNL A   1      41.181  27.573  31.941  1.00  0.00    -0.354 N 
ATOM     56  N   UNL A   1      41.447  30.158  34.506  1.00  0.00    -0.248 NA
ATOM     57  C   UNL A   1      42.158  30.567  36.661  1.00  0.00     0.031 C 
ATOM     58  C   UNL A   1      43.021  28.811  31.806  1.00  0.00     0.029 A 
ATOM     59  C   UNL A   1      42.177  28.165  32.693  1.00  0.00     0.049 A 
ATOM     60  H   UNL A   1      40.470  26.994  32.302  1.00  0.00     0.167 HD
ATOM     61  C   UNL A   1      42.066  29.014  34.935  1.00  0.00     0.074 A 
ATOM     62  C   UNL A   1      42.454  29.305  36.304  1.00  0.00     0.031 C 
ATOM     63  C   UNL A   1      42.261  27.932  34.126  1.00  0.00     0.031 A 
BRANCH  50  64
ATOM     64  C   UNL A   1      40.295  27.132  28.337  1.00  0.00    -0.014 A 
ATOM     65  C   UNL A   1      39.672  25.885  28.128  1.00  0.00     0.009 A 
ATOM     66  C   UNL A   1      40.987  27.671  27.240  1.00  0.00     0.009 A 
ATOM     67  C   UNL A   1      39.796  25.177  26.928  1.00  0.00     0.001 A 
ATOM     68  C   UNL A   1      41.134  26.955  26.039  1.00  0.00     0.001 A 
ATOM     69  C   UNL A   1      40.545  25.704  25.886  1.00  0.00     0.000 A 
ENDBRANCH  50  64
BRANCH  51  70
ATOM     70  C   UNL A   1      39.957  33.130  35.963  1.00  0.00    -0.014 A 
ATOM     71  C   UNL A   1      38.756  32.393  36.073  1.00  0.00     0.009 A 
ATOM     72  C   UNL A   1      40.098  34.273  36.765  1.00  0.00     0.009 A 
ATOM     73  C   UNL A   1      37.778  32.731  37.017  1.00  0.00     0.001 A 
ATOM     74  C   UNL A   1      39.104  34.621  37.696  1.00  0.00     0.001 A 
ATOM     75  C   UNL A   1      37.962  33.835  37.842  1.00  0.00     0.000 A 
ENDBRANCH  51  70
BRANCH  63  76
ATOM     76  C   UNL A   1      42.664  26.554  34.579  1.00  0.00    -0.014 A 
ATOM     77  C   UNL A   1      41.868  25.732  35.382  1.00  0.00     0.009 A 
ATOM     78  C   UNL A   1      43.839  25.975  34.043  1.00  0.00     0.009 A 
ATOM     79  C   UNL A   1      42.248  24.417  35.674  1.00  0.00     0.001 A 
ATOM     80  C   UNL A   1      44.190  24.647  34.281  1.00  0.00     0.001 A 
ATOM     81  C   UNL A   1      43.399  23.870  35.113  1.00  0.00     0.000 A 
ENDBRANCH  63  76
ENDBRANCH  37  38
ENDBRANCH  30  32
ENDBRANCH  29  30
ENDBRANCH  28  29
ENDBRANCH  27  28
ENDBRANCH  26  27
ENDBRANCH   1  26
TORSDOF 17
ENDMDL
MODEL 3
REMARK VINA RESULT:     -10.6      1.578      2.607
REMARK SMILES Cc1ccc(OCC(=O)NC(=S)Nc2ccc(C(=O)OCCOC(=O)c3ccc(-c4c5nc(c(-c6ccccc6)c6ccc([nH]6)c(-c6ccccc6)c6nc(c(-c7ccccc7)c7ccc4[nH]7)C=C6)C=C5)cc3)cc2)cc1
REMARK SMILES IDX 18 1 19 2 17 3 14 4 15 5 75 6 16 7 74 8 13 9 11 11 12 12
REMARK SMILES IDX 10 13 8 14 9 15 7 17 6 18 5 19 1 20 2 21 3 22 77 23 4 24
REMARK SMILES IDX 76 25 20 26 21 27 22 28 23 29 24 30 25 31 26 32 27 33 73 34
REMARK SMILES IDX 28 35 72 36 29 37 30 38 31 39 66 40 32 41 71 42 65 43 67 44
REMARK SMILES IDX 33 45 70 46 64 47 63 48 34 50 56 51 41 52 55 53 42 54 45 55
REMARK SMILES IDX 54 56 68 57 43 58 44 59 53 61 69 62 46 63 35 64 36 65 40 66
REMARK SMILES IDX 37 67 39 68 38 69 57 70 58 71 62 72 59 73 61 74 60 75 47 76
REMARK SMILES IDX 48 77 52 78 49 79 51 80 50 81
REMARK H PARENT 13 10 10 16 67 49 45 60
REMARK Flexibility Score: inf
ROOT
ATOM      1  C   UNL A   1      37.394  22.608  25.189  1.00  0.00     0.338 C 
ATOM      2  O   UNL A   1      38.117  22.994  26.102  1.00  0.00    -0.246 OA
ENDROOT
BRANCH   1   3
ATOM      3  C   UNL A   1      36.204  23.315  24.688  1.00  0.00     0.060 A 
ATOM      4  C   UNL A   1      33.814  24.496  23.804  1.00  0.00     0.040 A 
ATOM      5  C   UNL A   1      34.465  23.550  23.036  1.00  0.00     0.027 A 
ATOM      6  C   UNL A   1      34.450  24.960  24.961  1.00  0.00     0.027 A 
ATOM      7  C   UNL A   1      35.621  22.909  23.490  1.00  0.00     0.018 A 
ATOM      8  C   UNL A   1      35.655  24.388  25.393  1.00  0.00     0.018 A 
BRANCH   4   9
ATOM      9  N   UNL A   1      32.637  25.127  23.387  1.00  0.00    -0.332 N 
ATOM     10  H   UNL A   1      32.170  24.608  22.692  1.00  0.00     0.169 HD
BRANCH   9  11
ATOM     11  C   UNL A   1      31.980  26.260  23.692  1.00  0.00     0.177 C 
ATOM     12  S   UNL A   1      32.168  27.542  22.618  1.00  0.00    -0.040 S 
BRANCH  11  13
ATOM     13  N   UNL A   1      31.393  26.580  24.893  1.00  0.00    -0.300 N 
ATOM     14  C   UNL A   1      31.047  26.140  26.173  1.00  0.00     0.264 C 
ATOM     15  O   UNL A   1      31.305  26.877  27.131  1.00  0.00    -0.271 OA
ATOM     16  H   UNL A   1      31.087  27.513  24.819  1.00  0.00     0.172 HD
BRANCH  14  17
ATOM     17  C   UNL A   1      30.252  24.872  26.368  1.00  0.00     0.329 C 
BRANCH  17  18
ATOM     18  O   UNL A   1      31.077  24.056  27.201  1.00  0.00    -0.484 OA
BRANCH  18  19
ATOM     19  C   UNL A   1      31.718  23.009  26.608  1.00  0.00     0.120 A 
ATOM     20  C   UNL A   1      34.124  19.846  24.965  1.00  0.00     0.044 C 
ATOM     21  C   UNL A   1      33.266  20.933  25.541  1.00  0.00    -0.051 A 
ATOM     22  C   UNL A   1      33.647  21.546  26.736  1.00  0.00     0.007 A 
ATOM     23  C   UNL A   1      32.092  21.354  24.899  1.00  0.00     0.007 A 
ATOM     24  C   UNL A   1      32.894  22.601  27.245  1.00  0.00     0.047 A 
ATOM     25  C   UNL A   1      31.314  22.387  25.434  1.00  0.00     0.047 A 
ENDBRANCH  18  19
ENDBRANCH  17  18
ENDBRANCH  14  17
ENDBRANCH  11  13
ENDBRANCH   9  11
ENDBRANCH   4   9
ENDBRANCH   1   3
BRANCH   1  26
ATOM     26  O   UNL A   1      37.501  21.466  24.490  1.00  0.00    -0.458 OA
BRANCH  26  27
ATOM     27  C   UNL A   1      37.771  20.232  25.167  1.00  0.00     0.275 C 
BRANCH  27  28
ATOM     28  C   UNL A   1      39.196  19.639  25.184  1.00  0.00     0.275 C 
BRANCH  28  29
ATOM     29  O   UNL A   1      40.104  19.715  26.323  1.00  0.00    -0.458 OA
BRANCH  29  30
ATOM     30  C   UNL A   1      41.344  20.224  26.462  1.00  0.00     0.338 C 
ATOM     31  O   UNL A   1      42.363  19.568  26.289  1.00  0.00    -0.246 OA
BRANCH  30  32
ATOM     32  C   UNL A   1      41.439  21.632  26.830  1.00  0.00     0.060 A 
ATOM     33  C   UNL A   1      41.705  22.585  25.834  1.00  0.00     0.016 A 
ATOM     34  C   UNL A   1      41.212  21.994  28.151  1.00  0.00     0.016 A 
ATOM     35  C   UNL A   1      41.659  23.934  26.143  1.00  0.00     0.010 A 
ATOM     36  C   UNL A   1      41.055  23.322  28.442  1.00  0.00     0.010 A 
ATOM     37  C   UNL A   1      41.347  24.277  27.457  1.00  0.00    -0.014 A 
BRANCH  37  38
ATOM     38  C   UNL A   1      41.745  25.542  28.034  1.00  0.00     0.031 A 
ATOM     39  C   UNL A   1      40.842  26.693  28.086  1.00  0.00     0.074 A 
ATOM     40  C   UNL A   1      42.935  25.444  28.669  1.00  0.00     0.049 A 
ATOM     41  N   UNL A   1      41.251  27.911  28.140  1.00  0.00    -0.248 NA
ATOM     42  C   UNL A   1      39.385  26.573  28.048  1.00  0.00     0.031 C 
ATOM     43  C   UNL A   1      43.548  26.309  29.655  1.00  0.00     0.029 A 
ATOM     44  N   UNL A   1      43.925  24.480  28.414  1.00  0.00    -0.354 N 
ATOM     45  C   UNL A   1      40.167  28.667  28.529  1.00  0.00     0.074 A 
ATOM     46  C   UNL A   1      39.009  27.834  28.302  1.00  0.00     0.031 C 
ATOM     47  C   UNL A   1      44.871  26.044  29.679  1.00  0.00     0.029 A 
ATOM     48  C   UNL A   1      45.148  25.116  28.585  1.00  0.00     0.049 A 
ATOM     49  H   UNL A   1      43.781  23.539  28.164  1.00  0.00     0.167 HD
ATOM     50  C   UNL A   1      40.380  29.815  29.232  1.00  0.00     0.031 A 
ATOM     51  C   UNL A   1      45.965  25.351  27.516  1.00  0.00     0.031 A 
ATOM     52  C   UNL A   1      41.807  30.005  29.477  1.00  0.00     0.049 A 
ATOM     53  C   UNL A   1      46.133  26.839  27.322  1.00  0.00     0.074 A 
ATOM     54  C   UNL A   1      42.592  29.676  30.570  1.00  0.00     0.029 A 
ATOM     55  N   UNL A   1      42.672  30.217  28.412  1.00  0.00    -0.354 N 
ATOM     56  N   UNL A   1      45.212  27.718  27.613  1.00  0.00    -0.248 NA
ATOM     57  C   UNL A   1      47.361  27.444  26.822  1.00  0.00     0.031 C 
ATOM     58  C   UNL A   1      43.939  29.616  30.135  1.00  0.00     0.029 A 
ATOM     59  C   UNL A   1      43.970  29.926  28.786  1.00  0.00     0.049 A 
ATOM     60  H   UNL A   1      42.400  30.530  27.518  1.00  0.00     0.167 HD
ATOM     61  C   UNL A   1      45.738  28.976  27.471  1.00  0.00     0.074 A 
ATOM     62  C   UNL A   1      47.068  28.752  26.931  1.00  0.00     0.031 C 
ATOM     63  C   UNL A   1      45.069  30.103  27.850  1.00  0.00     0.031 A 
BRANCH  50  64
ATOM     64  C   UNL A   1      39.311  30.538  30.015  1.00  0.00    -0.014 A 
ATOM     65  C   UNL A   1      39.218  30.332  31.406  1.00  0.00     0.009 A 
ATOM     66  C   UNL A   1      38.371  31.416  29.454  1.00  0.00     0.009 A 
ATOM     67  C   UNL A   1      38.203  30.901  32.182  1.00  0.00     0.001 A 
ATOM     68  C   UNL A   1      37.335  31.975  30.224  1.00  0.00     0.001 A 
ATOM     69  C   UNL A   1      37.247  31.710  31.587  1.00  0.00     0.000 A 
ENDBRANCH  50  64
BRANCH  51  70
ATOM     70  C   UNL A   1      45.868  24.364  26.391  1.00  0.00    -0.014 A 
ATOM     71  C   UNL A   1      46.077  22.995  26.670  1.00  0.00     0.009 A 
ATOM     72  C   UNL A   1      45.297  24.699  25.154  1.00  0.00     0.009 A 
ATOM     73  C   UNL A   1      45.643  21.997  25.788  1.00  0.00     0.001 A 
ATOM     74  C   UNL A   1      44.882  23.695  24.262  1.00  0.00     0.001 A 
ATOM     75  C   UNL A   1      45.028  22.348  24.591  1.00  0.00     0.000 A 
ENDBRANCH  51  70
BRANCH  63  76
ATOM     76  C   UNL A   1      45.436  31.514  27.476  1.00  0.00    -0.014 A 
ATOM     77  C   UNL A   1      46.536  32.200  28.001  1.00  0.00     0.009 A 
ATOM     78  C   UNL A   1      44.738  32.145  26.419  1.00  0.00     0.009 A 
ATOM     79  C   UNL A   1      46.892  33.468  27.528  1.00  0.00     0.001 A 
ATOM     80  C   UNL A   1      45.124  33.381  25.904  1.00  0.00     0.001 A 
ATOM     81  C   UNL A   1      46.197  34.051  26.472  1.00  0.00     0.000 A 
ENDBRANCH  63  76
ENDBRANCH  37  38
ENDBRANCH  30  32
ENDBRANCH  29  30
ENDBRANCH  28  29
ENDBRANCH  27  28
ENDBRANCH  26  27
ENDBRANCH   1  26
TORSDOF 17
ENDMDL
