MODEL 1
REMARK VINA RESULT:      -9.6      0.000      0.000
REMARK SMILES CCc1ccc(C[N@H+]2CC[C@@H](C(=O)OCCOC(=O)c3ccc(-c4c5nc(c(-c6ccccc6)c6ccc([nH]6)c(-c6ccccc6)c6nc(c(-c7ccccc7)c7ccc4[nH]7)C=C6)C=C5)cc3)[C@@H]2C)s1
REMARK SMILES IDX 15 1 14 2 12 3 13 4 11 5 8 6 9 7 68 8 10 10 69 11 7 12 6 13
REMARK SMILES IDX 3 14 4 15 70 16 5 17 2 18 1 19 16 20 17 21 18 22 19 23 20 24
REMARK SMILES IDX 21 25 67 26 22 27 66 28 23 29 24 30 25 31 60 32 26 33 65 34
REMARK SMILES IDX 59 35 61 36 27 37 64 38 58 39 57 40 28 42 50 43 35 44 49 45
REMARK SMILES IDX 36 46 39 47 48 48 62 49 37 50 38 51 47 53 63 54 40 55 29 56
REMARK SMILES IDX 30 57 34 58 31 59 33 60 32 61 51 62 52 63 56 64 53 65 55 66
REMARK SMILES IDX 54 67 41 68 42 69 46 70 43 71 45 72 44 73
REMARK H PARENT 8 9 61 41 39 52
REMARK Flexibility Score: inf
ROOT
ATOM      1  C   UNL A   1      32.010  28.835  26.130  1.00  0.00     0.274 C 
ENDROOT
BRANCH   1   2
ATOM      2  O   UNL A   1      32.063  27.486  26.628  1.00  0.00    -0.462 OA
BRANCH   2   3
ATOM      3  C   UNL A   1      31.189  26.587  26.117  1.00  0.00     0.315 C 
ATOM      4  O   UNL A   1      30.271  26.075  26.749  1.00  0.00    -0.252 OA
BRANCH   3   5
ATOM      5  C   UNL A   1      31.430  26.270  24.652  1.00  0.00     0.162 C 
ATOM      6  N   UNL A   1      32.485  24.460  23.446  1.00  0.00    -0.328 N 
ATOM      7  C   UNL A   1      31.091  24.560  23.021  1.00  0.00     0.263 C 
ATOM      8  C   UNL A   1      32.784  25.638  24.280  1.00  0.00     0.195 C 
ATOM      9  H   UNL A   1      33.070  24.465  22.611  1.00  0.00     0.348 HD
ATOM     10  C   UNL A   1      30.377  25.302  24.133  1.00  0.00     0.083 C 
ATOM     11  C   UNL A   1      33.622  26.594  23.420  1.00  0.00     0.076 C 
BRANCH   6  12
ATOM     12  C   UNL A   1      32.886  23.175  24.044  1.00  0.00     0.310 C 
BRANCH  12  13
ATOM     13  C   UNL A   1      34.358  22.847  24.040  1.00  0.00     0.059 A 
ATOM     14  C   UNL A   1      36.627  22.001  24.585  1.00  0.00     0.005 A 
ATOM     15  C   UNL A   1      36.601  22.726  23.411  1.00  0.00     0.016 A 
ATOM     16  S   UNL A   1      35.081  21.963  25.322  1.00  0.00    -0.139 S 
ATOM     17  C   UNL A   1      35.311  23.244  23.122  1.00  0.00     0.021 A 
BRANCH  14  18
ATOM     18  C   UNL A   1      37.825  21.361  25.225  1.00  0.00     0.043 C 
ATOM     19  C   UNL A   1      38.674  22.325  26.036  1.00  0.00     0.010 C 
ENDBRANCH  14  18
ENDBRANCH  12  13
ENDBRANCH   6  12
ENDBRANCH   3   5
ENDBRANCH   2   3
ENDBRANCH   1   2
BRANCH   1  20
ATOM     20  C   UNL A   1      33.415  29.412  25.968  1.00  0.00     0.275 C 
BRANCH  20  21
ATOM     21  O   UNL A   1      34.211  29.104  27.121  1.00  0.00    -0.458 OA
BRANCH  21  22
ATOM     22  C   UNL A   1      34.680  30.188  27.777  1.00  0.00     0.338 C 
ATOM     23  O   UNL A   1      34.071  31.192  28.101  1.00  0.00    -0.246 OA
BRANCH  22  24
ATOM     24  C   UNL A   1      36.047  29.902  28.222  1.00  0.00     0.060 A 
ATOM     25  C   UNL A   1      37.074  30.036  27.287  1.00  0.00     0.016 A 
ATOM     26  C   UNL A   1      36.307  29.461  29.518  1.00  0.00     0.016 A 
ATOM     27  C   UNL A   1      38.375  29.703  27.627  1.00  0.00     0.010 A 
ATOM     28  C   UNL A   1      37.616  29.129  29.864  1.00  0.00     0.010 A 
ATOM     29  C   UNL A   1      38.648  29.230  28.913  1.00  0.00    -0.014 A 
BRANCH  29  30
ATOM     30  C   UNL A   1      40.003  28.746  29.234  1.00  0.00     0.031 A 
ATOM     31  C   UNL A   1      40.946  29.661  29.957  1.00  0.00     0.074 A 
ATOM     32  C   UNL A   1      40.368  27.501  28.885  1.00  0.00     0.049 A 
ATOM     33  N   UNL A   1      42.213  29.490  30.230  1.00  0.00    -0.248 NA
ATOM     34  C   UNL A   1      40.390  30.940  30.429  1.00  0.00     0.031 C 
ATOM     35  C   UNL A   1      39.505  26.518  28.228  1.00  0.00     0.029 A 
ATOM     36  N   UNL A   1      41.569  26.858  29.023  1.00  0.00    -0.354 N 
ATOM     37  C   UNL A   1      42.615  30.656  30.869  1.00  0.00     0.074 A 
ATOM     38  C   UNL A   1      41.462  31.525  30.945  1.00  0.00     0.031 C 
ATOM     39  C   UNL A   1      40.211  25.398  28.006  1.00  0.00     0.029 A 
ATOM     40  C   UNL A   1      41.582  25.605  28.461  1.00  0.00     0.049 A 
ATOM     41  H   UNL A   1      42.345  27.252  29.481  1.00  0.00     0.167 HD
ATOM     42  C   UNL A   1      43.843  30.969  31.341  1.00  0.00     0.031 A 
ATOM     43  C   UNL A   1      42.601  24.742  28.299  1.00  0.00     0.031 A 
ATOM     44  C   UNL A   1      44.975  30.087  31.270  1.00  0.00     0.049 A 
ATOM     45  C   UNL A   1      43.964  25.131  28.802  1.00  0.00     0.074 A 
ATOM     46  C   UNL A   1      46.261  30.291  31.737  1.00  0.00     0.029 A 
ATOM     47  N   UNL A   1      44.951  28.825  30.693  1.00  0.00    -0.354 N 
ATOM     48  N   UNL A   1      44.336  26.232  29.408  1.00  0.00    -0.248 NA
ATOM     49  C   UNL A   1      45.045  24.158  28.599  1.00  0.00     0.031 C 
ATOM     50  C   UNL A   1      47.027  29.171  31.402  1.00  0.00     0.029 A 
ATOM     51  C   UNL A   1      46.206  28.248  30.772  1.00  0.00     0.049 A 
ATOM     52  H   UNL A   1      44.160  28.404  30.288  1.00  0.00     0.167 HD
ATOM     53  C   UNL A   1      45.689  26.079  29.677  1.00  0.00     0.074 A 
ATOM     54  C   UNL A   1      46.067  24.770  29.183  1.00  0.00     0.031 C 
ATOM     55  C   UNL A   1      46.547  26.942  30.274  1.00  0.00     0.031 A 
BRANCH  42  56
ATOM     56  C   UNL A   1      44.034  32.337  31.929  1.00  0.00    -0.014 A 
ATOM     57  C   UNL A   1      43.857  32.581  33.299  1.00  0.00     0.009 A 
ATOM     58  C   UNL A   1      44.430  33.395  31.095  1.00  0.00     0.009 A 
ATOM     59  C   UNL A   1      44.049  33.863  33.818  1.00  0.00     0.001 A 
ATOM     60  C   UNL A   1      44.645  34.670  31.620  1.00  0.00     0.001 A 
ATOM     61  C   UNL A   1      44.448  34.905  32.979  1.00  0.00     0.000 A 
ENDBRANCH  42  56
BRANCH  43  62
ATOM     62  C   UNL A   1      42.383  23.454  27.590  1.00  0.00    -0.014 A 
ATOM     63  C   UNL A   1      41.967  22.311  28.289  1.00  0.00     0.009 A 
ATOM     64  C   UNL A   1      42.600  23.363  26.206  1.00  0.00     0.009 A 
ATOM     65  C   UNL A   1      41.798  21.096  27.618  1.00  0.00     0.001 A 
ATOM     66  C   UNL A   1      42.402  22.155  25.535  1.00  0.00     0.001 A 
ATOM     67  C   UNL A   1      42.011  21.021  26.242  1.00  0.00     0.000 A 
ENDBRANCH  43  62
BRANCH  55  68
ATOM     68  C   UNL A   1      47.962  26.478  30.454  1.00  0.00    -0.014 A 
ATOM     69  C   UNL A   1      48.940  26.739  29.481  1.00  0.00     0.009 A 
ATOM     70  C   UNL A   1      48.329  25.810  31.632  1.00  0.00     0.009 A 
ATOM     71  C   UNL A   1      50.253  26.311  29.674  1.00  0.00     0.001 A 
ATOM     72  C   UNL A   1      49.648  25.407  31.833  1.00  0.00     0.001 A 
ATOM     73  C   UNL A   1      50.607  25.649  30.851  1.00  0.00     0.000 A 
ENDBRANCH  55  68
ENDBRANCH  29  30
ENDBRANCH  22  24
ENDBRANCH  21  22
ENDBRANCH  20  21
ENDBRANCH   1  20
TORSDOF 14
ENDMDL
MODEL 2
REMARK VINA RESULT:      -9.5      3.381      6.901
REMARK SMILES CCc1ccc(C[N@H+]2CC[C@@H](C(=O)OCCOC(=O)c3ccc(-c4c5nc(c(-c6ccccc6)c6ccc([nH]6)c(-c6ccccc6)c6nc(c(-c7ccccc7)c7ccc4[nH]7)C=C6)C=C5)cc3)[C@@H]2C)s1
REMARK SMILES IDX 15 1 14 2 12 3 13 4 11 5 8 6 9 7 68 8 10 10 69 11 7 12 6 13
REMARK SMILES IDX 3 14 4 15 70 16 5 17 2 18 1 19 16 20 17 21 18 22 19 23 20 24
REMARK SMILES IDX 21 25 67 26 22 27 66 28 23 29 24 30 25 31 60 32 26 33 65 34
REMARK SMILES IDX 59 35 61 36 27 37 64 38 58 39 57 40 28 42 50 43 35 44 49 45
REMARK SMILES IDX 36 46 39 47 48 48 62 49 37 50 38 51 47 53 63 54 40 55 29 56
REMARK SMILES IDX 30 57 34 58 31 59 33 60 32 61 51 62 52 63 56 64 53 65 55 66
REMARK SMILES IDX 54 67 41 68 42 69 46 70 43 71 45 72 44 73
REMARK H PARENT 8 9 61 41 39 52
REMARK Flexibility Score: inf
ROOT
ATOM      1  C   UNL A   1      35.074  20.816  25.107  1.00  0.00     0.274 C 
ENDROOT
BRANCH   1   2
ATOM      2  O   UNL A   1      34.762  21.430  26.370  1.00  0.00    -0.462 OA
BRANCH   2   3
ATOM      3  C   UNL A   1      33.912  22.484  26.370  1.00  0.00     0.315 C 
ATOM      4  O   UNL A   1      33.263  22.851  27.343  1.00  0.00    -0.252 OA
BRANCH   3   5
ATOM      5  C   UNL A   1      33.840  23.207  25.037  1.00  0.00     0.162 C 
ATOM      6  N   UNL A   1      32.736  25.202  24.233  1.00  0.00    -0.328 N 
ATOM      7  C   UNL A   1      34.177  25.353  24.046  1.00  0.00     0.263 C 
ATOM      8  C   UNL A   1      32.480  23.806  24.632  1.00  0.00     0.195 C 
ATOM      9  H   UNL A   1      32.279  25.401  23.343  1.00  0.00     0.348 HD
ATOM     10  C   UNL A   1      34.819  24.372  25.007  1.00  0.00     0.083 C 
ATOM     11  C   UNL A   1      31.905  23.088  23.403  1.00  0.00     0.076 C 
BRANCH   6  12
ATOM     12  C   UNL A   1      32.089  26.207  25.094  1.00  0.00     0.310 C 
BRANCH  12  13
ATOM     13  C   UNL A   1      31.083  27.123  24.442  1.00  0.00     0.059 A 
ATOM     14  C   UNL A   1      29.814  29.090  23.617  1.00  0.00     0.005 A 
ATOM     15  C   UNL A   1      29.239  27.894  23.240  1.00  0.00     0.016 A 
ATOM     16  S   UNL A   1      31.203  28.829  24.585  1.00  0.00    -0.139 S 
ATOM     17  C   UNL A   1      29.943  26.769  23.748  1.00  0.00     0.021 A 
BRANCH  14  18
ATOM     18  C   UNL A   1      29.309  30.470  23.312  1.00  0.00     0.043 C 
ATOM     19  C   UNL A   1      27.794  30.567  23.243  1.00  0.00     0.010 C 
ENDBRANCH  14  18
ENDBRANCH  12  13
ENDBRANCH   6  12
ENDBRANCH   3   5
ENDBRANCH   2   3
ENDBRANCH   1   2
BRANCH   1  20
ATOM     20  C   UNL A   1      36.585  20.729  24.900  1.00  0.00     0.275 C 
BRANCH  20  21
ATOM     21  O   UNL A   1      37.257  21.634  25.788  1.00  0.00    -0.458 OA
BRANCH  21  22
ATOM     22  C   UNL A   1      38.554  21.328  26.013  1.00  0.00     0.338 C 
ATOM     23  O   UNL A   1      39.150  20.310  25.710  1.00  0.00    -0.246 OA
BRANCH  22  24
ATOM     24  C   UNL A   1      39.223  22.519  26.544  1.00  0.00     0.060 A 
ATOM     25  C   UNL A   1      38.737  23.766  26.145  1.00  0.00     0.016 A 
ATOM     26  C   UNL A   1      40.336  22.413  27.376  1.00  0.00     0.016 A 
ATOM     27  C   UNL A   1      39.377  24.926  26.551  1.00  0.00     0.010 A 
ATOM     28  C   UNL A   1      40.979  23.579  27.788  1.00  0.00     0.010 A 
ATOM     29  C   UNL A   1      40.513  24.835  27.359  1.00  0.00    -0.014 A 
BRANCH  29  30
ATOM     30  C   UNL A   1      41.274  26.057  27.678  1.00  0.00     0.031 A 
ATOM     31  C   UNL A   1      40.647  27.089  28.566  1.00  0.00     0.074 A 
ATOM     32  C   UNL A   1      42.511  26.223  27.180  1.00  0.00     0.049 A 
ATOM     33  N   UNL A   1      41.080  28.283  28.876  1.00  0.00    -0.248 NA
ATOM     34  C   UNL A   1      39.358  26.734  29.181  1.00  0.00     0.031 C 
ATOM     35  C   UNL A   1      43.227  25.252  26.351  1.00  0.00     0.029 A 
ATOM     36  N   UNL A   1      43.375  27.279  27.287  1.00  0.00    -0.354 N 
ATOM     37  C   UNL A   1      40.099  28.835  29.689  1.00  0.00     0.074 A 
ATOM     38  C   UNL A   1      39.049  27.850  29.826  1.00  0.00     0.031 C 
ATOM     39  C   UNL A   1      44.421  25.765  26.013  1.00  0.00     0.029 A 
ATOM     40  C   UNL A   1      44.528  27.114  26.560  1.00  0.00     0.049 A 
ATOM     41  H   UNL A   1      43.191  28.076  27.833  1.00  0.00     0.167 HD
ATOM     42  C   UNL A   1      40.079  30.061  30.260  1.00  0.00     0.031 A 
ATOM     43  C   UNL A   1      45.537  27.975  26.331  1.00  0.00     0.031 A 
ATOM     44  C   UNL A   1      41.138  31.023  30.125  1.00  0.00     0.049 A 
ATOM     45  C   UNL A   1      45.471  29.343  26.950  1.00  0.00     0.074 A 
ATOM     46  C   UNL A   1      41.233  32.287  30.679  1.00  0.00     0.029 A 
ATOM     47  N   UNL A   1      42.291  30.821  29.379  1.00  0.00    -0.354 N 
ATOM     48  N   UNL A   1      44.542  29.857  27.721  1.00  0.00    -0.248 NA
ATOM     49  C   UNL A   1      46.592  30.250  26.669  1.00  0.00     0.031 C 
ATOM     50  C   UNL A   1      42.424  32.867  30.232  1.00  0.00     0.029 A 
ATOM     51  C   UNL A   1      43.093  31.946  29.441  1.00  0.00     0.049 A 
ATOM     52  H   UNL A   1      42.504  30.000  28.881  1.00  0.00     0.167 HD
ATOM     53  C   UNL A   1      44.974  31.138  28.033  1.00  0.00     0.074 A 
ATOM     54  C   UNL A   1      46.257  31.316  27.382  1.00  0.00     0.031 C 
ATOM     55  C   UNL A   1      44.366  32.088  28.785  1.00  0.00     0.031 A 
BRANCH  42  56
ATOM     56  C   UNL A   1      38.854  30.445  31.039  1.00  0.00    -0.014 A 
ATOM     57  C   UNL A   1      37.757  31.067  30.425  1.00  0.00     0.009 A 
ATOM     58  C   UNL A   1      38.790  30.149  32.410  1.00  0.00     0.009 A 
ATOM     59  C   UNL A   1      36.628  31.406  31.174  1.00  0.00     0.001 A 
ATOM     60  C   UNL A   1      37.651  30.467  33.152  1.00  0.00     0.001 A 
ATOM     61  C   UNL A   1      36.574  31.102  32.536  1.00  0.00     0.000 A 
ENDBRANCH  42  56
BRANCH  43  62
ATOM     62  C   UNL A   1      46.662  27.587  25.442  1.00  0.00    -0.014 A 
ATOM     63  C   UNL A   1      47.751  26.857  25.939  1.00  0.00     0.009 A 
ATOM     64  C   UNL A   1      46.652  27.956  24.088  1.00  0.00     0.009 A 
ATOM     65  C   UNL A   1      48.821  26.527  25.102  1.00  0.00     0.001 A 
ATOM     66  C   UNL A   1      47.709  27.600  23.247  1.00  0.00     0.001 A 
ATOM     67  C   UNL A   1      48.797  26.895  23.757  1.00  0.00     0.000 A 
ENDBRANCH  43  62
BRANCH  55  68
ATOM     68  C   UNL A   1      45.100  33.383  28.969  1.00  0.00    -0.014 A 
ATOM     69  C   UNL A   1      44.892  34.465  28.100  1.00  0.00     0.009 A 
ATOM     70  C   UNL A   1      45.980  33.534  30.053  1.00  0.00     0.009 A 
ATOM     71  C   UNL A   1      45.576  35.665  28.297  1.00  0.00     0.001 A 
ATOM     72  C   UNL A   1      46.640  34.743  30.262  1.00  0.00     0.001 A 
ATOM     73  C   UNL A   1      46.446  35.804  29.380  1.00  0.00     0.000 A 
ENDBRANCH  55  68
ENDBRANCH  29  30
ENDBRANCH  22  24
ENDBRANCH  21  22
ENDBRANCH  20  21
ENDBRANCH   1  20
TORSDOF 14
ENDMDL
MODEL 3
REMARK VINA RESULT:      -9.4      1.482      3.078
REMARK SMILES CCc1ccc(C[N@H+]2CC[C@@H](C(=O)OCCOC(=O)c3ccc(-c4c5nc(c(-c6ccccc6)c6ccc([nH]6)c(-c6ccccc6)c6nc(c(-c7ccccc7)c7ccc4[nH]7)C=C6)C=C5)cc3)[C@@H]2C)s1
REMARK SMILES IDX 15 1 14 2 12 3 13 4 11 5 8 6 9 7 68 8 10 10 69 11 7 12 6 13
REMARK SMILES IDX 3 14 4 15 70 16 5 17 2 18 1 19 16 20 17 21 18 22 19 23 20 24
REMARK SMILES IDX 21 25 67 26 22 27 66 28 23 29 24 30 25 31 60 32 26 33 65 34
REMARK SMILES IDX 59 35 61 36 27 37 64 38 58 39 57 40 28 42 50 43 35 44 49 45
REMARK SMILES IDX 36 46 39 47 48 48 62 49 37 50 38 51 47 53 63 54 40 55 29 56
REMARK SMILES IDX 30 57 34 58 31 59 33 60 32 61 51 62 52 63 56 64 53 65 55 66
REMARK SMILES IDX 54 67 41 68 42 69 46 70 43 71 45 72 44 73
REMARK H PARENT 8 9 61 41 39 52
REMARK Flexibility Score: inf
ROOT
ATOM      1  C   UNL A   1      31.859  29.474  26.961  1.00  0.00     0.274 C 
ENDROOT
BRANCH   1   2
ATOM      2  O   UNL A   1      32.658  28.278  26.931  1.00  0.00    -0.462 OA
BRANCH   2   3
ATOM      3  C   UNL A   1      32.031  27.103  26.685  1.00  0.00     0.315 C 
ATOM      4  O   UNL A   1      30.836  26.902  26.871  1.00  0.00    -0.252 OA
BRANCH   3   5
ATOM      5  C   UNL A   1      32.948  26.031  26.124  1.00  0.00     0.162 C 
ATOM      6  N   UNL A   1      32.835  24.486  24.268  1.00  0.00    -0.328 N 
ATOM      7  C   UNL A   1      34.008  25.339  24.100  1.00  0.00     0.263 C 
ATOM      8  C   UNL A   1      32.289  24.735  25.614  1.00  0.00     0.195 C 
ATOM      9  H   UNL A   1      33.136  23.515  24.187  1.00  0.00     0.348 HD
ATOM     10  C   UNL A   1      33.743  26.570  24.943  1.00  0.00     0.083 C 
ATOM     11  C   UNL A   1      32.685  23.536  26.487  1.00  0.00     0.076 C 
BRANCH   6  12
ATOM     12  C   UNL A   1      31.835  24.544  23.188  1.00  0.00     0.310 C 
BRANCH  12  13
ATOM     13  C   UNL A   1      30.779  25.618  23.288  1.00  0.00     0.059 A 
ATOM     14  C   UNL A   1      29.464  27.712  23.085  1.00  0.00     0.005 A 
ATOM     15  C   UNL A   1      28.818  26.755  23.840  1.00  0.00     0.016 A 
ATOM     16  S   UNL A   1      31.002  27.160  22.570  1.00  0.00    -0.139 S 
ATOM     17  C   UNL A   1      29.590  25.572  23.991  1.00  0.00     0.021 A 
BRANCH  14  18
ATOM     18  C   UNL A   1      28.973  29.096  22.772  1.00  0.00     0.043 C 
ATOM     19  C   UNL A   1      29.960  29.928  21.971  1.00  0.00     0.010 C 
ENDBRANCH  14  18
ENDBRANCH  12  13
ENDBRANCH   6  12
ENDBRANCH   3   5
ENDBRANCH   2   3
ENDBRANCH   1   2
BRANCH   1  20
ATOM     20  C   UNL A   1      32.733  30.708  27.178  1.00  0.00     0.275 C 
BRANCH  20  21
ATOM     21  O   UNL A   1      34.113  30.326  27.272  1.00  0.00    -0.458 OA
BRANCH  21  22
ATOM     22  C   UNL A   1      34.795  30.950  28.257  1.00  0.00     0.338 C 
ATOM     23  O   UNL A   1      34.396  31.814  29.017  1.00  0.00    -0.246 OA
BRANCH  22  24
ATOM     24  C   UNL A   1      36.093  30.287  28.409  1.00  0.00     0.060 A 
ATOM     25  C   UNL A   1      36.379  29.698  29.642  1.00  0.00     0.016 A 
ATOM     26  C   UNL A   1      37.031  30.288  27.378  1.00  0.00     0.016 A 
ATOM     27  C   UNL A   1      37.620  29.126  29.871  1.00  0.00     0.010 A 
ATOM     28  C   UNL A   1      38.279  29.711  27.605  1.00  0.00     0.010 A 
ATOM     29  C   UNL A   1      38.582  29.147  28.858  1.00  0.00    -0.014 A 
BRANCH  29  30
ATOM     30  C   UNL A   1      39.945  28.663  29.144  1.00  0.00     0.031 A 
ATOM     31  C   UNL A   1      40.917  29.589  29.810  1.00  0.00     0.074 A 
ATOM     32  C   UNL A   1      40.292  27.408  28.813  1.00  0.00     0.049 A 
ATOM     33  N   UNL A   1      42.192  29.419  30.043  1.00  0.00    -0.248 NA
ATOM     34  C   UNL A   1      40.385  30.883  30.269  1.00  0.00     0.031 C 
ATOM     35  C   UNL A   1      39.401  26.414  28.210  1.00  0.00     0.029 A 
ATOM     36  N   UNL A   1      41.493  26.761  28.924  1.00  0.00    -0.354 N 
ATOM     37  C   UNL A   1      42.623  30.597  30.638  1.00  0.00     0.074 A 
ATOM     38  C   UNL A   1      41.477  31.475  30.732  1.00  0.00     0.031 C 
ATOM     39  C   UNL A   1      40.093  25.285  27.992  1.00  0.00     0.029 A 
ATOM     40  C   UNL A   1      41.481  25.495  28.393  1.00  0.00     0.049 A 
ATOM     41  H   UNL A   1      42.287  27.162  29.344  1.00  0.00     0.167 HD
ATOM     42  C   UNL A   1      43.868  30.914  31.059  1.00  0.00     0.031 A 
ATOM     43  C   UNL A   1      42.489  24.622  28.217  1.00  0.00     0.031 A 
ATOM     44  C   UNL A   1      44.993  30.024  30.970  1.00  0.00     0.049 A 
ATOM     45  C   UNL A   1      43.870  25.015  28.662  1.00  0.00     0.074 A 
ATOM     46  C   UNL A   1      46.295  30.232  31.386  1.00  0.00     0.029 A 
ATOM     47  N   UNL A   1      44.942  28.748  30.426  1.00  0.00    -0.354 N 
ATOM     48  N   UNL A   1      44.269  26.129  29.228  1.00  0.00    -0.248 NA
ATOM     49  C   UNL A   1      44.939  24.032  28.445  1.00  0.00     0.031 C 
ATOM     50  C   UNL A   1      47.043  29.099  31.053  1.00  0.00     0.029 A 
ATOM     51  C   UNL A   1      46.196  28.167  30.475  1.00  0.00     0.049 A 
ATOM     52  H   UNL A   1      44.134  28.322  30.059  1.00  0.00     0.167 HD
ATOM     53  C   UNL A   1      45.630  25.974  29.453  1.00  0.00     0.074 A 
ATOM     54  C   UNL A   1      45.983  24.651  28.978  1.00  0.00     0.031 C 
ATOM     55  C   UNL A   1      46.512  26.847  29.998  1.00  0.00     0.031 A 
BRANCH  42  56
ATOM     56  C   UNL A   1      44.087  32.296  31.605  1.00  0.00    -0.014 A 
ATOM     57  C   UNL A   1      43.961  32.573  32.975  1.00  0.00     0.009 A 
ATOM     58  C   UNL A   1      44.456  33.330  30.732  1.00  0.00     0.009 A 
ATOM     59  C   UNL A   1      44.178  33.867  33.455  1.00  0.00     0.001 A 
ATOM     60  C   UNL A   1      44.696  34.617  31.217  1.00  0.00     0.001 A 
ATOM     61  C   UNL A   1      44.550  34.886  32.577  1.00  0.00     0.000 A 
ENDBRANCH  42  56
BRANCH  43  62
ATOM     62  C   UNL A   1      42.239  23.319  27.549  1.00  0.00    -0.014 A 
ATOM     63  C   UNL A   1      41.789  22.210  28.280  1.00  0.00     0.009 A 
ATOM     64  C   UNL A   1      42.460  23.177  26.169  1.00  0.00     0.009 A 
ATOM     65  C   UNL A   1      41.590  20.979  27.648  1.00  0.00     0.001 A 
ATOM     66  C   UNL A   1      42.233  21.955  25.535  1.00  0.00     0.001 A 
ATOM     67  C   UNL A   1      41.808  20.854  26.276  1.00  0.00     0.000 A 
ENDBRANCH  43  62
BRANCH  55  68
ATOM     68  C   UNL A   1      47.931  26.379  30.139  1.00  0.00    -0.014 A 
ATOM     69  C   UNL A   1      48.870  26.591  29.118  1.00  0.00     0.009 A 
ATOM     70  C   UNL A   1      48.341  25.757  31.328  1.00  0.00     0.009 A 
ATOM     71  C   UNL A   1      50.187  26.160  29.274  1.00  0.00     0.001 A 
ATOM     72  C   UNL A   1      49.665  25.352  31.492  1.00  0.00     0.001 A 
ATOM     73  C   UNL A   1      50.585  25.545  30.462  1.00  0.00     0.000 A 
ENDBRANCH  55  68
ENDBRANCH  29  30
ENDBRANCH  22  24
ENDBRANCH  21  22
ENDBRANCH  20  21
ENDBRANCH   1  20
TORSDOF 14
ENDMDL
