MODEL 1
REMARK VINA RESULT:     -10.2      0.000      0.000
REMARK SMILES Cc1nc(C[N@H+](C)[C@H](C)c2ccc(C(=O)OCCOC(=O)c3ccc(-c4c5nc(c(-c6ccccc6)c6ccc([nH]6)c(-c6ccccc6)c6nc(c(-c7ccccc7)c7ccc4[nH]7)C=C6)C=C5)cc3)o2)cs1
REMARK SMILES IDX 17 1 16 2 14 3 15 4 13 5 10 6 11 7 70 8 12 9 8 10 9 11 6 12
REMARK SMILES IDX 7 13 5 15 4 16 1 17 2 18 3 19 72 20 71 21 18 22 19 23 20 24
REMARK SMILES IDX 21 25 22 26 23 27 69 28 24 29 68 30 25 31 26 32 27 33 62 34
REMARK SMILES IDX 28 35 67 36 61 37 63 38 29 39 66 40 60 41 59 42 30 44 52 45
REMARK SMILES IDX 37 46 51 47 38 48 41 49 50 50 64 51 39 52 40 53 49 55 65 56
REMARK SMILES IDX 42 57 31 58 32 59 36 60 33 61 35 62 34 63 53 64 54 65 58 66
REMARK SMILES IDX 55 67 57 68 56 69 43 70 44 71 48 72 45 73 47 74 46 75
REMARK H PARENT 6 14 63 43 41 54
REMARK Flexibility Score: inf
ROOT
ATOM      1  C   UNL A   1      42.807  20.730  25.922  1.00  0.00     0.275 C 
ENDROOT
BRANCH   1   2
ATOM      2  O   UNL A   1      41.400  20.897  25.656  1.00  0.00    -0.456 OA
BRANCH   2   3
ATOM      3  C   UNL A   1      40.599  21.035  26.756  1.00  0.00     0.374 C 
ATOM      4  O   UNL A   1      40.684  20.346  27.762  1.00  0.00    -0.242 OA
BRANCH   3   5
ATOM      5  C   UNL A   1      39.679  22.135  26.571  1.00  0.00     0.212 A 
ATOM      6  C   UNL A   1      37.873  23.102  25.720  1.00  0.00     0.162 A 
ATOM      7  C   UNL A   1      38.490  24.035  26.532  1.00  0.00     0.053 A 
ATOM      8  O   UNL A   1      38.653  21.984  25.670  1.00  0.00    -0.448 OA
ATOM      9  C   UNL A   1      39.599  23.392  27.134  1.00  0.00     0.059 A 
BRANCH   6  10
ATOM     10  C   UNL A   1      36.608  23.128  24.888  1.00  0.00     0.248 C 
ATOM     11  C   UNL A   1      36.798  22.784  23.402  1.00  0.00     0.084 C 
BRANCH  10  12
ATOM     12  N   UNL A   1      35.505  22.377  25.538  1.00  0.00    -0.324 N 
ATOM     13  C   UNL A   1      35.026  23.099  26.724  1.00  0.00     0.333 C 
ATOM     14  H   UNL A   1      35.942  21.486  25.769  1.00  0.00     0.348 HD
BRANCH  12  15
ATOM     15  C   UNL A   1      34.333  22.021  24.696  1.00  0.00     0.320 C 
BRANCH  15  16
ATOM     16  C   UNL A   1      33.872  20.590  24.803  1.00  0.00     0.106 A 
ATOM     17  C   UNL A   1      34.823  17.079  24.421  1.00  0.00     0.079 C 
ATOM     18  C   UNL A   1      34.174  18.390  24.688  1.00  0.00     0.090 A 
ATOM     19  N   UNL A   1      34.786  19.554  24.613  1.00  0.00    -0.241 NA
ATOM     20  S   UNL A   1      32.503  18.452  25.075  1.00  0.00    -0.127 S 
ATOM     21  C   UNL A   1      32.593  20.159  25.115  1.00  0.00     0.096 A 
ENDBRANCH  15  16
ENDBRANCH  12  15
ENDBRANCH  10  12
ENDBRANCH   6  10
ENDBRANCH   3   5
ENDBRANCH   2   3
ENDBRANCH   1   2
BRANCH   1  22
ATOM     22  C   UNL A   1      43.688  21.779  25.229  1.00  0.00     0.275 C 
BRANCH  22  23
ATOM     23  O   UNL A   1      43.087  23.087  25.231  1.00  0.00    -0.458 OA
BRANCH  23  24
ATOM     24  C   UNL A   1      43.962  24.116  25.206  1.00  0.00     0.338 C 
ATOM     25  O   UNL A   1      44.792  24.360  24.345  1.00  0.00    -0.246 OA
BRANCH  24  26
ATOM     26  C   UNL A   1      43.687  25.042  26.315  1.00  0.00     0.060 A 
ATOM     27  C   UNL A   1      42.994  24.524  27.404  1.00  0.00     0.016 A 
ATOM     28  C   UNL A   1      43.985  26.401  26.261  1.00  0.00     0.016 A 
ATOM     29  C   UNL A   1      42.557  25.345  28.431  1.00  0.00     0.010 A 
ATOM     30  C   UNL A   1      43.568  27.233  27.313  1.00  0.00     0.010 A 
ATOM     31  C   UNL A   1      42.834  26.712  28.395  1.00  0.00    -0.014 A 
BRANCH  31  32
ATOM     32  C   UNL A   1      42.292  27.573  29.475  1.00  0.00     0.031 A 
ATOM     33  C   UNL A   1      43.040  27.716  30.768  1.00  0.00     0.074 A 
ATOM     34  C   UNL A   1      41.166  28.281  29.263  1.00  0.00     0.049 A 
ATOM     35  N   UNL A   1      42.699  28.363  31.853  1.00  0.00    -0.248 NA
ATOM     36  C   UNL A   1      44.346  27.042  30.853  1.00  0.00     0.031 C 
ATOM     37  C   UNL A   1      40.395  28.294  28.017  1.00  0.00     0.029 A 
ATOM     38  N   UNL A   1      40.479  29.135  30.087  1.00  0.00    -0.354 N 
ATOM     39  C   UNL A   1      43.729  28.146  32.760  1.00  0.00     0.074 A 
ATOM     40  C   UNL A   1      44.696  27.293  32.105  1.00  0.00     0.031 C 
ATOM     41  C   UNL A   1      39.351  29.124  28.157  1.00  0.00     0.029 A 
ATOM     42  C   UNL A   1      39.337  29.644  29.520  1.00  0.00     0.049 A 
ATOM     43  H   UNL A   1      40.776  29.362  30.998  1.00  0.00     0.167 HD
ATOM     44  C   UNL A   1      43.852  28.614  34.026  1.00  0.00     0.031 A 
ATOM     45  C   UNL A   1      38.363  30.408  30.048  1.00  0.00     0.031 A 
ATOM     46  C   UNL A   1      42.882  29.461  34.669  1.00  0.00     0.049 A 
ATOM     47  C   UNL A   1      38.476  30.837  31.483  1.00  0.00     0.074 A 
ATOM     48  C   UNL A   1      42.909  29.989  35.948  1.00  0.00     0.029 A 
ATOM     49  N   UNL A   1      41.705  29.903  34.080  1.00  0.00    -0.354 N 
ATOM     50  N   UNL A   1      39.442  30.608  32.341  1.00  0.00    -0.248 NA
ATOM     51  C   UNL A   1      37.364  31.629  32.024  1.00  0.00     0.031 C 
ATOM     52  C   UNL A   1      41.719  30.695  36.155  1.00  0.00     0.029 A 
ATOM     53  C   UNL A   1      40.984  30.671  34.980  1.00  0.00     0.049 A 
ATOM     54  H   UNL A   1      41.424  29.700  33.158  1.00  0.00     0.167 HD
ATOM     55  C   UNL A   1      39.067  31.247  33.515  1.00  0.00     0.074 A 
ATOM     56  C   UNL A   1      37.795  31.889  33.251  1.00  0.00     0.031 C 
ATOM     57  C   UNL A   1      39.717  31.299  34.703  1.00  0.00     0.031 A 
BRANCH  44  58
ATOM     58  C   UNL A   1      45.054  28.169  34.814  1.00  0.00    -0.014 A 
ATOM     59  C   UNL A   1      46.248  28.907  34.823  1.00  0.00     0.009 A 
ATOM     60  C   UNL A   1      44.982  26.990  35.574  1.00  0.00     0.009 A 
ATOM     61  C   UNL A   1      47.357  28.451  35.541  1.00  0.00     0.001 A 
ATOM     62  C   UNL A   1      46.081  26.555  36.317  1.00  0.00     0.001 A 
ATOM     63  C   UNL A   1      47.271  27.278  36.289  1.00  0.00     0.000 A 
ENDBRANCH  44  58
BRANCH  45  64
ATOM     64  C   UNL A   1      37.177  30.772  29.228  1.00  0.00    -0.014 A 
ATOM     65  C   UNL A   1      36.180  29.828  28.944  1.00  0.00     0.009 A 
ATOM     66  C   UNL A   1      37.037  32.076  28.725  1.00  0.00     0.009 A 
ATOM     67  C   UNL A   1      35.080  30.176  28.156  1.00  0.00     0.001 A 
ATOM     68  C   UNL A   1      35.921  32.431  27.968  1.00  0.00     0.001 A 
ATOM     69  C   UNL A   1      34.948  31.478  27.675  1.00  0.00     0.000 A 
ENDBRANCH  45  64
BRANCH  57  70
ATOM     70  C   UNL A   1      39.082  32.115  35.796  1.00  0.00    -0.014 A 
ATOM     71  C   UNL A   1      39.321  33.493  35.916  1.00  0.00     0.009 A 
ATOM     72  C   UNL A   1      38.203  31.496  36.699  1.00  0.00     0.009 A 
ATOM     73  C   UNL A   1      38.720  34.226  36.942  1.00  0.00     0.001 A 
ATOM     74  C   UNL A   1      37.577  32.237  37.701  1.00  0.00     0.001 A 
ATOM     75  C   UNL A   1      37.844  33.600  37.828  1.00  0.00     0.000 A 
ENDBRANCH  57  70
ENDBRANCH  31  32
ENDBRANCH  24  26
ENDBRANCH  23  24
ENDBRANCH  22  23
ENDBRANCH   1  22
TORSDOF 15
ENDMDL
MODEL 2
REMARK VINA RESULT:     -10.0      4.700      6.880
REMARK SMILES Cc1nc(C[N@H+](C)[C@H](C)c2ccc(C(=O)OCCOC(=O)c3ccc(-c4c5nc(c(-c6ccccc6)c6ccc([nH]6)c(-c6ccccc6)c6nc(c(-c7ccccc7)c7ccc4[nH]7)C=C6)C=C5)cc3)o2)cs1
REMARK SMILES IDX 17 1 16 2 14 3 15 4 13 5 10 6 11 7 70 8 12 9 8 10 9 11 6 12
REMARK SMILES IDX 7 13 5 15 4 16 1 17 2 18 3 19 72 20 71 21 18 22 19 23 20 24
REMARK SMILES IDX 21 25 22 26 23 27 69 28 24 29 68 30 25 31 26 32 27 33 62 34
REMARK SMILES IDX 28 35 67 36 61 37 63 38 29 39 66 40 60 41 59 42 30 44 52 45
REMARK SMILES IDX 37 46 51 47 38 48 41 49 50 50 64 51 39 52 40 53 49 55 65 56
REMARK SMILES IDX 42 57 31 58 32 59 36 60 33 61 35 62 34 63 53 64 54 65 58 66
REMARK SMILES IDX 55 67 57 68 56 69 43 70 44 71 48 72 45 73 47 74 46 75
REMARK H PARENT 6 14 63 43 41 54
REMARK Flexibility Score: inf
ROOT
ATOM      1  C   UNL A   1      42.323  19.365  26.768  1.00  0.00     0.275 C 
ENDROOT
BRANCH   1   2
ATOM      2  O   UNL A   1      41.923  20.671  26.305  1.00  0.00    -0.456 OA
BRANCH   2   3
ATOM      3  C   UNL A   1      41.814  21.637  27.268  1.00  0.00     0.374 C 
ATOM      4  O   UNL A   1      42.645  21.835  28.142  1.00  0.00    -0.242 OA
BRANCH   3   5
ATOM      5  C   UNL A   1      40.607  22.407  27.071  1.00  0.00     0.212 A 
ATOM      6  C   UNL A   1      38.581  22.761  26.239  1.00  0.00     0.162 A 
ATOM      7  C   UNL A   1      38.908  23.869  26.999  1.00  0.00     0.053 A 
ATOM      8  O   UNL A   1      39.656  21.922  26.206  1.00  0.00    -0.448 OA
ATOM      9  C   UNL A   1      40.169  23.608  27.591  1.00  0.00     0.059 A 
BRANCH   6  10
ATOM     10  C   UNL A   1      37.351  22.377  25.444  1.00  0.00     0.248 C 
ATOM     11  C   UNL A   1      37.318  20.919  24.958  1.00  0.00     0.084 C 
BRANCH  10  12
ATOM     12  N   UNL A   1      36.102  22.810  26.118  1.00  0.00    -0.324 N 
ATOM     13  C   UNL A   1      35.494  23.934  25.394  1.00  0.00     0.333 C 
ATOM     14  H   UNL A   1      36.424  23.070  27.050  1.00  0.00     0.348 HD
BRANCH  12  15
ATOM     15  C   UNL A   1      35.058  21.777  26.349  1.00  0.00     0.320 C 
BRANCH  15  16
ATOM     16  C   UNL A   1      33.784  21.959  25.565  1.00  0.00     0.106 A 
ATOM     17  C   UNL A   1      32.094  21.363  22.376  1.00  0.00     0.079 C 
ATOM     18  C   UNL A   1      32.507  21.709  23.763  1.00  0.00     0.090 A 
ATOM     19  N   UNL A   1      33.663  21.383  24.301  1.00  0.00    -0.241 NA
ATOM     20  S   UNL A   1      31.460  22.639  24.756  1.00  0.00    -0.127 S 
ATOM     21  C   UNL A   1      32.649  22.635  25.984  1.00  0.00     0.096 A 
ENDBRANCH  15  16
ENDBRANCH  12  15
ENDBRANCH  10  12
ENDBRANCH   6  10
ENDBRANCH   3   5
ENDBRANCH   2   3
ENDBRANCH   1   2
BRANCH   1  22
ATOM     22  C   UNL A   1      43.113  18.563  25.725  1.00  0.00     0.275 C 
BRANCH  22  23
ATOM     23  O   UNL A   1      43.467  19.356  24.577  1.00  0.00    -0.458 OA
BRANCH  23  24
ATOM     24  C   UNL A   1      44.791  19.591  24.434  1.00  0.00     0.338 C 
ATOM     25  O   UNL A   1      45.638  18.815  24.025  1.00  0.00    -0.246 OA
BRANCH  24  26
ATOM     26  C   UNL A   1      45.084  21.008  24.697  1.00  0.00     0.060 A 
ATOM     27  C   UNL A   1      45.502  21.332  25.983  1.00  0.00     0.016 A 
ATOM     28  C   UNL A   1      44.854  22.017  23.765  1.00  0.00     0.016 A 
ATOM     29  C   UNL A   1      45.661  22.651  26.374  1.00  0.00     0.010 A 
ATOM     30  C   UNL A   1      45.041  23.355  24.149  1.00  0.00     0.010 A 
ATOM     31  C   UNL A   1      45.426  23.680  25.463  1.00  0.00    -0.014 A 
BRANCH  31  32
ATOM     32  C   UNL A   1      45.538  25.083  25.933  1.00  0.00     0.031 A 
ATOM     33  C   UNL A   1      46.860  25.791  25.872  1.00  0.00     0.074 A 
ATOM     34  C   UNL A   1      44.437  25.739  26.346  1.00  0.00     0.049 A 
ATOM     35  N   UNL A   1      47.176  26.988  26.296  1.00  0.00    -0.248 NA
ATOM     36  C   UNL A   1      47.974  25.058  25.250  1.00  0.00     0.031 C 
ATOM     37  C   UNL A   1      43.080  25.186  26.370  1.00  0.00     0.029 A 
ATOM     38  N   UNL A   1      44.283  27.018  26.816  1.00  0.00    -0.354 N 
ATOM     39  C   UNL A   1      48.531  27.137  26.026  1.00  0.00     0.074 A 
ATOM     40  C   UNL A   1      48.980  25.904  25.419  1.00  0.00     0.031 C 
ATOM     41  C   UNL A   1      42.233  26.124  26.818  1.00  0.00     0.029 A 
ATOM     42  C   UNL A   1      42.993  27.316  27.180  1.00  0.00     0.049 A 
ATOM     43  H   UNL A   1      45.026  27.661  26.885  1.00  0.00     0.167 HD
ATOM     44  C   UNL A   1      49.327  28.207  26.267  1.00  0.00     0.031 A 
ATOM     45  C   UNL A   1      42.483  28.408  27.779  1.00  0.00     0.031 A 
ATOM     46  C   UNL A   1      48.870  29.430  26.874  1.00  0.00     0.049 A 
ATOM     47  C   UNL A   1      43.404  29.544  28.122  1.00  0.00     0.074 A 
ATOM     48  C   UNL A   1      49.595  30.573  27.164  1.00  0.00     0.029 A 
ATOM     49  N   UNL A   1      47.567  29.668  27.287  1.00  0.00    -0.354 N 
ATOM     50  N   UNL A   1      44.688  29.667  27.884  1.00  0.00    -0.248 NA
ATOM     51  C   UNL A   1      42.806  30.691  28.817  1.00  0.00     0.031 C 
ATOM     52  C   UNL A   1      48.746  31.476  27.813  1.00  0.00     0.029 A 
ATOM     53  C   UNL A   1      47.474  30.927  27.858  1.00  0.00     0.049 A 
ATOM     54  H   UNL A   1      46.819  29.036  27.190  1.00  0.00     0.167 HD
ATOM     55  C   UNL A   1      45.048  30.914  28.377  1.00  0.00     0.074 A 
ATOM     56  C   UNL A   1      43.841  31.515  28.909  1.00  0.00     0.031 C 
ATOM     57  C   UNL A   1      46.266  31.509  28.388  1.00  0.00     0.031 A 
BRANCH  44  58
ATOM     58  C   UNL A   1      50.786  28.074  25.925  1.00  0.00    -0.014 A 
ATOM     59  C   UNL A   1      51.723  27.590  26.852  1.00  0.00     0.009 A 
ATOM     60  C   UNL A   1      51.229  28.430  24.640  1.00  0.00     0.009 A 
ATOM     61  C   UNL A   1      53.076  27.507  26.514  1.00  0.00     0.001 A 
ATOM     62  C   UNL A   1      52.576  28.314  24.294  1.00  0.00     0.001 A 
ATOM     63  C   UNL A   1      53.500  27.866  25.235  1.00  0.00     0.000 A 
ENDBRANCH  44  58
BRANCH  45  64
ATOM     64  C   UNL A   1      41.040  28.455  28.134  1.00  0.00    -0.014 A 
ATOM     65  C   UNL A   1      40.571  27.878  29.323  1.00  0.00     0.009 A 
ATOM     66  C   UNL A   1      40.120  29.084  27.279  1.00  0.00     0.009 A 
ATOM     67  C   UNL A   1      39.210  27.911  29.637  1.00  0.00     0.001 A 
ATOM     68  C   UNL A   1      38.766  29.145  27.611  1.00  0.00     0.001 A 
ATOM     69  C   UNL A   1      38.311  28.550  28.785  1.00  0.00     0.000 A 
ENDBRANCH  45  64
BRANCH  57  70
ATOM     70  C   UNL A   1      46.344  32.899  28.956  1.00  0.00    -0.014 A 
ATOM     71  C   UNL A   1      46.641  33.124  30.309  1.00  0.00     0.009 A 
ATOM     72  C   UNL A   1      46.152  34.004  28.110  1.00  0.00     0.009 A 
ATOM     73  C   UNL A   1      46.706  34.425  30.811  1.00  0.00     0.001 A 
ATOM     74  C   UNL A   1      46.252  35.303  28.606  1.00  0.00     0.001 A 
ATOM     75  C   UNL A   1      46.519  35.513  29.958  1.00  0.00     0.000 A 
ENDBRANCH  57  70
ENDBRANCH  31  32
ENDBRANCH  24  26
ENDBRANCH  23  24
ENDBRANCH  22  23
ENDBRANCH   1  22
TORSDOF 15
ENDMDL
MODEL 3
REMARK VINA RESULT:      -9.8      1.405      2.359
REMARK SMILES Cc1nc(C[N@H+](C)[C@H](C)c2ccc(C(=O)OCCOC(=O)c3ccc(-c4c5nc(c(-c6ccccc6)c6ccc([nH]6)c(-c6ccccc6)c6nc(c(-c7ccccc7)c7ccc4[nH]7)C=C6)C=C5)cc3)o2)cs1
REMARK SMILES IDX 17 1 16 2 14 3 15 4 13 5 10 6 11 7 70 8 12 9 8 10 9 11 6 12
REMARK SMILES IDX 7 13 5 15 4 16 1 17 2 18 3 19 72 20 71 21 18 22 19 23 20 24
REMARK SMILES IDX 21 25 22 26 23 27 69 28 24 29 68 30 25 31 26 32 27 33 62 34
REMARK SMILES IDX 28 35 67 36 61 37 63 38 29 39 66 40 60 41 59 42 30 44 52 45
REMARK SMILES IDX 37 46 51 47 38 48 41 49 50 50 64 51 39 52 40 53 49 55 65 56
REMARK SMILES IDX 42 57 31 58 32 59 36 60 33 61 35 62 34 63 53 64 54 65 58 66
REMARK SMILES IDX 55 67 57 68 56 69 43 70 44 71 48 72 45 73 47 74 46 75
REMARK H PARENT 6 14 63 43 41 54
REMARK Flexibility Score: inf
ROOT
ATOM      1  C   UNL A   1      42.970  21.235  26.064  1.00  0.00     0.275 C 
ENDROOT
BRANCH   1   2
ATOM      2  O   UNL A   1      41.610  20.954  25.676  1.00  0.00    -0.456 OA
BRANCH   2   3
ATOM      3  C   UNL A   1      40.699  20.904  26.696  1.00  0.00     0.374 C 
ATOM      4  O   UNL A   1      40.828  20.225  27.703  1.00  0.00    -0.242 OA
BRANCH   3   5
ATOM      5  C   UNL A   1      39.597  21.802  26.427  1.00  0.00     0.212 A 
ATOM      6  C   UNL A   1      37.547  22.290  25.735  1.00  0.00     0.162 A 
ATOM      7  C   UNL A   1      38.129  23.473  26.150  1.00  0.00     0.053 A 
ATOM      8  O   UNL A   1      38.477  21.296  25.813  1.00  0.00    -0.448 OA
ATOM      9  C   UNL A   1      39.410  23.148  26.662  1.00  0.00     0.059 A 
BRANCH   6  10
ATOM     10  C   UNL A   1      36.177  21.946  25.189  1.00  0.00     0.248 C 
ATOM     11  C   UNL A   1      35.118  21.608  26.251  1.00  0.00     0.084 C 
BRANCH  10  12
ATOM     12  N   UNL A   1      35.719  22.938  24.185  1.00  0.00    -0.324 N 
ATOM     13  C   UNL A   1      36.582  22.896  22.996  1.00  0.00     0.333 C 
ATOM     14  H   UNL A   1      35.787  23.821  24.689  1.00  0.00     0.348 HD
BRANCH  12  15
ATOM     15  C   UNL A   1      34.302  22.859  23.744  1.00  0.00     0.320 C 
BRANCH  15  16
ATOM     16  C   UNL A   1      33.470  24.086  24.018  1.00  0.00     0.106 A 
ATOM     17  C   UNL A   1      32.895  26.893  26.291  1.00  0.00     0.079 C 
ATOM     18  C   UNL A   1      32.917  25.890  25.192  1.00  0.00     0.090 A 
ATOM     19  N   UNL A   1      33.797  24.916  25.089  1.00  0.00    -0.241 NA
ATOM     20  S   UNL A   1      31.707  25.931  23.976  1.00  0.00    -0.127 S 
ATOM     21  C   UNL A   1      32.386  24.527  23.276  1.00  0.00     0.096 A 
ENDBRANCH  15  16
ENDBRANCH  12  15
ENDBRANCH  10  12
ENDBRANCH   6  10
ENDBRANCH   3   5
ENDBRANCH   2   3
ENDBRANCH   1   2
BRANCH   1  22
ATOM     22  C   UNL A   1      43.767  21.990  24.990  1.00  0.00     0.275 C 
BRANCH  22  23
ATOM     23  O   UNL A   1      43.279  23.328  24.785  1.00  0.00    -0.458 OA
BRANCH  23  24
ATOM     24  C   UNL A   1      44.086  24.307  25.254  1.00  0.00     0.338 C 
ATOM     25  O   UNL A   1      45.192  24.613  24.838  1.00  0.00    -0.246 OA
BRANCH  24  26
ATOM     26  C   UNL A   1      43.383  25.099  26.273  1.00  0.00     0.060 A 
ATOM     27  C   UNL A   1      43.633  26.467  26.283  1.00  0.00     0.016 A 
ATOM     28  C   UNL A   1      42.593  24.528  27.267  1.00  0.00     0.016 A 
ATOM     29  C   UNL A   1      43.138  27.278  27.292  1.00  0.00     0.010 A 
ATOM     30  C   UNL A   1      42.066  25.350  28.276  1.00  0.00     0.010 A 
ATOM     31  C   UNL A   1      42.353  26.728  28.305  1.00  0.00    -0.014 A 
BRANCH  31  32
ATOM     32  C   UNL A   1      41.898  27.611  29.407  1.00  0.00     0.031 A 
ATOM     33  C   UNL A   1      42.663  27.655  30.698  1.00  0.00     0.074 A 
ATOM     34  C   UNL A   1      40.840  28.423  29.219  1.00  0.00     0.049 A 
ATOM     35  N   UNL A   1      42.387  28.307  31.799  1.00  0.00    -0.248 NA
ATOM     36  C   UNL A   1      43.901  26.864  30.759  1.00  0.00     0.031 C 
ATOM     37  C   UNL A   1      40.068  28.535  27.978  1.00  0.00     0.029 A 
ATOM     38  N   UNL A   1      40.239  29.318  30.066  1.00  0.00    -0.354 N 
ATOM     39  C   UNL A   1      43.397  27.976  32.694  1.00  0.00     0.074 A 
ATOM     40  C   UNL A   1      44.279  27.053  32.014  1.00  0.00     0.031 C 
ATOM     41  C   UNL A   1      39.105  29.454  28.143  1.00  0.00     0.029 A 
ATOM     42  C   UNL A   1      39.146  29.942  29.518  1.00  0.00     0.049 A 
ATOM     43  H   UNL A   1      40.560  29.496  30.980  1.00  0.00     0.167 HD
ATOM     44  C   UNL A   1      43.569  28.403  33.969  1.00  0.00     0.031 A 
ATOM     45  C   UNL A   1      38.248  30.780  30.069  1.00  0.00     0.031 A 
ATOM     46  C   UNL A   1      42.683  29.320  34.637  1.00  0.00     0.049 A 
ATOM     47  C   UNL A   1      38.407  31.164  31.513  1.00  0.00     0.074 A 
ATOM     48  C   UNL A   1      42.765  29.814  35.927  1.00  0.00     0.029 A 
ATOM     49  N   UNL A   1      41.549  29.880  34.066  1.00  0.00    -0.354 N 
ATOM     50  N   UNL A   1      39.352  30.828  32.359  1.00  0.00    -0.248 NA
ATOM     51  C   UNL A   1      37.375  32.042  32.079  1.00  0.00     0.031 C 
ATOM     52  C   UNL A   1      41.646  30.621  36.158  1.00  0.00     0.029 A 
ATOM     53  C   UNL A   1      40.906  30.691  34.988  1.00  0.00     0.049 A 
ATOM     54  H   UNL A   1      41.246  29.725  33.142  1.00  0.00     0.167 HD
ATOM     55  C   UNL A   1      39.042  31.473  33.549  1.00  0.00     0.074 A 
ATOM     56  C   UNL A   1      37.834  32.234  33.308  1.00  0.00     0.031 C 
ATOM     57  C   UNL A   1      39.700  31.438  34.734  1.00  0.00     0.031 A 
BRANCH  44  58
ATOM     58  C   UNL A   1      44.729  27.832  34.739  1.00  0.00    -0.014 A 
ATOM     59  C   UNL A   1      44.613  26.644  35.480  1.00  0.00     0.009 A 
ATOM     60  C   UNL A   1      45.968  28.492  34.710  1.00  0.00     0.009 A 
ATOM     61  C   UNL A   1      45.700  26.156  36.209  1.00  0.00     0.001 A 
ATOM     62  C   UNL A   1      47.062  27.983  35.412  1.00  0.00     0.001 A 
ATOM     63  C   UNL A   1      46.924  26.824  36.172  1.00  0.00     0.000 A 
ENDBRANCH  44  58
BRANCH  45  64
ATOM     64  C   UNL A   1      37.097  31.269  29.266  1.00  0.00    -0.014 A 
ATOM     65  C   UNL A   1      37.069  32.582  28.772  1.00  0.00     0.009 A 
ATOM     66  C   UNL A   1      36.015  30.418  28.987  1.00  0.00     0.009 A 
ATOM     67  C   UNL A   1      35.972  33.037  28.036  1.00  0.00     0.001 A 
ATOM     68  C   UNL A   1      34.937  30.865  28.222  1.00  0.00     0.001 A 
ATOM     69  C   UNL A   1      34.912  32.177  27.755  1.00  0.00     0.000 A 
ENDBRANCH  45  64
BRANCH  57  70
ATOM     70  C   UNL A   1      39.148  32.284  35.848  1.00  0.00    -0.014 A 
ATOM     71  C   UNL A   1      39.523  33.627  36.006  1.00  0.00     0.009 A 
ATOM     72  C   UNL A   1      38.210  31.732  36.735  1.00  0.00     0.009 A 
ATOM     73  C   UNL A   1      38.997  34.389  37.051  1.00  0.00     0.001 A 
ATOM     74  C   UNL A   1      37.659  32.505  37.757  1.00  0.00     0.001 A 
ATOM     75  C   UNL A   1      38.061  33.830  37.921  1.00  0.00     0.000 A 
ENDBRANCH  57  70
ENDBRANCH  31  32
ENDBRANCH  24  26
ENDBRANCH  23  24
ENDBRANCH  22  23
ENDBRANCH   1  22
TORSDOF 15
ENDMDL
