MODEL 1
REMARK VINA RESULT:     -11.9      0.000      0.000
REMARK SMILES Cc1ccc(N2C(=O)/C(=C3\C(=O)N(CC(=O)OCCOC(=O)c4ccc(-c5c6nc(c(-c7ccccc7)c7ccc([nH]7)c(-c7ccccc7)c7nc(c(-c8ccccc8)c8ccc5[nH]8)C=C7)C=C6)cc4)c4ccccc43)SC2=S)c(C)c1
REMARK SMILES IDX 18 1 17 2 15 3 16 4 14 5 13 6 6 7 7 8 78 9 8 10 9 11 77 12
REMARK SMILES IDX 79 13 10 14 11 15 76 16 12 17 71 18 75 19 72 20 74 21 73 22
REMARK SMILES IDX 5 23 1 24 2 25 3 26 82 27 4 28 80 29 81 30 19 31 20 32 21 33
REMARK SMILES IDX 22 34 23 35 24 36 70 37 25 38 69 39 26 40 27 41 28 42 63 43
REMARK SMILES IDX 29 44 68 45 62 46 64 47 30 48 67 49 61 50 60 51 31 53 53 54
REMARK SMILES IDX 38 55 52 56 39 57 42 58 51 59 65 60 40 61 41 62 50 64 66 65
REMARK SMILES IDX 43 66 32 67 33 68 37 69 34 70 36 71 35 72 54 73 55 74 59 75
REMARK SMILES IDX 56 76 58 77 57 78 44 79 45 80 49 81 46 82 48 83 47 84
REMARK H PARENT 64 52 42 63
REMARK Flexibility Score: inf
ROOT
ATOM      1  C   UNL A   1      45.258  40.468  26.359  1.00  0.00     0.274 C 
ENDROOT
BRANCH   1   2
ATOM      2  O   UNL A   1      44.548  40.847  25.161  1.00  0.00    -0.461 OA
BRANCH   2   3
ATOM      3  C   UNL A   1      43.502  41.698  25.337  1.00  0.00     0.326 C 
ATOM      4  O   UNL A   1      42.425  41.380  25.839  1.00  0.00    -0.250 OA
BRANCH   3   5
ATOM      5  C   UNL A   1      43.779  43.136  24.906  1.00  0.00     0.248 C 
BRANCH   5   6
ATOM      6  N   UNL A   1      44.685  43.352  23.801  1.00  0.00    -0.296 N 
ATOM      7  N   UNL A   1      44.729  45.149  18.592  1.00  0.00    -0.261 N 
ATOM      8  C   UNL A   1      44.331  44.202  19.542  1.00  0.00     0.271 C 
ATOM      9  C   UNL A   1      46.090  45.248  18.353  1.00  0.00     0.152 C 
ATOM     10  O   UNL A   1      43.195  43.791  19.703  1.00  0.00    -0.268 OA
ATOM     11  C   UNL A   1      45.532  43.788  20.344  1.00  0.00     0.094 C 
ATOM     12  S   UNL A   1      46.931  44.106  19.381  1.00  0.00    -0.053 SA
ATOM     13  S   UNL A   1      46.960  46.305  17.392  1.00  0.00    -0.051 S 
ATOM     14  C   UNL A   1      45.527  43.514  21.660  1.00  0.00     0.069 C 
ATOM     15  C   UNL A   1      44.307  43.168  22.478  1.00  0.00     0.260 C 
ATOM     16  C   UNL A   1      46.624  43.748  22.632  1.00  0.00     0.012 A 
ATOM     17  O   UNL A   1      43.230  42.755  22.096  1.00  0.00    -0.269 OA
ATOM     18  C   UNL A   1      46.031  43.722  23.903  1.00  0.00     0.053 A 
ATOM     19  C   UNL A   1      47.968  44.085  22.515  1.00  0.00     0.011 A 
ATOM     20  C   UNL A   1      46.732  44.073  25.045  1.00  0.00     0.027 A 
ATOM     21  C   UNL A   1      48.689  44.430  23.663  1.00  0.00     0.001 A 
ATOM     22  C   UNL A   1      48.073  44.434  24.917  1.00  0.00     0.002 A 
BRANCH   7  23
ATOM     23  C   UNL A   1      43.763  45.984  17.955  1.00  0.00     0.054 A 
ATOM     24  C   UNL A   1      41.080  48.490  15.671  1.00  0.00     0.044 C 
ATOM     25  C   UNL A   1      41.980  47.604  16.479  1.00  0.00    -0.051 A 
ATOM     26  C   UNL A   1      42.074  46.240  16.212  1.00  0.00     0.005 A 
ATOM     27  C   UNL A   1      42.755  48.148  17.510  1.00  0.00     0.009 A 
ATOM     28  C   UNL A   1      42.949  45.439  16.947  1.00  0.00     0.027 A 
ATOM     29  C   UNL A   1      43.661  47.361  18.248  1.00  0.00    -0.027 A 
ATOM     30  C   UNL A   1      44.487  48.073  19.287  1.00  0.00     0.046 C 
ENDBRANCH   7  23
ENDBRANCH   5   6
ENDBRANCH   3   5
ENDBRANCH   2   3
ENDBRANCH   1   2
BRANCH   1  31
ATOM     31  C   UNL A   1      45.787  39.039  26.256  1.00  0.00     0.275 C 
BRANCH  31  32
ATOM     32  O   UNL A   1      44.947  38.154  27.018  1.00  0.00    -0.458 OA
BRANCH  32  33
ATOM     33  C   UNL A   1      45.520  37.621  28.117  1.00  0.00     0.338 C 
ATOM     34  O   UNL A   1      46.268  38.162  28.912  1.00  0.00    -0.246 OA
BRANCH  33  35
ATOM     35  C   UNL A   1      45.133  36.209  28.232  1.00  0.00     0.060 A 
ATOM     36  C   UNL A   1      44.396  35.641  27.195  1.00  0.00     0.016 A 
ATOM     37  C   UNL A   1      45.575  35.429  29.303  1.00  0.00     0.016 A 
ATOM     38  C   UNL A   1      44.060  34.291  27.258  1.00  0.00     0.010 A 
ATOM     39  C   UNL A   1      45.307  34.060  29.323  1.00  0.00     0.010 A 
ATOM     40  C   UNL A   1      44.515  33.488  28.318  1.00  0.00    -0.014 A 
BRANCH  40  41
ATOM     41  C   UNL A   1      44.121  32.058  28.378  1.00  0.00     0.031 A 
ATOM     42  C   UNL A   1      42.866  31.650  29.098  1.00  0.00     0.074 A 
ATOM     43  C   UNL A   1      44.865  31.136  27.739  1.00  0.00     0.049 A 
ATOM     44  N   UNL A   1      42.277  30.482  29.117  1.00  0.00    -0.248 NA
ATOM     45  C   UNL A   1      42.186  32.678  29.903  1.00  0.00     0.031 C 
ATOM     46  C   UNL A   1      46.122  31.405  27.038  1.00  0.00     0.029 A 
ATOM     47  N   UNL A   1      44.657  29.792  27.549  1.00  0.00    -0.354 N 
ATOM     48  C   UNL A   1      41.153  30.640  29.919  1.00  0.00     0.074 A 
ATOM     49  C   UNL A   1      41.175  31.995  30.421  1.00  0.00     0.031 C 
ATOM     50  C   UNL A   1      46.542  30.276  26.447  1.00  0.00     0.029 A 
ATOM     51  C   UNL A   1      45.601  29.199  26.746  1.00  0.00     0.049 A 
ATOM     52  H   UNL A   1      43.905  29.301  27.951  1.00  0.00     0.167 HD
ATOM     53  C   UNL A   1      40.173  29.747  30.184  1.00  0.00     0.031 A 
ATOM     54  C   UNL A   1      45.689  27.938  26.280  1.00  0.00     0.031 A 
ATOM     55  C   UNL A   1      40.154  28.399  29.685  1.00  0.00     0.049 A 
ATOM     56  C   UNL A   1      44.602  26.954  26.613  1.00  0.00     0.074 A 
ATOM     57  C   UNL A   1      39.180  27.434  29.864  1.00  0.00     0.029 A 
ATOM     58  N   UNL A   1      41.153  27.827  28.914  1.00  0.00    -0.354 N 
ATOM     59  N   UNL A   1      43.502  27.143  27.302  1.00  0.00    -0.248 NA
ATOM     60  C   UNL A   1      44.756  25.588  26.091  1.00  0.00     0.031 C 
ATOM     61  C   UNL A   1      39.619  26.256  29.255  1.00  0.00     0.029 A 
ATOM     62  C   UNL A   1      40.834  26.510  28.638  1.00  0.00     0.049 A 
ATOM     63  H   UNL A   1      41.967  28.289  28.610  1.00  0.00     0.167 HD
ATOM     64  C   UNL A   1      42.825  25.931  27.279  1.00  0.00     0.074 A 
ATOM     65  C   UNL A   1      43.629  25.015  26.496  1.00  0.00     0.031 C 
ATOM     66  C   UNL A   1      41.643  25.608  27.859  1.00  0.00     0.031 A 
BRANCH  53  67
ATOM     67  C   UNL A   1      39.026  30.197  31.044  1.00  0.00    -0.014 A 
ATOM     68  C   UNL A   1      37.916  30.827  30.462  1.00  0.00     0.009 A 
ATOM     69  C   UNL A   1      39.084  30.078  32.442  1.00  0.00     0.009 A 
ATOM     70  C   UNL A   1      36.892  31.340  31.260  1.00  0.00     0.001 A 
ATOM     71  C   UNL A   1      38.044  30.566  33.237  1.00  0.00     0.001 A 
ATOM     72  C   UNL A   1      36.956  31.205  32.647  1.00  0.00     0.000 A 
ENDBRANCH  53  67
BRANCH  54  73
ATOM     73  C   UNL A   1      46.828  27.561  25.402  1.00  0.00    -0.014 A 
ATOM     74  C   UNL A   1      47.996  27.002  25.947  1.00  0.00     0.009 A 
ATOM     75  C   UNL A   1      46.775  27.804  24.022  1.00  0.00     0.009 A 
ATOM     76  C   UNL A   1      49.093  26.715  25.133  1.00  0.00     0.001 A 
ATOM     77  C   UNL A   1      47.864  27.490  23.204  1.00  0.00     0.001 A 
ATOM     78  C   UNL A   1      49.026  26.956  23.762  1.00  0.00     0.000 A 
ENDBRANCH  54  73
BRANCH  66  79
ATOM     79  C   UNL A   1      41.123  24.210  27.674  1.00  0.00    -0.014 A 
ATOM     80  C   UNL A   1      41.721  23.146  28.371  1.00  0.00     0.009 A 
ATOM     81  C   UNL A   1      40.134  23.928  26.721  1.00  0.00     0.009 A 
ATOM     82  C   UNL A   1      41.355  21.828  28.100  1.00  0.00     0.001 A 
ATOM     83  C   UNL A   1      39.749  22.609  26.473  1.00  0.00     0.001 A 
ATOM     84  C   UNL A   1      40.368  21.560  27.154  1.00  0.00     0.000 A 
ENDBRANCH  66  79
ENDBRANCH  40  41
ENDBRANCH  33  35
ENDBRANCH  32  33
ENDBRANCH  31  32
ENDBRANCH   1  31
TORSDOF 13
ENDMDL
MODEL 2
REMARK VINA RESULT:     -11.7     10.460     14.561
REMARK SMILES Cc1ccc(N2C(=O)/C(=C3\C(=O)N(CC(=O)OCCOC(=O)c4ccc(-c5c6nc(c(-c7ccccc7)c7ccc([nH]7)c(-c7ccccc7)c7nc(c(-c8ccccc8)c8ccc5[nH]8)C=C7)C=C6)cc4)c4ccccc43)SC2=S)c(C)c1
REMARK SMILES IDX 18 1 17 2 15 3 16 4 14 5 13 6 6 7 7 8 78 9 8 10 9 11 77 12
REMARK SMILES IDX 79 13 10 14 11 15 76 16 12 17 71 18 75 19 72 20 74 21 73 22
REMARK SMILES IDX 5 23 1 24 2 25 3 26 82 27 4 28 80 29 81 30 19 31 20 32 21 33
REMARK SMILES IDX 22 34 23 35 24 36 70 37 25 38 69 39 26 40 27 41 28 42 63 43
REMARK SMILES IDX 29 44 68 45 62 46 64 47 30 48 67 49 61 50 60 51 31 53 53 54
REMARK SMILES IDX 38 55 52 56 39 57 42 58 51 59 65 60 40 61 41 62 50 64 66 65
REMARK SMILES IDX 43 66 32 67 33 68 37 69 34 70 36 71 35 72 54 73 55 74 59 75
REMARK SMILES IDX 56 76 58 77 57 78 44 79 45 80 49 81 46 82 48 83 47 84
REMARK H PARENT 64 52 42 63
REMARK Flexibility Score: inf
ROOT
ATOM      1  C   UNL A   1      35.034  33.135  31.677  1.00  0.00     0.274 C 
ENDROOT
BRANCH   1   2
ATOM      2  O   UNL A   1      35.574  32.008  32.398  1.00  0.00    -0.461 OA
BRANCH   2   3
ATOM      3  C   UNL A   1      36.600  32.286  33.247  1.00  0.00     0.326 C 
ATOM      4  O   UNL A   1      36.457  32.674  34.405  1.00  0.00    -0.250 OA
BRANCH   3   5
ATOM      5  C   UNL A   1      37.987  32.026  32.666  1.00  0.00     0.248 C 
BRANCH   5   6
ATOM      6  N   UNL A   1      39.100  31.922  33.583  1.00  0.00    -0.296 N 
ATOM      7  N   UNL A   1      42.930  28.339  35.273  1.00  0.00    -0.261 N 
ATOM      8  C   UNL A   1      41.587  28.723  35.184  1.00  0.00     0.271 C 
ATOM      9  C   UNL A   1      43.759  29.162  36.018  1.00  0.00     0.152 C 
ATOM     10  O   UNL A   1      40.670  28.017  34.804  1.00  0.00    -0.268 OA
ATOM     11  C   UNL A   1      41.465  30.155  35.619  1.00  0.00     0.094 C 
ATOM     12  S   UNL A   1      42.819  30.505  36.635  1.00  0.00    -0.053 SA
ATOM     13  S   UNL A   1      45.411  29.111  36.274  1.00  0.00    -0.051 S 
ATOM     14  C   UNL A   1      40.635  31.061  35.074  1.00  0.00     0.069 C 
ATOM     15  C   UNL A   1      39.413  30.743  34.246  1.00  0.00     0.260 C 
ATOM     16  C   UNL A   1      40.864  32.521  34.929  1.00  0.00     0.012 A 
ATOM     17  O   UNL A   1      38.780  29.708  34.195  1.00  0.00    -0.269 OA
ATOM     18  C   UNL A   1      39.961  32.962  33.950  1.00  0.00     0.053 A 
ATOM     19  C   UNL A   1      41.804  33.409  35.438  1.00  0.00     0.011 A 
ATOM     20  C   UNL A   1      40.010  34.247  33.436  1.00  0.00     0.027 A 
ATOM     21  C   UNL A   1      41.855  34.714  34.935  1.00  0.00     0.001 A 
ATOM     22  C   UNL A   1      40.971  35.126  33.934  1.00  0.00     0.002 A 
BRANCH   7  23
ATOM     23  C   UNL A   1      43.397  27.180  34.584  1.00  0.00     0.054 A 
ATOM     24  C   UNL A   1      44.453  23.688  32.264  1.00  0.00     0.044 C 
ATOM     25  C   UNL A   1      44.123  24.909  33.067  1.00  0.00    -0.051 A 
ATOM     26  C   UNL A   1      44.157  26.178  32.493  1.00  0.00     0.005 A 
ATOM     27  C   UNL A   1      43.759  24.784  34.413  1.00  0.00     0.009 A 
ATOM     28  C   UNL A   1      43.806  27.300  33.246  1.00  0.00     0.027 A 
ATOM     29  C   UNL A   1      43.379  25.901  35.183  1.00  0.00    -0.027 A 
ATOM     30  C   UNL A   1      42.944  25.631  36.599  1.00  0.00     0.046 C 
ENDBRANCH   7  23
ENDBRANCH   5   6
ENDBRANCH   3   5
ENDBRANCH   2   3
ENDBRANCH   1   2
BRANCH   1  31
ATOM     31  C   UNL A   1      35.098  32.905  30.169  1.00  0.00     0.275 C 
BRANCH  31  32
ATOM     32  O   UNL A   1      34.652  31.572  29.861  1.00  0.00    -0.458 OA
BRANCH  32  33
ATOM     33  C   UNL A   1      35.140  31.053  28.715  1.00  0.00     0.338 C 
ATOM     34  O   UNL A   1      34.606  31.011  27.620  1.00  0.00    -0.246 OA
BRANCH  33  35
ATOM     35  C   UNL A   1      36.467  30.479  28.968  1.00  0.00     0.060 A 
ATOM     36  C   UNL A   1      37.516  30.848  28.130  1.00  0.00     0.016 A 
ATOM     37  C   UNL A   1      36.696  29.662  30.078  1.00  0.00     0.016 A 
ATOM     38  C   UNL A   1      38.795  30.354  28.380  1.00  0.00     0.010 A 
ATOM     39  C   UNL A   1      37.990  29.235  30.372  1.00  0.00     0.010 A 
ATOM     40  C   UNL A   1      39.045  29.549  29.504  1.00  0.00    -0.014 A 
BRANCH  40  41
ATOM     41  C   UNL A   1      40.409  29.013  29.734  1.00  0.00     0.031 A 
ATOM     42  C   UNL A   1      40.780  27.647  29.227  1.00  0.00     0.074 A 
ATOM     43  C   UNL A   1      41.328  29.777  30.354  1.00  0.00     0.049 A 
ATOM     44  N   UNL A   1      41.959  27.081  29.188  1.00  0.00    -0.248 NA
ATOM     45  C   UNL A   1      39.693  26.805  28.701  1.00  0.00     0.031 C 
ATOM     46  C   UNL A   1      41.078  31.103  30.922  1.00  0.00     0.029 A 
ATOM     47  N   UNL A   1      42.665  29.563  30.582  1.00  0.00    -0.354 N 
ATOM     48  C   UNL A   1      41.757  25.829  28.620  1.00  0.00     0.074 A 
ATOM     49  C   UNL A   1      40.337  25.690  28.390  1.00  0.00     0.031 C 
ATOM     50  C   UNL A   1      42.234  31.607  31.381  1.00  0.00     0.029 A 
ATOM     51  C   UNL A   1      43.302  30.633  31.162  1.00  0.00     0.049 A 
ATOM     52  H   UNL A   1      43.123  28.722  30.352  1.00  0.00     0.167 HD
ATOM     53  C   UNL A   1      42.675  24.894  28.288  1.00  0.00     0.031 A 
ATOM     54  C   UNL A   1      44.601  30.823  31.463  1.00  0.00     0.031 A 
ATOM     55  C   UNL A   1      44.088  25.034  28.518  1.00  0.00     0.049 A 
ATOM     56  C   UNL A   1      45.601  29.757  31.111  1.00  0.00     0.074 A 
ATOM     57  C   UNL A   1      45.102  24.159  28.176  1.00  0.00     0.029 A 
ATOM     58  N   UNL A   1      44.682  26.114  29.152  1.00  0.00    -0.354 N 
ATOM     59  N   UNL A   1      45.405  28.615  30.497  1.00  0.00    -0.248 NA
ATOM     60  C   UNL A   1      47.003  30.010  31.476  1.00  0.00     0.031 C 
ATOM     61  C   UNL A   1      46.305  24.679  28.658  1.00  0.00     0.029 A 
ATOM     62  C   UNL A   1      46.047  25.911  29.239  1.00  0.00     0.049 A 
ATOM     63  H   UNL A   1      44.204  26.905  29.488  1.00  0.00     0.167 HD
ATOM     64  C   UNL A   1      46.657  28.024  30.383  1.00  0.00     0.074 A 
ATOM     65  C   UNL A   1      47.609  28.939  30.977  1.00  0.00     0.031 C 
ATOM     66  C   UNL A   1      46.984  26.828  29.835  1.00  0.00     0.031 A 
BRANCH  53  67
ATOM     67  C   UNL A   1      42.191  23.636  27.624  1.00  0.00    -0.014 A 
ATOM     68  C   UNL A   1      41.744  22.558  28.402  1.00  0.00     0.009 A 
ATOM     69  C   UNL A   1      42.262  23.485  26.229  1.00  0.00     0.009 A 
ATOM     70  C   UNL A   1      41.389  21.349  27.801  1.00  0.00     0.001 A 
ATOM     71  C   UNL A   1      41.879  22.284  25.628  1.00  0.00     0.001 A 
ATOM     72  C   UNL A   1      41.452  21.215  26.414  1.00  0.00     0.000 A 
ENDBRANCH  53  67
BRANCH  54  73
ATOM     73  C   UNL A   1      45.026  32.104  32.086  1.00  0.00    -0.014 A 
ATOM     74  C   UNL A   1      44.966  32.277  33.478  1.00  0.00     0.009 A 
ATOM     75  C   UNL A   1      45.448  33.179  31.288  1.00  0.00     0.009 A 
ATOM     76  C   UNL A   1      45.297  33.504  34.057  1.00  0.00     0.001 A 
ATOM     77  C   UNL A   1      45.806  34.398  31.872  1.00  0.00     0.001 A 
ATOM     78  C   UNL A   1      45.720  34.562  33.255  1.00  0.00     0.000 A 
ENDBRANCH  54  73
BRANCH  66  79
ATOM     79  C   UNL A   1      48.432  26.422  29.836  1.00  0.00    -0.014 A 
ATOM     80  C   UNL A   1      48.960  25.729  30.938  1.00  0.00     0.009 A 
ATOM     81  C   UNL A   1      49.298  26.835  28.813  1.00  0.00     0.009 A 
ATOM     82  C   UNL A   1      50.329  25.477  31.026  1.00  0.00     0.001 A 
ATOM     83  C   UNL A   1      50.663  26.555  28.889  1.00  0.00     0.001 A 
ATOM     84  C   UNL A   1      51.180  25.888  30.001  1.00  0.00     0.000 A 
ENDBRANCH  66  79
ENDBRANCH  40  41
ENDBRANCH  33  35
ENDBRANCH  32  33
ENDBRANCH  31  32
ENDBRANCH   1  31
TORSDOF 13
ENDMDL
MODEL 3
REMARK VINA RESULT:     -11.6      9.222     15.257
REMARK SMILES Cc1ccc(N2C(=O)/C(=C3\C(=O)N(CC(=O)OCCOC(=O)c4ccc(-c5c6nc(c(-c7ccccc7)c7ccc([nH]7)c(-c7ccccc7)c7nc(c(-c8ccccc8)c8ccc5[nH]8)C=C7)C=C6)cc4)c4ccccc43)SC2=S)c(C)c1
REMARK SMILES IDX 18 1 17 2 15 3 16 4 14 5 13 6 6 7 7 8 78 9 8 10 9 11 77 12
REMARK SMILES IDX 79 13 10 14 11 15 76 16 12 17 71 18 75 19 72 20 74 21 73 22
REMARK SMILES IDX 5 23 1 24 2 25 3 26 82 27 4 28 80 29 81 30 19 31 20 32 21 33
REMARK SMILES IDX 22 34 23 35 24 36 70 37 25 38 69 39 26 40 27 41 28 42 63 43
REMARK SMILES IDX 29 44 68 45 62 46 64 47 30 48 67 49 61 50 60 51 31 53 53 54
REMARK SMILES IDX 38 55 52 56 39 57 42 58 51 59 65 60 40 61 41 62 50 64 66 65
REMARK SMILES IDX 43 66 32 67 33 68 37 69 34 70 36 71 35 72 54 73 55 74 59 75
REMARK SMILES IDX 56 76 58 77 57 78 44 79 45 80 49 81 46 82 48 83 47 84
REMARK H PARENT 64 52 42 63
REMARK Flexibility Score: inf
ROOT
ATOM      1  C   UNL A   1      33.496  33.191  27.729  1.00  0.00     0.274 C 
ENDROOT
BRANCH   1   2
ATOM      2  O   UNL A   1      32.664  32.011  27.718  1.00  0.00    -0.461 OA
BRANCH   2   3
ATOM      3  C   UNL A   1      33.292  30.849  27.395  1.00  0.00     0.326 C 
ATOM      4  O   UNL A   1      34.513  30.707  27.356  1.00  0.00    -0.250 OA
BRANCH   3   5
ATOM      5  C   UNL A   1      32.351  29.677  27.126  1.00  0.00     0.248 C 
BRANCH   5   6
ATOM      6  N   UNL A   1      32.444  29.010  25.848  1.00  0.00    -0.296 N 
ATOM      7  N   UNL A   1      33.523  24.065  23.669  1.00  0.00    -0.261 N 
ATOM      8  C   UNL A   1      33.950  25.196  24.373  1.00  0.00     0.271 C 
ATOM      9  C   UNL A   1      33.148  24.265  22.350  1.00  0.00     0.152 C 
ATOM     10  O   UNL A   1      34.550  25.190  25.433  1.00  0.00    -0.268 OA
ATOM     11  C   UNL A   1      33.531  26.423  23.614  1.00  0.00     0.094 C 
ATOM     12  S   UNL A   1      33.322  25.963  21.962  1.00  0.00    -0.053 SA
ATOM     13  S   UNL A   1      32.494  23.213  21.226  1.00  0.00    -0.051 S 
ATOM     14  C   UNL A   1      33.109  27.572  24.172  1.00  0.00     0.069 C 
ATOM     15  C   UNL A   1      33.359  27.996  25.599  1.00  0.00     0.260 C 
ATOM     16  C   UNL A   1      32.109  28.523  23.626  1.00  0.00     0.012 A 
ATOM     17  O   UNL A   1      34.209  27.599  26.370  1.00  0.00    -0.269 OA
ATOM     18  C   UNL A   1      31.685  29.307  24.710  1.00  0.00     0.053 A 
ATOM     19  C   UNL A   1      31.484  28.672  22.393  1.00  0.00     0.011 A 
ATOM     20  C   UNL A   1      30.626  30.192  24.602  1.00  0.00     0.027 A 
ATOM     21  C   UNL A   1      30.420  29.573  22.269  1.00  0.00     0.001 A 
ATOM     22  C   UNL A   1      29.988  30.319  23.368  1.00  0.00     0.002 A 
BRANCH   7  23
ATOM     23  C   UNL A   1      33.447  22.797  24.318  1.00  0.00     0.054 A 
ATOM     24  C   UNL A   1      33.213  18.776  25.892  1.00  0.00     0.044 C 
ATOM     25  C   UNL A   1      33.318  20.179  25.374  1.00  0.00    -0.051 A 
ATOM     26  C   UNL A   1      34.492  20.640  24.781  1.00  0.00     0.005 A 
ATOM     27  C   UNL A   1      32.222  21.044  25.468  1.00  0.00     0.009 A 
ATOM     28  C   UNL A   1      34.557  21.936  24.267  1.00  0.00     0.027 A 
ATOM     29  C   UNL A   1      32.259  22.347  24.935  1.00  0.00    -0.027 A 
ATOM     30  C   UNL A   1      30.995  23.159  25.039  1.00  0.00     0.046 C 
ENDBRANCH   7  23
ENDBRANCH   5   6
ENDBRANCH   3   5
ENDBRANCH   2   3
ENDBRANCH   1   2
BRANCH   1  31
ATOM     31  C   UNL A   1      33.600  33.778  29.135  1.00  0.00     0.275 C 
BRANCH  31  32
ATOM     32  O   UNL A   1      34.936  33.598  29.638  1.00  0.00    -0.458 OA
BRANCH  32  33
ATOM     33  C   UNL A   1      35.082  32.603  30.539  1.00  0.00     0.338 C 
ATOM     34  O   UNL A   1      34.342  32.310  31.462  1.00  0.00    -0.246 OA
BRANCH  33  35
ATOM     35  C   UNL A   1      36.337  31.889  30.275  1.00  0.00     0.060 A 
ATOM     36  C   UNL A   1      37.089  32.264  29.165  1.00  0.00     0.016 A 
ATOM     37  C   UNL A   1      36.816  30.927  31.168  1.00  0.00     0.016 A 
ATOM     38  C   UNL A   1      38.307  31.634  28.922  1.00  0.00     0.010 A 
ATOM     39  C   UNL A   1      38.073  30.357  30.967  1.00  0.00     0.010 A 
ATOM     40  C   UNL A   1      38.813  30.680  29.822  1.00  0.00    -0.014 A 
BRANCH  40  41
ATOM     41  C   UNL A   1      40.100  30.003  29.527  1.00  0.00     0.031 A 
ATOM     42  C   UNL A   1      40.110  28.593  29.007  1.00  0.00     0.074 A 
ATOM     43  C   UNL A   1      41.255  30.677  29.678  1.00  0.00     0.049 A 
ATOM     44  N   UNL A   1      41.118  27.900  28.541  1.00  0.00    -0.248 NA
ATOM     45  C   UNL A   1      38.832  27.863  29.012  1.00  0.00     0.031 C 
ATOM     46  C   UNL A   1      41.376  32.036  30.209  1.00  0.00     0.029 A 
ATOM     47  N   UNL A   1      42.546  30.323  29.371  1.00  0.00    -0.354 N 
ATOM     48  C   UNL A   1      40.592  26.664  28.185  1.00  0.00     0.074 A 
ATOM     49  C   UNL A   1      39.193  26.676  28.548  1.00  0.00     0.031 C 
ATOM     50  C   UNL A   1      42.659  32.421  30.137  1.00  0.00     0.029 A 
ATOM     51  C   UNL A   1      43.456  31.331  29.578  1.00  0.00     0.049 A 
ATOM     52  H   UNL A   1      42.795  29.431  29.035  1.00  0.00     0.167 HD
ATOM     53  C   UNL A   1      41.211  25.625  27.579  1.00  0.00     0.031 A 
ATOM     54  C   UNL A   1      44.778  31.384  29.326  1.00  0.00     0.031 A 
ATOM     55  C   UNL A   1      42.603  25.615  27.221  1.00  0.00     0.049 A 
ATOM     56  C   UNL A   1      45.452  30.206  28.678  1.00  0.00     0.074 A 
ATOM     57  C   UNL A   1      43.311  24.625  26.564  1.00  0.00     0.029 A 
ATOM     58  N   UNL A   1      43.497  26.639  27.493  1.00  0.00    -0.354 N 
ATOM     59  N   UNL A   1      44.923  29.078  28.270  1.00  0.00    -0.248 NA
ATOM     60  C   UNL A   1      46.899  30.313  28.439  1.00  0.00     0.031 C 
ATOM     61  C   UNL A   1      44.648  25.022  26.494  1.00  0.00     0.029 A 
ATOM     62  C   UNL A   1      44.758  26.289  27.045  1.00  0.00     0.049 A 
ATOM     63  H   UNL A   1      43.269  27.486  27.938  1.00  0.00     0.167 HD
ATOM     64  C   UNL A   1      45.965  28.350  27.709  1.00  0.00     0.074 A 
ATOM     65  C   UNL A   1      47.154  29.170  27.814  1.00  0.00     0.031 C 
ATOM     66  C   UNL A   1      45.935  27.112  27.158  1.00  0.00     0.031 A 
BRANCH  53  67
ATOM     67  C   UNL A   1      40.389  24.412  27.248  1.00  0.00    -0.014 A 
ATOM     68  C   UNL A   1      40.837  23.136  27.621  1.00  0.00     0.009 A 
ATOM     69  C   UNL A   1      39.214  24.524  26.486  1.00  0.00     0.009 A 
ATOM     70  C   UNL A   1      40.134  21.996  27.229  1.00  0.00     0.001 A 
ATOM     71  C   UNL A   1      38.497  23.383  26.121  1.00  0.00     0.001 A 
ATOM     72  C   UNL A   1      38.962  22.121  26.484  1.00  0.00     0.000 A 
ENDBRANCH  53  67
BRANCH  54  73
ATOM     73  C   UNL A   1      45.532  32.627  29.641  1.00  0.00    -0.014 A 
ATOM     74  C   UNL A   1      46.276  32.729  30.828  1.00  0.00     0.009 A 
ATOM     75  C   UNL A   1      45.472  33.735  28.782  1.00  0.00     0.009 A 
ATOM     76  C   UNL A   1      46.925  33.920  31.159  1.00  0.00     0.001 A 
ATOM     77  C   UNL A   1      46.146  34.917  29.102  1.00  0.00     0.001 A 
ATOM     78  C   UNL A   1      46.863  35.012  30.295  1.00  0.00     0.000 A 
ENDBRANCH  54  73
BRANCH  66  79
ATOM     79  C   UNL A   1      47.217  26.550  26.612  1.00  0.00    -0.014 A 
ATOM     80  C   UNL A   1      48.105  25.878  27.469  1.00  0.00     0.009 A 
ATOM     81  C   UNL A   1      47.606  26.795  25.287  1.00  0.00     0.009 A 
ATOM     82  C   UNL A   1      49.364  25.483  27.017  1.00  0.00     0.001 A 
ATOM     83  C   UNL A   1      48.855  26.372  24.829  1.00  0.00     0.001 A 
ATOM     84  C   UNL A   1      49.738  25.728  25.697  1.00  0.00     0.000 A 
ENDBRANCH  66  79
ENDBRANCH  40  41
ENDBRANCH  33  35
ENDBRANCH  32  33
ENDBRANCH  31  32
ENDBRANCH   1  31
TORSDOF 13
ENDMDL
