MODEL 1
REMARK VINA RESULT:     -11.6      0.000      0.000
REMARK SMILES O=C(OCCOC(=O)c1ccc(-c2c3nc(c(-c4ccccc4)c4ccc([nH]4)c(-c4ccccc4)c4nc(c(-c5ccccc5)c5ccc2[nH]5)C=C4)C=C3)cc1)C1=Cc2cc(S(F)(F)(F)(F)F)ccc2O[C@@H]1C(F)(F)F
REMARK SMILES IDX 5 1 4 2 3 3 2 4 1 5 57 6 58 7 72 8 59 9 71 10 60 11 70 12
REMARK SMILES IDX 61 13 69 14 68 15 73 16 74 17 75 18 76 19 62 20 63 21 64 22
REMARK SMILES IDX 65 23 66 24 67 25 6 26 7 27 8 28 9 29 10 30 56 31 11 32
REMARK SMILES IDX 55 33 12 34 13 35 14 36 49 37 15 38 54 39 48 40 50 41 16 42
REMARK SMILES IDX 53 43 47 44 46 45 17 47 39 48 24 49 38 50 25 51 28 52 37 53
REMARK SMILES IDX 51 54 26 55 27 56 36 58 52 59 29 60 18 61 19 62 23 63 20 64
REMARK SMILES IDX 22 65 21 66 40 67 41 68 45 69 42 70 44 71 43 72 30 73 31 74
REMARK SMILES IDX 35 75 32 76 34 77 33 78
REMARK H PARENT 50 46 28 57
REMARK Flexibility Score: inf
ROOT
ATOM      1  C   UNL A   1      33.232  29.765  27.249  1.00  0.00     0.275 C 
ENDROOT
BRANCH   1   2
ATOM      2  C   UNL A   1      33.978  28.583  26.651  1.00  0.00     0.275 C 
BRANCH   2   3
ATOM      3  O   UNL A   1      33.237  27.393  26.877  1.00  0.00    -0.459 OA
BRANCH   3   4
ATOM      4  C   UNL A   1      32.122  27.083  26.055  1.00  0.00     0.338 C 
ATOM      5  O   UNL A   1      30.966  26.964  26.569  1.00  0.00    -0.246 OA
BRANCH   4   6
ATOM      6  C   UNL A   1      32.310  26.894  24.557  1.00  0.00     0.087 C 
ATOM      7  C   UNL A   1      32.981  25.807  24.088  1.00  0.00     0.027 C 
ATOM      8  C   UNL A   1      31.750  27.919  23.586  1.00  0.00     0.316 C 
ATOM      9  C   UNL A   1      33.541  24.781  25.061  1.00  0.00     0.019 A 
ATOM     10  O   UNL A   1      31.554  24.792  26.364  1.00  0.00    -0.475 OA
ATOM     11  C   UNL A   1      34.870  24.446  24.859  1.00  0.00     0.036 A 
ATOM     12  C   UNL A   1      32.861  24.305  26.096  1.00  0.00     0.128 A 
ATOM     13  C   UNL A   1      35.315  23.363  25.652  1.00  0.00     0.107 A 
ATOM     14  C   UNL A   1      33.409  23.344  26.911  1.00  0.00     0.048 A 
ATOM     15  C   UNL A   1      34.698  22.923  26.733  1.00  0.00     0.028 A 
BRANCH   8  16
ATOM     16  C   UNL A   1      30.753  27.245  22.658  1.00  0.00     0.430 C 
ATOM     17  F   UNL A   1      29.883  28.147  22.211  1.00  0.00    -0.167 F 
ATOM     18  F   UNL A   1      31.400  26.706  21.628  1.00  0.00    -0.167 F 
ATOM     19  F   UNL A   1      30.104  26.293  23.321  1.00  0.00    -0.167 F 
ENDBRANCH   8  16
BRANCH  13  20
ATOM     20  S   UNL A   1      36.837  22.521  25.149  1.00  0.00     0.310 S 
ATOM     21  F   UNL A   1      36.986  23.453  23.875  1.00  0.00    -0.094 F 
ATOM     22  F   UNL A   1      35.985  21.546  24.252  1.00  0.00    -0.094 F 
ATOM     23  F   UNL A   1      38.153  21.818  24.712  1.00  0.00    -0.094 F 
ATOM     24  F   UNL A   1      37.682  23.594  25.942  1.00  0.00    -0.094 F 
ATOM     25  F   UNL A   1      35.518  23.314  25.512  1.00  0.00    -0.094 F 
ENDBRANCH  13  20
ENDBRANCH   4   6
ENDBRANCH   3   4
ENDBRANCH   2   3
ENDBRANCH   1   2
BRANCH   1  26
ATOM     26  O   UNL A   1      34.113  30.875  27.357  1.00  0.00    -0.458 OA
BRANCH  26  27
ATOM     27  C   UNL A   1      34.973  30.990  28.481  1.00  0.00     0.338 C 
ATOM     28  O   UNL A   1      34.663  31.761  29.442  1.00  0.00    -0.246 OA
BRANCH  27  29
ATOM     29  C   UNL A   1      36.266  30.192  28.534  1.00  0.00     0.060 A 
ATOM     30  C   UNL A   1      36.660  29.688  29.762  1.00  0.00     0.016 A 
ATOM     31  C   UNL A   1      37.064  30.130  27.475  1.00  0.00     0.016 A 
ATOM     32  C   UNL A   1      38.042  29.394  29.844  1.00  0.00     0.010 A 
ATOM     33  C   UNL A   1      38.364  29.703  27.604  1.00  0.00     0.010 A 
ATOM     34  C   UNL A   1      38.839  29.247  28.802  1.00  0.00    -0.014 A 
BRANCH  34  35
ATOM     35  C   UNL A   1      40.212  28.606  28.928  1.00  0.00     0.031 A 
ATOM     36  C   UNL A   1      40.431  27.268  28.598  1.00  0.00     0.074 A 
ATOM     37  C   UNL A   1      41.217  29.496  29.262  1.00  0.00     0.049 A 
ATOM     38  N   UNL A   1      41.602  26.634  28.512  1.00  0.00    -0.248 NA
ATOM     39  C   UNL A   1      39.362  26.312  28.276  1.00  0.00     0.031 C 
ATOM     40  C   UNL A   1      41.004  30.850  29.589  1.00  0.00     0.029 A 
ATOM     41  N   UNL A   1      42.571  29.252  29.341  1.00  0.00    -0.354 N 
ATOM     42  C   UNL A   1      41.411  25.363  28.150  1.00  0.00     0.074 A 
ATOM     43  C   UNL A   1      39.967  25.136  27.999  1.00  0.00     0.031 C 
ATOM     44  C   UNL A   1      42.210  31.410  29.873  1.00  0.00     0.029 A 
ATOM     45  C   UNL A   1      43.196  30.417  29.727  1.00  0.00     0.049 A 
ATOM     46  H   UNL A   1      43.014  28.393  29.156  1.00  0.00     0.167 HD
ATOM     47  C   UNL A   1      42.384  24.384  27.939  1.00  0.00     0.031 A 
ATOM     48  C   UNL A   1      44.549  30.620  29.946  1.00  0.00     0.031 A 
ATOM     49  C   UNL A   1      43.742  24.601  28.116  1.00  0.00     0.049 A 
ATOM     50  C   UNL A   1      45.518  29.627  29.791  1.00  0.00     0.074 A 
ATOM     51  C   UNL A   1      44.737  23.628  27.900  1.00  0.00     0.029 A 
ATOM     52  N   UNL A   1      44.365  25.758  28.525  1.00  0.00    -0.354 N 
ATOM     53  N   UNL A   1      45.332  28.367  29.391  1.00  0.00    -0.248 NA
ATOM     54  C   UNL A   1      46.951  29.822  30.051  1.00  0.00     0.031 C 
ATOM     55  C   UNL A   1      45.943  24.189  28.183  1.00  0.00     0.029 A 
ATOM     56  C   UNL A   1      45.721  25.520  28.582  1.00  0.00     0.049 A 
ATOM     57  H   UNL A   1      43.920  26.610  28.739  1.00  0.00     0.167 HD
ATOM     58  C   UNL A   1      46.498  27.721  29.346  1.00  0.00     0.074 A 
ATOM     59  C   UNL A   1      47.556  28.647  29.777  1.00  0.00     0.031 C 
ATOM     60  C   UNL A   1      46.724  26.400  28.959  1.00  0.00     0.031 A 
BRANCH  47  61
ATOM     61  C   UNL A   1      41.930  23.005  27.489  1.00  0.00    -0.014 A 
ATOM     62  C   UNL A   1      41.902  22.780  26.123  1.00  0.00     0.009 A 
ATOM     63  C   UNL A   1      41.638  22.040  28.352  1.00  0.00     0.009 A 
ATOM     64  C   UNL A   1      41.270  21.570  25.754  1.00  0.00     0.001 A 
ATOM     65  C   UNL A   1      41.151  20.832  27.913  1.00  0.00     0.001 A 
ATOM     66  C   UNL A   1      41.042  20.563  26.577  1.00  0.00     0.000 A 
ENDBRANCH  47  61
BRANCH  48  67
ATOM     67  C   UNL A   1      45.006  32.005  30.379  1.00  0.00    -0.014 A 
ATOM     68  C   UNL A   1      45.044  32.368  31.715  1.00  0.00     0.009 A 
ATOM     69  C   UNL A   1      45.297  32.874  29.420  1.00  0.00     0.009 A 
ATOM     70  C   UNL A   1      45.124  33.765  31.927  1.00  0.00     0.001 A 
ATOM     71  C   UNL A   1      45.496  34.201  29.716  1.00  0.00     0.001 A 
ATOM     72  C   UNL A   1      45.489  34.642  31.010  1.00  0.00     0.000 A 
ENDBRANCH  48  67
BRANCH  60  73
ATOM     73  C   UNL A   1      48.157  25.893  28.950  1.00  0.00    -0.014 A 
ATOM     74  C   UNL A   1      48.712  25.577  30.179  1.00  0.00     0.009 A 
ATOM     75  C   UNL A   1      48.885  25.870  27.839  1.00  0.00     0.009 A 
ATOM     76  C   UNL A   1      50.126  25.526  30.173  1.00  0.00     0.001 A 
ATOM     77  C   UNL A   1      50.244  25.680  27.897  1.00  0.00     0.001 A 
ATOM     78  C   UNL A   1      50.868  25.421  29.086  1.00  0.00     0.000 A 
ENDBRANCH  60  73
ENDBRANCH  34  35
ENDBRANCH  27  29
ENDBRANCH  26  27
ENDBRANCH   1  26
TORSDOF 13
ENDMDL
MODEL 2
REMARK VINA RESULT:     -11.5      3.480      7.941
REMARK SMILES O=C(OCCOC(=O)c1ccc(-c2c3nc(c(-c4ccccc4)c4ccc([nH]4)c(-c4ccccc4)c4nc(c(-c5ccccc5)c5ccc2[nH]5)C=C4)C=C3)cc1)C1=Cc2cc(S(F)(F)(F)(F)F)ccc2O[C@@H]1C(F)(F)F
REMARK SMILES IDX 5 1 4 2 3 3 2 4 1 5 57 6 58 7 72 8 59 9 71 10 60 11 70 12
REMARK SMILES IDX 61 13 69 14 68 15 73 16 74 17 75 18 76 19 62 20 63 21 64 22
REMARK SMILES IDX 65 23 66 24 67 25 6 26 7 27 8 28 9 29 10 30 56 31 11 32
REMARK SMILES IDX 55 33 12 34 13 35 14 36 49 37 15 38 54 39 48 40 50 41 16 42
REMARK SMILES IDX 53 43 47 44 46 45 17 47 39 48 24 49 38 50 25 51 28 52 37 53
REMARK SMILES IDX 51 54 26 55 27 56 36 58 52 59 29 60 18 61 19 62 23 63 20 64
REMARK SMILES IDX 22 65 21 66 40 67 41 68 45 69 42 70 44 71 43 72 30 73 31 74
REMARK SMILES IDX 35 75 32 76 34 77 33 78
REMARK H PARENT 50 46 28 57
REMARK Flexibility Score: inf
ROOT
ATOM      1  C   UNL A   1      37.680  22.513  25.002  1.00  0.00     0.275 C 
ENDROOT
BRANCH   1   2
ATOM      2  C   UNL A   1      36.738  23.671  25.286  1.00  0.00     0.275 C 
BRANCH   2   3
ATOM      3  O   UNL A   1      36.125  24.091  24.076  1.00  0.00    -0.459 OA
BRANCH   3   4
ATOM      4  C   UNL A   1      34.918  23.483  23.643  1.00  0.00     0.338 C 
ATOM      5  O   UNL A   1      34.765  23.173  22.420  1.00  0.00    -0.246 OA
BRANCH   4   6
ATOM      6  C   UNL A   1      33.807  23.201  24.643  1.00  0.00     0.087 C 
ATOM      7  C   UNL A   1      33.074  24.228  25.153  1.00  0.00     0.027 C 
ATOM      8  C   UNL A   1      33.515  21.773  25.072  1.00  0.00     0.316 C 
ATOM      9  C   UNL A   1      33.367  25.657  24.723  1.00  0.00     0.019 A 
ATOM     10  O   UNL A   1      33.566  25.029  22.441  1.00  0.00    -0.475 OA
ATOM     11  C   UNL A   1      33.517  26.563  25.761  1.00  0.00     0.036 A 
ATOM     12  C   UNL A   1      33.570  26.016  23.462  1.00  0.00     0.128 A 
ATOM     13  C   UNL A   1      33.604  27.910  25.338  1.00  0.00     0.107 A 
ATOM     14  C   UNL A   1      33.784  27.334  23.134  1.00  0.00     0.048 A 
ATOM     15  C   UNL A   1      33.884  28.292  24.105  1.00  0.00     0.028 A 
BRANCH   8  16
ATOM     16  C   UNL A   1      32.082  21.418  24.710  1.00  0.00     0.430 C 
ATOM     17  F   UNL A   1      31.255  21.941  25.612  1.00  0.00    -0.167 F 
ATOM     18  F   UNL A   1      31.794  21.910  23.509  1.00  0.00    -0.167 F 
ATOM     19  F   UNL A   1      31.943  20.096  24.693  1.00  0.00    -0.167 F 
ENDBRANCH   8  16
BRANCH  13  20
ATOM     20  S   UNL A   1      33.309  29.201  26.572  1.00  0.00     0.310 S 
ATOM     21  F   UNL A   1      33.009  28.122  27.696  1.00  0.00    -0.094 F 
ATOM     22  F   UNL A   1      31.773  29.165  26.224  1.00  0.00    -0.094 F 
ATOM     23  F   UNL A   1      33.068  30.297  27.648  1.00  0.00    -0.094 F 
ATOM     24  F   UNL A   1      34.826  29.122  27.005  1.00  0.00    -0.094 F 
ATOM     25  F   UNL A   1      33.550  28.008  25.563  1.00  0.00    -0.094 F 
ENDBRANCH  13  20
ENDBRANCH   4   6
ENDBRANCH   3   4
ENDBRANCH   2   3
ENDBRANCH   1   2
BRANCH   1  26
ATOM     26  O   UNL A   1      38.430  22.214  26.171  1.00  0.00    -0.458 OA
BRANCH  26  27
ATOM     27  C   UNL A   1      39.681  22.847  26.392  1.00  0.00     0.338 C 
ATOM     28  O   UNL A   1      40.761  22.234  26.122  1.00  0.00    -0.246 OA
BRANCH  27  29
ATOM     29  C   UNL A   1      39.730  24.260  26.951  1.00  0.00     0.060 A 
ATOM     30  C   UNL A   1      40.444  25.210  26.238  1.00  0.00     0.016 A 
ATOM     31  C   UNL A   1      39.250  24.524  28.160  1.00  0.00     0.016 A 
ATOM     32  C   UNL A   1      40.849  26.323  27.013  1.00  0.00     0.010 A 
ATOM     33  C   UNL A   1      39.577  25.693  28.803  1.00  0.00     0.010 A 
ATOM     34  C   UNL A   1      40.329  26.651  28.181  1.00  0.00    -0.014 A 
BRANCH  34  35
ATOM     35  C   UNL A   1      40.554  28.021  28.801  1.00  0.00     0.031 A 
ATOM     36  C   UNL A   1      39.559  28.999  28.803  1.00  0.00     0.074 A 
ATOM     37  C   UNL A   1      41.763  28.144  29.463  1.00  0.00     0.049 A 
ATOM     38  N   UNL A   1      39.571  30.169  29.444  1.00  0.00    -0.248 NA
ATOM     39  C   UNL A   1      38.288  28.885  28.073  1.00  0.00     0.031 C 
ATOM     40  C   UNL A   1      42.769  27.158  29.471  1.00  0.00     0.029 A 
ATOM     41  N   UNL A   1      42.211  29.209  30.215  1.00  0.00    -0.354 N 
ATOM     42  C   UNL A   1      38.431  30.827  29.223  1.00  0.00     0.074 A 
ATOM     43  C   UNL A   1      37.592  30.013  28.332  1.00  0.00     0.031 C 
ATOM     44  C   UNL A   1      43.812  27.626  30.207  1.00  0.00     0.029 A 
ATOM     45  C   UNL A   1      43.475  28.911  30.671  1.00  0.00     0.049 A 
ATOM     46  H   UNL A   1      41.713  30.039  30.393  1.00  0.00     0.167 HD
ATOM     47  C   UNL A   1      38.057  32.073  29.729  1.00  0.00     0.031 A 
ATOM     48  C   UNL A   1      44.305  29.704  31.448  1.00  0.00     0.031 A 
ATOM     49  C   UNL A   1      38.870  32.847  30.543  1.00  0.00     0.049 A 
ATOM     50  C   UNL A   1      43.954  30.976  31.908  1.00  0.00     0.074 A 
ATOM     51  C   UNL A   1      38.505  34.102  31.068  1.00  0.00     0.029 A 
ATOM     52  N   UNL A   1      40.143  32.560  30.979  1.00  0.00    -0.354 N 
ATOM     53  N   UNL A   1      42.799  31.617  31.719  1.00  0.00    -0.248 NA
ATOM     54  C   UNL A   1      44.838  31.838  32.705  1.00  0.00     0.031 C 
ATOM     55  C   UNL A   1      39.549  34.569  31.804  1.00  0.00     0.029 A 
ATOM     56  C   UNL A   1      40.582  33.615  31.749  1.00  0.00     0.049 A 
ATOM     57  H   UNL A   1      40.654  31.743  30.777  1.00  0.00     0.167 HD
ATOM     58  C   UNL A   1      42.828  32.805  32.325  1.00  0.00     0.074 A 
ATOM     59  C   UNL A   1      44.143  32.967  32.962  1.00  0.00     0.031 C 
ATOM     60  C   UNL A   1      41.810  33.758  32.377  1.00  0.00     0.031 A 
BRANCH  47  61
ATOM     61  C   UNL A   1      36.681  32.611  29.369  1.00  0.00    -0.014 A 
ATOM     62  C   UNL A   1      35.668  32.375  30.283  1.00  0.00     0.009 A 
ATOM     63  C   UNL A   1      36.466  33.328  28.273  1.00  0.00     0.009 A 
ATOM     64  C   UNL A   1      34.377  32.699  29.805  1.00  0.00     0.001 A 
ATOM     65  C   UNL A   1      35.195  33.728  27.936  1.00  0.00     0.001 A 
ATOM     66  C   UNL A   1      34.137  33.476  28.765  1.00  0.00     0.000 A 
ENDBRANCH  47  61
BRANCH  48  67
ATOM     67  C   UNL A   1      45.674  29.159  31.823  1.00  0.00    -0.014 A 
ATOM     68  C   UNL A   1      45.876  28.458  33.000  1.00  0.00     0.009 A 
ATOM     69  C   UNL A   1      46.683  29.445  31.009  1.00  0.00     0.009 A 
ATOM     70  C   UNL A   1      47.236  28.350  33.376  1.00  0.00     0.001 A 
ATOM     71  C   UNL A   1      47.979  29.187  31.385  1.00  0.00     0.001 A 
ATOM     72  C   UNL A   1      48.256  28.551  32.563  1.00  0.00     0.000 A 
ENDBRANCH  48  67
BRANCH  60  73
ATOM     73  C   UNL A   1      42.063  35.030  33.169  1.00  0.00    -0.014 A 
ATOM     74  C   UNL A   1      42.864  35.988  32.569  1.00  0.00     0.009 A 
ATOM     75  C   UNL A   1      41.642  35.171  34.421  1.00  0.00     0.009 A 
ATOM     76  C   UNL A   1      43.409  36.929  33.474  1.00  0.00     0.001 A 
ATOM     77  C   UNL A   1      42.115  36.194  35.206  1.00  0.00     0.001 A 
ATOM     78  C   UNL A   1      42.955  37.143  34.696  1.00  0.00     0.000 A 
ENDBRANCH  60  73
ENDBRANCH  34  35
ENDBRANCH  27  29
ENDBRANCH  26  27
ENDBRANCH   1  26
TORSDOF 13
ENDMDL
MODEL 3
REMARK VINA RESULT:     -11.3      4.685      9.041
REMARK SMILES O=C(OCCOC(=O)c1ccc(-c2c3nc(c(-c4ccccc4)c4ccc([nH]4)c(-c4ccccc4)c4nc(c(-c5ccccc5)c5ccc2[nH]5)C=C4)C=C3)cc1)C1=Cc2cc(S(F)(F)(F)(F)F)ccc2O[C@@H]1C(F)(F)F
REMARK SMILES IDX 5 1 4 2 3 3 2 4 1 5 57 6 58 7 72 8 59 9 71 10 60 11 70 12
REMARK SMILES IDX 61 13 69 14 68 15 73 16 74 17 75 18 76 19 62 20 63 21 64 22
REMARK SMILES IDX 65 23 66 24 67 25 6 26 7 27 8 28 9 29 10 30 56 31 11 32
REMARK SMILES IDX 55 33 12 34 13 35 14 36 49 37 15 38 54 39 48 40 50 41 16 42
REMARK SMILES IDX 53 43 47 44 46 45 17 47 39 48 24 49 38 50 25 51 28 52 37 53
REMARK SMILES IDX 51 54 26 55 27 56 36 58 52 59 29 60 18 61 19 62 23 63 20 64
REMARK SMILES IDX 22 65 21 66 40 67 41 68 45 69 42 70 44 71 43 72 30 73 31 74
REMARK SMILES IDX 35 75 32 76 34 77 33 78
REMARK H PARENT 50 46 28 57
REMARK Flexibility Score: inf
ROOT
ATOM      1  C   UNL A   1      38.220  23.089  26.124  1.00  0.00     0.275 C 
ENDROOT
BRANCH   1   2
ATOM      2  C   UNL A   1      36.782  23.578  26.076  1.00  0.00     0.275 C 
BRANCH   2   3
ATOM      3  O   UNL A   1      36.455  23.957  24.747  1.00  0.00    -0.459 OA
BRANCH   3   4
ATOM      4  C   UNL A   1      35.525  23.189  23.998  1.00  0.00     0.338 C 
ATOM      5  O   UNL A   1      35.756  22.928  22.776  1.00  0.00    -0.246 OA
BRANCH   4   6
ATOM      6  C   UNL A   1      34.254  22.678  24.658  1.00  0.00     0.087 C 
ATOM      7  C   UNL A   1      33.264  23.549  24.994  1.00  0.00     0.027 C 
ATOM      8  C   UNL A   1      34.089  21.194  24.941  1.00  0.00     0.316 C 
ATOM      9  C   UNL A   1      33.431  25.034  24.710  1.00  0.00     0.019 A 
ATOM     10  O   UNL A   1      34.301  24.617  22.539  1.00  0.00    -0.475 OA
ATOM     11  C   UNL A   1      33.167  25.870  25.784  1.00  0.00     0.036 A 
ATOM     12  C   UNL A   1      33.891  25.513  23.561  1.00  0.00     0.128 A 
ATOM     13  C   UNL A   1      33.148  27.244  25.449  1.00  0.00     0.107 A 
ATOM     14  C   UNL A   1      33.973  26.869  23.351  1.00  0.00     0.048 A 
ATOM     15  C   UNL A   1      33.671  27.754  24.349  1.00  0.00     0.028 A 
BRANCH   8  16
ATOM     16  C   UNL A   1      32.869  20.670  24.201  1.00  0.00     0.430 C 
ATOM     17  F   UNL A   1      32.684  21.383  23.093  1.00  0.00    -0.167 F 
ATOM     18  F   UNL A   1      33.061  19.394  23.879  1.00  0.00    -0.167 F 
ATOM     19  F   UNL A   1      31.798  20.774  24.981  1.00  0.00    -0.167 F 
ENDBRANCH   8  16
BRANCH  13  20
ATOM     20  S   UNL A   1      32.350  28.382  26.609  1.00  0.00     0.310 S 
ATOM     21  F   UNL A   1      31.911  27.185  27.552  1.00  0.00    -0.094 F 
ATOM     22  F   UNL A   1      30.988  28.188  25.842  1.00  0.00    -0.094 F 
ATOM     23  F   UNL A   1      31.674  29.347  27.622  1.00  0.00    -0.094 F 
ATOM     24  F   UNL A   1      33.688  28.453  27.445  1.00  0.00    -0.094 F 
ATOM     25  F   UNL A   1      33.022  27.315  25.654  1.00  0.00    -0.094 F 
ENDBRANCH  13  20
ENDBRANCH   4   6
ENDBRANCH   3   4
ENDBRANCH   2   3
ENDBRANCH   1   2
BRANCH   1  26
ATOM     26  O   UNL A   1      39.086  24.117  25.663  1.00  0.00    -0.458 OA
BRANCH  26  27
ATOM     27  C   UNL A   1      40.126  24.597  26.501  1.00  0.00     0.338 C 
ATOM     28  O   UNL A   1      41.258  24.022  26.503  1.00  0.00    -0.246 OA
BRANCH  27  29
ATOM     29  C   UNL A   1      39.885  25.802  27.398  1.00  0.00     0.060 A 
ATOM     30  C   UNL A   1      40.524  26.986  27.070  1.00  0.00     0.016 A 
ATOM     31  C   UNL A   1      39.223  25.670  28.541  1.00  0.00     0.016 A 
ATOM     32  C   UNL A   1      40.653  27.887  28.153  1.00  0.00     0.010 A 
ATOM     33  C   UNL A   1      39.282  26.652  29.501  1.00  0.00     0.010 A 
ATOM     34  C   UNL A   1      39.947  27.824  29.268  1.00  0.00    -0.014 A 
BRANCH  34  35
ATOM     35  C   UNL A   1      39.877  28.991  30.239  1.00  0.00     0.031 A 
ATOM     36  C   UNL A   1      38.926  30.003  30.105  1.00  0.00     0.074 A 
ATOM     37  C   UNL A   1      40.740  28.876  31.315  1.00  0.00     0.049 A 
ATOM     38  N   UNL A   1      38.658  30.986  30.967  1.00  0.00    -0.248 NA
ATOM     39  C   UNL A   1      38.033  30.147  28.947  1.00  0.00     0.031 C 
ATOM     40  C   UNL A   1      41.697  27.853  31.461  1.00  0.00     0.029 A 
ATOM     41  N   UNL A   1      40.836  29.702  32.414  1.00  0.00    -0.354 N 
ATOM     42  C   UNL A   1      37.668  31.750  30.500  1.00  0.00     0.074 A 
ATOM     43  C   UNL A   1      37.256  31.225  29.191  1.00  0.00     0.031 C 
ATOM     44  C   UNL A   1      42.367  28.065  32.624  1.00  0.00     0.029 A 
ATOM     45  C   UNL A   1      41.840  29.224  33.225  1.00  0.00     0.049 A 
ATOM     46  H   UNL A   1      40.282  30.497  32.588  1.00  0.00     0.167 HD
ATOM     47  C   UNL A   1      37.092  32.863  31.115  1.00  0.00     0.031 A 
ATOM     48  C   UNL A   1      42.288  29.756  34.424  1.00  0.00     0.031 A 
ATOM     49  C   UNL A   1      37.511  33.369  32.336  1.00  0.00     0.049 A 
ATOM     50  C   UNL A   1      41.750  30.903  35.012  1.00  0.00     0.074 A 
ATOM     51  C   UNL A   1      36.935  34.485  32.973  1.00  0.00     0.029 A 
ATOM     52  N   UNL A   1      38.531  32.905  33.135  1.00  0.00    -0.354 N 
ATOM     53  N   UNL A   1      40.734  31.644  34.565  1.00  0.00    -0.248 NA
ATOM     54  C   UNL A   1      42.237  31.494  36.266  1.00  0.00     0.031 C 
ATOM     55  C   UNL A   1      37.606  34.697  34.137  1.00  0.00     0.029 A 
ATOM     56  C   UNL A   1      38.612  33.718  34.245  1.00  0.00     0.049 A 
ATOM     57  H   UNL A   1      39.105  32.127  32.947  1.00  0.00     0.167 HD
ATOM     58  C   UNL A   1      40.494  32.651  35.406  1.00  0.00     0.074 A 
ATOM     59  C   UNL A   1      41.463  32.572  36.510  1.00  0.00     0.031 C 
ATOM     60  C   UNL A   1      39.504  33.628  35.302  1.00  0.00     0.031 A 
BRANCH  47  61
ATOM     61  C   UNL A   1      35.940  33.558  30.407  1.00  0.00    -0.014 A 
ATOM     62  C   UNL A   1      36.177  33.976  29.107  1.00  0.00     0.009 A 
ATOM     63  C   UNL A   1      34.747  33.703  30.970  1.00  0.00     0.009 A 
ATOM     64  C   UNL A   1      35.160  34.804  28.576  1.00  0.00     0.001 A 
ATOM     65  C   UNL A   1      33.755  34.410  30.334  1.00  0.00     0.001 A 
ATOM     66  C   UNL A   1      33.940  34.902  29.072  1.00  0.00     0.000 A 
ENDBRANCH  47  61
BRANCH  48  67
ATOM     67  C   UNL A   1      43.428  29.050  35.141  1.00  0.00    -0.014 A 
ATOM     68  C   UNL A   1      43.188  28.088  36.108  1.00  0.00     0.009 A 
ATOM     69  C   UNL A   1      44.661  29.445  34.852  1.00  0.00     0.009 A 
ATOM     70  C   UNL A   1      44.309  27.807  36.926  1.00  0.00     0.001 A 
ATOM     71  C   UNL A   1      45.726  29.023  35.611  1.00  0.00     0.001 A 
ATOM     72  C   UNL A   1      45.555  28.119  36.622  1.00  0.00     0.000 A 
ENDBRANCH  48  67
BRANCH  60  73
ATOM     73  C   UNL A   1      39.398  34.659  36.414  1.00  0.00    -0.014 A 
ATOM     74  C   UNL A   1      40.113  35.833  36.244  1.00  0.00     0.009 A 
ATOM     75  C   UNL A   1      38.753  34.403  37.547  1.00  0.00     0.009 A 
ATOM     76  C   UNL A   1      40.328  36.552  37.444  1.00  0.00     0.001 A 
ATOM     77  C   UNL A   1      38.904  35.223  38.638  1.00  0.00     0.001 A 
ATOM     78  C   UNL A   1      39.645  36.370  38.560  1.00  0.00     0.000 A 
ENDBRANCH  60  73
ENDBRANCH  34  35
ENDBRANCH  27  29
ENDBRANCH  26  27
ENDBRANCH   1  26
TORSDOF 13
ENDMDL
