MODEL 1
REMARK VINA RESULT:     -11.3      0.000      0.000
REMARK SMILES CC1=C[C@@H](C)[C@H]2C(=O)N([C@H](Cc3ccccc3)C(=O)OCCOC(=O)c3ccc(-c4c5nc(c(-c6ccccc6)c6ccc([nH]6)c(-c6ccccc6)c6nc(c(-c7ccccc7)c7ccc4[nH]7)C=C6)C=C5)cc3)C(=O)[C@H]2C1
REMARK SMILES IDX 21 1 20 2 18 3 19 4 10 5 9 6 1 7 2 8 3 9 77 10 4 11 76 12
REMARK SMILES IDX 6 13 5 14 74 15 7 16 75 17 8 18 11 19 12 20 13 21 17 22
REMARK SMILES IDX 14 23 16 24 15 25 22 26 23 27 24 28 25 29 26 30 27 31 73 32
REMARK SMILES IDX 28 33 72 34 29 35 30 36 31 37 66 38 32 39 71 40 65 41 67 42
REMARK SMILES IDX 33 43 70 44 64 45 63 46 34 48 56 49 41 50 55 51 42 52 45 53
REMARK SMILES IDX 54 54 68 55 43 56 44 57 53 59 69 60 46 61 35 62 36 63 40 64
REMARK SMILES IDX 37 65 39 66 38 67 57 68 58 69 62 70 59 71 61 72 60 73 47 74
REMARK SMILES IDX 48 75 52 76 49 77 51 78 50 79
REMARK H PARENT 67 47 45 58
REMARK Flexibility Score: inf
ROOT
ATOM      1  C   UNL A   1      35.549  22.979  26.356  1.00  0.00     0.274 C 
ENDROOT
BRANCH   1   2
ATOM      2  O   UNL A   1      34.855  24.074  25.736  1.00  0.00    -0.461 OA
BRANCH   2   3
ATOM      3  C   UNL A   1      33.522  24.146  25.980  1.00  0.00     0.329 C 
ATOM      4  O   UNL A   1      32.777  23.177  26.113  1.00  0.00    -0.250 OA
BRANCH   3   5
ATOM      5  C   UNL A   1      32.991  25.578  25.963  1.00  0.00     0.207 C 
BRANCH   5   6
ATOM      6  N   UNL A   1      31.941  25.612  24.940  1.00  0.00    -0.267 N 
ATOM      7  C   UNL A   1      27.365  28.711  23.186  1.00  0.00     0.039 C 
ATOM      8  C   UNL A   1      28.626  27.895  23.159  1.00  0.00    -0.076 C 
ATOM      9  C   UNL A   1      29.717  28.336  22.516  1.00  0.00    -0.024 C 
ATOM     10  C   UNL A   1      28.574  26.585  23.896  1.00  0.00     0.044 C 
ATOM     11  C   UNL A   1      31.042  27.635  22.494  1.00  0.00     0.022 C 
ATOM     12  C   UNL A   1      29.866  25.779  23.924  1.00  0.00     0.096 C 
ATOM     13  C   UNL A   1      30.940  26.147  22.899  1.00  0.00     0.098 C 
ATOM     14  C   UNL A   1      32.017  28.500  23.312  1.00  0.00     0.013 C 
ATOM     15  C   UNL A   1      30.622  25.820  25.227  1.00  0.00     0.234 C 
ATOM     16  C   UNL A   1      32.198  25.716  23.597  1.00  0.00     0.234 C 
ATOM     17  O   UNL A   1      30.142  25.965  26.340  1.00  0.00    -0.274 OA
ATOM     18  O   UNL A   1      33.282  25.605  23.045  1.00  0.00    -0.274 OA
ENDBRANCH   5   6
BRANCH   5  19
ATOM     19  C   UNL A   1      33.989  26.725  25.762  1.00  0.00     0.073 C 
BRANCH  19  20
ATOM     20  C   UNL A   1      33.647  28.049  26.401  1.00  0.00    -0.045 A 
ATOM     21  C   UNL A   1      32.327  28.417  26.690  1.00  0.00     0.004 A 
ATOM     22  C   UNL A   1      34.680  28.958  26.674  1.00  0.00     0.004 A 
ATOM     23  C   UNL A   1      32.055  29.670  27.248  1.00  0.00     0.000 A 
ATOM     24  C   UNL A   1      34.407  30.203  27.235  1.00  0.00     0.000 A 
ATOM     25  C   UNL A   1      33.093  30.560  27.521  1.00  0.00     0.000 A 
ENDBRANCH  19  20
ENDBRANCH   5  19
ENDBRANCH   3   5
ENDBRANCH   2   3
ENDBRANCH   1   2
BRANCH   1  26
ATOM     26  C   UNL A   1      36.673  22.488  25.453  1.00  0.00     0.275 C 
BRANCH  26  27
ATOM     27  O   UNL A   1      37.721  23.471  25.418  1.00  0.00    -0.458 OA
BRANCH  27  28
ATOM     28  C   UNL A   1      38.833  23.166  26.123  1.00  0.00     0.338 C 
ATOM     29  O   UNL A   1      39.371  22.080  26.234  1.00  0.00    -0.246 OA
BRANCH  28  30
ATOM     30  C   UNL A   1      39.288  24.360  26.850  1.00  0.00     0.060 A 
ATOM     31  C   UNL A   1      38.929  24.584  28.182  1.00  0.00     0.016 A 
ATOM     32  C   UNL A   1      40.022  25.312  26.144  1.00  0.00     0.016 A 
ATOM     33  C   UNL A   1      39.288  25.776  28.810  1.00  0.00     0.010 A 
ATOM     34  C   UNL A   1      40.414  26.486  26.783  1.00  0.00     0.010 A 
ATOM     35  C   UNL A   1      40.037  26.732  28.114  1.00  0.00    -0.014 A 
BRANCH  35  36
ATOM     36  C   UNL A   1      40.432  28.008  28.751  1.00  0.00     0.031 A 
ATOM     37  C   UNL A   1      41.781  28.130  29.397  1.00  0.00     0.074 A 
ATOM     38  C   UNL A   1      39.556  29.028  28.796  1.00  0.00     0.049 A 
ATOM     39  N   UNL A   1      42.237  29.069  30.186  1.00  0.00    -0.248 NA
ATOM     40  C   UNL A   1      42.743  27.050  29.122  1.00  0.00     0.031 C 
ATOM     41  C   UNL A   1      38.236  29.040  28.165  1.00  0.00     0.029 A 
ATOM     42  N   UNL A   1      39.641  30.244  29.423  1.00  0.00    -0.354 N 
ATOM     43  C   UNL A   1      43.525  28.680  30.527  1.00  0.00     0.074 A 
ATOM     44  C   UNL A   1      43.780  27.419  29.862  1.00  0.00     0.031 C 
ATOM     45  C   UNL A   1      37.629  30.205  28.445  1.00  0.00     0.029 A 
ATOM     46  C   UNL A   1      38.491  30.988  29.323  1.00  0.00     0.049 A 
ATOM     47  H   UNL A   1      40.446  30.554  29.898  1.00  0.00     0.167 HD
ATOM     48  C   UNL A   1      44.410  29.316  31.329  1.00  0.00     0.031 A 
ATOM     49  C   UNL A   1      38.151  32.149  29.913  1.00  0.00     0.031 A 
ATOM     50  C   UNL A   1      44.145  30.567  31.990  1.00  0.00     0.049 A 
ATOM     51  C   UNL A   1      39.126  32.803  30.849  1.00  0.00     0.074 A 
ATOM     52  C   UNL A   1      44.966  31.288  32.839  1.00  0.00     0.029 A 
ATOM     53  N   UNL A   1      42.965  31.284  31.867  1.00  0.00    -0.354 N 
ATOM     54  N   UNL A   1      40.327  32.408  31.197  1.00  0.00    -0.248 NA
ATOM     55  C   UNL A   1      38.696  34.058  31.480  1.00  0.00     0.031 C 
ATOM     56  C   UNL A   1      44.269  32.428  33.255  1.00  0.00     0.029 A 
ATOM     57  C   UNL A   1      43.032  32.436  32.631  1.00  0.00     0.049 A 
ATOM     58  H   UNL A   1      42.195  31.015  31.316  1.00  0.00     0.167 HD
ATOM     59  C   UNL A   1      40.803  33.372  32.074  1.00  0.00     0.074 A 
ATOM     60  C   UNL A   1      39.767  34.379  32.192  1.00  0.00     0.031 C 
ATOM     61  C   UNL A   1      41.987  33.421  32.729  1.00  0.00     0.031 A 
BRANCH  48  62
ATOM     62  C   UNL A   1      45.736  28.652  31.566  1.00  0.00    -0.014 A 
ATOM     63  C   UNL A   1      45.911  27.726  32.604  1.00  0.00     0.009 A 
ATOM     64  C   UNL A   1      46.814  28.925  30.707  1.00  0.00     0.009 A 
ATOM     65  C   UNL A   1      47.147  27.102  32.792  1.00  0.00     0.001 A 
ATOM     66  C   UNL A   1      48.041  28.284  30.886  1.00  0.00     0.001 A 
ATOM     67  C   UNL A   1      48.208  27.378  31.931  1.00  0.00     0.000 A 
ENDBRANCH  48  62
BRANCH  49  68
ATOM     68  C   UNL A   1      36.809  32.736  29.675  1.00  0.00    -0.014 A 
ATOM     69  C   UNL A   1      36.585  33.583  28.579  1.00  0.00     0.009 A 
ATOM     70  C   UNL A   1      35.743  32.450  30.542  1.00  0.00     0.009 A 
ATOM     71  C   UNL A   1      35.325  34.145  28.367  1.00  0.00     0.001 A 
ATOM     72  C   UNL A   1      34.477  32.992  30.312  1.00  0.00     0.001 A 
ATOM     73  C   UNL A   1      34.271  33.846  29.229  1.00  0.00     0.000 A 
ENDBRANCH  49  68
BRANCH  61  74
ATOM     74  C   UNL A   1      42.231  34.618  33.597  1.00  0.00    -0.014 A 
ATOM     75  C   UNL A   1      42.857  35.766  33.089  1.00  0.00     0.009 A 
ATOM     76  C   UNL A   1      41.806  34.603  34.935  1.00  0.00     0.009 A 
ATOM     77  C   UNL A   1      43.082  36.868  33.915  1.00  0.00     0.001 A 
ATOM     78  C   UNL A   1      42.013  35.714  35.752  1.00  0.00     0.001 A 
ATOM     79  C   UNL A   1      42.658  36.841  35.245  1.00  0.00     0.000 A 
ENDBRANCH  61  74
ENDBRANCH  35  36
ENDBRANCH  28  30
ENDBRANCH  27  28
ENDBRANCH  26  27
ENDBRANCH   1  26
TORSDOF 14
ENDMDL
MODEL 2
REMARK VINA RESULT:     -11.3      2.748      7.879
REMARK SMILES CC1=C[C@@H](C)[C@H]2C(=O)N([C@H](Cc3ccccc3)C(=O)OCCOC(=O)c3ccc(-c4c5nc(c(-c6ccccc6)c6ccc([nH]6)c(-c6ccccc6)c6nc(c(-c7ccccc7)c7ccc4[nH]7)C=C6)C=C5)cc3)C(=O)[C@H]2C1
REMARK SMILES IDX 21 1 20 2 18 3 19 4 10 5 9 6 1 7 2 8 3 9 77 10 4 11 76 12
REMARK SMILES IDX 6 13 5 14 74 15 7 16 75 17 8 18 11 19 12 20 13 21 17 22
REMARK SMILES IDX 14 23 16 24 15 25 22 26 23 27 24 28 25 29 26 30 27 31 73 32
REMARK SMILES IDX 28 33 72 34 29 35 30 36 31 37 66 38 32 39 71 40 65 41 67 42
REMARK SMILES IDX 33 43 70 44 64 45 63 46 34 48 56 49 41 50 55 51 42 52 45 53
REMARK SMILES IDX 54 54 68 55 43 56 44 57 53 59 69 60 46 61 35 62 36 63 40 64
REMARK SMILES IDX 37 65 39 66 38 67 57 68 58 69 62 70 59 71 61 72 60 73 47 74
REMARK SMILES IDX 48 75 52 76 49 77 51 78 50 79
REMARK H PARENT 67 47 45 58
REMARK Flexibility Score: inf
ROOT
ATOM      1  C   UNL A   1      32.449  29.875  25.815  1.00  0.00     0.274 C 
ENDROOT
BRANCH   1   2
ATOM      2  O   UNL A   1      33.528  29.317  25.047  1.00  0.00    -0.461 OA
BRANCH   2   3
ATOM      3  C   UNL A   1      33.188  28.794  23.841  1.00  0.00     0.329 C 
ATOM      4  O   UNL A   1      33.430  29.314  22.754  1.00  0.00    -0.250 OA
BRANCH   3   5
ATOM      5  C   UNL A   1      32.354  27.520  23.960  1.00  0.00     0.207 C 
BRANCH   5   6
ATOM      6  N   UNL A   1      33.309  26.422  24.137  1.00  0.00    -0.267 N 
ATOM      7  C   UNL A   1      33.840  21.162  26.518  1.00  0.00     0.039 C 
ATOM      8  C   UNL A   1      33.941  22.298  25.541  1.00  0.00    -0.076 C 
ATOM      9  C   UNL A   1      33.518  22.158  24.277  1.00  0.00    -0.024 C 
ATOM     10  C   UNL A   1      34.529  23.574  26.080  1.00  0.00     0.044 C 
ATOM     11  C   UNL A   1      33.506  23.251  23.250  1.00  0.00     0.022 C 
ATOM     12  C   UNL A   1      34.581  24.750  25.112  1.00  0.00     0.096 C 
ATOM     13  C   UNL A   1      34.424  24.436  23.624  1.00  0.00     0.098 C 
ATOM     14  C   UNL A   1      32.031  23.590  22.978  1.00  0.00     0.013 C 
ATOM     15  C   UNL A   1      33.538  25.815  25.339  1.00  0.00     0.234 C 
ATOM     16  C   UNL A   1      33.852  25.718  23.093  1.00  0.00     0.234 C 
ATOM     17  O   UNL A   1      33.026  26.114  26.406  1.00  0.00    -0.274 OA
ATOM     18  O   UNL A   1      33.790  26.000  21.906  1.00  0.00    -0.274 OA
ENDBRANCH   5   6
BRANCH   5  19
ATOM     19  C   UNL A   1      31.348  27.197  22.849  1.00  0.00     0.073 C 
BRANCH  19  20
ATOM     20  C   UNL A   1      30.026  27.924  22.889  1.00  0.00    -0.045 A 
ATOM     21  C   UNL A   1      28.882  27.357  23.466  1.00  0.00     0.004 A 
ATOM     22  C   UNL A   1      29.927  29.190  22.292  1.00  0.00     0.004 A 
ATOM     23  C   UNL A   1      27.669  28.053  23.447  1.00  0.00     0.000 A 
ATOM     24  C   UNL A   1      28.719  29.883  22.280  1.00  0.00     0.000 A 
ATOM     25  C   UNL A   1      27.589  29.313  22.856  1.00  0.00     0.000 A 
ENDBRANCH  19  20
ENDBRANCH   5  19
ENDBRANCH   3   5
ENDBRANCH   2   3
ENDBRANCH   1   2
BRANCH   1  26
ATOM     26  C   UNL A   1      32.998  30.748  26.936  1.00  0.00     0.275 C 
BRANCH  26  27
ATOM     27  O   UNL A   1      34.072  30.058  27.596  1.00  0.00    -0.458 OA
BRANCH  27  28
ATOM     28  C   UNL A   1      34.805  30.803  28.454  1.00  0.00     0.338 C 
ATOM     29  O   UNL A   1      34.502  31.861  28.970  1.00  0.00    -0.246 OA
BRANCH  28  30
ATOM     30  C   UNL A   1      36.126  30.180  28.627  1.00  0.00     0.060 A 
ATOM     31  C   UNL A   1      36.550  29.702  29.871  1.00  0.00     0.016 A 
ATOM     32  C   UNL A   1      36.984  30.155  27.530  1.00  0.00     0.016 A 
ATOM     33  C   UNL A   1      37.846  29.214  30.026  1.00  0.00     0.010 A 
ATOM     34  C   UNL A   1      38.267  29.631  27.675  1.00  0.00     0.010 A 
ATOM     35  C   UNL A   1      38.710  29.172  28.927  1.00  0.00    -0.014 A 
BRANCH  35  36
ATOM     36  C   UNL A   1      40.093  28.662  29.058  1.00  0.00     0.031 A 
ATOM     37  C   UNL A   1      41.200  29.603  29.432  1.00  0.00     0.074 A 
ATOM     38  C   UNL A   1      40.355  27.371  28.786  1.00  0.00     0.049 A 
ATOM     39  N   UNL A   1      42.494  29.414  29.392  1.00  0.00    -0.248 NA
ATOM     40  C   UNL A   1      40.798  30.936  29.911  1.00  0.00     0.031 C 
ATOM     41  C   UNL A   1      39.355  26.354  28.457  1.00  0.00     0.029 A 
ATOM     42  N   UNL A   1      41.550  26.702  28.719  1.00  0.00    -0.354 N 
ATOM     43  C   UNL A   1      43.062  30.611  29.809  1.00  0.00     0.074 A 
ATOM     44  C   UNL A   1      41.973  31.522  30.096  1.00  0.00     0.031 C 
ATOM     45  C   UNL A   1      39.979  25.190  28.214  1.00  0.00     0.029 A 
ATOM     46  C   UNL A   1      41.420  25.397  28.309  1.00  0.00     0.049 A 
ATOM     47  H   UNL A   1      42.415  27.114  28.944  1.00  0.00     0.167 HD
ATOM     48  C   UNL A   1      44.373  30.921  29.931  1.00  0.00     0.031 A 
ATOM     49  C   UNL A   1      42.360  24.486  27.997  1.00  0.00     0.031 A 
ATOM     50  C   UNL A   1      45.448  30.010  29.638  1.00  0.00     0.049 A 
ATOM     51  C   UNL A   1      43.808  24.874  28.081  1.00  0.00     0.074 A 
ATOM     52  C   UNL A   1      46.812  30.228  29.712  1.00  0.00     0.029 A 
ATOM     53  N   UNL A   1      45.273  28.700  29.219  1.00  0.00    -0.354 N 
ATOM     54  N   UNL A   1      44.335  26.020  28.438  1.00  0.00    -0.248 NA
ATOM     55  C   UNL A   1      44.789  23.846  27.711  1.00  0.00     0.031 C 
ATOM     56  C   UNL A   1      47.464  29.058  29.307  1.00  0.00     0.029 A 
ATOM     57  C   UNL A   1      46.505  28.100  29.022  1.00  0.00     0.049 A 
ATOM     58  H   UNL A   1      44.402  28.261  29.083  1.00  0.00     0.167 HD
ATOM     59  C   UNL A   1      45.709  25.847  28.351  1.00  0.00     0.074 A 
ATOM     60  C   UNL A   1      45.933  24.481  27.924  1.00  0.00     0.031 C 
ATOM     61  C   UNL A   1      46.698  26.738  28.598  1.00  0.00     0.031 A 
BRANCH  48  62
ATOM     62  C   UNL A   1      44.720  32.314  30.370  1.00  0.00    -0.014 A 
ATOM     63  C   UNL A   1      44.921  32.622  31.723  1.00  0.00     0.009 A 
ATOM     64  C   UNL A   1      44.890  33.324  29.409  1.00  0.00     0.009 A 
ATOM     65  C   UNL A   1      45.265  33.921  32.108  1.00  0.00     0.001 A 
ATOM     66  C   UNL A   1      45.254  34.616  29.795  1.00  0.00     0.001 A 
ATOM     67  C   UNL A   1      45.436  34.914  31.144  1.00  0.00     0.000 A 
ENDBRANCH  48  62
BRANCH  49  68
ATOM     68  C   UNL A   1      41.956  23.136  27.528  1.00  0.00    -0.014 A 
ATOM     69  C   UNL A   1      41.645  22.125  28.449  1.00  0.00     0.009 A 
ATOM     70  C   UNL A   1      41.877  22.854  26.156  1.00  0.00     0.009 A 
ATOM     71  C   UNL A   1      41.280  20.852  28.004  1.00  0.00     0.001 A 
ATOM     72  C   UNL A   1      41.485  21.589  25.713  1.00  0.00     0.001 A 
ATOM     73  C   UNL A   1      41.195  20.587  26.637  1.00  0.00     0.000 A 
ENDBRANCH  49  68
BRANCH  61  74
ATOM     74  C   UNL A   1      48.106  26.245  28.444  1.00  0.00    -0.014 A 
ATOM     75  C   UNL A   1      48.807  25.703  29.531  1.00  0.00     0.009 A 
ATOM     76  C   UNL A   1      48.728  26.305  27.187  1.00  0.00     0.009 A 
ATOM     77  C   UNL A   1      50.119  25.257  29.369  1.00  0.00     0.001 A 
ATOM     78  C   UNL A   1      50.032  25.838  27.024  1.00  0.00     0.001 A 
ATOM     79  C   UNL A   1      50.729  25.323  28.116  1.00  0.00     0.000 A 
ENDBRANCH  61  74
ENDBRANCH  35  36
ENDBRANCH  28  30
ENDBRANCH  27  28
ENDBRANCH  26  27
ENDBRANCH   1  26
TORSDOF 14
ENDMDL
MODEL 3
REMARK VINA RESULT:     -11.2      2.827      7.731
REMARK SMILES CC1=C[C@@H](C)[C@H]2C(=O)N([C@H](Cc3ccccc3)C(=O)OCCOC(=O)c3ccc(-c4c5nc(c(-c6ccccc6)c6ccc([nH]6)c(-c6ccccc6)c6nc(c(-c7ccccc7)c7ccc4[nH]7)C=C6)C=C5)cc3)C(=O)[C@H]2C1
REMARK SMILES IDX 21 1 20 2 18 3 19 4 10 5 9 6 1 7 2 8 3 9 77 10 4 11 76 12
REMARK SMILES IDX 6 13 5 14 74 15 7 16 75 17 8 18 11 19 12 20 13 21 17 22
REMARK SMILES IDX 14 23 16 24 15 25 22 26 23 27 24 28 25 29 26 30 27 31 73 32
REMARK SMILES IDX 28 33 72 34 29 35 30 36 31 37 66 38 32 39 71 40 65 41 67 42
REMARK SMILES IDX 33 43 70 44 64 45 63 46 34 48 56 49 41 50 55 51 42 52 45 53
REMARK SMILES IDX 54 54 68 55 43 56 44 57 53 59 69 60 46 61 35 62 36 63 40 64
REMARK SMILES IDX 37 65 39 66 38 67 57 68 58 69 62 70 59 71 61 72 60 73 47 74
REMARK SMILES IDX 48 75 52 76 49 77 51 78 50 79
REMARK H PARENT 67 47 45 58
REMARK Flexibility Score: inf
ROOT
ATOM      1  C   UNL A   1      37.806  20.205  24.981  1.00  0.00     0.274 C 
ENDROOT
BRANCH   1   2
ATOM      2  O   UNL A   1      36.776  21.139  25.342  1.00  0.00    -0.461 OA
BRANCH   2   3
ATOM      3  C   UNL A   1      36.323  21.938  24.341  1.00  0.00     0.329 C 
ATOM      4  O   UNL A   1      37.036  22.608  23.598  1.00  0.00    -0.250 OA
BRANCH   3   5
ATOM      5  C   UNL A   1      34.799  22.021  24.293  1.00  0.00     0.207 C 
BRANCH   5   6
ATOM      6  N   UNL A   1      34.450  23.380  24.717  1.00  0.00    -0.267 N 
ATOM      7  C   UNL A   1      30.434  27.502  24.013  1.00  0.00     0.039 C 
ATOM      8  C   UNL A   1      31.431  26.583  24.658  1.00  0.00    -0.076 C 
ATOM      9  C   UNL A   1      31.085  25.818  25.705  1.00  0.00    -0.024 C 
ATOM     10  C   UNL A   1      32.807  26.578  24.050  1.00  0.00     0.044 C 
ATOM     11  C   UNL A   1      31.982  24.817  26.368  1.00  0.00     0.022 C 
ATOM     12  C   UNL A   1      33.807  25.605  24.660  1.00  0.00     0.096 C 
ATOM     13  C   UNL A   1      33.476  25.039  26.041  1.00  0.00     0.098 C 
ATOM     14  C   UNL A   1      31.411  23.425  26.044  1.00  0.00     0.013 C 
ATOM     15  C   UNL A   1      34.074  24.364  23.847  1.00  0.00     0.234 C 
ATOM     16  C   UNL A   1      34.199  23.723  26.021  1.00  0.00     0.234 C 
ATOM     17  O   UNL A   1      34.012  24.265  22.632  1.00  0.00    -0.274 OA
ATOM     18  O   UNL A   1      34.406  23.041  27.013  1.00  0.00    -0.274 OA
ENDBRANCH   5   6
BRANCH   5  19
ATOM     19  C   UNL A   1      33.984  20.979  25.068  1.00  0.00     0.073 C 
BRANCH  19  20
ATOM     20  C   UNL A   1      33.680  19.681  24.360  1.00  0.00    -0.045 A 
ATOM     21  C   UNL A   1      32.564  19.533  23.526  1.00  0.00     0.004 A 
ATOM     22  C   UNL A   1      34.517  18.576  24.577  1.00  0.00     0.004 A 
ATOM     23  C   UNL A   1      32.301  18.300  22.921  1.00  0.00     0.000 A 
ATOM     24  C   UNL A   1      34.256  17.352  23.967  1.00  0.00     0.000 A 
ATOM     25  C   UNL A   1      33.146  17.213  23.140  1.00  0.00     0.000 A 
ENDBRANCH  19  20
ENDBRANCH   5  19
ENDBRANCH   3   5
ENDBRANCH   2   3
ENDBRANCH   1   2
BRANCH   1  26
ATOM     26  C   UNL A   1      39.157  20.685  25.495  1.00  0.00     0.275 C 
BRANCH  26  27
ATOM     27  O   UNL A   1      39.945  19.552  25.898  1.00  0.00    -0.458 OA
BRANCH  27  28
ATOM     28  C   UNL A   1      41.282  19.749  25.925  1.00  0.00     0.338 C 
ATOM     29  O   UNL A   1      42.158  18.968  25.605  1.00  0.00    -0.246 OA
BRANCH  28  30
ATOM     30  C   UNL A   1      41.563  21.071  26.504  1.00  0.00     0.060 A 
ATOM     31  C   UNL A   1      42.071  22.115  25.725  1.00  0.00     0.016 A 
ATOM     32  C   UNL A   1      41.389  21.232  27.877  1.00  0.00     0.016 A 
ATOM     33  C   UNL A   1      42.426  23.322  26.323  1.00  0.00     0.010 A 
ATOM     34  C   UNL A   1      41.708  22.452  28.469  1.00  0.00     0.010 A 
ATOM     35  C   UNL A   1      42.242  23.499  27.699  1.00  0.00    -0.014 A 
BRANCH  35  36
ATOM     36  C   UNL A   1      42.612  24.767  28.366  1.00  0.00     0.031 A 
ATOM     37  C   UNL A   1      41.574  25.833  28.565  1.00  0.00     0.074 A 
ATOM     38  C   UNL A   1      43.888  24.977  28.736  1.00  0.00     0.049 A 
ATOM     39  N   UNL A   1      41.730  27.081  28.924  1.00  0.00    -0.248 NA
ATOM     40  C   UNL A   1      40.175  25.442  28.322  1.00  0.00     0.031 C 
ATOM     41  C   UNL A   1      44.972  23.999  28.634  1.00  0.00     0.029 A 
ATOM     42  N   UNL A   1      44.491  26.096  29.251  1.00  0.00    -0.354 N 
ATOM     43  C   UNL A   1      40.456  27.634  28.921  1.00  0.00     0.074 A 
ATOM     44  C   UNL A   1      39.537  26.588  28.523  1.00  0.00     0.031 C 
ATOM     45  C   UNL A   1      46.111  24.564  29.065  1.00  0.00     0.029 A 
ATOM     46  C   UNL A   1      45.848  25.957  29.411  1.00  0.00     0.049 A 
ATOM     47  H   UNL A   1      44.001  26.917  29.483  1.00  0.00     0.167 HD
ATOM     48  C   UNL A   1      40.092  28.904  29.216  1.00  0.00     0.031 A 
ATOM     49  C   UNL A   1      46.782  26.864  29.751  1.00  0.00     0.031 A 
ATOM     50  C   UNL A   1      41.013  29.938  29.606  1.00  0.00     0.049 A 
ATOM     51  C   UNL A   1      46.359  28.281  30.013  1.00  0.00     0.074 A 
ATOM     52  C   UNL A   1      40.750  31.262  29.910  1.00  0.00     0.029 A 
ATOM     53  N   UNL A   1      42.380  29.756  29.750  1.00  0.00    -0.354 N 
ATOM     54  N   UNL A   1      45.158  28.805  29.970  1.00  0.00    -0.248 NA
ATOM     55  C   UNL A   1      47.422  29.233  30.362  1.00  0.00     0.031 C 
ATOM     56  C   UNL A   1      41.965  31.891  30.208  1.00  0.00     0.029 A 
ATOM     57  C   UNL A   1      42.976  30.946  30.130  1.00  0.00     0.049 A 
ATOM     58  H   UNL A   1      42.856  28.907  29.605  1.00  0.00     0.167 HD
ATOM     59  C   UNL A   1      45.317  30.143  30.301  1.00  0.00     0.074 A 
ATOM     60  C   UNL A   1      46.729  30.345  30.559  1.00  0.00     0.031 C 
ATOM     61  C   UNL A   1      44.382  31.119  30.381  1.00  0.00     0.031 A 
BRANCH  48  62
ATOM     62  C   UNL A   1      38.636  29.254  29.096  1.00  0.00    -0.014 A 
ATOM     63  C   UNL A   1      37.778  29.189  30.204  1.00  0.00     0.009 A 
ATOM     64  C   UNL A   1      38.127  29.698  27.865  1.00  0.00     0.009 A 
ATOM     65  C   UNL A   1      36.432  29.541  30.074  1.00  0.00     0.001 A 
ATOM     66  C   UNL A   1      36.787  30.069  27.745  1.00  0.00     0.001 A 
ATOM     67  C   UNL A   1      35.939  29.985  28.848  1.00  0.00     0.000 A 
ENDBRANCH  48  62
BRANCH  49  68
ATOM     68  C   UNL A   1      48.211  26.469  29.813  1.00  0.00    -0.014 A 
ATOM     69  C   UNL A   1      48.748  25.913  30.984  1.00  0.00     0.009 A 
ATOM     70  C   UNL A   1      49.046  26.643  28.698  1.00  0.00     0.009 A 
ATOM     71  C   UNL A   1      50.097  25.556  31.042  1.00  0.00     0.001 A 
ATOM     72  C   UNL A   1      50.388  26.260  28.751  1.00  0.00     0.001 A 
ATOM     73  C   UNL A   1      50.914  25.725  29.925  1.00  0.00     0.000 A 
ENDBRANCH  49  68
BRANCH  61  74
ATOM     74  C   UNL A   1      44.859  32.478  30.797  1.00  0.00    -0.014 A 
ATOM     75  C   UNL A   1      45.253  33.431  29.845  1.00  0.00     0.009 A 
ATOM     76  C   UNL A   1      44.891  32.815  32.159  1.00  0.00     0.009 A 
ATOM     77  C   UNL A   1      45.701  34.688  30.253  1.00  0.00     0.001 A 
ATOM     78  C   UNL A   1      45.318  34.080  32.562  1.00  0.00     0.001 A 
ATOM     79  C   UNL A   1      45.731  35.012  31.610  1.00  0.00     0.000 A 
ENDBRANCH  61  74
ENDBRANCH  35  36
ENDBRANCH  28  30
ENDBRANCH  27  28
ENDBRANCH  26  27
ENDBRANCH   1  26
TORSDOF 14
ENDMDL
