MODEL 1
REMARK VINA RESULT:     -11.6      0.000      0.000
REMARK SMILES Cc1ccnc(C(=O)c2[nH]c3ccc(OC(F)(F)F)cc3c2CC(=O)OCCOC(=O)c2ccc(-c3c4nc(c(-c5ccccc5)c5ccc([nH]5)c(-c5ccccc5)c5nc(c(-c6ccccc6)c6ccc3[nH]6)C=C5)C=C4)cc2)c1
REMARK SMILES IDX 27 1 26 2 24 3 25 4 23 5 22 6 9 7 10 8 11 9 21 11 12 12
REMARK SMILES IDX 20 13 13 14 14 15 7 16 8 17 6 18 1 19 2 20 3 21 80 22 4 23
REMARK SMILES IDX 5 24 15 25 16 26 17 27 18 28 19 29 28 30 29 31 30 32 31 33
REMARK SMILES IDX 32 34 33 35 79 36 34 37 78 38 35 39 36 40 37 41 72 42 38 43
REMARK SMILES IDX 77 44 71 45 73 46 39 47 76 48 70 49 69 50 40 52 62 53 47 54
REMARK SMILES IDX 61 55 48 56 51 57 60 58 74 59 49 60 50 61 59 63 75 64 52 65
REMARK SMILES IDX 41 66 42 67 46 68 43 69 45 70 44 71 63 72 64 73 68 74 65 75
REMARK SMILES IDX 67 76 66 77 53 78 54 79 58 80 55 81 57 82 56 83
REMARK H PARENT 10 10 73 51 51 62
REMARK Flexibility Score: inf
ROOT
ATOM      1  C   UNL A   1      31.984  31.034  26.739  1.00  0.00     0.274 C 
ENDROOT
BRANCH   1   2
ATOM      2  O   UNL A   1      33.186  30.289  26.436  1.00  0.00    -0.462 OA
BRANCH   2   3
ATOM      3  C   UNL A   1      33.148  28.963  26.711  1.00  0.00     0.310 C 
ATOM      4  O   UNL A   1      33.105  28.501  27.851  1.00  0.00    -0.252 OA
BRANCH   3   5
ATOM      5  C   UNL A   1      33.020  28.049  25.512  1.00  0.00     0.161 C 
BRANCH   5   6
ATOM      6  C   UNL A   1      31.729  27.345  25.233  1.00  0.00     0.000 A 
ATOM      7  C   UNL A   1      31.392  26.014  25.483  1.00  0.00     0.093 A 
ATOM      8  N   UNL A   1      30.116  25.824  25.010  1.00  0.00    -0.352 N 
ATOM      9  C   UNL A   1      29.694  26.909  24.294  1.00  0.00     0.046 A 
ATOM     10  H   UNL A   1      29.579  25.015  25.165  1.00  0.00     0.167 HD
ATOM     11  C   UNL A   1      30.640  27.912  24.478  1.00  0.00     0.008 A 
ATOM     12  C   UNL A   1      28.549  27.071  23.513  1.00  0.00     0.030 A 
ATOM     13  C   UNL A   1      30.390  29.171  23.889  1.00  0.00     0.057 A 
ATOM     14  C   UNL A   1      28.343  28.318  22.914  1.00  0.00     0.049 A 
ATOM     15  C   UNL A   1      29.237  29.369  23.110  1.00  0.00     0.130 A 
BRANCH   7  16
ATOM     16  C   UNL A   1      32.065  24.898  26.133  1.00  0.00     0.227 C 
ATOM     17  O   UNL A   1      31.596  24.413  27.162  1.00  0.00    -0.285 OA
BRANCH  16  18
ATOM     18  C   UNL A   1      33.141  24.138  25.389  1.00  0.00     0.113 A 
ATOM     19  C   UNL A   1      36.919  23.740  25.356  1.00  0.00     0.044 C 
ATOM     20  C   UNL A   1      35.468  23.659  24.981  1.00  0.00    -0.047 A 
ATOM     21  C   UNL A   1      35.107  23.184  23.721  1.00  0.00     0.023 A 
ATOM     22  C   UNL A   1      34.462  24.128  25.839  1.00  0.00     0.036 A 
ATOM     23  C   UNL A   1      33.771  23.203  23.364  1.00  0.00     0.112 A 
ATOM     24  N   UNL A   1      32.790  23.669  24.160  1.00  0.00    -0.253 NA
ENDBRANCH  16  18
ENDBRANCH   7  16
BRANCH  15  25
ATOM     25  O   UNL A   1      29.115  30.632  22.598  1.00  0.00    -0.406 OA
BRANCH  25  26
ATOM     26  C   UNL A   1      28.462  31.604  23.398  1.00  0.00     0.573 C 
ATOM     27  F   UNL A   1      28.090  32.671  22.658  1.00  0.00    -0.132 F 
ATOM     28  F   UNL A   1      27.379  31.087  24.018  1.00  0.00    -0.132 F 
ATOM     29  F   UNL A   1      29.321  32.033  24.349  1.00  0.00    -0.132 F 
ENDBRANCH  25  26
ENDBRANCH  15  25
ENDBRANCH   5   6
ENDBRANCH   3   5
ENDBRANCH   2   3
ENDBRANCH   1   2
BRANCH   1  30
ATOM     30  C   UNL A   1      32.183  32.550  26.582  1.00  0.00     0.275 C 
BRANCH  30  31
ATOM     31  O   UNL A   1      31.855  33.292  27.779  1.00  0.00    -0.458 OA
BRANCH  31  32
ATOM     32  C   UNL A   1      32.843  34.104  28.189  1.00  0.00     0.338 C 
ATOM     33  O   UNL A   1      32.736  35.295  28.484  1.00  0.00    -0.246 OA
BRANCH  32  34
ATOM     34  C   UNL A   1      34.116  33.429  28.411  1.00  0.00     0.060 A 
ATOM     35  C   UNL A   1      34.151  32.459  29.414  1.00  0.00     0.016 A 
ATOM     36  C   UNL A   1      35.300  33.927  27.863  1.00  0.00     0.016 A 
ATOM     37  C   UNL A   1      35.365  32.045  29.935  1.00  0.00     0.010 A 
ATOM     38  C   UNL A   1      36.526  33.448  28.336  1.00  0.00     0.010 A 
ATOM     39  C   UNL A   1      36.567  32.527  29.397  1.00  0.00    -0.014 A 
BRANCH  39  40
ATOM     40  C   UNL A   1      37.837  32.002  29.948  1.00  0.00     0.031 A 
ATOM     41  C   UNL A   1      38.507  32.642  31.128  1.00  0.00     0.074 A 
ATOM     42  C   UNL A   1      38.327  30.859  29.430  1.00  0.00     0.049 A 
ATOM     43  N   UNL A   1      39.554  32.233  31.801  1.00  0.00    -0.248 NA
ATOM     44  C   UNL A   1      37.924  33.895  31.630  1.00  0.00     0.031 C 
ATOM     45  C   UNL A   1      37.738  30.122  28.310  1.00  0.00     0.029 A 
ATOM     46  N   UNL A   1      39.407  30.102  29.800  1.00  0.00    -0.354 N 
ATOM     47  C   UNL A   1      39.742  33.163  32.815  1.00  0.00     0.074 A 
ATOM     48  C   UNL A   1      38.720  34.176  32.655  1.00  0.00     0.031 C 
ATOM     49  C   UNL A   1      38.437  28.996  28.111  1.00  0.00     0.029 A 
ATOM     50  C   UNL A   1      39.553  28.962  29.050  1.00  0.00     0.049 A 
ATOM     51  H   UNL A   1      40.019  30.351  30.530  1.00  0.00     0.167 HD
ATOM     52  C   UNL A   1      40.679  33.170  33.793  1.00  0.00     0.031 A 
ATOM     53  C   UNL A   1      40.491  28.000  29.098  1.00  0.00     0.031 A 
ATOM     54  C   UNL A   1      41.728  32.192  33.923  1.00  0.00     0.049 A 
ATOM     55  C   UNL A   1      41.586  28.100  30.115  1.00  0.00     0.074 A 
ATOM     56  C   UNL A   1      42.742  32.133  34.864  1.00  0.00     0.029 A 
ATOM     57  N   UNL A   1      41.907  31.112  33.075  1.00  0.00    -0.354 N 
ATOM     58  N   UNL A   1      41.743  28.982  31.072  1.00  0.00    -0.248 NA
ATOM     59  C   UNL A   1      42.638  27.078  30.051  1.00  0.00     0.031 C 
ATOM     60  C   UNL A   1      43.562  31.041  34.556  1.00  0.00     0.029 A 
ATOM     61  C   UNL A   1      43.034  30.399  33.449  1.00  0.00     0.049 A 
ATOM     62  H   UNL A   1      41.321  30.885  32.317  1.00  0.00     0.167 HD
ATOM     63  C   UNL A   1      42.911  28.620  31.726  1.00  0.00     0.074 A 
ATOM     64  C   UNL A   1      43.406  27.425  31.073  1.00  0.00     0.031 C 
ATOM     65  C   UNL A   1      43.523  29.227  32.772  1.00  0.00     0.031 A 
BRANCH  52  66
ATOM     66  C   UNL A   1      40.629  34.290  34.790  1.00  0.00    -0.014 A 
ATOM     67  C   UNL A   1      39.935  34.143  36.001  1.00  0.00     0.009 A 
ATOM     68  C   UNL A   1      41.326  35.482  34.543  1.00  0.00     0.009 A 
ATOM     69  C   UNL A   1      39.928  35.176  36.940  1.00  0.00     0.001 A 
ATOM     70  C   UNL A   1      41.328  36.508  35.489  1.00  0.00     0.001 A 
ATOM     71  C   UNL A   1      40.627  36.356  36.685  1.00  0.00     0.000 A 
ENDBRANCH  52  66
BRANCH  53  72
ATOM     72  C   UNL A   1      40.452  26.887  28.120  1.00  0.00    -0.014 A 
ATOM     73  C   UNL A   1      41.080  27.006  26.873  1.00  0.00     0.009 A 
ATOM     74  C   UNL A   1      39.794  25.689  28.443  1.00  0.00     0.009 A 
ATOM     75  C   UNL A   1      41.037  25.949  25.961  1.00  0.00     0.001 A 
ATOM     76  C   UNL A   1      39.774  24.626  27.540  1.00  0.00     0.001 A 
ATOM     77  C   UNL A   1      40.390  24.760  26.297  1.00  0.00     0.000 A 
ENDBRANCH  53  72
BRANCH  65  78
ATOM     78  C   UNL A   1      44.792  28.595  33.260  1.00  0.00    -0.014 A 
ATOM     79  C   UNL A   1      44.763  27.575  34.223  1.00  0.00     0.009 A 
ATOM     80  C   UNL A   1      46.029  29.030  32.760  1.00  0.00     0.009 A 
ATOM     81  C   UNL A   1      45.953  27.027  34.704  1.00  0.00     0.001 A 
ATOM     82  C   UNL A   1      47.216  28.466  33.228  1.00  0.00     0.001 A 
ATOM     83  C   UNL A   1      47.177  27.472  34.206  1.00  0.00     0.000 A 
ENDBRANCH  65  78
ENDBRANCH  39  40
ENDBRANCH  32  34
ENDBRANCH  31  32
ENDBRANCH  30  31
ENDBRANCH   1  30
TORSDOF 16
ENDMDL
MODEL 2
REMARK VINA RESULT:     -11.5      2.722      6.789
REMARK SMILES Cc1ccnc(C(=O)c2[nH]c3ccc(OC(F)(F)F)cc3c2CC(=O)OCCOC(=O)c2ccc(-c3c4nc(c(-c5ccccc5)c5ccc([nH]5)c(-c5ccccc5)c5nc(c(-c6ccccc6)c6ccc3[nH]6)C=C5)C=C4)cc2)c1
REMARK SMILES IDX 27 1 26 2 24 3 25 4 23 5 22 6 9 7 10 8 11 9 21 11 12 12
REMARK SMILES IDX 20 13 13 14 14 15 7 16 8 17 6 18 1 19 2 20 3 21 80 22 4 23
REMARK SMILES IDX 5 24 15 25 16 26 17 27 18 28 19 29 28 30 29 31 30 32 31 33
REMARK SMILES IDX 32 34 33 35 79 36 34 37 78 38 35 39 36 40 37 41 72 42 38 43
REMARK SMILES IDX 77 44 71 45 73 46 39 47 76 48 70 49 69 50 40 52 62 53 47 54
REMARK SMILES IDX 61 55 48 56 51 57 60 58 74 59 49 60 50 61 59 63 75 64 52 65
REMARK SMILES IDX 41 66 42 67 46 68 43 69 45 70 44 71 63 72 64 73 68 74 65 75
REMARK SMILES IDX 67 76 66 77 53 78 54 79 58 80 55 81 57 82 56 83
REMARK H PARENT 10 10 73 51 51 62
REMARK Flexibility Score: inf
ROOT
ATOM      1  C   UNL A   1      32.933  29.368  25.087  1.00  0.00     0.274 C 
ENDROOT
BRANCH   1   2
ATOM      2  O   UNL A   1      33.427  28.127  24.533  1.00  0.00    -0.462 OA
BRANCH   2   3
ATOM      3  C   UNL A   1      33.550  28.085  23.184  1.00  0.00     0.310 C 
ATOM      4  O   UNL A   1      34.408  28.703  22.555  1.00  0.00    -0.252 OA
BRANCH   3   5
ATOM      5  C   UNL A   1      32.640  27.107  22.474  1.00  0.00     0.161 C 
BRANCH   5   6
ATOM      6  C   UNL A   1      31.334  26.707  23.088  1.00  0.00     0.000 A 
ATOM      7  C   UNL A   1      30.952  25.460  23.584  1.00  0.00     0.093 A 
ATOM      8  N   UNL A   1      29.646  25.573  23.998  1.00  0.00    -0.352 N 
ATOM      9  C   UNL A   1      29.113  26.771  23.613  1.00  0.00     0.046 A 
ATOM     10  H   UNL A   1      29.161  24.883  24.505  1.00  0.00     0.167 HD
ATOM     11  C   UNL A   1      30.159  27.540  23.114  1.00  0.00     0.008 A 
ATOM     12  C   UNL A   1      27.795  27.223  23.681  1.00  0.00     0.030 A 
ATOM     13  C   UNL A   1      29.871  28.864  22.712  1.00  0.00     0.057 A 
ATOM     14  C   UNL A   1      27.532  28.525  23.245  1.00  0.00     0.049 A 
ATOM     15  C   UNL A   1      28.555  29.352  22.783  1.00  0.00     0.130 A 
BRANCH   7  16
ATOM     16  C   UNL A   1      31.630  24.185  23.766  1.00  0.00     0.227 C 
ATOM     17  O   UNL A   1      31.156  23.161  23.277  1.00  0.00    -0.285 OA
BRANCH  16  18
ATOM     18  C   UNL A   1      33.055  24.162  24.273  1.00  0.00     0.113 A 
ATOM     19  C   UNL A   1      36.500  22.972  23.200  1.00  0.00     0.044 C 
ATOM     20  C   UNL A   1      35.361  23.505  24.018  1.00  0.00    -0.047 A 
ATOM     21  C   UNL A   1      35.512  23.650  25.397  1.00  0.00     0.023 A 
ATOM     22  C   UNL A   1      34.112  23.784  23.444  1.00  0.00     0.036 A 
ATOM     23  C   UNL A   1      34.421  24.056  26.143  1.00  0.00     0.112 A 
ATOM     24  N   UNL A   1      33.206  24.309  25.619  1.00  0.00    -0.253 NA
ENDBRANCH  16  18
ENDBRANCH   7  16
BRANCH  15  25
ATOM     25  O   UNL A   1      28.412  30.647  22.364  1.00  0.00    -0.406 OA
BRANCH  25  26
ATOM     26  C   UNL A   1      28.297  31.650  23.360  1.00  0.00     0.573 C 
ATOM     27  F   UNL A   1      29.263  31.518  24.295  1.00  0.00    -0.132 F 
ATOM     28  F   UNL A   1      28.354  32.888  22.824  1.00  0.00    -0.132 F 
ATOM     29  F   UNL A   1      27.100  31.516  23.975  1.00  0.00    -0.132 F 
ENDBRANCH  25  26
ENDBRANCH  15  25
ENDBRANCH   5   6
ENDBRANCH   3   5
ENDBRANCH   2   3
ENDBRANCH   1   2
BRANCH   1  30
ATOM     30  C   UNL A   1      32.857  29.333  26.621  1.00  0.00     0.275 C 
BRANCH  30  31
ATOM     31  O   UNL A   1      34.141  29.107  27.247  1.00  0.00    -0.458 OA
BRANCH  31  32
ATOM     32  C   UNL A   1      34.631  30.195  27.864  1.00  0.00     0.338 C 
ATOM     33  O   UNL A   1      34.008  31.220  28.142  1.00  0.00    -0.246 OA
BRANCH  32  34
ATOM     34  C   UNL A   1      36.000  30.043  28.342  1.00  0.00     0.060 A 
ATOM     35  C   UNL A   1      37.019  30.198  27.402  1.00  0.00     0.016 A 
ATOM     36  C   UNL A   1      36.266  29.485  29.595  1.00  0.00     0.016 A 
ATOM     37  C   UNL A   1      38.289  29.717  27.673  1.00  0.00     0.010 A 
ATOM     38  C   UNL A   1      37.569  29.073  29.896  1.00  0.00     0.010 A 
ATOM     39  C   UNL A   1      38.582  29.159  28.925  1.00  0.00    -0.014 A 
BRANCH  39  40
ATOM     40  C   UNL A   1      39.973  28.720  29.185  1.00  0.00     0.031 A 
ATOM     41  C   UNL A   1      40.451  27.351  28.799  1.00  0.00     0.074 A 
ATOM     42  C   UNL A   1      40.839  29.624  29.681  1.00  0.00     0.049 A 
ATOM     43  N   UNL A   1      41.665  26.860  28.848  1.00  0.00    -0.248 NA
ATOM     44  C   UNL A   1      39.446  26.413  28.278  1.00  0.00     0.031 C 
ATOM     45  C   UNL A   1      40.500  30.999  30.052  1.00  0.00     0.029 A 
ATOM     46  N   UNL A   1      42.184  29.533  29.922  1.00  0.00    -0.354 N 
ATOM     47  C   UNL A   1      41.574  25.569  28.347  1.00  0.00     0.074 A 
ATOM     48  C   UNL A   1      40.182  25.338  28.024  1.00  0.00     0.031 C 
ATOM     49  C   UNL A   1      41.614  31.638  30.434  1.00  0.00     0.029 A 
ATOM     50  C   UNL A   1      42.732  30.702  30.387  1.00  0.00     0.049 A 
ATOM     51  H   UNL A   1      42.706  28.711  29.778  1.00  0.00     0.167 HD
ATOM     52  C   UNL A   1      42.562  24.660  28.168  1.00  0.00     0.031 A 
ATOM     53  C   UNL A   1      43.994  30.990  30.753  1.00  0.00     0.031 A 
ATOM     54  C   UNL A   1      43.938  24.869  28.536  1.00  0.00     0.049 A 
ATOM     55  C   UNL A   1      45.041  29.923  30.657  1.00  0.00     0.074 A 
ATOM     56  C   UNL A   1      45.006  23.994  28.421  1.00  0.00     0.029 A 
ATOM     57  N   UNL A   1      44.432  26.029  29.108  1.00  0.00    -0.354 N 
ATOM     58  N   UNL A   1      44.939  28.709  30.172  1.00  0.00    -0.248 NA
ATOM     59  C   UNL A   1      46.374  30.264  31.169  1.00  0.00     0.031 C 
ATOM     60  C   UNL A   1      46.138  24.611  28.966  1.00  0.00     0.029 A 
ATOM     61  C   UNL A   1      45.782  25.883  29.382  1.00  0.00     0.049 A 
ATOM     62  H   UNL A   1      43.902  26.838  29.293  1.00  0.00     0.167 HD
ATOM     63  C   UNL A   1      46.195  28.141  30.319  1.00  0.00     0.074 A 
ATOM     64  C   UNL A   1      47.048  29.152  30.913  1.00  0.00     0.031 C 
ATOM     65  C   UNL A   1      46.607  26.891  29.995  1.00  0.00     0.031 A 
BRANCH  52  66
ATOM     66  C   UNL A   1      42.184  23.338  27.567  1.00  0.00    -0.014 A 
ATOM     67  C   UNL A   1      41.569  22.345  28.346  1.00  0.00     0.009 A 
ATOM     68  C   UNL A   1      42.392  23.102  26.200  1.00  0.00     0.009 A 
ATOM     69  C   UNL A   1      41.184  21.133  27.768  1.00  0.00     0.001 A 
ATOM     70  C   UNL A   1      41.994  21.895  25.623  1.00  0.00     0.001 A 
ATOM     71  C   UNL A   1      41.394  20.910  26.407  1.00  0.00     0.000 A 
ENDBRANCH  52  66
BRANCH  53  72
ATOM     72  C   UNL A   1      44.315  32.335  31.286  1.00  0.00    -0.014 A 
ATOM     73  C   UNL A   1      44.198  32.611  32.655  1.00  0.00     0.009 A 
ATOM     74  C   UNL A   1      44.759  33.348  30.419  1.00  0.00     0.009 A 
ATOM     75  C   UNL A   1      44.505  33.883  33.143  1.00  0.00     0.001 A 
ATOM     76  C   UNL A   1      45.089  34.609  30.914  1.00  0.00     0.001 A 
ATOM     77  C   UNL A   1      44.956  34.878  32.275  1.00  0.00     0.000 A 
ENDBRANCH  53  72
BRANCH  65  78
ATOM     78  C   UNL A   1      48.041  26.565  30.284  1.00  0.00    -0.014 A 
ATOM     79  C   UNL A   1      48.415  25.999  31.512  1.00  0.00     0.009 A 
ATOM     80  C   UNL A   1      49.028  26.833  29.324  1.00  0.00     0.009 A 
ATOM     81  C   UNL A   1      49.759  25.742  31.788  1.00  0.00     0.001 A 
ATOM     82  C   UNL A   1      50.368  26.556  29.595  1.00  0.00     0.001 A 
ATOM     83  C   UNL A   1      50.733  26.021  30.830  1.00  0.00     0.000 A 
ENDBRANCH  65  78
ENDBRANCH  39  40
ENDBRANCH  32  34
ENDBRANCH  31  32
ENDBRANCH  30  31
ENDBRANCH   1  30
TORSDOF 16
ENDMDL
MODEL 3
REMARK VINA RESULT:     -11.5      4.842      9.429
REMARK SMILES Cc1ccnc(C(=O)c2[nH]c3ccc(OC(F)(F)F)cc3c2CC(=O)OCCOC(=O)c2ccc(-c3c4nc(c(-c5ccccc5)c5ccc([nH]5)c(-c5ccccc5)c5nc(c(-c6ccccc6)c6ccc3[nH]6)C=C5)C=C4)cc2)c1
REMARK SMILES IDX 27 1 26 2 24 3 25 4 23 5 22 6 9 7 10 8 11 9 21 11 12 12
REMARK SMILES IDX 20 13 13 14 14 15 7 16 8 17 6 18 1 19 2 20 3 21 80 22 4 23
REMARK SMILES IDX 5 24 15 25 16 26 17 27 18 28 19 29 28 30 29 31 30 32 31 33
REMARK SMILES IDX 32 34 33 35 79 36 34 37 78 38 35 39 36 40 37 41 72 42 38 43
REMARK SMILES IDX 77 44 71 45 73 46 39 47 76 48 70 49 69 50 40 52 62 53 47 54
REMARK SMILES IDX 61 55 48 56 51 57 60 58 74 59 49 60 50 61 59 63 75 64 52 65
REMARK SMILES IDX 41 66 42 67 46 68 43 69 45 70 44 71 63 72 64 73 68 74 65 75
REMARK SMILES IDX 67 76 66 77 53 78 54 79 58 80 55 81 57 82 56 83
REMARK H PARENT 10 10 73 51 51 62
REMARK Flexibility Score: inf
ROOT
ATOM      1  C   UNL A   1      37.777  21.068  25.211  1.00  0.00     0.274 C 
ENDROOT
BRANCH   1   2
ATOM      2  O   UNL A   1      37.294  22.310  24.649  1.00  0.00    -0.462 OA
BRANCH   2   3
ATOM      3  C   UNL A   1      36.748  23.186  25.527  1.00  0.00     0.310 C 
ATOM      4  O   UNL A   1      37.364  24.125  26.030  1.00  0.00    -0.252 OA
BRANCH   3   5
ATOM      5  C   UNL A   1      35.262  23.033  25.767  1.00  0.00     0.161 C 
BRANCH   5   6
ATOM      6  C   UNL A   1      34.343  22.709  24.631  1.00  0.00     0.000 A 
ATOM      7  C   UNL A   1      33.685  23.585  23.767  1.00  0.00     0.093 A 
ATOM      8  N   UNL A   1      32.918  22.820  22.922  1.00  0.00    -0.352 N 
ATOM      9  C   UNL A   1      32.898  21.515  23.327  1.00  0.00     0.046 A 
ATOM     10  H   UNL A   1      32.445  23.166  22.132  1.00  0.00     0.167 HD
ATOM     11  C   UNL A   1      33.840  21.389  24.342  1.00  0.00     0.008 A 
ATOM     12  C   UNL A   1      32.126  20.450  22.863  1.00  0.00     0.030 A 
ATOM     13  C   UNL A   1      34.060  20.103  24.883  1.00  0.00     0.057 A 
ATOM     14  C   UNL A   1      32.340  19.193  23.440  1.00  0.00     0.049 A 
ATOM     15  C   UNL A   1      33.308  19.007  24.425  1.00  0.00     0.130 A 
BRANCH   7  16
ATOM     16  C   UNL A   1      33.691  25.030  23.582  1.00  0.00     0.227 C 
ATOM     17  O   UNL A   1      34.167  25.516  22.557  1.00  0.00    -0.285 OA
BRANCH  16  18
ATOM     18  C   UNL A   1      32.844  25.902  24.482  1.00  0.00     0.113 A 
ATOM     19  C   UNL A   1      33.246  28.452  27.270  1.00  0.00     0.044 C 
ATOM     20  C   UNL A   1      32.650  27.477  26.297  1.00  0.00    -0.047 A 
ATOM     21  C   UNL A   1      31.324  27.074  26.451  1.00  0.00     0.023 A 
ATOM     22  C   UNL A   1      33.419  26.892  25.281  1.00  0.00     0.036 A 
ATOM     23  C   UNL A   1      30.823  26.108  25.598  1.00  0.00     0.112 A 
ATOM     24  N   UNL A   1      31.547  25.514  24.630  1.00  0.00    -0.253 NA
ENDBRANCH  16  18
ENDBRANCH   7  16
BRANCH  15  25
ATOM     25  O   UNL A   1      33.618  17.820  25.030  1.00  0.00    -0.406 OA
BRANCH  25  26
ATOM     26  C   UNL A   1      34.667  17.050  24.465  1.00  0.00     0.573 C 
ATOM     27  F   UNL A   1      34.493  16.897  23.134  1.00  0.00    -0.132 F 
ATOM     28  F   UNL A   1      35.873  17.610  24.700  1.00  0.00    -0.132 F 
ATOM     29  F   UNL A   1      34.659  15.823  25.032  1.00  0.00    -0.132 F 
ENDBRANCH  25  26
ENDBRANCH  15  25
ENDBRANCH   5   6
ENDBRANCH   3   5
ENDBRANCH   2   3
ENDBRANCH   1   2
BRANCH   1  30
ATOM     30  C   UNL A   1      39.253  21.153  25.631  1.00  0.00     0.275 C 
BRANCH  30  31
ATOM     31  O   UNL A   1      39.795  19.883  26.059  1.00  0.00    -0.458 OA
BRANCH  31  32
ATOM     32  C   UNL A   1      41.137  19.837  26.021  1.00  0.00     0.338 C 
ATOM     33  O   UNL A   1      41.824  18.961  25.494  1.00  0.00    -0.246 OA
BRANCH  32  34
ATOM     34  C   UNL A   1      41.789  21.026  26.555  1.00  0.00     0.060 A 
ATOM     35  C   UNL A   1      41.666  21.252  27.927  1.00  0.00     0.016 A 
ATOM     36  C   UNL A   1      42.255  22.034  25.708  1.00  0.00     0.016 A 
ATOM     37  C   UNL A   1      41.924  22.509  28.447  1.00  0.00     0.010 A 
ATOM     38  C   UNL A   1      42.592  23.279  26.248  1.00  0.00     0.010 A 
ATOM     39  C   UNL A   1      42.398  23.535  27.617  1.00  0.00    -0.014 A 
BRANCH  39  40
ATOM     40  C   UNL A   1      42.720  24.841  28.237  1.00  0.00     0.031 A 
ATOM     41  C   UNL A   1      44.129  25.222  28.582  1.00  0.00     0.074 A 
ATOM     42  C   UNL A   1      41.722  25.733  28.385  1.00  0.00     0.049 A 
ATOM     43  N   UNL A   1      44.587  26.370  29.016  1.00  0.00    -0.248 NA
ATOM     44  C   UNL A   1      45.163  24.192  28.408  1.00  0.00     0.031 C 
ATOM     45  C   UNL A   1      40.318  25.491  28.043  1.00  0.00     0.029 A 
ATOM     46  N   UNL A   1      41.741  27.030  28.826  1.00  0.00    -0.354 N 
ATOM     47  C   UNL A   1      45.960  26.208  29.146  1.00  0.00     0.074 A 
ATOM     48  C   UNL A   1      46.261  24.842  28.774  1.00  0.00     0.031 C 
ATOM     49  C   UNL A   1      39.618  26.616  28.245  1.00  0.00     0.029 A 
ATOM     50  C   UNL A   1      40.511  27.637  28.782  1.00  0.00     0.049 A 
ATOM     51  H   UNL A   1      42.556  27.482  29.143  1.00  0.00     0.167 HD
ATOM     52  C   UNL A   1      46.885  27.117  29.538  1.00  0.00     0.031 A 
ATOM     53  C   UNL A   1      40.135  28.874  29.150  1.00  0.00     0.031 A 
ATOM     54  C   UNL A   1      46.582  28.460  29.959  1.00  0.00     0.049 A 
ATOM     55  C   UNL A   1      41.164  29.817  29.693  1.00  0.00     0.074 A 
ATOM     56  C   UNL A   1      47.450  29.444  30.401  1.00  0.00     0.029 A 
ATOM     57  N   UNL A   1      45.308  29.001  30.006  1.00  0.00    -0.354 N 
ATOM     58  N   UNL A   1      42.460  29.649  29.801  1.00  0.00    -0.248 NA
ATOM     59  C   UNL A   1      40.675  31.115  30.175  1.00  0.00     0.031 C 
ATOM     60  C   UNL A   1      46.694  30.566  30.759  1.00  0.00     0.029 A 
ATOM     61  C   UNL A   1      45.361  30.294  30.501  1.00  0.00     0.049 A 
ATOM     62  H   UNL A   1      44.485  28.535  29.729  1.00  0.00     0.167 HD
ATOM     63  C   UNL A   1      42.943  30.822  30.362  1.00  0.00     0.074 A 
ATOM     64  C   UNL A   1      41.805  31.701  30.546  1.00  0.00     0.031 C 
ATOM     65  C   UNL A   1      44.216  31.142  30.699  1.00  0.00     0.031 A 
BRANCH  52  66
ATOM     66  C   UNL A   1      48.320  26.678  29.554  1.00  0.00    -0.014 A 
ATOM     67  C   UNL A   1      48.856  26.017  30.671  1.00  0.00     0.009 A 
ATOM     68  C   UNL A   1      49.128  26.877  28.425  1.00  0.00     0.009 A 
ATOM     69  C   UNL A   1      50.181  25.576  30.660  1.00  0.00     0.001 A 
ATOM     70  C   UNL A   1      50.449  26.424  28.413  1.00  0.00     0.001 A 
ATOM     71  C   UNL A   1      50.975  25.777  29.531  1.00  0.00     0.000 A 
ENDBRANCH  52  66
BRANCH  53  72
ATOM     72  C   UNL A   1      38.709  29.266  29.055  1.00  0.00    -0.014 A 
ATOM     73  C   UNL A   1      38.181  29.766  27.857  1.00  0.00     0.009 A 
ATOM     74  C   UNL A   1      37.864  29.124  30.168  1.00  0.00     0.009 A 
ATOM     75  C   UNL A   1      36.835  30.131  27.781  1.00  0.00     0.001 A 
ATOM     76  C   UNL A   1      36.515  29.465  30.081  1.00  0.00     0.001 A 
ATOM     77  C   UNL A   1      36.002  29.975  28.890  1.00  0.00     0.000 A 
ENDBRANCH  53  72
BRANCH  65  78
ATOM     78  C   UNL A   1      44.426  32.499  31.300  1.00  0.00    -0.014 A 
ATOM     79  C   UNL A   1      44.373  32.684  32.690  1.00  0.00     0.009 A 
ATOM     80  C   UNL A   1      44.670  33.603  30.470  1.00  0.00     0.009 A 
ATOM     81  C   UNL A   1      44.524  33.961  33.236  1.00  0.00     0.001 A 
ATOM     82  C   UNL A   1      44.840  34.874  31.021  1.00  0.00     0.001 A 
ATOM     83  C   UNL A   1      44.757  35.053  32.401  1.00  0.00     0.000 A 
ENDBRANCH  65  78
ENDBRANCH  39  40
ENDBRANCH  32  34
ENDBRANCH  31  32
ENDBRANCH  30  31
ENDBRANCH   1  30
TORSDOF 16
ENDMDL
