MODEL 1
REMARK VINA RESULT:     -12.4      0.000      0.000
REMARK SMILES O=C(CCn1cc(/C=C\C(=O)c2ccc(F)cc2)c(-c2cccc(Cl)c2)n1)OCCOC(=O)c1ccc(-c2c3nc(c(-c4ccccc4)c4ccc([nH]4)c(-c4ccccc4)c4nc(c(-c5ccccc5)c5ccc2[nH]5)C=C4)C=C3)cc1
REMARK SMILES IDX 28 1 2 2 1 3 3 4 4 5 5 6 6 7 27 8 7 9 19 10 8 11 9 12 10 13
REMARK SMILES IDX 11 14 12 15 13 16 18 17 14 18 17 19 15 20 16 21 20 22 21 23
REMARK SMILES IDX 26 24 22 25 24 26 23 27 25 28 29 29 30 30 31 31 32 32 33 33
REMARK SMILES IDX 34 34 35 35 81 36 36 37 80 38 37 39 38 40 39 41 74 42 40 43
REMARK SMILES IDX 79 44 73 45 75 46 41 47 78 48 72 49 71 50 42 52 64 53 49 54
REMARK SMILES IDX 63 55 50 56 53 57 62 58 76 59 51 60 52 61 61 63 77 64 54 65
REMARK SMILES IDX 43 66 44 67 48 68 45 69 47 70 46 71 65 72 66 73 70 74 67 75
REMARK SMILES IDX 69 76 68 77 55 78 56 79 60 80 57 81 59 82 58 83
REMARK H PARENT 75 51 53 62
REMARK Flexibility Score: inf
ROOT
ATOM      1  O   UNL A   1      40.739  20.096  26.367  1.00  0.00    -0.462 OA
ENDROOT
BRANCH   1   2
ATOM      2  C   UNL A   1      40.375  21.203  27.072  1.00  0.00     0.307 C 
ATOM      3  O   UNL A   1      40.768  21.363  28.222  1.00  0.00    -0.252 OA
BRANCH   2   4
ATOM      4  C   UNL A   1      39.315  22.100  26.478  1.00  0.00     0.146 C 
BRANCH   4   5
ATOM      5  C   UNL A   1      38.469  21.484  25.379  1.00  0.00     0.156 C 
BRANCH   5   6
ATOM      6  N   UNL A   1      37.095  21.958  25.405  1.00  0.00    -0.271 N 
ATOM      7  C   UNL A   1      36.413  22.583  26.423  1.00  0.00     0.117 A 
ATOM      8  N   UNL A   1      36.294  21.560  24.418  1.00  0.00    -0.172 NA
ATOM      9  C   UNL A   1      35.077  22.268  26.225  1.00  0.00     0.021 A 
ATOM     10  C   UNL A   1      35.090  21.541  24.985  1.00  0.00     0.100 A 
BRANCH   9  11
ATOM     11  C   UNL A   1      34.008  22.547  27.160  1.00  0.00     0.016 C 
ATOM     12  C   UNL A   1      32.857  23.262  27.075  1.00  0.00     0.053 C 
BRANCH  12  13
ATOM     13  C   UNL A   1      32.110  24.095  26.019  1.00  0.00     0.185 C 
ATOM     14  O   UNL A   1      30.888  24.018  25.953  1.00  0.00    -0.289 OA
BRANCH  13  15
ATOM     15  C   UNL A   1      32.945  24.879  24.973  1.00  0.00     0.022 A 
ATOM     16  C   UNL A   1      33.299  26.364  25.949  1.00  0.00     0.015 A 
ATOM     17  C   UNL A   1      33.150  25.032  22.960  1.00  0.00     0.015 A 
ATOM     18  C   UNL A   1      33.685  27.861  25.105  1.00  0.00     0.040 A 
ATOM     19  C   UNL A   1      33.534  26.646  22.255  1.00  0.00     0.040 A 
ATOM     20  C   UNL A   1      33.765  27.985  23.347  1.00  0.00     0.123 A 
ATOM     21  F   UNL A   1      34.044  29.190  22.826  1.00  0.00    -0.207 F 
ENDBRANCH  13  15
ENDBRANCH  12  13
ENDBRANCH   9  11
BRANCH  10  22
ATOM     22  C   UNL A   1      33.894  20.875  24.373  1.00  0.00     0.004 A 
ATOM     23  C   UNL A   1      32.503  21.287  22.956  1.00  0.00     0.010 A 
ATOM     24  C   UNL A   1      34.268  19.111  24.650  1.00  0.00     0.031 A 
ATOM     25  C   UNL A   1      31.803  19.948  22.004  1.00  0.00     0.002 A 
ATOM     26  C   UNL A   1      33.490  17.919  23.622  1.00  0.00     0.041 A 
ATOM     27  C   UNL A   1      32.330  18.329  22.359  1.00  0.00     0.020 A 
ATOM     28  Cl  UNL A   1      33.868  16.255  23.863  1.00  0.00    -0.084 Cl
ENDBRANCH  10  22
ENDBRANCH   5   6
ENDBRANCH   4   5
ENDBRANCH   2   4
ENDBRANCH   1   2
BRANCH   1  29
ATOM     29  C   UNL A   1      41.844  19.245  26.743  1.00  0.00     0.274 C 
BRANCH  29  30
ATOM     30  C   UNL A   1      42.945  19.070  25.710  1.00  0.00     0.275 C 
BRANCH  30  31
ATOM     31  O   UNL A   1      43.283  20.334  25.189  1.00  0.00    -0.458 OA
BRANCH  31  32
ATOM     32  C   UNL A   1      44.322  20.295  24.320  1.00  0.00     0.338 C 
ATOM     33  O   UNL A   1      44.686  19.358  23.635  1.00  0.00    -0.246 OA
BRANCH  32  34
ATOM     34  C   UNL A   1      45.024  21.573  24.454  1.00  0.00     0.060 A 
ATOM     35  C   UNL A   1      45.779  21.663  25.613  1.00  0.00     0.016 A 
ATOM     36  C   UNL A   1      44.501  22.694  23.783  1.00  0.00     0.016 A 
ATOM     37  C   UNL A   1      45.624  22.812  26.331  1.00  0.00     0.010 A 
ATOM     38  C   UNL A   1      44.343  23.837  24.502  1.00  0.00     0.010 A 
ATOM     39  C   UNL A   1      44.794  23.816  25.811  1.00  0.00    -0.014 A 
BRANCH  39  40
ATOM     40  C   UNL A   1      44.532  24.956  26.637  1.00  0.00     0.031 A 
ATOM     41  C   UNL A   1      45.651  25.903  26.533  1.00  0.00     0.074 A 
ATOM     42  C   UNL A   1      43.399  25.106  27.340  1.00  0.00     0.049 A 
ATOM     43  N   UNL A   1      46.609  26.039  27.384  1.00  0.00    -0.248 NA
ATOM     44  C   UNL A   1      45.906  26.522  25.220  1.00  0.00     0.031 C 
ATOM     45  C   UNL A   1      42.153  24.337  27.291  1.00  0.00     0.029 A 
ATOM     46  N   UNL A   1      43.110  26.084  28.226  1.00  0.00    -0.354 N 
ATOM     47  C   UNL A   1      47.464  26.965  26.812  1.00  0.00     0.074 A 
ATOM     48  C   UNL A   1      47.130  27.015  25.412  1.00  0.00     0.031 C 
ATOM     49  C   UNL A   1      41.177  25.039  27.922  1.00  0.00     0.029 A 
ATOM     50  C   UNL A   1      41.767  26.218  28.533  1.00  0.00     0.049 A 
ATOM     51  H   UNL A   1      43.803  26.659  28.623  1.00  0.00     0.167 HD
ATOM     52  C   UNL A   1      48.105  27.866  27.601  1.00  0.00     0.031 A 
ATOM     53  C   UNL A   1      41.213  27.275  29.180  1.00  0.00     0.031 A 
ATOM     54  C   UNL A   1      48.135  27.421  28.977  1.00  0.00     0.049 A 
ATOM     55  C   UNL A   1      42.314  27.983  29.887  1.00  0.00     0.074 A 
ATOM     56  C   UNL A   1      48.639  26.308  29.623  1.00  0.00     0.029 A 
ATOM     57  N   UNL A   1      47.189  27.955  29.822  1.00  0.00    -0.354 N 
ATOM     58  N   UNL A   1      42.964  27.459  30.887  1.00  0.00    -0.248 NA
ATOM     59  C   UNL A   1      43.027  29.027  29.161  1.00  0.00     0.031 C 
ATOM     60  C   UNL A   1      47.659  25.972  30.604  1.00  0.00     0.029 A 
ATOM     61  C   UNL A   1      46.651  26.940  30.568  1.00  0.00     0.049 A 
ATOM     62  H   UNL A   1      46.940  28.907  29.880  1.00  0.00     0.167 HD
ATOM     63  C   UNL A   1      44.297  27.767  30.649  1.00  0.00     0.074 A 
ATOM     64  C   UNL A   1      44.266  28.804  29.614  1.00  0.00     0.031 C 
ATOM     65  C   UNL A   1      45.299  26.945  31.083  1.00  0.00     0.031 A 
BRANCH  52  66
ATOM     66  C   UNL A   1      48.193  29.323  27.217  1.00  0.00    -0.014 A 
ATOM     67  C   UNL A   1      49.451  29.944  27.278  1.00  0.00     0.009 A 
ATOM     68  C   UNL A   1      47.076  30.176  27.095  1.00  0.00     0.009 A 
ATOM     69  C   UNL A   1      49.569  31.336  27.328  1.00  0.00     0.001 A 
ATOM     70  C   UNL A   1      47.192  31.565  27.108  1.00  0.00     0.001 A 
ATOM     71  C   UNL A   1      48.439  32.145  27.258  1.00  0.00     0.000 A 
ENDBRANCH  52  66
BRANCH  53  72
ATOM     72  C   UNL A   1      39.901  27.917  28.935  1.00  0.00    -0.014 A 
ATOM     73  C   UNL A   1      38.958  28.047  29.968  1.00  0.00     0.009 A 
ATOM     74  C   UNL A   1      39.686  28.661  27.761  1.00  0.00     0.009 A 
ATOM     75  C   UNL A   1      37.864  28.917  29.844  1.00  0.00     0.001 A 
ATOM     76  C   UNL A   1      38.594  29.529  27.636  1.00  0.00     0.001 A 
ATOM     77  C   UNL A   1      37.691  29.667  28.684  1.00  0.00     0.000 A 
ENDBRANCH  53  72
BRANCH  65  78
ATOM     78  C   UNL A   1      44.927  25.812  32.011  1.00  0.00    -0.014 A 
ATOM     79  C   UNL A   1      44.553  24.529  31.568  1.00  0.00     0.009 A 
ATOM     80  C   UNL A   1      45.107  26.011  33.387  1.00  0.00     0.009 A 
ATOM     81  C   UNL A   1      44.340  23.489  32.482  1.00  0.00     0.001 A 
ATOM     82  C   UNL A   1      44.914  24.969  34.297  1.00  0.00     0.001 A 
ATOM     83  C   UNL A   1      44.524  23.710  33.846  1.00  0.00     0.000 A 
ENDBRANCH  65  78
ENDBRANCH  39  40
ENDBRANCH  32  34
ENDBRANCH  31  32
ENDBRANCH  30  31
ENDBRANCH  29  30
ENDBRANCH   1  29
TORSDOF 17
ENDMDL
MODEL 2
REMARK VINA RESULT:     -12.2      2.025      3.618
REMARK SMILES O=C(CCn1cc(/C=C\C(=O)c2ccc(F)cc2)c(-c2cccc(Cl)c2)n1)OCCOC(=O)c1ccc(-c2c3nc(c(-c4ccccc4)c4ccc([nH]4)c(-c4ccccc4)c4nc(c(-c5ccccc5)c5ccc2[nH]5)C=C4)C=C3)cc1
REMARK SMILES IDX 28 1 2 2 1 3 3 4 4 5 5 6 6 7 27 8 7 9 19 10 8 11 9 12 10 13
REMARK SMILES IDX 11 14 12 15 13 16 18 17 14 18 17 19 15 20 16 21 20 22 21 23
REMARK SMILES IDX 26 24 22 25 24 26 23 27 25 28 29 29 30 30 31 31 32 32 33 33
REMARK SMILES IDX 34 34 35 35 81 36 36 37 80 38 37 39 38 40 39 41 74 42 40 43
REMARK SMILES IDX 79 44 73 45 75 46 41 47 78 48 72 49 71 50 42 52 64 53 49 54
REMARK SMILES IDX 63 55 50 56 53 57 62 58 76 59 51 60 52 61 61 63 77 64 54 65
REMARK SMILES IDX 43 66 44 67 48 68 45 69 47 70 46 71 65 72 66 73 70 74 67 75
REMARK SMILES IDX 69 76 68 77 55 78 56 79 60 80 57 81 59 82 58 83
REMARK H PARENT 75 51 53 62
REMARK Flexibility Score: inf
ROOT
ATOM      1  O   UNL A   1      40.670  19.503  26.214  1.00  0.00    -0.462 OA
ENDROOT
BRANCH   1   2
ATOM      2  C   UNL A   1      40.120  20.723  26.464  1.00  0.00     0.307 C 
ATOM      3  O   UNL A   1      40.370  21.315  27.510  1.00  0.00    -0.252 OA
BRANCH   2   4
ATOM      4  C   UNL A   1      39.040  21.216  25.531  1.00  0.00     0.146 C 
BRANCH   4   5
ATOM      5  C   UNL A   1      38.410  22.548  25.895  1.00  0.00     0.156 C 
BRANCH   5   6
ATOM      6  N   UNL A   1      37.022  22.640  25.473  1.00  0.00    -0.271 N 
ATOM      7  C   UNL A   1      36.484  22.457  24.220  1.00  0.00     0.117 A 
ATOM      8  N   UNL A   1      36.159  23.183  26.330  1.00  0.00    -0.172 NA
ATOM      9  C   UNL A   1      35.332  23.229  24.195  1.00  0.00     0.021 A 
ATOM     10  C   UNL A   1      35.240  23.731  25.538  1.00  0.00     0.100 A 
BRANCH   9  11
ATOM     11  C   UNL A   1      34.538  23.500  23.015  1.00  0.00     0.016 C 
ATOM     12  C   UNL A   1      33.379  22.983  22.532  1.00  0.00     0.053 C 
BRANCH  12  13
ATOM     13  C   UNL A   1      32.348  21.918  22.945  1.00  0.00     0.185 C 
ATOM     14  O   UNL A   1      31.156  22.142  22.772  1.00  0.00    -0.289 OA
BRANCH  13  15
ATOM     15  C   UNL A   1      32.850  20.665  23.709  1.00  0.00     0.022 A 
ATOM     16  C   UNL A   1      32.509  19.408  22.450  1.00  0.00     0.015 A 
ATOM     17  C   UNL A   1      33.091  20.013  25.616  1.00  0.00     0.015 A 
ATOM     18  C   UNL A   1      32.299  17.735  22.956  1.00  0.00     0.040 A 
ATOM     19  C   UNL A   1      32.824  18.265  25.967  1.00  0.00     0.040 A 
ATOM     20  C   UNL A   1      32.423  17.212  24.637  1.00  0.00     0.123 A 
ATOM     21  F   UNL A   1      32.216  15.911  24.896  1.00  0.00    -0.207 F 
ENDBRANCH  13  15
ENDBRANCH  12  13
ENDBRANCH   9  11
BRANCH  10  22
ATOM     22  C   UNL A   1      34.217  24.718  26.014  1.00  0.00     0.004 A 
ATOM     23  C   UNL A   1      33.754  26.669  25.711  1.00  0.00     0.010 A 
ATOM     24  C   UNL A   1      32.836  23.623  26.488  1.00  0.00     0.031 A 
ATOM     25  C   UNL A   1      32.049  27.189  25.823  1.00  0.00     0.002 A 
ATOM     26  C   UNL A   1      31.216  24.298  26.550  1.00  0.00     0.041 A 
ATOM     27  C   UNL A   1      30.852  25.991  26.220  1.00  0.00     0.020 A 
ATOM     28  Cl  UNL A   1      29.909  23.256  26.967  1.00  0.00    -0.084 Cl
ENDBRANCH  10  22
ENDBRANCH   5   6
ENDBRANCH   4   5
ENDBRANCH   2   4
ENDBRANCH   1   2
BRANCH   1  29
ATOM     29  C   UNL A   1      41.960  19.097  26.722  1.00  0.00     0.274 C 
BRANCH  29  30
ATOM     30  C   UNL A   1      43.080  18.972  25.702  1.00  0.00     0.275 C 
BRANCH  30  31
ATOM     31  O   UNL A   1      43.716  20.222  25.572  1.00  0.00    -0.458 OA
BRANCH  31  32
ATOM     32  C   UNL A   1      44.605  20.267  24.550  1.00  0.00     0.338 C 
ATOM     33  O   UNL A   1      45.011  19.341  23.874  1.00  0.00    -0.246 OA
BRANCH  32  34
ATOM     34  C   UNL A   1      45.101  21.643  24.491  1.00  0.00     0.060 A 
ATOM     35  C   UNL A   1      46.043  21.927  25.467  1.00  0.00     0.016 A 
ATOM     36  C   UNL A   1      44.279  22.622  23.902  1.00  0.00     0.016 A 
ATOM     37  C   UNL A   1      45.847  23.086  26.160  1.00  0.00     0.010 A 
ATOM     38  C   UNL A   1      44.080  23.774  24.596  1.00  0.00     0.010 A 
ATOM     39  C   UNL A   1      44.778  23.913  25.784  1.00  0.00    -0.014 A 
BRANCH  39  40
ATOM     40  C   UNL A   1      44.500  25.053  26.605  1.00  0.00     0.031 A 
ATOM     41  C   UNL A   1      45.591  26.029  26.472  1.00  0.00     0.074 A 
ATOM     42  C   UNL A   1      43.376  25.178  27.328  1.00  0.00     0.049 A 
ATOM     43  N   UNL A   1      46.560  26.198  27.305  1.00  0.00    -0.248 NA
ATOM     44  C   UNL A   1      45.806  26.641  25.149  1.00  0.00     0.031 C 
ATOM     45  C   UNL A   1      42.151  24.377  27.308  1.00  0.00     0.029 A 
ATOM     46  N   UNL A   1      43.077  26.157  28.210  1.00  0.00    -0.354 N 
ATOM     47  C   UNL A   1      47.380  27.141  26.709  1.00  0.00     0.074 A 
ATOM     48  C   UNL A   1      47.018  27.169  25.315  1.00  0.00     0.031 C 
ATOM     49  C   UNL A   1      41.167  25.057  27.950  1.00  0.00     0.029 A 
ATOM     50  C   UNL A   1      41.736  26.257  28.541  1.00  0.00     0.049 A 
ATOM     51  H   UNL A   1      43.761  26.754  28.589  1.00  0.00     0.167 HD
ATOM     52  C   UNL A   1      48.010  28.066  27.477  1.00  0.00     0.031 A 
ATOM     53  C   UNL A   1      41.166  27.306  29.188  1.00  0.00     0.031 A 
ATOM     54  C   UNL A   1      48.077  27.635  28.856  1.00  0.00     0.049 A 
ATOM     55  C   UNL A   1      42.261  28.049  29.868  1.00  0.00     0.074 A 
ATOM     56  C   UNL A   1      48.623  26.542  29.503  1.00  0.00     0.029 A 
ATOM     57  N   UNL A   1      47.132  28.151  29.714  1.00  0.00    -0.354 N 
ATOM     58  N   UNL A   1      42.942  27.552  30.861  1.00  0.00    -0.248 NA
ATOM     59  C   UNL A   1      42.931  29.105  29.121  1.00  0.00     0.031 C 
ATOM     60  C   UNL A   1      47.670  26.189  30.505  1.00  0.00     0.029 A 
ATOM     61  C   UNL A   1      46.636  27.129  30.479  1.00  0.00     0.049 A 
ATOM     62  H   UNL A   1      46.859  29.097  29.769  1.00  0.00     0.167 HD
ATOM     63  C   UNL A   1      44.261  27.894  30.596  1.00  0.00     0.074 A 
ATOM     64  C   UNL A   1      44.184  28.920  29.553  1.00  0.00     0.031 C 
ATOM     65  C   UNL A   1      45.293  27.103  31.018  1.00  0.00     0.031 A 
BRANCH  52  66
ATOM     66  C   UNL A   1      48.051  29.522  27.079  1.00  0.00    -0.014 A 
ATOM     67  C   UNL A   1      49.268  30.207  27.223  1.00  0.00     0.009 A 
ATOM     68  C   UNL A   1      46.905  30.313  26.862  1.00  0.00     0.009 A 
ATOM     69  C   UNL A   1      49.311  31.604  27.260  1.00  0.00     0.001 A 
ATOM     70  C   UNL A   1      46.949  31.707  26.863  1.00  0.00     0.001 A 
ATOM     71  C   UNL A   1      48.149  32.353  27.096  1.00  0.00     0.000 A 
ENDBRANCH  52  66
BRANCH  53  72
ATOM     72  C   UNL A   1      39.833  27.910  28.962  1.00  0.00    -0.014 A 
ATOM     73  C   UNL A   1      38.892  27.990  30.002  1.00  0.00     0.009 A 
ATOM     74  C   UNL A   1      39.588  28.668  27.802  1.00  0.00     0.009 A 
ATOM     75  C   UNL A   1      37.770  28.827  29.899  1.00  0.00     0.001 A 
ATOM     76  C   UNL A   1      38.469  29.503  27.700  1.00  0.00     0.001 A 
ATOM     77  C   UNL A   1      37.567  29.593  28.754  1.00  0.00     0.000 A 
ENDBRANCH  53  72
BRANCH  65  78
ATOM     78  C   UNL A   1      44.969  25.969  31.963  1.00  0.00    -0.014 A 
ATOM     79  C   UNL A   1      44.558  24.691  31.540  1.00  0.00     0.009 A 
ATOM     80  C   UNL A   1      45.233  26.161  33.327  1.00  0.00     0.009 A 
ATOM     81  C   UNL A   1      44.392  23.649  32.461  1.00  0.00     0.001 A 
ATOM     82  C   UNL A   1      45.087  25.117  34.243  1.00  0.00     0.001 A 
ATOM     83  C   UNL A   1      44.661  23.863  33.812  1.00  0.00     0.000 A 
ENDBRANCH  65  78
ENDBRANCH  39  40
ENDBRANCH  32  34
ENDBRANCH  31  32
ENDBRANCH  30  31
ENDBRANCH  29  30
ENDBRANCH   1  29
TORSDOF 17
ENDMDL
MODEL 3
REMARK VINA RESULT:     -11.1      3.224      5.928
REMARK SMILES O=C(CCn1cc(/C=C\C(=O)c2ccc(F)cc2)c(-c2cccc(Cl)c2)n1)OCCOC(=O)c1ccc(-c2c3nc(c(-c4ccccc4)c4ccc([nH]4)c(-c4ccccc4)c4nc(c(-c5ccccc5)c5ccc2[nH]5)C=C4)C=C3)cc1
REMARK SMILES IDX 28 1 2 2 1 3 3 4 4 5 5 6 6 7 27 8 7 9 19 10 8 11 9 12 10 13
REMARK SMILES IDX 11 14 12 15 13 16 18 17 14 18 17 19 15 20 16 21 20 22 21 23
REMARK SMILES IDX 26 24 22 25 24 26 23 27 25 28 29 29 30 30 31 31 32 32 33 33
REMARK SMILES IDX 34 34 35 35 81 36 36 37 80 38 37 39 38 40 39 41 74 42 40 43
REMARK SMILES IDX 79 44 73 45 75 46 41 47 78 48 72 49 71 50 42 52 64 53 49 54
REMARK SMILES IDX 63 55 50 56 53 57 62 58 76 59 51 60 52 61 61 63 77 64 54 65
REMARK SMILES IDX 43 66 44 67 48 68 45 69 47 70 46 71 65 72 66 73 70 74 67 75
REMARK SMILES IDX 69 76 68 77 55 78 56 79 60 80 57 81 59 82 58 83
REMARK H PARENT 75 51 53 62
REMARK Flexibility Score: inf
ROOT
ATOM      1  O   UNL A   1      43.245  19.243  25.054  1.00  0.00    -0.462 OA
ENDROOT
BRANCH   1   2
ATOM      2  C   UNL A   1      42.678  18.840  26.224  1.00  0.00     0.307 C 
ATOM      3  O   UNL A   1      42.878  17.708  26.653  1.00  0.00    -0.252 OA
BRANCH   2   4
ATOM      4  C   UNL A   1      41.640  19.739  26.852  1.00  0.00     0.146 C 
BRANCH   4   5
ATOM      5  C   UNL A   1      42.150  21.071  27.372  1.00  0.00     0.156 C 
BRANCH   5   6
ATOM      6  N   UNL A   1      41.094  22.065  27.479  1.00  0.00    -0.271 N 
ATOM      7  C   UNL A   1      39.845  22.068  26.903  1.00  0.00     0.117 A 
ATOM      8  N   UNL A   1      41.417  23.242  28.013  1.00  0.00    -0.172 NA
ATOM      9  C   UNL A   1      39.498  23.404  26.773  1.00  0.00     0.021 A 
ATOM     10  C   UNL A   1      40.584  24.091  27.416  1.00  0.00     0.100 A 
BRANCH   9  11
ATOM     11  C   UNL A   1      38.350  23.898  26.043  1.00  0.00     0.016 C 
ATOM     12  C   UNL A   1      37.221  23.311  25.571  1.00  0.00     0.053 C 
BRANCH  12  13
ATOM     13  C   UNL A   1      36.586  21.909  25.563  1.00  0.00     0.185 C 
ATOM     14  O   UNL A   1      37.205  20.976  25.064  1.00  0.00    -0.289 OA
BRANCH  13  15
ATOM     15  C   UNL A   1      35.118  21.762  26.044  1.00  0.00     0.022 A 
ATOM     16  C   UNL A   1      34.300  21.659  24.430  1.00  0.00     0.015 A 
ATOM     17  C   UNL A   1      33.957  22.255  27.633  1.00  0.00     0.015 A 
ATOM     18  C   UNL A   1      32.597  22.094  24.314  1.00  0.00     0.040 A 
ATOM     19  C   UNL A   1      32.232  22.688  27.336  1.00  0.00     0.040 A 
ATOM     20  C   UNL A   1      31.635  22.608  25.700  1.00  0.00     0.123 A 
ATOM     21  F   UNL A   1      30.354  22.937  25.474  1.00  0.00    -0.207 F 
ENDBRANCH  13  15
ENDBRANCH  12  13
ENDBRANCH   9  11
BRANCH  10  22
ATOM     22  C   UNL A   1      40.749  25.581  27.454  1.00  0.00     0.004 A 
ATOM     23  C   UNL A   1      41.103  27.090  26.146  1.00  0.00     0.010 A 
ATOM     24  C   UNL A   1      39.821  26.020  28.963  1.00  0.00     0.031 A 
ATOM     25  C   UNL A   1      40.424  28.708  26.476  1.00  0.00     0.002 A 
ATOM     26  C   UNL A   1      39.221  27.662  29.128  1.00  0.00     0.041 A 
ATOM     27  C   UNL A   1      39.503  28.929  27.934  1.00  0.00     0.020 A 
ATOM     28  Cl  UNL A   1      38.318  28.067  30.539  1.00  0.00    -0.084 Cl
ENDBRANCH  10  22
ENDBRANCH   5   6
ENDBRANCH   4   5
ENDBRANCH   2   4
ENDBRANCH   1   2
BRANCH   1  29
ATOM     29  C   UNL A   1      44.651  19.092  24.761  1.00  0.00     0.274 C 
BRANCH  29  30
ATOM     30  C   UNL A   1      45.419  20.367  24.455  1.00  0.00     0.275 C 
BRANCH  30  31
ATOM     31  O   UNL A   1      44.923  21.403  25.270  1.00  0.00    -0.458 OA
BRANCH  31  32
ATOM     32  C   UNL A   1      44.382  22.426  24.566  1.00  0.00     0.338 C 
ATOM     33  O   UNL A   1      44.213  22.497  23.364  1.00  0.00    -0.246 OA
BRANCH  32  34
ATOM     34  C   UNL A   1      44.152  23.512  25.522  1.00  0.00     0.060 A 
ATOM     35  C   UNL A   1      43.658  24.664  24.932  1.00  0.00     0.016 A 
ATOM     36  C   UNL A   1      44.891  23.512  26.720  1.00  0.00     0.016 A 
ATOM     37  C   UNL A   1      44.281  25.825  25.287  1.00  0.00     0.010 A 
ATOM     38  C   UNL A   1      45.516  24.668  27.070  1.00  0.00     0.010 A 
ATOM     39  C   UNL A   1      45.294  25.766  26.256  1.00  0.00    -0.014 A 
BRANCH  39  40
ATOM     40  C   UNL A   1      46.031  26.965  26.519  1.00  0.00     0.031 A 
ATOM     41  C   UNL A   1      47.425  26.786  26.087  1.00  0.00     0.074 A 
ATOM     42  C   UNL A   1      45.473  28.070  27.038  1.00  0.00     0.049 A 
ATOM     43  N   UNL A   1      48.424  26.510  26.851  1.00  0.00    -0.248 NA
ATOM     44  C   UNL A   1      47.675  26.574  24.650  1.00  0.00     0.031 C 
ATOM     45  C   UNL A   1      44.063  28.400  27.251  1.00  0.00     0.029 A 
ATOM     46  N   UNL A   1      46.105  29.201  27.421  1.00  0.00    -0.354 N 
ATOM     47  C   UNL A   1      49.495  26.339  25.990  1.00  0.00     0.074 A 
ATOM     48  C   UNL A   1      48.931  26.128  24.681  1.00  0.00     0.031 C 
ATOM     49  C   UNL A   1      43.951  29.733  27.483  1.00  0.00     0.029 A 
ATOM     50  C   UNL A   1      45.284  30.305  27.577  1.00  0.00     0.049 A 
ATOM     51  H   UNL A   1      47.076  29.238  27.577  1.00  0.00     0.167 HD
ATOM     52  C   UNL A   1      50.732  26.755  26.363  1.00  0.00     0.031 A 
ATOM     53  C   UNL A   1      45.711  31.589  27.696  1.00  0.00     0.031 A 
ATOM     54  C   UNL A   1      50.816  26.908  27.799  1.00  0.00     0.049 A 
ATOM     55  C   UNL A   1      47.143  31.538  28.099  1.00  0.00     0.074 A 
ATOM     56  C   UNL A   1      50.641  26.058  28.874  1.00  0.00     0.029 A 
ATOM     57  N   UNL A   1      50.674  28.183  28.296  1.00  0.00    -0.354 N 
ATOM     58  N   UNL A   1      47.535  31.092  29.258  1.00  0.00    -0.248 NA
ATOM     59  C   UNL A   1      48.144  31.490  27.042  1.00  0.00     0.031 C 
ATOM     60  C   UNL A   1      49.956  26.835  29.855  1.00  0.00     0.029 A 
ATOM     61  C   UNL A   1      49.824  28.138  29.370  1.00  0.00     0.049 A 
ATOM     62  H   UNL A   1      51.110  28.992  27.941  1.00  0.00     0.167 HD
ATOM     63  C   UNL A   1      48.647  30.306  28.980  1.00  0.00     0.074 A 
ATOM     64  C   UNL A   1      49.023  30.654  27.608  1.00  0.00     0.031 C 
ATOM     65  C   UNL A   1      48.966  29.235  29.766  1.00  0.00     0.031 A 
BRANCH  52  66
ATOM     66  C   UNL A   1      51.625  27.517  25.412  1.00  0.00    -0.014 A 
ATOM     67  C   UNL A   1      52.897  26.989  25.142  1.00  0.00     0.009 A 
ATOM     68  C   UNL A   1      51.400  28.851  25.016  1.00  0.00     0.009 A 
ATOM     69  C   UNL A   1      53.914  27.788  24.611  1.00  0.00     0.001 A 
ATOM     70  C   UNL A   1      52.401  29.642  24.453  1.00  0.00     0.001 A 
ATOM     71  C   UNL A   1      53.669  29.118  24.282  1.00  0.00     0.000 A 
ENDBRANCH  52  66
BRANCH  53  72
ATOM     72  C   UNL A   1      45.097  32.817  27.141  1.00  0.00    -0.014 A 
ATOM     73  C   UNL A   1      44.711  32.883  25.792  1.00  0.00     0.009 A 
ATOM     74  C   UNL A   1      44.626  33.824  28.003  1.00  0.00     0.009 A 
ATOM     75  C   UNL A   1      43.855  33.896  25.334  1.00  0.00     0.001 A 
ATOM     76  C   UNL A   1      43.773  34.835  27.546  1.00  0.00     0.001 A 
ATOM     77  C   UNL A   1      43.376  34.863  26.214  1.00  0.00     0.000 A 
ENDBRANCH  53  72
BRANCH  65  78
ATOM     78  C   UNL A   1      48.208  29.062  31.062  1.00  0.00    -0.014 A 
ATOM     79  C   UNL A   1      46.978  28.384  31.164  1.00  0.00     0.009 A 
ATOM     80  C   UNL A   1      48.838  29.471  32.246  1.00  0.00     0.009 A 
ATOM     81  C   UNL A   1      46.388  28.152  32.413  1.00  0.00     0.001 A 
ATOM     82  C   UNL A   1      48.260  29.222  33.493  1.00  0.00     0.001 A 
ATOM     83  C   UNL A   1      47.033  28.569  33.576  1.00  0.00     0.000 A 
ENDBRANCH  65  78
ENDBRANCH  39  40
ENDBRANCH  32  34
ENDBRANCH  31  32
ENDBRANCH  30  31
ENDBRANCH  29  30
ENDBRANCH   1  29
TORSDOF 17
ENDMDL
