MODEL 1
REMARK VINA RESULT:     -13.2      0.000      0.000
REMARK SMILES Cc1cccc(-n2ncc(C(=O)Nc3cccc(C(=O)OCCOC(=O)c4ccc(-c5c6nc(c(-c7ccccc7)c7ccc([nH]7)c(-c7ccccc7)c7nc(c(-c8ccccc8)c8ccc5[nH]8)C=C7)C=C6)cc4)c3C)c2C)c1
REMARK SMILES IDX 22 1 21 2 19 3 20 4 18 5 14 6 15 7 75 8 16 9 76 10 17 11
REMARK SMILES IDX 13 12 11 13 12 14 10 16 7 17 8 18 77 19 9 20 78 21 6 22 1 23
REMARK SMILES IDX 2 24 3 25 79 26 4 27 5 28 23 29 24 30 25 31 26 32 27 33
REMARK SMILES IDX 28 34 74 35 29 36 73 37 30 38 31 39 32 40 67 41 33 42 72 43
REMARK SMILES IDX 66 44 68 45 34 46 71 47 65 48 64 49 35 51 57 52 42 53 56 54
REMARK SMILES IDX 43 55 46 56 55 57 69 58 44 59 45 60 54 62 70 63 47 64 36 65
REMARK SMILES IDX 37 66 41 67 38 68 40 69 39 70 58 71 59 72 63 73 60 74 62 75
REMARK SMILES IDX 61 76 48 77 49 78 53 79 50 80 52 81 51 82
REMARK H PARENT 13 15 68 50 46 61
REMARK Flexibility Score: inf
ROOT
ATOM      1  C   UNL A   1      31.511  31.554  26.864  1.00  0.00     0.275 C 
ENDROOT
BRANCH   1   2
ATOM      2  O   UNL A   1      31.405  30.754  25.678  1.00  0.00    -0.458 OA
BRANCH   2   3
ATOM      3  C   UNL A   1      32.305  29.778  25.438  1.00  0.00     0.338 C 
ATOM      4  O   UNL A   1      33.468  29.745  25.810  1.00  0.00    -0.246 OA
BRANCH   3   5
ATOM      5  C   UNL A   1      31.608  28.667  24.740  1.00  0.00     0.065 A 
ATOM      6  C   UNL A   1      30.546  26.489  24.555  1.00  0.00     0.045 A 
ATOM      7  C   UNL A   1      30.143  26.819  23.256  1.00  0.00     0.026 A 
ATOM      8  C   UNL A   1      31.207  27.456  25.354  1.00  0.00    -0.013 A 
ATOM      9  C   UNL A   1      30.539  28.014  22.667  1.00  0.00     0.003 A 
ATOM     10  C   UNL A   1      31.498  27.144  26.801  1.00  0.00     0.047 C 
ATOM     11  C   UNL A   1      31.300  28.917  23.393  1.00  0.00     0.016 A 
BRANCH   6  12
ATOM     12  N   UNL A   1      30.287  25.210  25.089  1.00  0.00    -0.322 N 
ATOM     13  C   UNL A   1      30.999  24.028  25.045  1.00  0.00     0.259 C 
ATOM     14  O   UNL A   1      30.407  23.003  25.387  1.00  0.00    -0.269 OA
ATOM     15  H   UNL A   1      29.439  25.148  25.586  1.00  0.00     0.170 HD
BRANCH  13  16
ATOM     16  C   UNL A   1      32.417  24.002  24.700  1.00  0.00     0.081 A 
ATOM     17  N   UNL A   1      34.618  23.655  24.774  1.00  0.00    -0.237 N 
ATOM     18  N   UNL A   1      34.410  24.322  23.613  1.00  0.00    -0.175 NA
ATOM     19  C   UNL A   1      33.461  23.616  25.539  1.00  0.00     0.054 A 
ATOM     20  C   UNL A   1      33.093  24.506  23.568  1.00  0.00     0.149 A 
ATOM     21  C   UNL A   1      33.434  23.364  27.008  1.00  0.00     0.068 C 
BRANCH  17  22
ATOM     22  C   UNL A   1      35.908  23.144  25.068  1.00  0.00     0.065 A 
ATOM     23  C   UNL A   1      39.056  24.362  26.820  1.00  0.00     0.044 C 
ATOM     24  C   UNL A   1      38.097  23.495  26.062  1.00  0.00    -0.049 A 
ATOM     25  C   UNL A   1      38.429  22.169  25.761  1.00  0.00     0.003 A 
ATOM     26  C   UNL A   1      36.845  23.989  25.676  1.00  0.00     0.031 A 
ATOM     27  C   UNL A   1      37.519  21.342  25.099  1.00  0.00     0.002 A 
ATOM     28  C   UNL A   1      36.253  21.822  24.761  1.00  0.00     0.028 A 
ENDBRANCH  17  22
ENDBRANCH  13  16
ENDBRANCH   6  12
ENDBRANCH   3   5
ENDBRANCH   2   3
ENDBRANCH   1   2
BRANCH   1  29
ATOM     29  C   UNL A   1      32.351  32.852  26.891  1.00  0.00     0.275 C 
BRANCH  29  30
ATOM     30  O   UNL A   1      32.144  33.889  27.888  1.00  0.00    -0.458 OA
BRANCH  30  31
ATOM     31  C   UNL A   1      33.047  34.552  28.647  1.00  0.00     0.338 C 
ATOM     32  O   UNL A   1      32.835  35.652  29.138  1.00  0.00    -0.246 OA
BRANCH  31  33
ATOM     33  C   UNL A   1      34.283  33.836  28.942  1.00  0.00     0.060 A 
ATOM     34  C   UNL A   1      34.261  32.823  29.912  1.00  0.00     0.016 A 
ATOM     35  C   UNL A   1      35.399  34.080  28.154  1.00  0.00     0.016 A 
ATOM     36  C   UNL A   1      35.340  31.978  30.049  1.00  0.00     0.010 A 
ATOM     37  C   UNL A   1      36.400  33.153  28.159  1.00  0.00     0.010 A 
ATOM     38  C   UNL A   1      36.397  32.182  29.173  1.00  0.00    -0.014 A 
BRANCH  38  39
ATOM     39  C   UNL A   1      37.735  31.761  29.508  1.00  0.00     0.031 A 
ATOM     40  C   UNL A   1      38.191  30.453  29.053  1.00  0.00     0.074 A 
ATOM     41  C   UNL A   1      38.393  32.749  30.159  1.00  0.00     0.049 A 
ATOM     42  N   UNL A   1      38.998  29.702  29.709  1.00  0.00    -0.248 NA
ATOM     43  C   UNL A   1      37.672  29.808  27.841  1.00  0.00     0.031 C 
ATOM     44  C   UNL A   1      39.785  32.996  30.458  1.00  0.00     0.029 A 
ATOM     45  N   UNL A   1      37.752  33.796  30.823  1.00  0.00    -0.354 N 
ATOM     46  C   UNL A   1      39.465  28.791  28.788  1.00  0.00     0.074 A 
ATOM     47  C   UNL A   1      38.452  28.723  27.766  1.00  0.00     0.031 C 
ATOM     48  C   UNL A   1      39.849  33.915  31.451  1.00  0.00     0.029 A 
ATOM     49  C   UNL A   1      38.488  34.191  31.919  1.00  0.00     0.049 A 
ATOM     50  H   UNL A   1      36.897  34.196  30.547  1.00  0.00     0.167 HD
ATOM     51  C   UNL A   1      40.789  28.465  28.824  1.00  0.00     0.031 A 
ATOM     52  C   UNL A   1      37.957  33.846  33.134  1.00  0.00     0.031 A 
ATOM     53  C   UNL A   1      41.451  29.185  29.923  1.00  0.00     0.049 A 
ATOM     54  C   UNL A   1      38.666  32.633  33.712  1.00  0.00     0.074 A 
ATOM     55  C   UNL A   1      42.228  30.333  29.960  1.00  0.00     0.029 A 
ATOM     56  N   UNL A   1      40.980  29.006  31.216  1.00  0.00    -0.354 N 
ATOM     57  N   UNL A   1      39.476  31.861  33.040  1.00  0.00    -0.248 NA
ATOM     58  C   UNL A   1      38.461  32.163  35.078  1.00  0.00     0.031 C 
ATOM     59  C   UNL A   1      42.185  30.855  31.290  1.00  0.00     0.029 A 
ATOM     60  C   UNL A   1      41.381  30.031  32.057  1.00  0.00     0.049 A 
ATOM     61  H   UNL A   1      40.428  28.243  31.501  1.00  0.00     0.167 HD
ATOM     62  C   UNL A   1      39.963  30.877  33.845  1.00  0.00     0.074 A 
ATOM     63  C   UNL A   1      39.238  31.065  35.094  1.00  0.00     0.031 C 
ATOM     64  C   UNL A   1      40.927  29.995  33.443  1.00  0.00     0.031 A 
BRANCH  51  65
ATOM     65  C   UNL A   1      41.535  27.815  27.683  1.00  0.00    -0.014 A 
ATOM     66  C   UNL A   1      41.718  28.532  26.487  1.00  0.00     0.009 A 
ATOM     67  C   UNL A   1      42.069  26.512  27.705  1.00  0.00     0.009 A 
ATOM     68  C   UNL A   1      42.332  27.968  25.361  1.00  0.00     0.001 A 
ATOM     69  C   UNL A   1      42.665  25.931  26.573  1.00  0.00     0.001 A 
ATOM     70  C   UNL A   1      42.790  26.659  25.397  1.00  0.00     0.000 A 
ENDBRANCH  51  65
BRANCH  52  71
ATOM     71  C   UNL A   1      36.468  34.088  33.255  1.00  0.00    -0.014 A 
ATOM     72  C   UNL A   1      35.930  35.303  32.767  1.00  0.00     0.009 A 
ATOM     73  C   UNL A   1      35.558  33.074  33.591  1.00  0.00     0.009 A 
ATOM     74  C   UNL A   1      34.560  35.454  32.517  1.00  0.00     0.001 A 
ATOM     75  C   UNL A   1      34.177  33.242  33.378  1.00  0.00     0.001 A 
ATOM     76  C   UNL A   1      33.684  34.415  32.809  1.00  0.00     0.000 A 
ENDBRANCH  52  71
BRANCH  64  77
ATOM     77  C   UNL A   1      41.529  28.965  34.355  1.00  0.00    -0.014 A 
ATOM     78  C   UNL A   1      42.371  29.291  35.422  1.00  0.00     0.009 A 
ATOM     79  C   UNL A   1      41.336  27.591  34.098  1.00  0.00     0.009 A 
ATOM     80  C   UNL A   1      42.868  28.305  36.278  1.00  0.00     0.001 A 
ATOM     81  C   UNL A   1      41.857  26.601  34.925  1.00  0.00     0.001 A 
ATOM     82  C   UNL A   1      42.599  26.962  36.037  1.00  0.00     0.000 A 
ENDBRANCH  64  77
ENDBRANCH  38  39
ENDBRANCH  31  33
ENDBRANCH  30  31
ENDBRANCH  29  30
ENDBRANCH   1  29
TORSDOF 14
ENDMDL
MODEL 2
REMARK VINA RESULT:     -12.9      3.813      9.907
REMARK SMILES Cc1cccc(-n2ncc(C(=O)Nc3cccc(C(=O)OCCOC(=O)c4ccc(-c5c6nc(c(-c7ccccc7)c7ccc([nH]7)c(-c7ccccc7)c7nc(c(-c8ccccc8)c8ccc5[nH]8)C=C7)C=C6)cc4)c3C)c2C)c1
REMARK SMILES IDX 22 1 21 2 19 3 20 4 18 5 14 6 15 7 75 8 16 9 76 10 17 11
REMARK SMILES IDX 13 12 11 13 12 14 10 16 7 17 8 18 77 19 9 20 78 21 6 22 1 23
REMARK SMILES IDX 2 24 3 25 79 26 4 27 5 28 23 29 24 30 25 31 26 32 27 33
REMARK SMILES IDX 28 34 74 35 29 36 73 37 30 38 31 39 32 40 67 41 33 42 72 43
REMARK SMILES IDX 66 44 68 45 34 46 71 47 65 48 64 49 35 51 57 52 42 53 56 54
REMARK SMILES IDX 43 55 46 56 55 57 69 58 44 59 45 60 54 62 70 63 47 64 36 65
REMARK SMILES IDX 37 66 41 67 38 68 40 69 39 70 58 71 59 72 63 73 60 74 62 75
REMARK SMILES IDX 61 76 48 77 49 78 53 79 50 80 52 81 51 82
REMARK H PARENT 13 15 68 50 46 61
REMARK Flexibility Score: inf
ROOT
ATOM      1  C   UNL A   1      38.478  21.063  25.384  1.00  0.00     0.275 C 
ENDROOT
BRANCH   1   2
ATOM      2  O   UNL A   1      37.106  21.376  25.663  1.00  0.00    -0.458 OA
BRANCH   2   3
ATOM      3  C   UNL A   1      36.706  22.663  25.723  1.00  0.00     0.338 C 
ATOM      4  O   UNL A   1      37.391  23.655  25.529  1.00  0.00    -0.246 OA
BRANCH   3   5
ATOM      5  C   UNL A   1      35.237  22.679  25.946  1.00  0.00     0.065 A 
ATOM      6  C   UNL A   1      32.898  22.698  25.286  1.00  0.00     0.045 A 
ATOM      7  C   UNL A   1      32.540  22.515  26.626  1.00  0.00     0.026 A 
ATOM      8  C   UNL A   1      34.266  22.685  24.915  1.00  0.00    -0.013 A 
ATOM      9  C   UNL A   1      33.503  22.505  27.629  1.00  0.00     0.003 A 
ATOM     10  C   UNL A   1      34.635  22.728  23.453  1.00  0.00     0.047 C 
ATOM     11  C   UNL A   1      34.843  22.625  27.292  1.00  0.00     0.016 A 
BRANCH   6  12
ATOM     12  N   UNL A   1      31.913  22.877  24.293  1.00  0.00    -0.322 N 
ATOM     13  C   UNL A   1      31.323  24.010  23.769  1.00  0.00     0.259 C 
ATOM     14  O   UNL A   1      30.309  23.851  23.087  1.00  0.00    -0.269 OA
ATOM     15  H   UNL A   1      31.584  22.036  23.900  1.00  0.00     0.170 HD
BRANCH  13  16
ATOM     16  C   UNL A   1      31.923  25.330  23.933  1.00  0.00     0.081 A 
ATOM     17  N   UNL A   1      32.533  27.298  24.784  1.00  0.00    -0.237 N 
ATOM     18  N   UNL A   1      33.055  27.284  23.533  1.00  0.00    -0.175 NA
ATOM     19  C   UNL A   1      31.687  26.217  24.982  1.00  0.00     0.054 A 
ATOM     20  C   UNL A   1      32.704  26.098  23.042  1.00  0.00     0.149 A 
ATOM     21  C   UNL A   1      30.637  26.154  26.038  1.00  0.00     0.068 C 
BRANCH  17  22
ATOM     22  C   UNL A   1      32.858  28.359  25.667  1.00  0.00     0.065 A 
ATOM     23  C   UNL A   1      35.784  29.335  27.893  1.00  0.00     0.044 C 
ATOM     24  C   UNL A   1      34.451  29.355  27.208  1.00  0.00    -0.049 A 
ATOM     25  C   UNL A   1      33.602  30.461  27.346  1.00  0.00     0.003 A 
ATOM     26  C   UNL A   1      34.053  28.288  26.395  1.00  0.00     0.031 A 
ATOM     27  C   UNL A   1      32.381  30.506  26.669  1.00  0.00     0.002 A 
ATOM     28  C   UNL A   1      32.010  29.462  25.820  1.00  0.00     0.028 A 
ENDBRANCH  17  22
ENDBRANCH  13  16
ENDBRANCH   6  12
ENDBRANCH   3   5
ENDBRANCH   2   3
ENDBRANCH   1   2
BRANCH   1  29
ATOM     29  C   UNL A   1      38.974  19.601  25.300  1.00  0.00     0.275 C 
BRANCH  29  30
ATOM     30  O   UNL A   1      40.192  19.156  25.956  1.00  0.00    -0.458 OA
BRANCH  30  31
ATOM     31  C   UNL A   1      41.443  19.670  25.901  1.00  0.00     0.338 C 
ATOM     32  O   UNL A   1      42.377  19.110  25.346  1.00  0.00    -0.246 OA
BRANCH  31  33
ATOM     33  C   UNL A   1      41.610  21.004  26.467  1.00  0.00     0.060 A 
ATOM     34  C   UNL A   1      41.887  22.074  25.603  1.00  0.00     0.016 A 
ATOM     35  C   UNL A   1      41.346  21.194  27.817  1.00  0.00     0.016 A 
ATOM     36  C   UNL A   1      41.821  23.368  26.069  1.00  0.00     0.010 A 
ATOM     37  C   UNL A   1      41.111  22.467  28.249  1.00  0.00     0.010 A 
ATOM     38  C   UNL A   1      41.450  23.528  27.397  1.00  0.00    -0.014 A 
BRANCH  38  39
ATOM     39  C   UNL A   1      41.826  24.706  28.139  1.00  0.00     0.031 A 
ATOM     40  C   UNL A   1      40.852  25.780  28.285  1.00  0.00     0.074 A 
ATOM     41  C   UNL A   1      43.065  24.558  28.664  1.00  0.00     0.049 A 
ATOM     42  N   UNL A   1      41.153  27.026  28.333  1.00  0.00    -0.248 NA
ATOM     43  C   UNL A   1      39.403  25.546  28.273  1.00  0.00     0.031 C 
ATOM     44  C   UNL A   1      43.803  25.251  29.696  1.00  0.00     0.029 A 
ATOM     45  N   UNL A   1      44.007  23.652  28.177  1.00  0.00    -0.354 N 
ATOM     46  C   UNL A   1      40.041  27.642  28.861  1.00  0.00     0.074 A 
ATOM     47  C   UNL A   1      38.936  26.768  28.558  1.00  0.00     0.031 C 
ATOM     48  C   UNL A   1      45.116  24.948  29.554  1.00  0.00     0.029 A 
ATOM     49  C   UNL A   1      45.281  24.153  28.335  1.00  0.00     0.049 A 
ATOM     50  H   UNL A   1      43.793  22.779  27.778  1.00  0.00     0.167 HD
ATOM     51  C   UNL A   1      40.232  28.634  29.777  1.00  0.00     0.031 A 
ATOM     52  C   UNL A   1      45.899  24.551  27.179  1.00  0.00     0.031 A 
ATOM     53  C   UNL A   1      41.672  28.850  29.986  1.00  0.00     0.049 A 
ATOM     54  C   UNL A   1      45.855  26.063  27.031  1.00  0.00     0.074 A 
ATOM     55  C   UNL A   1      42.551  28.431  30.972  1.00  0.00     0.029 A 
ATOM     56  N   UNL A   1      42.461  29.184  28.895  1.00  0.00    -0.354 N 
ATOM     57  N   UNL A   1      45.105  26.853  27.751  1.00  0.00    -0.248 NA
ATOM     58  C   UNL A   1      46.606  26.789  26.012  1.00  0.00     0.031 C 
ATOM     59  C   UNL A   1      43.877  28.487  30.439  1.00  0.00     0.029 A 
ATOM     60  C   UNL A   1      43.802  28.935  29.133  1.00  0.00     0.049 A 
ATOM     61  H   UNL A   1      42.110  29.555  28.053  1.00  0.00     0.167 HD
ATOM     62  C   UNL A   1      45.308  28.149  27.389  1.00  0.00     0.074 A 
ATOM     63  C   UNL A   1      46.203  28.050  26.244  1.00  0.00     0.031 C 
ATOM     64  C   UNL A   1      44.749  29.204  28.055  1.00  0.00     0.031 A 
BRANCH  51  65
ATOM     65  C   UNL A   1      39.167  29.131  30.726  1.00  0.00    -0.014 A 
ATOM     66  C   UNL A   1      38.949  28.442  31.933  1.00  0.00     0.009 A 
ATOM     67  C   UNL A   1      38.339  30.247  30.500  1.00  0.00     0.009 A 
ATOM     68  C   UNL A   1      37.930  28.797  32.826  1.00  0.00     0.001 A 
ATOM     69  C   UNL A   1      37.300  30.596  31.378  1.00  0.00     0.001 A 
ATOM     70  C   UNL A   1      37.092  29.865  32.540  1.00  0.00     0.000 A 
ENDBRANCH  51  65
BRANCH  52  71
ATOM     71  C   UNL A   1      45.741  23.586  26.023  1.00  0.00    -0.014 A 
ATOM     72  C   UNL A   1      45.952  22.205  26.250  1.00  0.00     0.009 A 
ATOM     73  C   UNL A   1      45.151  23.952  24.804  1.00  0.00     0.009 A 
ATOM     74  C   UNL A   1      45.489  21.233  25.354  1.00  0.00     0.001 A 
ATOM     75  C   UNL A   1      44.724  22.976  23.886  1.00  0.00     0.001 A 
ATOM     76  C   UNL A   1      44.860  21.619  24.177  1.00  0.00     0.000 A 
ENDBRANCH  52  71
BRANCH  64  77
ATOM     77  C   UNL A   1      45.040  30.637  27.715  1.00  0.00    -0.014 A 
ATOM     78  C   UNL A   1      45.959  31.417  28.424  1.00  0.00     0.009 A 
ATOM     79  C   UNL A   1      44.305  31.289  26.702  1.00  0.00     0.009 A 
ATOM     80  C   UNL A   1      46.238  32.732  28.042  1.00  0.00     0.001 A 
ATOM     81  C   UNL A   1      44.552  32.609  26.339  1.00  0.00     0.001 A 
ATOM     82  C   UNL A   1      45.545  33.322  26.990  1.00  0.00     0.000 A 
ENDBRANCH  64  77
ENDBRANCH  38  39
ENDBRANCH  31  33
ENDBRANCH  30  31
ENDBRANCH  29  30
ENDBRANCH   1  29
TORSDOF 14
ENDMDL
MODEL 3
REMARK VINA RESULT:     -12.7      3.967     10.292
REMARK SMILES Cc1cccc(-n2ncc(C(=O)Nc3cccc(C(=O)OCCOC(=O)c4ccc(-c5c6nc(c(-c7ccccc7)c7ccc([nH]7)c(-c7ccccc7)c7nc(c(-c8ccccc8)c8ccc5[nH]8)C=C7)C=C6)cc4)c3C)c2C)c1
REMARK SMILES IDX 22 1 21 2 19 3 20 4 18 5 14 6 15 7 75 8 16 9 76 10 17 11
REMARK SMILES IDX 13 12 11 13 12 14 10 16 7 17 8 18 77 19 9 20 78 21 6 22 1 23
REMARK SMILES IDX 2 24 3 25 79 26 4 27 5 28 23 29 24 30 25 31 26 32 27 33
REMARK SMILES IDX 28 34 74 35 29 36 73 37 30 38 31 39 32 40 67 41 33 42 72 43
REMARK SMILES IDX 66 44 68 45 34 46 71 47 65 48 64 49 35 51 57 52 42 53 56 54
REMARK SMILES IDX 43 55 46 56 55 57 69 58 44 59 45 60 54 62 70 63 47 64 36 65
REMARK SMILES IDX 37 66 41 67 38 68 40 69 39 70 58 71 59 72 63 73 60 74 62 75
REMARK SMILES IDX 61 76 48 77 49 78 53 79 50 80 52 81 51 82
REMARK H PARENT 13 15 68 50 46 61
REMARK Flexibility Score: inf
ROOT
ATOM      1  C   UNL A   1      38.769  21.002  25.505  1.00  0.00     0.275 C 
ENDROOT
BRANCH   1   2
ATOM      2  O   UNL A   1      37.369  21.294  25.619  1.00  0.00    -0.458 OA
BRANCH   2   3
ATOM      3  C   UNL A   1      36.953  22.573  25.725  1.00  0.00     0.338 C 
ATOM      4  O   UNL A   1      37.605  23.526  26.122  1.00  0.00    -0.246 OA
BRANCH   3   5
ATOM      5  C   UNL A   1      35.585  22.662  25.152  1.00  0.00     0.065 A 
ATOM      6  C   UNL A   1      33.164  22.862  25.223  1.00  0.00     0.045 A 
ATOM      7  C   UNL A   1      33.156  23.008  23.831  1.00  0.00     0.026 A 
ATOM      8  C   UNL A   1      34.399  22.784  25.915  1.00  0.00    -0.013 A 
ATOM      9  C   UNL A   1      34.329  22.893  23.093  1.00  0.00     0.003 A 
ATOM     10  C   UNL A   1      34.400  22.783  27.423  1.00  0.00     0.047 C 
ATOM     11  C   UNL A   1      35.532  22.683  23.749  1.00  0.00     0.016 A 
BRANCH   6  12
ATOM     12  N   UNL A   1      31.958  22.811  25.950  1.00  0.00    -0.322 N 
ATOM     13  C   UNL A   1      31.123  23.802  26.428  1.00  0.00     0.259 C 
ATOM     14  O   UNL A   1      30.267  23.467  27.249  1.00  0.00    -0.269 OA
ATOM     15  H   UNL A   1      31.653  21.897  26.156  1.00  0.00     0.170 HD
BRANCH  13  16
ATOM     16  C   UNL A   1      31.186  25.167  25.917  1.00  0.00     0.081 A 
ATOM     17  N   UNL A   1      30.900  26.979  24.651  1.00  0.00    -0.237 N 
ATOM     18  N   UNL A   1      31.710  27.384  25.659  1.00  0.00    -0.175 NA
ATOM     19  C   UNL A   1      30.723  25.604  24.677  1.00  0.00     0.054 A 
ATOM     20  C   UNL A   1      31.858  26.302  26.419  1.00  0.00     0.149 A 
ATOM     21  C   UNL A   1      30.276  24.792  23.509  1.00  0.00     0.068 C 
BRANCH  17  22
ATOM     22  C   UNL A   1      30.393  27.934  23.732  1.00  0.00     0.065 A 
ATOM     23  C   UNL A   1      26.991  29.318  22.743  1.00  0.00     0.044 C 
ATOM     24  C   UNL A   1      28.470  29.075  22.782  1.00  0.00    -0.049 A 
ATOM     25  C   UNL A   1      29.336  29.863  22.015  1.00  0.00     0.003 A 
ATOM     26  C   UNL A   1      29.005  28.083  23.611  1.00  0.00     0.031 A 
ATOM     27  C   UNL A   1      30.718  29.675  22.087  1.00  0.00     0.002 A 
ATOM     28  C   UNL A   1      31.251  28.718  22.952  1.00  0.00     0.028 A 
ENDBRANCH  17  22
ENDBRANCH  13  16
ENDBRANCH   6  12
ENDBRANCH   3   5
ENDBRANCH   2   3
ENDBRANCH   1   2
BRANCH   1  29
ATOM     29  C   UNL A   1      39.321  19.579  25.754  1.00  0.00     0.275 C 
BRANCH  29  30
ATOM     30  O   UNL A   1      40.699  19.220  25.462  1.00  0.00    -0.458 OA
BRANCH  30  31
ATOM     31  C   UNL A   1      41.831  19.500  26.149  1.00  0.00     0.338 C 
ATOM     32  O   UNL A   1      42.745  18.701  26.295  1.00  0.00    -0.246 OA
BRANCH  31  33
ATOM     33  C   UNL A   1      41.958  20.867  26.639  1.00  0.00     0.060 A 
ATOM     34  C   UNL A   1      42.061  21.912  25.708  1.00  0.00     0.016 A 
ATOM     35  C   UNL A   1      41.827  21.103  28.001  1.00  0.00     0.016 A 
ATOM     36  C   UNL A   1      41.949  23.219  26.127  1.00  0.00     0.010 A 
ATOM     37  C   UNL A   1      41.545  22.375  28.407  1.00  0.00     0.010 A 
ATOM     38  C   UNL A   1      41.711  23.415  27.480  1.00  0.00    -0.014 A 
BRANCH  38  39
ATOM     39  C   UNL A   1      42.076  24.650  28.130  1.00  0.00     0.031 A 
ATOM     40  C   UNL A   1      41.064  25.690  28.273  1.00  0.00     0.074 A 
ATOM     41  C   UNL A   1      43.348  24.587  28.586  1.00  0.00     0.049 A 
ATOM     42  N   UNL A   1      41.311  26.948  28.230  1.00  0.00    -0.248 NA
ATOM     43  C   UNL A   1      39.629  25.395  28.362  1.00  0.00     0.031 C 
ATOM     44  C   UNL A   1      44.113  25.371  29.530  1.00  0.00     0.029 A 
ATOM     45  N   UNL A   1      44.301  23.694  28.095  1.00  0.00    -0.354 N 
ATOM     46  C   UNL A   1      40.204  27.547  28.789  1.00  0.00     0.074 A 
ATOM     47  C   UNL A   1      39.124  26.611  28.605  1.00  0.00     0.031 C 
ATOM     48  C   UNL A   1      45.428  25.116  29.325  1.00  0.00     0.029 A 
ATOM     49  C   UNL A   1      45.558  24.257  28.146  1.00  0.00     0.049 A 
ATOM     50  H   UNL A   1      44.104  22.790  27.760  1.00  0.00     0.167 HD
ATOM     51  C   UNL A   1      40.403  28.600  29.633  1.00  0.00     0.031 A 
ATOM     52  C   UNL A   1      46.089  24.610  26.933  1.00  0.00     0.031 A 
ATOM     53  C   UNL A   1      41.841  28.888  29.741  1.00  0.00     0.049 A 
ATOM     54  C   UNL A   1      45.967  26.107  26.702  1.00  0.00     0.074 A 
ATOM     55  C   UNL A   1      42.795  28.567  30.695  1.00  0.00     0.029 A 
ATOM     56  N   UNL A   1      42.549  29.189  28.587  1.00  0.00    -0.354 N 
ATOM     57  N   UNL A   1      45.225  26.906  27.419  1.00  0.00    -0.248 NA
ATOM     58  C   UNL A   1      46.624  26.801  25.599  1.00  0.00     0.031 C 
ATOM     59  C   UNL A   1      44.083  28.646  30.079  1.00  0.00     0.029 A 
ATOM     60  C   UNL A   1      43.911  29.011  28.756  1.00  0.00     0.049 A 
ATOM     61  H   UNL A   1      42.133  29.493  27.748  1.00  0.00     0.167 HD
ATOM     62  C   UNL A   1      45.347  28.186  26.972  1.00  0.00     0.074 A 
ATOM     63  C   UNL A   1      46.178  28.057  25.783  1.00  0.00     0.031 C 
ATOM     64  C   UNL A   1      44.781  29.255  27.610  1.00  0.00     0.031 A 
BRANCH  51  65
ATOM     65  C   UNL A   1      39.373  29.107  30.615  1.00  0.00    -0.014 A 
ATOM     66  C   UNL A   1      38.856  28.226  31.582  1.00  0.00     0.009 A 
ATOM     67  C   UNL A   1      38.861  30.418  30.644  1.00  0.00     0.009 A 
ATOM     68  C   UNL A   1      37.844  28.602  32.475  1.00  0.00     0.001 A 
ATOM     69  C   UNL A   1      37.831  30.797  31.520  1.00  0.00     0.001 A 
ATOM     70  C   UNL A   1      37.318  29.885  32.433  1.00  0.00     0.000 A 
ENDBRANCH  51  65
BRANCH  52  71
ATOM     71  C   UNL A   1      45.907  23.572  25.847  1.00  0.00    -0.014 A 
ATOM     72  C   UNL A   1      46.090  22.205  26.168  1.00  0.00     0.009 A 
ATOM     73  C   UNL A   1      45.322  23.865  24.605  1.00  0.00     0.009 A 
ATOM     74  C   UNL A   1      45.604  21.183  25.341  1.00  0.00     0.001 A 
ATOM     75  C   UNL A   1      44.873  22.837  23.757  1.00  0.00     0.001 A 
ATOM     76  C   UNL A   1      44.981  21.502  24.141  1.00  0.00     0.000 A 
ENDBRANCH  52  71
BRANCH  64  77
ATOM     77  C   UNL A   1      44.986  30.676  27.170  1.00  0.00    -0.014 A 
ATOM     78  C   UNL A   1      44.005  31.416  26.504  1.00  0.00     0.009 A 
ATOM     79  C   UNL A   1      46.244  31.294  27.333  1.00  0.00     0.009 A 
ATOM     80  C   UNL A   1      44.218  32.753  26.158  1.00  0.00     0.001 A 
ATOM     81  C   UNL A   1      46.476  32.614  26.959  1.00  0.00     0.001 A 
ATOM     82  C   UNL A   1      45.449  33.355  26.399  1.00  0.00     0.000 A 
ENDBRANCH  64  77
ENDBRANCH  38  39
ENDBRANCH  31  33
ENDBRANCH  30  31
ENDBRANCH  29  30
ENDBRANCH   1  29
TORSDOF 14
ENDMDL
