MODEL 1
REMARK VINA RESULT:      -9.0      0.000      0.000
REMARK SMILES COCCC(=O)N1CCc2cc(C(=O)OCCOC(=O)c3ccc(-c4c5nc(c(-c6ccccc6)c6ccc([nH]6)c(-c6ccccc6)c6nc(c(-c7ccccc7)c7ccc4[nH]7)C=C6)C=C5)cc3)ccc21
REMARK SMILES IDX 16 1 15 2 13 3 14 4 12 5 7 6 8 7 71 8 9 9 10 10 70 11 11 12
REMARK SMILES IDX 69 13 5 14 6 15 4 16 3 17 2 18 1 19 17 20 18 21 19 22 20 23
REMARK SMILES IDX 21 24 22 25 68 26 23 27 67 28 24 29 25 30 26 31 61 32 27 33
REMARK SMILES IDX 66 34 60 35 62 36 28 37 65 38 59 39 58 40 29 42 51 43 36 44
REMARK SMILES IDX 50 45 37 46 40 47 49 48 63 49 38 50 39 51 48 53 64 54 41 55
REMARK SMILES IDX 30 56 31 57 35 58 32 59 34 60 33 61 52 62 53 63 57 64 54 65
REMARK SMILES IDX 56 66 55 67 42 68 43 69 47 70 44 71 46 72 45 73
REMARK H PARENT 62 41 40 52
REMARK Flexibility Score: inf
ROOT
ATOM      1  C   UNL A   1      45.521  20.272  24.640  1.00  0.00     0.275 C 
ENDROOT
BRANCH   1   2
ATOM      2  O   UNL A   1      45.332  21.625  25.107  1.00  0.00    -0.458 OA
BRANCH   2   3
ATOM      3  C   UNL A   1      45.011  22.526  24.152  1.00  0.00     0.338 C 
ATOM      4  O   UNL A   1      44.418  22.305  23.104  1.00  0.00    -0.246 OA
BRANCH   3   5
ATOM      5  C   UNL A   1      45.452  23.884  24.519  1.00  0.00     0.060 A 
ATOM      6  N   UNL A   1      46.980  27.556  25.818  1.00  0.00    -0.312 N 
ATOM      7  C   UNL A   1      48.403  27.214  26.006  1.00  0.00     0.130 C 
ATOM      8  C   UNL A   1      46.281  26.379  25.481  1.00  0.00     0.047 A 
ATOM      9  C   UNL A   1      48.615  25.809  25.448  1.00  0.00     0.059 C 
ATOM     10  C   UNL A   1      47.206  25.378  25.206  1.00  0.00    -0.022 A 
ATOM     11  C   UNL A   1      44.927  26.109  25.323  1.00  0.00     0.027 A 
ATOM     12  C   UNL A   1      46.809  24.154  24.700  1.00  0.00     0.021 A 
ATOM     13  C   UNL A   1      44.509  24.860  24.838  1.00  0.00     0.018 A 
BRANCH   6  14
ATOM     14  C   UNL A   1      46.592  28.875  25.896  1.00  0.00     0.229 C 
ATOM     15  O   UNL A   1      46.348  29.522  24.868  1.00  0.00    -0.274 OA
BRANCH  14  16
ATOM     16  C   UNL A   1      46.430  29.566  27.225  1.00  0.00     0.129 C 
BRANCH  16  17
ATOM     17  C   UNL A   1      45.211  30.480  27.315  1.00  0.00     0.169 C 
BRANCH  17  18
ATOM     18  O   UNL A   1      45.509  31.793  27.776  1.00  0.00    -0.384 OA
ATOM     19  C   UNL A   1      46.566  32.420  27.056  1.00  0.00     0.194 C 
ENDBRANCH  17  18
ENDBRANCH  16  17
ENDBRANCH  14  16
ENDBRANCH   6  14
ENDBRANCH   3   5
ENDBRANCH   2   3
ENDBRANCH   1   2
BRANCH   1  20
ATOM     20  C   UNL A   1      44.462  19.310  25.184  1.00  0.00     0.275 C 
BRANCH  20  21
ATOM     21  O   UNL A   1      43.130  19.773  24.886  1.00  0.00    -0.458 OA
BRANCH  21  22
ATOM     22  C   UNL A   1      42.236  19.572  25.877  1.00  0.00     0.338 C 
ATOM     23  O   UNL A   1      41.783  18.508  26.266  1.00  0.00    -0.246 OA
BRANCH  22  24
ATOM     24  C   UNL A   1      41.926  20.825  26.580  1.00  0.00     0.060 A 
ATOM     25  C   UNL A   1      41.794  21.957  25.796  1.00  0.00     0.016 A 
ATOM     26  C   UNL A   1      42.105  20.956  27.953  1.00  0.00     0.016 A 
ATOM     27  C   UNL A   1      42.098  23.205  26.318  1.00  0.00     0.010 A 
ATOM     28  C   UNL A   1      42.194  22.240  28.514  1.00  0.00     0.010 A 
ATOM     29  C   UNL A   1      42.273  23.383  27.696  1.00  0.00    -0.014 A 
BRANCH  29  30
ATOM     30  C   UNL A   1      42.566  24.748  28.236  1.00  0.00     0.031 A 
ATOM     31  C   UNL A   1      43.972  25.139  28.634  1.00  0.00     0.074 A 
ATOM     32  C   UNL A   1      41.583  25.672  28.331  1.00  0.00     0.049 A 
ATOM     33  N   UNL A   1      44.386  26.211  29.266  1.00  0.00    -0.248 NA
ATOM     34  C   UNL A   1      45.052  24.197  28.297  1.00  0.00     0.031 C 
ATOM     35  C   UNL A   1      40.184  25.475  27.937  1.00  0.00     0.029 A 
ATOM     36  N   UNL A   1      41.611  26.975  28.769  1.00  0.00    -0.354 N 
ATOM     37  C   UNL A   1      45.751  26.036  29.466  1.00  0.00     0.074 A 
ATOM     38  C   UNL A   1      46.097  24.751  28.897  1.00  0.00     0.031 C 
ATOM     39  C   UNL A   1      39.515  26.627  28.070  1.00  0.00     0.029 A 
ATOM     40  C   UNL A   1      40.391  27.606  28.695  1.00  0.00     0.049 A 
ATOM     41  H   UNL A   1      42.427  27.414  29.103  1.00  0.00     0.167 HD
ATOM     42  C   UNL A   1      46.637  26.866  30.070  1.00  0.00     0.031 A 
ATOM     43  C   UNL A   1      39.988  28.813  29.134  1.00  0.00     0.031 A 
ATOM     44  C   UNL A   1      46.301  28.165  30.596  1.00  0.00     0.049 A 
ATOM     45  C   UNL A   1      40.972  29.688  29.851  1.00  0.00     0.074 A 
ATOM     46  C   UNL A   1      47.127  29.084  31.220  1.00  0.00     0.029 A 
ATOM     47  N   UNL A   1      45.038  28.734  30.547  1.00  0.00    -0.354 N 
ATOM     48  N   UNL A   1      42.244  29.477  30.088  1.00  0.00    -0.248 NA
ATOM     49  C   UNL A   1      40.459  30.961  30.373  1.00  0.00     0.031 C 
ATOM     50  C   UNL A   1      46.352  30.185  31.599  1.00  0.00     0.029 A 
ATOM     51  C   UNL A   1      45.059  29.985  31.146  1.00  0.00     0.049 A 
ATOM     52  H   UNL A   1      44.243  28.314  30.146  1.00  0.00     0.167 HD
ATOM     53  C   UNL A   1      42.691  30.604  30.765  1.00  0.00     0.074 A 
ATOM     54  C   UNL A   1      41.558  31.501  30.878  1.00  0.00     0.031 C 
ATOM     55  C   UNL A   1      43.927  30.869  31.250  1.00  0.00     0.031 A 
BRANCH  42  56
ATOM     56  C   UNL A   1      48.051  26.373  30.247  1.00  0.00    -0.014 A 
ATOM     57  C   UNL A   1      48.469  25.708  31.412  1.00  0.00     0.009 A 
ATOM     58  C   UNL A   1      48.978  26.553  29.206  1.00  0.00     0.009 A 
ATOM     59  C   UNL A   1      49.790  25.273  31.543  1.00  0.00     0.001 A 
ATOM     60  C   UNL A   1      50.288  26.087  29.326  1.00  0.00     0.001 A 
ATOM     61  C   UNL A   1      50.697  25.458  30.499  1.00  0.00     0.000 A 
ENDBRANCH  42  56
BRANCH  43  62
ATOM     62  C   UNL A   1      38.570  29.234  28.966  1.00  0.00    -0.014 A 
ATOM     63  C   UNL A   1      37.666  29.155  30.036  1.00  0.00     0.009 A 
ATOM     64  C   UNL A   1      38.112  29.719  27.729  1.00  0.00     0.009 A 
ATOM     65  C   UNL A   1      36.331  29.531  29.863  1.00  0.00     0.001 A 
ATOM     66  C   UNL A   1      36.789  30.133  27.572  1.00  0.00     0.001 A 
ATOM     67  C   UNL A   1      35.897  30.028  28.635  1.00  0.00     0.000 A 
ENDBRANCH  43  62
BRANCH  55  68
ATOM     68  C   UNL A   1      44.132  32.213  31.891  1.00  0.00    -0.014 A 
ATOM     69  C   UNL A   1      44.030  32.392  33.280  1.00  0.00     0.009 A 
ATOM     70  C   UNL A   1      44.437  33.320  31.084  1.00  0.00     0.009 A 
ATOM     71  C   UNL A   1      44.184  33.661  33.840  1.00  0.00     0.001 A 
ATOM     72  C   UNL A   1      44.626  34.581  31.650  1.00  0.00     0.001 A 
ATOM     73  C   UNL A   1      44.486  34.753  33.026  1.00  0.00     0.000 A 
ENDBRANCH  55  68
ENDBRANCH  29  30
ENDBRANCH  22  24
ENDBRANCH  21  22
ENDBRANCH  20  21
ENDBRANCH   1  20
TORSDOF 15
ENDMDL
MODEL 2
REMARK VINA RESULT:      -8.6      0.779      6.177
REMARK SMILES COCCC(=O)N1CCc2cc(C(=O)OCCOC(=O)c3ccc(-c4c5nc(c(-c6ccccc6)c6ccc([nH]6)c(-c6ccccc6)c6nc(c(-c7ccccc7)c7ccc4[nH]7)C=C6)C=C5)cc3)ccc21
REMARK SMILES IDX 16 1 15 2 13 3 14 4 12 5 7 6 8 7 71 8 9 9 10 10 70 11 11 12
REMARK SMILES IDX 69 13 5 14 6 15 4 16 3 17 2 18 1 19 17 20 18 21 19 22 20 23
REMARK SMILES IDX 21 24 22 25 68 26 23 27 67 28 24 29 25 30 26 31 61 32 27 33
REMARK SMILES IDX 66 34 60 35 62 36 28 37 65 38 59 39 58 40 29 42 51 43 36 44
REMARK SMILES IDX 50 45 37 46 40 47 49 48 63 49 38 50 39 51 48 53 64 54 41 55
REMARK SMILES IDX 30 56 31 57 35 58 32 59 34 60 33 61 52 62 53 63 57 64 54 65
REMARK SMILES IDX 56 66 55 67 42 68 43 69 47 70 44 71 46 72 45 73
REMARK H PARENT 62 41 40 52
REMARK Flexibility Score: inf
ROOT
ATOM      1  C   UNL A   1      45.530  20.063  24.674  1.00  0.00     0.275 C 
ENDROOT
BRANCH   1   2
ATOM      2  O   UNL A   1      45.678  21.429  25.117  1.00  0.00    -0.458 OA
BRANCH   2   3
ATOM      3  C   UNL A   1      45.251  22.369  24.244  1.00  0.00     0.338 C 
ATOM      4  O   UNL A   1      44.582  22.185  23.236  1.00  0.00    -0.246 OA
BRANCH   3   5
ATOM      5  C   UNL A   1      45.676  23.720  24.654  1.00  0.00     0.060 A 
ATOM      6  N   UNL A   1      46.555  27.700  25.600  1.00  0.00    -0.312 N 
ATOM      7  C   UNL A   1      45.197  28.268  25.700  1.00  0.00     0.130 C 
ATOM      8  C   UNL A   1      46.445  26.362  25.168  1.00  0.00     0.047 A 
ATOM      9  C   UNL A   1      44.207  27.109  25.620  1.00  0.00     0.059 C 
ATOM     10  C   UNL A   1      45.109  25.985  25.231  1.00  0.00    -0.022 A 
ATOM     11  C   UNL A   1      47.397  25.421  24.794  1.00  0.00     0.027 A 
ATOM     12  C   UNL A   1      44.723  24.675  25.010  1.00  0.00     0.021 A 
ATOM     13  C   UNL A   1      47.014  24.095  24.539  1.00  0.00     0.018 A 
BRANCH   6  14
ATOM     14  C   UNL A   1      47.631  28.461  25.999  1.00  0.00     0.229 C 
ATOM     15  O   UNL A   1      48.750  28.279  25.502  1.00  0.00    -0.274 OA
BRANCH  14  16
ATOM     16  C   UNL A   1      47.481  29.550  27.030  1.00  0.00     0.129 C 
BRANCH  16  17
ATOM     17  C   UNL A   1      46.638  30.737  26.574  1.00  0.00     0.169 C 
BRANCH  17  18
ATOM     18  O   UNL A   1      47.401  31.891  26.240  1.00  0.00    -0.384 OA
ATOM     19  C   UNL A   1      48.464  32.150  27.152  1.00  0.00     0.194 C 
ENDBRANCH  17  18
ENDBRANCH  16  17
ENDBRANCH  14  16
ENDBRANCH   6  14
ENDBRANCH   3   5
ENDBRANCH   2   3
ENDBRANCH   1   2
BRANCH   1  20
ATOM     20  C   UNL A   1      44.374  19.341  25.371  1.00  0.00     0.275 C 
BRANCH  20  21
ATOM     21  O   UNL A   1      43.099  19.767  24.850  1.00  0.00    -0.458 OA
BRANCH  21  22
ATOM     22  C   UNL A   1      42.073  19.640  25.718  1.00  0.00     0.338 C 
ATOM     23  O   UNL A   1      41.459  18.624  26.001  1.00  0.00    -0.246 OA
BRANCH  22  24
ATOM     24  C   UNL A   1      41.821  20.897  26.437  1.00  0.00     0.060 A 
ATOM     25  C   UNL A   1      41.837  22.055  25.679  1.00  0.00     0.016 A 
ATOM     26  C   UNL A   1      41.916  20.979  27.821  1.00  0.00     0.016 A 
ATOM     27  C   UNL A   1      42.207  23.260  26.258  1.00  0.00     0.010 A 
ATOM     28  C   UNL A   1      42.074  22.238  28.425  1.00  0.00     0.010 A 
ATOM     29  C   UNL A   1      42.302  23.389  27.648  1.00  0.00    -0.014 A 
BRANCH  29  30
ATOM     30  C   UNL A   1      42.670  24.711  28.246  1.00  0.00     0.031 A 
ATOM     31  C   UNL A   1      41.611  25.756  28.528  1.00  0.00     0.074 A 
ATOM     32  C   UNL A   1      43.950  24.974  28.590  1.00  0.00     0.049 A 
ATOM     33  N   UNL A   1      41.760  27.007  28.890  1.00  0.00    -0.248 NA
ATOM     34  C   UNL A   1      40.206  25.350  28.365  1.00  0.00     0.031 C 
ATOM     35  C   UNL A   1      45.083  24.055  28.437  1.00  0.00     0.029 A 
ATOM     36  N   UNL A   1      44.519  26.088  29.161  1.00  0.00    -0.354 N 
ATOM     37  C   UNL A   1      40.480  27.551  28.923  1.00  0.00     0.074 A 
ATOM     38  C   UNL A   1      39.567  26.498  28.536  1.00  0.00     0.031 C 
ATOM     39  C   UNL A   1      46.180  24.603  28.974  1.00  0.00     0.029 A 
ATOM     40  C   UNL A   1      45.872  25.966  29.376  1.00  0.00     0.049 A 
ATOM     41  H   UNL A   1      44.006  26.896  29.394  1.00  0.00     0.167 HD
ATOM     42  C   UNL A   1      40.099  28.813  29.242  1.00  0.00     0.031 A 
ATOM     43  C   UNL A   1      46.789  26.859  29.791  1.00  0.00     0.031 A 
ATOM     44  C   UNL A   1      41.005  29.849  29.671  1.00  0.00     0.049 A 
ATOM     45  C   UNL A   1      46.352  28.263  30.082  1.00  0.00     0.074 A 
ATOM     46  C   UNL A   1      40.717  31.156  30.024  1.00  0.00     0.029 A 
ATOM     47  N   UNL A   1      42.375  29.689  29.818  1.00  0.00    -0.354 N 
ATOM     48  N   UNL A   1      45.147  28.777  30.044  1.00  0.00    -0.248 NA
ATOM     49  C   UNL A   1      47.406  29.214  30.458  1.00  0.00     0.031 C 
ATOM     50  C   UNL A   1      41.918  31.803  30.330  1.00  0.00     0.029 A 
ATOM     51  C   UNL A   1      42.947  30.880  30.239  1.00  0.00     0.049 A 
ATOM     52  H   UNL A   1      42.868  28.855  29.650  1.00  0.00     0.167 HD
ATOM     53  C   UNL A   1      45.293  30.106  30.418  1.00  0.00     0.074 A 
ATOM     54  C   UNL A   1      46.700  30.309  30.698  1.00  0.00     0.031 C 
ATOM     55  C   UNL A   1      44.347  31.070  30.518  1.00  0.00     0.031 A 
BRANCH  42  56
ATOM     56  C   UNL A   1      38.641  29.165  29.088  1.00  0.00    -0.014 A 
ATOM     57  C   UNL A   1      37.738  29.090  30.161  1.00  0.00     0.009 A 
ATOM     58  C   UNL A   1      38.170  29.615  27.842  1.00  0.00     0.009 A 
ATOM     59  C   UNL A   1      36.392  29.417  29.978  1.00  0.00     0.001 A 
ATOM     60  C   UNL A   1      36.832  29.973  27.671  1.00  0.00     0.001 A 
ATOM     61  C   UNL A   1      35.941  29.863  28.735  1.00  0.00     0.000 A 
ENDBRANCH  42  56
BRANCH  43  62
ATOM     62  C   UNL A   1      48.223  26.468  29.889  1.00  0.00    -0.014 A 
ATOM     63  C   UNL A   1      48.746  25.949  31.082  1.00  0.00     0.009 A 
ATOM     64  C   UNL A   1      49.078  26.614  28.783  1.00  0.00     0.009 A 
ATOM     65  C   UNL A   1      50.097  25.606  31.171  1.00  0.00     0.001 A 
ATOM     66  C   UNL A   1      50.417  26.232  28.862  1.00  0.00     0.001 A 
ATOM     67  C   UNL A   1      50.929  25.739  30.060  1.00  0.00     0.000 A 
ENDBRANCH  43  62
BRANCH  55  68
ATOM     68  C   UNL A   1      44.798  32.417  31.011  1.00  0.00    -0.014 A 
ATOM     69  C   UNL A   1      45.219  33.423  30.128  1.00  0.00     0.009 A 
ATOM     70  C   UNL A   1      44.794  32.680  32.390  1.00  0.00     0.009 A 
ATOM     71  C   UNL A   1      45.672  34.648  30.620  1.00  0.00     0.001 A 
ATOM     72  C   UNL A   1      45.213  33.917  32.877  1.00  0.00     0.001 A 
ATOM     73  C   UNL A   1      45.665  34.896  31.993  1.00  0.00     0.000 A 
ENDBRANCH  55  68
ENDBRANCH  29  30
ENDBRANCH  22  24
ENDBRANCH  21  22
ENDBRANCH  20  21
ENDBRANCH   1  20
TORSDOF 15
ENDMDL
MODEL 3
REMARK VINA RESULT:      -8.4      4.112      6.814
REMARK SMILES COCCC(=O)N1CCc2cc(C(=O)OCCOC(=O)c3ccc(-c4c5nc(c(-c6ccccc6)c6ccc([nH]6)c(-c6ccccc6)c6nc(c(-c7ccccc7)c7ccc4[nH]7)C=C6)C=C5)cc3)ccc21
REMARK SMILES IDX 16 1 15 2 13 3 14 4 12 5 7 6 8 7 71 8 9 9 10 10 70 11 11 12
REMARK SMILES IDX 69 13 5 14 6 15 4 16 3 17 2 18 1 19 17 20 18 21 19 22 20 23
REMARK SMILES IDX 21 24 22 25 68 26 23 27 67 28 24 29 25 30 26 31 61 32 27 33
REMARK SMILES IDX 66 34 60 35 62 36 28 37 65 38 59 39 58 40 29 42 51 43 36 44
REMARK SMILES IDX 50 45 37 46 40 47 49 48 63 49 38 50 39 51 48 53 64 54 41 55
REMARK SMILES IDX 30 56 31 57 35 58 32 59 34 60 33 61 52 62 53 63 57 64 54 65
REMARK SMILES IDX 56 66 55 67 42 68 43 69 47 70 44 71 46 72 45 73
REMARK H PARENT 62 41 40 52
REMARK Flexibility Score: inf
ROOT
ATOM      1  C   UNL A   1      43.806  20.660  25.735  1.00  0.00     0.275 C 
ENDROOT
BRANCH   1   2
ATOM      2  O   UNL A   1      42.635  19.875  25.422  1.00  0.00    -0.458 OA
BRANCH   2   3
ATOM      3  C   UNL A   1      41.722  19.779  26.414  1.00  0.00     0.338 C 
ATOM      4  O   UNL A   1      41.890  19.286  27.521  1.00  0.00    -0.246 OA
BRANCH   3   5
ATOM      5  C   UNL A   1      40.432  20.376  26.021  1.00  0.00     0.060 A 
ATOM      6  N   UNL A   1      36.771  22.262  25.280  1.00  0.00    -0.312 N 
ATOM      7  C   UNL A   1      36.975  23.546  25.976  1.00  0.00     0.130 C 
ATOM      8  C   UNL A   1      37.891  21.441  25.528  1.00  0.00     0.047 A 
ATOM      9  C   UNL A   1      38.437  23.608  26.410  1.00  0.00     0.059 C 
ATOM     10  C   UNL A   1      38.883  22.212  26.123  1.00  0.00    -0.022 A 
ATOM     11  C   UNL A   1      38.159  20.111  25.226  1.00  0.00     0.027 A 
ATOM     12  C   UNL A   1      40.150  21.705  26.341  1.00  0.00     0.021 A 
ATOM     13  C   UNL A   1      39.433  19.575  25.470  1.00  0.00     0.018 A 
BRANCH   6  14
ATOM     14  C   UNL A   1      35.662  22.101  24.480  1.00  0.00     0.229 C 
ATOM     15  O   UNL A   1      34.825  21.224  24.734  1.00  0.00    -0.274 OA
BRANCH  14  16
ATOM     16  C   UNL A   1      35.417  22.994  23.292  1.00  0.00     0.129 C 
BRANCH  16  17
ATOM     17  C   UNL A   1      33.944  23.193  22.947  1.00  0.00     0.169 C 
BRANCH  17  18
ATOM     18  O   UNL A   1      33.535  24.556  22.928  1.00  0.00    -0.384 OA
ATOM     19  C   UNL A   1      32.921  24.946  21.704  1.00  0.00     0.194 C 
ENDBRANCH  17  18
ENDBRANCH  16  17
ENDBRANCH  14  16
ENDBRANCH   6  14
ENDBRANCH   3   5
ENDBRANCH   2   3
ENDBRANCH   1   2
BRANCH   1  20
ATOM     20  C   UNL A   1      44.155  21.661  24.631  1.00  0.00     0.275 C 
BRANCH  20  21
ATOM     21  O   UNL A   1      43.257  22.788  24.640  1.00  0.00    -0.458 OA
BRANCH  21  22
ATOM     22  C   UNL A   1      43.833  23.956  24.996  1.00  0.00     0.338 C 
ATOM     23  O   UNL A   1      44.920  24.386  24.647  1.00  0.00    -0.246 OA
BRANCH  22  24
ATOM     24  C   UNL A   1      42.919  24.780  25.801  1.00  0.00     0.060 A 
ATOM     25  C   UNL A   1      43.105  26.149  25.738  1.00  0.00     0.016 A 
ATOM     26  C   UNL A   1      42.158  24.235  26.829  1.00  0.00     0.016 A 
ATOM     27  C   UNL A   1      42.767  26.948  26.820  1.00  0.00     0.010 A 
ATOM     28  C   UNL A   1      41.628  25.083  27.814  1.00  0.00     0.010 A 
ATOM     29  C   UNL A   1      41.991  26.442  27.870  1.00  0.00    -0.014 A 
BRANCH  29  30
ATOM     30  C   UNL A   1      41.611  27.337  29.008  1.00  0.00     0.031 A 
ATOM     31  C   UNL A   1      42.424  27.355  30.284  1.00  0.00     0.074 A 
ATOM     32  C   UNL A   1      40.561  28.180  28.895  1.00  0.00     0.049 A 
ATOM     33  N   UNL A   1      42.158  27.940  31.427  1.00  0.00    -0.248 NA
ATOM     34  C   UNL A   1      43.691  26.606  30.285  1.00  0.00     0.031 C 
ATOM     35  C   UNL A   1      39.706  28.327  27.712  1.00  0.00     0.029 A 
ATOM     36  N   UNL A   1      40.039  29.094  29.781  1.00  0.00    -0.354 N 
ATOM     37  C   UNL A   1      43.179  27.568  32.296  1.00  0.00     0.074 A 
ATOM     38  C   UNL A   1      44.066  26.700  31.553  1.00  0.00     0.031 C 
ATOM     39  C   UNL A   1      38.832  29.322  27.912  1.00  0.00     0.029 A 
ATOM     40  C   UNL A   1      38.960  29.787  29.284  1.00  0.00     0.049 A 
ATOM     41  H   UNL A   1      40.405  29.239  30.684  1.00  0.00     0.167 HD
ATOM     42  C   UNL A   1      43.360  27.913  33.595  1.00  0.00     0.031 A 
ATOM     43  C   UNL A   1      38.117  30.656  29.871  1.00  0.00     0.031 A 
ATOM     44  C   UNL A   1      42.500  28.813  34.321  1.00  0.00     0.049 A 
ATOM     45  C   UNL A   1      38.304  30.977  31.324  1.00  0.00     0.074 A 
ATOM     46  C   UNL A   1      42.603  29.232  35.637  1.00  0.00     0.029 A 
ATOM     47  N   UNL A   1      41.387  29.445  33.788  1.00  0.00    -0.354 N 
ATOM     48  N   UNL A   1      39.237  30.565  32.147  1.00  0.00    -0.248 NA
ATOM     49  C   UNL A   1      37.312  31.873  31.931  1.00  0.00     0.031 C 
ATOM     50  C   UNL A   1      41.520  30.072  35.916  1.00  0.00     0.029 A 
ATOM     51  C   UNL A   1      40.784  30.236  34.754  1.00  0.00     0.049 A 
ATOM     52  H   UNL A   1      41.071  29.348  32.861  1.00  0.00     0.167 HD
ATOM     53  C   UNL A   1      38.960  31.171  33.364  1.00  0.00     0.074 A 
ATOM     54  C   UNL A   1      37.785  31.996  33.162  1.00  0.00     0.031 C 
ATOM     55  C   UNL A   1      39.618  31.054  34.542  1.00  0.00     0.031 A 
BRANCH  42  56
ATOM     56  C   UNL A   1      44.505  27.272  34.337  1.00  0.00    -0.014 A 
ATOM     57  C   UNL A   1      45.717  27.944  34.562  1.00  0.00     0.009 A 
ATOM     58  C   UNL A   1      44.350  25.973  34.851  1.00  0.00     0.009 A 
ATOM     59  C   UNL A   1      46.760  27.315  35.249  1.00  0.00     0.001 A 
ATOM     60  C   UNL A   1      45.380  25.359  35.565  1.00  0.00     0.001 A 
ATOM     61  C   UNL A   1      46.589  26.026  35.753  1.00  0.00     0.000 A 
ENDBRANCH  42  56
BRANCH  43  62
ATOM     62  C   UNL A   1      36.979  31.230  29.101  1.00  0.00    -0.014 A 
ATOM     63  C   UNL A   1      36.989  32.574  28.699  1.00  0.00     0.009 A 
ATOM     64  C   UNL A   1      35.873  30.432  28.764  1.00  0.00     0.009 A 
ATOM     65  C   UNL A   1      35.907  33.110  27.996  1.00  0.00     0.001 A 
ATOM     66  C   UNL A   1      34.812  30.959  28.026  1.00  0.00     0.001 A 
ATOM     67  C   UNL A   1      34.825  32.301  27.653  1.00  0.00     0.000 A 
ENDBRANCH  43  62
BRANCH  55  68
ATOM     68  C   UNL A   1      39.116  31.889  35.687  1.00  0.00    -0.014 A 
ATOM     69  C   UNL A   1      38.181  31.392  36.608  1.00  0.00     0.009 A 
ATOM     70  C   UNL A   1      39.597  33.198  35.845  1.00  0.00     0.009 A 
ATOM     71  C   UNL A   1      37.703  32.207  37.636  1.00  0.00     0.001 A 
ATOM     72  C   UNL A   1      39.145  33.998  36.894  1.00  0.00     0.001 A 
ATOM     73  C   UNL A   1      38.188  33.506  37.781  1.00  0.00     0.000 A 
ENDBRANCH  55  68
ENDBRANCH  29  30
ENDBRANCH  22  24
ENDBRANCH  21  22
ENDBRANCH  20  21
ENDBRANCH   1  20
TORSDOF 15
ENDMDL
