MODEL 1
REMARK VINA RESULT:     -13.0      0.000      0.000
REMARK SMILES Cc1ccccc1[C@@H]1[NH2+][C@H](C(=O)OCCOC(=O)c2ccc(-c3c4nc(c(-c5ccccc5)c5ccc([nH]5)c(-c5ccccc5)c5nc(c(-c6ccccc6)c6ccc3[nH]6)C=C5)C=C4)cc2)CC2=c3ccccc3=N[C@H]21
REMARK SMILES IDX 15 1 14 2 13 3 11 4 12 5 10 6 8 7 9 8 76 9 68 12 75 13 67 14
REMARK SMILES IDX 69 15 74 16 70 17 73 18 71 19 72 20 7 21 1 22 2 23 3 24 4 25
REMARK SMILES IDX 6 26 5 27 16 28 17 29 18 30 19 31 20 32 66 33 21 34 65 35
REMARK SMILES IDX 22 36 23 37 24 38 59 39 25 40 64 41 58 42 60 43 26 44 63 45
REMARK SMILES IDX 57 46 56 47 27 49 49 50 34 51 48 52 35 53 38 54 47 55 61 56
REMARK SMILES IDX 36 57 37 58 46 60 62 61 39 62 28 63 29 64 33 65 30 66 32 67
REMARK SMILES IDX 31 68 50 69 51 70 55 71 52 72 54 73 53 74 40 75 41 76 45 77
REMARK SMILES IDX 42 78 44 79 43 80
REMARK H PARENT 9 10 9 11 60 48 38 59
REMARK Flexibility Score: inf
ROOT
ATOM      1  C   UNL A   1      31.874  32.279  27.255  1.00  0.00     0.275 C 
ENDROOT
BRANCH   1   2
ATOM      2  C   UNL A   1      32.880  31.174  26.939  1.00  0.00     0.274 C 
BRANCH   2   3
ATOM      3  O   UNL A   1      32.382  29.891  27.322  1.00  0.00    -0.458 OA
BRANCH   3   4
ATOM      4  C   UNL A   1      33.153  28.866  26.887  1.00  0.00     0.365 C 
ATOM      5  O   UNL A   1      34.264  28.593  27.340  1.00  0.00    -0.245 OA
BRANCH   4   6
ATOM      6  C   UNL A   1      32.610  28.144  25.678  1.00  0.00     0.298 C 
ATOM      7  C   UNL A   1      30.984  27.844  23.866  1.00  0.00     0.243 C 
ATOM      8  N   UNL A   1      31.399  28.705  25.025  1.00  0.00    -0.326 N 
ATOM      9  C   UNL A   1      32.145  27.374  22.895  1.00  0.00     0.196 C 
ATOM     10  H   UNL A   1      30.638  28.744  25.705  1.00  0.00     0.347 HD
ATOM     11  H   UNL A   1      31.611  29.642  24.683  1.00  0.00     0.347 HD
ATOM     12  C   UNL A   1      33.377  27.098  23.702  1.00  0.00    -0.024 C 
ATOM     13  N   UNL A   1      31.825  26.047  22.271  1.00  0.00    -0.270 NA
ATOM     14  C   UNL A   1      33.775  28.118  24.690  1.00  0.00     0.111 C 
ATOM     15  C   UNL A   1      33.715  25.817  23.685  1.00  0.00     0.002 A 
ATOM     16  C   UNL A   1      32.721  25.248  22.767  1.00  0.00     0.066 A 
ATOM     17  C   UNL A   1      34.561  25.012  24.502  1.00  0.00     0.010 A 
ATOM     18  C   UNL A   1      32.818  23.789  22.553  1.00  0.00     0.028 A 
ATOM     19  C   UNL A   1      34.509  23.681  24.342  1.00  0.00     0.001 A 
ATOM     20  C   UNL A   1      33.666  23.079  23.320  1.00  0.00     0.002 A 
BRANCH   7  21
ATOM     21  C   UNL A   1      29.856  28.472  23.045  1.00  0.00     0.015 A 
ATOM     22  C   UNL A   1      28.023  26.876  23.900  1.00  0.00     0.045 C 
ATOM     23  C   UNL A   1      28.504  28.064  23.111  1.00  0.00    -0.042 A 
ATOM     24  C   UNL A   1      27.521  28.850  22.479  1.00  0.00     0.004 A 
ATOM     25  C   UNL A   1      27.858  29.990  21.751  1.00  0.00     0.000 A 
ATOM     26  C   UNL A   1      30.176  29.611  22.272  1.00  0.00     0.010 A 
ATOM     27  C   UNL A   1      29.189  30.360  21.631  1.00  0.00     0.001 A 
ENDBRANCH   7  21
ENDBRANCH   4   6
ENDBRANCH   3   4
ENDBRANCH   2   3
ENDBRANCH   1   2
BRANCH   1  28
ATOM     28  O   UNL A   1      32.386  33.588  27.642  1.00  0.00    -0.458 OA
BRANCH  28  29
ATOM     29  C   UNL A   1      33.155  33.961  28.703  1.00  0.00     0.338 C 
ATOM     30  O   UNL A   1      32.789  34.773  29.520  1.00  0.00    -0.246 OA
BRANCH  29  31
ATOM     31  C   UNL A   1      34.478  33.322  28.851  1.00  0.00     0.060 A 
ATOM     32  C   UNL A   1      35.537  33.706  28.007  1.00  0.00     0.016 A 
ATOM     33  C   UNL A   1      34.671  32.378  29.849  1.00  0.00     0.016 A 
ATOM     34  C   UNL A   1      36.830  33.234  28.248  1.00  0.00     0.010 A 
ATOM     35  C   UNL A   1      35.957  31.991  30.149  1.00  0.00     0.010 A 
ATOM     36  C   UNL A   1      37.038  32.398  29.345  1.00  0.00    -0.014 A 
BRANCH  36  37
ATOM     37  C   UNL A   1      38.260  31.639  29.594  1.00  0.00     0.031 A 
ATOM     38  C   UNL A   1      38.638  30.371  28.940  1.00  0.00     0.074 A 
ATOM     39  C   UNL A   1      39.144  32.314  30.360  1.00  0.00     0.049 A 
ATOM     40  N   UNL A   1      39.581  29.609  29.388  1.00  0.00    -0.248 NA
ATOM     41  C   UNL A   1      38.002  29.829  27.747  1.00  0.00     0.031 C 
ATOM     42  C   UNL A   1      40.573  32.117  30.518  1.00  0.00     0.029 A 
ATOM     43  N   UNL A   1      38.833  33.301  31.302  1.00  0.00    -0.354 N 
ATOM     44  C   UNL A   1      39.897  28.705  28.398  1.00  0.00     0.074 A 
ATOM     45  C   UNL A   1      38.812  28.801  27.450  1.00  0.00     0.031 C 
ATOM     46  C   UNL A   1      40.958  32.711  31.662  1.00  0.00     0.029 A 
ATOM     47  C   UNL A   1      39.745  33.148  32.342  1.00  0.00     0.049 A 
ATOM     48  H   UNL A   1      38.113  33.969  31.241  1.00  0.00     0.167 HD
ATOM     49  C   UNL A   1      41.120  28.101  28.419  1.00  0.00     0.031 A 
ATOM     50  C   UNL A   1      39.352  32.784  33.598  1.00  0.00     0.031 A 
ATOM     51  C   UNL A   1      41.885  28.499  29.599  1.00  0.00     0.049 A 
ATOM     52  C   UNL A   1      40.037  31.509  34.024  1.00  0.00     0.074 A 
ATOM     53  C   UNL A   1      42.907  29.415  29.784  1.00  0.00     0.029 A 
ATOM     54  N   UNL A   1      41.426  28.148  30.860  1.00  0.00    -0.354 N 
ATOM     55  N   UNL A   1      40.455  30.597  33.190  1.00  0.00    -0.248 NA
ATOM     56  C   UNL A   1      40.320  31.174  35.413  1.00  0.00     0.031 C 
ATOM     57  C   UNL A   1      43.024  29.658  31.176  1.00  0.00     0.029 A 
ATOM     58  C   UNL A   1      42.093  28.868  31.829  1.00  0.00     0.049 A 
ATOM     59  H   UNL A   1      40.726  27.480  31.039  1.00  0.00     0.167 HD
ATOM     60  C   UNL A   1      41.148  29.638  33.880  1.00  0.00     0.074 A 
ATOM     61  C   UNL A   1      40.996  30.020  35.273  1.00  0.00     0.031 C 
ATOM     62  C   UNL A   1      41.822  28.636  33.241  1.00  0.00     0.031 A 
BRANCH  49  63
ATOM     63  C   UNL A   1      41.766  27.360  27.267  1.00  0.00    -0.014 A 
ATOM     64  C   UNL A   1      41.337  26.048  26.966  1.00  0.00     0.009 A 
ATOM     65  C   UNL A   1      42.799  27.862  26.462  1.00  0.00     0.009 A 
ATOM     66  C   UNL A   1      41.944  25.262  25.977  1.00  0.00     0.001 A 
ATOM     67  C   UNL A   1      43.423  27.075  25.477  1.00  0.00     0.001 A 
ATOM     68  C   UNL A   1      43.002  25.772  25.243  1.00  0.00     0.000 A 
ENDBRANCH  49  63
BRANCH  50  69
ATOM     69  C   UNL A   1      37.945  33.156  33.936  1.00  0.00    -0.014 A 
ATOM     70  C   UNL A   1      37.612  34.527  33.978  1.00  0.00     0.009 A 
ATOM     71  C   UNL A   1      36.901  32.223  33.820  1.00  0.00     0.009 A 
ATOM     72  C   UNL A   1      36.290  34.954  33.805  1.00  0.00     0.001 A 
ATOM     73  C   UNL A   1      35.577  32.657  33.660  1.00  0.00     0.001 A 
ATOM     74  C   UNL A   1      35.276  34.019  33.622  1.00  0.00     0.000 A 
ENDBRANCH  50  69
BRANCH  62  75
ATOM     75  C   UNL A   1      42.394  27.383  33.860  1.00  0.00    -0.014 A 
ATOM     76  C   UNL A   1      41.717  26.559  34.763  1.00  0.00     0.009 A 
ATOM     77  C   UNL A   1      43.655  26.917  33.410  1.00  0.00     0.009 A 
ATOM     78  C   UNL A   1      42.279  25.358  35.219  1.00  0.00     0.001 A 
ATOM     79  C   UNL A   1      44.197  25.700  33.822  1.00  0.00     0.001 A 
ATOM     80  C   UNL A   1      43.510  24.923  34.740  1.00  0.00     0.000 A 
ENDBRANCH  62  75
ENDBRANCH  36  37
ENDBRANCH  29  31
ENDBRANCH  28  29
ENDBRANCH   1  28
TORSDOF 12
ENDMDL
MODEL 2
REMARK VINA RESULT:     -12.4      4.003      9.714
REMARK SMILES Cc1ccccc1[C@@H]1[NH2+][C@H](C(=O)OCCOC(=O)c2ccc(-c3c4nc(c(-c5ccccc5)c5ccc([nH]5)c(-c5ccccc5)c5nc(c(-c6ccccc6)c6ccc3[nH]6)C=C5)C=C4)cc2)CC2=c3ccccc3=N[C@H]21
REMARK SMILES IDX 15 1 14 2 13 3 11 4 12 5 10 6 8 7 9 8 76 9 68 12 75 13 67 14
REMARK SMILES IDX 69 15 74 16 70 17 73 18 71 19 72 20 7 21 1 22 2 23 3 24 4 25
REMARK SMILES IDX 6 26 5 27 16 28 17 29 18 30 19 31 20 32 66 33 21 34 65 35
REMARK SMILES IDX 22 36 23 37 24 38 59 39 25 40 64 41 58 42 60 43 26 44 63 45
REMARK SMILES IDX 57 46 56 47 27 49 49 50 34 51 48 52 35 53 38 54 47 55 61 56
REMARK SMILES IDX 36 57 37 58 46 60 62 61 39 62 28 63 29 64 33 65 30 66 32 67
REMARK SMILES IDX 31 68 50 69 51 70 55 71 52 72 54 73 53 74 40 75 41 76 45 77
REMARK SMILES IDX 42 78 44 79 43 80
REMARK H PARENT 9 10 9 11 60 48 38 59
REMARK Flexibility Score: inf
ROOT
ATOM      1  C   UNL A   1      38.573  20.024  25.180  1.00  0.00     0.275 C 
ENDROOT
BRANCH   1   2
ATOM      2  C   UNL A   1      38.139  21.376  25.741  1.00  0.00     0.274 C 
BRANCH   2   3
ATOM      3  O   UNL A   1      37.608  22.218  24.718  1.00  0.00    -0.458 OA
BRANCH   3   4
ATOM      4  C   UNL A   1      36.862  23.242  25.200  1.00  0.00     0.365 C 
ATOM      5  O   UNL A   1      37.326  24.234  25.761  1.00  0.00    -0.245 OA
BRANCH   4   6
ATOM      6  C   UNL A   1      35.371  23.016  25.133  1.00  0.00     0.298 C 
ATOM      7  C   UNL A   1      33.393  21.644  24.662  1.00  0.00     0.243 C 
ATOM      8  N   UNL A   1      34.895  21.676  24.702  1.00  0.00    -0.326 N 
ATOM      9  C   UNL A   1      32.648  22.282  25.907  1.00  0.00     0.196 C 
ATOM     10  H   UNL A   1      35.261  21.473  23.771  1.00  0.00     0.347 HD
ATOM     11  H   UNL A   1      35.224  20.978  25.368  1.00  0.00     0.347 HD
ATOM     12  C   UNL A   1      33.416  23.482  26.376  1.00  0.00    -0.024 C 
ATOM     13  N   UNL A   1      31.316  22.846  25.510  1.00  0.00    -0.270 NA
ATOM     14  C   UNL A   1      34.872  23.323  26.544  1.00  0.00     0.111 C 
ATOM     15  C   UNL A   1      32.741  24.609  26.206  1.00  0.00     0.002 A 
ATOM     16  C   UNL A   1      31.456  24.125  25.689  1.00  0.00     0.066 A 
ATOM     17  C   UNL A   1      33.115  25.985  26.181  1.00  0.00     0.010 A 
ATOM     18  C   UNL A   1      30.467  25.175  25.367  1.00  0.00     0.028 A 
ATOM     19  C   UNL A   1      32.206  26.876  25.758  1.00  0.00     0.001 A 
ATOM     20  C   UNL A   1      30.857  26.462  25.401  1.00  0.00     0.002 A 
BRANCH   7  21
ATOM     21  C   UNL A   1      32.845  20.239  24.406  1.00  0.00     0.015 A 
ATOM     22  C   UNL A   1      32.059  20.726  22.002  1.00  0.00     0.045 C 
ATOM     23  C   UNL A   1      32.294  19.815  23.175  1.00  0.00    -0.042 A 
ATOM     24  C   UNL A   1      32.022  18.446  22.984  1.00  0.00     0.004 A 
ATOM     25  C   UNL A   1      32.237  17.512  23.996  1.00  0.00     0.000 A 
ATOM     26  C   UNL A   1      33.021  19.279  25.429  1.00  0.00     0.010 A 
ATOM     27  C   UNL A   1      32.719  17.933  25.227  1.00  0.00     0.001 A 
ENDBRANCH   7  21
ENDBRANCH   4   6
ENDBRANCH   3   4
ENDBRANCH   2   3
ENDBRANCH   1   2
BRANCH   1  28
ATOM     28  O   UNL A   1      39.779  19.408  25.718  1.00  0.00    -0.458 OA
BRANCH  28  29
ATOM     29  C   UNL A   1      41.041  19.903  25.858  1.00  0.00     0.338 C 
ATOM     30  O   UNL A   1      42.016  19.328  25.436  1.00  0.00    -0.246 OA
BRANCH  29  31
ATOM     31  C   UNL A   1      41.198  21.203  26.539  1.00  0.00     0.060 A 
ATOM     32  C   UNL A   1      41.072  21.276  27.939  1.00  0.00     0.016 A 
ATOM     33  C   UNL A   1      41.506  22.330  25.793  1.00  0.00     0.016 A 
ATOM     34  C   UNL A   1      41.385  22.464  28.608  1.00  0.00     0.010 A 
ATOM     35  C   UNL A   1      41.909  23.468  26.455  1.00  0.00     0.010 A 
ATOM     36  C   UNL A   1      41.835  23.550  27.858  1.00  0.00    -0.014 A 
BRANCH  36  37
ATOM     37  C   UNL A   1      41.973  24.911  28.364  1.00  0.00     0.031 A 
ATOM     38  C   UNL A   1      40.871  25.869  28.581  1.00  0.00     0.074 A 
ATOM     39  C   UNL A   1      43.218  25.174  28.820  1.00  0.00     0.049 A 
ATOM     40  N   UNL A   1      41.070  27.133  28.765  1.00  0.00    -0.248 NA
ATOM     41  C   UNL A   1      39.457  25.518  28.601  1.00  0.00     0.031 C 
ATOM     42  C   UNL A   1      43.674  26.211  29.726  1.00  0.00     0.029 A 
ATOM     43  N   UNL A   1      44.398  24.557  28.391  1.00  0.00    -0.354 N 
ATOM     44  C   UNL A   1      39.902  27.676  29.253  1.00  0.00     0.074 A 
ATOM     45  C   UNL A   1      38.898  26.665  29.019  1.00  0.00     0.031 C 
ATOM     46  C   UNL A   1      45.000  26.359  29.566  1.00  0.00     0.029 A 
ATOM     47  C   UNL A   1      45.385  25.537  28.425  1.00  0.00     0.049 A 
ATOM     48  H   UNL A   1      44.508  23.617  28.120  1.00  0.00     0.167 HD
ATOM     49  C   UNL A   1      39.956  28.851  29.944  1.00  0.00     0.031 A 
ATOM     50  C   UNL A   1      46.004  25.976  27.290  1.00  0.00     0.031 A 
ATOM     51  C   UNL A   1      41.319  29.381  29.979  1.00  0.00     0.049 A 
ATOM     52  C   UNL A   1      45.812  27.463  27.117  1.00  0.00     0.074 A 
ATOM     53  C   UNL A   1      42.305  29.359  30.951  1.00  0.00     0.029 A 
ATOM     54  N   UNL A   1      41.929  29.773  28.796  1.00  0.00    -0.354 N 
ATOM     55  N   UNL A   1      44.790  28.121  27.589  1.00  0.00    -0.248 NA
ATOM     56  C   UNL A   1      46.761  28.320  26.420  1.00  0.00     0.031 C 
ATOM     57  C   UNL A   1      43.535  29.690  30.329  1.00  0.00     0.029 A 
ATOM     58  C   UNL A   1      43.284  29.938  28.989  1.00  0.00     0.049 A 
ATOM     59  H   UNL A   1      41.461  29.914  27.942  1.00  0.00     0.167 HD
ATOM     60  C   UNL A   1      44.981  29.461  27.381  1.00  0.00     0.074 A 
ATOM     61  C   UNL A   1      46.207  29.531  26.605  1.00  0.00     0.031 C 
ATOM     62  C   UNL A   1      44.135  30.399  27.902  1.00  0.00     0.031 A 
BRANCH  49  63
ATOM     63  C   UNL A   1      38.863  29.416  30.827  1.00  0.00    -0.014 A 
ATOM     64  C   UNL A   1      37.772  30.085  30.228  1.00  0.00     0.009 A 
ATOM     65  C   UNL A   1      38.844  29.355  32.228  1.00  0.00     0.009 A 
ATOM     66  C   UNL A   1      36.768  30.713  30.976  1.00  0.00     0.001 A 
ATOM     67  C   UNL A   1      37.848  29.995  32.986  1.00  0.00     0.001 A 
ATOM     68  C   UNL A   1      36.816  30.683  32.360  1.00  0.00     0.000 A 
ENDBRANCH  49  63
BRANCH  50  69
ATOM     69  C   UNL A   1      46.031  24.980  26.177  1.00  0.00    -0.014 A 
ATOM     70  C   UNL A   1      46.703  23.758  26.395  1.00  0.00     0.009 A 
ATOM     71  C   UNL A   1      45.108  25.050  25.120  1.00  0.00     0.009 A 
ATOM     72  C   UNL A   1      46.388  22.617  25.647  1.00  0.00     0.001 A 
ATOM     73  C   UNL A   1      44.806  23.906  24.365  1.00  0.00     0.001 A 
ATOM     74  C   UNL A   1      45.421  22.686  24.648  1.00  0.00     0.000 A 
ENDBRANCH  50  69
BRANCH  62  75
ATOM     75  C   UNL A   1      44.066  31.865  27.543  1.00  0.00    -0.014 A 
ATOM     76  C   UNL A   1      44.181  32.916  28.457  1.00  0.00     0.009 A 
ATOM     77  C   UNL A   1      44.013  32.228  26.173  1.00  0.00     0.009 A 
ATOM     78  C   UNL A   1      44.205  34.252  28.033  1.00  0.00     0.001 A 
ATOM     79  C   UNL A   1      44.086  33.553  25.744  1.00  0.00     0.001 A 
ATOM     80  C   UNL A   1      44.171  34.569  26.680  1.00  0.00     0.000 A 
ENDBRANCH  62  75
ENDBRANCH  36  37
ENDBRANCH  29  31
ENDBRANCH  28  29
ENDBRANCH   1  28
TORSDOF 12
ENDMDL
MODEL 3
REMARK VINA RESULT:     -12.3      3.056      5.346
REMARK SMILES Cc1ccccc1[C@@H]1[NH2+][C@H](C(=O)OCCOC(=O)c2ccc(-c3c4nc(c(-c5ccccc5)c5ccc([nH]5)c(-c5ccccc5)c5nc(c(-c6ccccc6)c6ccc3[nH]6)C=C5)C=C4)cc2)CC2=c3ccccc3=N[C@H]21
REMARK SMILES IDX 15 1 14 2 13 3 11 4 12 5 10 6 8 7 9 8 76 9 68 12 75 13 67 14
REMARK SMILES IDX 69 15 74 16 70 17 73 18 71 19 72 20 7 21 1 22 2 23 3 24 4 25
REMARK SMILES IDX 6 26 5 27 16 28 17 29 18 30 19 31 20 32 66 33 21 34 65 35
REMARK SMILES IDX 22 36 23 37 24 38 59 39 25 40 64 41 58 42 60 43 26 44 63 45
REMARK SMILES IDX 57 46 56 47 27 49 49 50 34 51 48 52 35 53 38 54 47 55 61 56
REMARK SMILES IDX 36 57 37 58 46 60 62 61 39 62 28 63 29 64 33 65 30 66 32 67
REMARK SMILES IDX 31 68 50 69 51 70 55 71 52 72 54 73 53 74 40 75 41 76 45 77
REMARK SMILES IDX 42 78 44 79 43 80
REMARK H PARENT 9 10 9 11 60 48 38 59
REMARK Flexibility Score: inf
ROOT
ATOM      1  C   UNL A   1      34.133  28.858  26.206  1.00  0.00     0.275 C 
ENDROOT
BRANCH   1   2
ATOM      2  C   UNL A   1      33.233  27.623  26.220  1.00  0.00     0.274 C 
BRANCH   2   3
ATOM      3  O   UNL A   1      33.992  26.425  26.054  1.00  0.00    -0.458 OA
BRANCH   3   4
ATOM      4  C   UNL A   1      33.243  25.300  26.150  1.00  0.00     0.365 C 
ATOM      5  O   UNL A   1      32.092  25.268  26.582  1.00  0.00    -0.245 OA
BRANCH   4   6
ATOM      6  C   UNL A   1      33.982  24.026  25.819  1.00  0.00     0.298 C 
ATOM      7  C   UNL A   1      34.071  21.668  25.149  1.00  0.00     0.243 C 
ATOM      8  N   UNL A   1      33.177  22.848  25.406  1.00  0.00    -0.326 N 
ATOM      9  C   UNL A   1      35.377  21.954  24.297  1.00  0.00     0.196 C 
ATOM     10  H   UNL A   1      32.517  22.615  26.148  1.00  0.00     0.347 HD
ATOM     11  H   UNL A   1      32.673  23.076  24.549  1.00  0.00     0.347 HD
ATOM     12  C   UNL A   1      35.912  23.307  24.659  1.00  0.00    -0.024 C 
ATOM     13  N   UNL A   1      36.487  21.020  24.677  1.00  0.00    -0.270 NA
ATOM     14  C   UNL A   1      34.948  24.421  24.702  1.00  0.00     0.111 C 
ATOM     15  C   UNL A   1      37.092  23.238  25.257  1.00  0.00     0.002 A 
ATOM     16  C   UNL A   1      37.379  21.800  25.209  1.00  0.00     0.066 A 
ATOM     17  C   UNL A   1      37.847  24.149  26.053  1.00  0.00     0.010 A 
ATOM     18  C   UNL A   1      38.651  21.385  25.837  1.00  0.00     0.028 A 
ATOM     19  C   UNL A   1      38.923  23.678  26.699  1.00  0.00     0.001 A 
ATOM     20  C   UNL A   1      39.350  22.295  26.540  1.00  0.00     0.002 A 
BRANCH   7  21
ATOM     21  C   UNL A   1      33.317  20.483  24.543  1.00  0.00     0.015 A 
ATOM     22  C   UNL A   1      32.370  21.801  22.543  1.00  0.00     0.045 C 
ATOM     23  C   UNL A   1      32.596  20.538  23.329  1.00  0.00    -0.042 A 
ATOM     24  C   UNL A   1      32.125  19.340  22.758  1.00  0.00     0.004 A 
ATOM     25  C   UNL A   1      32.312  18.111  23.389  1.00  0.00     0.000 A 
ATOM     26  C   UNL A   1      33.463  19.230  25.181  1.00  0.00     0.010 A 
ATOM     27  C   UNL A   1      32.965  18.058  24.612  1.00  0.00     0.001 A 
ENDBRANCH   7  21
ENDBRANCH   4   6
ENDBRANCH   3   4
ENDBRANCH   2   3
ENDBRANCH   1   2
BRANCH   1  28
ATOM     28  O   UNL A   1      34.609  29.379  27.481  1.00  0.00    -0.458 OA
BRANCH  28  29
ATOM     29  C   UNL A   1      35.614  30.256  27.761  1.00  0.00     0.338 C 
ATOM     30  O   UNL A   1      35.438  31.450  27.822  1.00  0.00    -0.246 OA
BRANCH  29  31
ATOM     31  C   UNL A   1      36.959  29.702  28.012  1.00  0.00     0.060 A 
ATOM     32  C   UNL A   1      37.982  29.899  27.065  1.00  0.00     0.016 A 
ATOM     33  C   UNL A   1      37.208  29.028  29.197  1.00  0.00     0.016 A 
ATOM     34  C   UNL A   1      39.296  29.528  27.368  1.00  0.00     0.010 A 
ATOM     35  C   UNL A   1      38.513  28.753  29.537  1.00  0.00     0.010 A 
ATOM     36  C   UNL A   1      39.559  28.983  28.624  1.00  0.00    -0.014 A 
BRANCH  36  37
ATOM     37  C   UNL A   1      40.809  28.334  29.005  1.00  0.00     0.031 A 
ATOM     38  C   UNL A   1      41.366  27.108  28.400  1.00  0.00     0.074 A 
ATOM     39  C   UNL A   1      41.544  29.081  29.858  1.00  0.00     0.049 A 
ATOM     40  N   UNL A   1      42.320  26.430  28.949  1.00  0.00    -0.248 NA
ATOM     41  C   UNL A   1      40.912  26.519  27.148  1.00  0.00     0.031 C 
ATOM     42  C   UNL A   1      42.960  29.010  30.168  1.00  0.00     0.029 A 
ATOM     43  N   UNL A   1      41.048  30.030  30.758  1.00  0.00    -0.354 N 
ATOM     44  C   UNL A   1      42.819  25.563  28.002  1.00  0.00     0.074 A 
ATOM     45  C   UNL A   1      41.837  25.568  26.943  1.00  0.00     0.031 C 
ATOM     46  C   UNL A   1      43.167  29.629  31.344  1.00  0.00     0.029 A 
ATOM     47  C   UNL A   1      41.854  29.954  31.890  1.00  0.00     0.049 A 
ATOM     48  H   UNL A   1      40.282  30.632  30.618  1.00  0.00     0.167 HD
ATOM     49  C   UNL A   1      44.082  25.070  28.155  1.00  0.00     0.031 A 
ATOM     50  C   UNL A   1      41.364  29.549  33.098  1.00  0.00     0.031 A 
ATOM     51  C   UNL A   1      44.679  25.528  29.409  1.00  0.00     0.049 A 
ATOM     52  C   UNL A   1      42.109  28.337  33.600  1.00  0.00     0.074 A 
ATOM     53  C   UNL A   1      45.590  26.530  29.698  1.00  0.00     0.029 A 
ATOM     54  N   UNL A   1      44.121  25.131  30.615  1.00  0.00    -0.354 N 
ATOM     55  N   UNL A   1      42.693  27.471  32.819  1.00  0.00    -0.248 NA
ATOM     56  C   UNL A   1      42.272  28.022  35.012  1.00  0.00     0.031 C 
ATOM     57  C   UNL A   1      45.536  26.775  31.093  1.00  0.00     0.029 A 
ATOM     58  C   UNL A   1      44.615  25.901  31.647  1.00  0.00     0.049 A 
ATOM     59  H   UNL A   1      43.467  24.402  30.720  1.00  0.00     0.167 HD
ATOM     60  C   UNL A   1      43.392  26.574  33.582  1.00  0.00     0.074 A 
ATOM     61  C   UNL A   1      43.059  26.933  34.949  1.00  0.00     0.031 C 
ATOM     62  C   UNL A   1      44.216  25.639  33.022  1.00  0.00     0.031 A 
BRANCH  49  63
ATOM     63  C   UNL A   1      44.910  24.396  27.082  1.00  0.00    -0.014 A 
ATOM     64  C   UNL A   1      45.661  25.194  26.190  1.00  0.00     0.009 A 
ATOM     65  C   UNL A   1      44.984  23.011  26.870  1.00  0.00     0.009 A 
ATOM     66  C   UNL A   1      46.380  24.653  25.115  1.00  0.00     0.001 A 
ATOM     67  C   UNL A   1      45.692  22.462  25.785  1.00  0.00     0.001 A 
ATOM     68  C   UNL A   1      46.381  23.285  24.902  1.00  0.00     0.000 A 
ENDBRANCH  49  63
BRANCH  50  69
ATOM     69  C   UNL A   1      39.901  29.793  33.283  1.00  0.00    -0.014 A 
ATOM     70  C   UNL A   1      39.433  31.122  33.203  1.00  0.00     0.009 A 
ATOM     71  C   UNL A   1      38.969  28.752  33.136  1.00  0.00     0.009 A 
ATOM     72  C   UNL A   1      38.099  31.400  32.884  1.00  0.00     0.001 A 
ATOM     73  C   UNL A   1      37.630  29.037  32.829  1.00  0.00     0.001 A 
ATOM     74  C   UNL A   1      37.203  30.356  32.673  1.00  0.00     0.000 A 
ENDBRANCH  50  69
BRANCH  62  75
ATOM     75  C   UNL A   1      44.828  24.438  33.703  1.00  0.00    -0.014 A 
ATOM     76  C   UNL A   1      44.151  23.248  33.981  1.00  0.00     0.009 A 
ATOM     77  C   UNL A   1      46.220  24.445  33.973  1.00  0.00     0.009 A 
ATOM     78  C   UNL A   1      44.815  22.140  34.528  1.00  0.00     0.001 A 
ATOM     79  C   UNL A   1      46.894  23.330  34.470  1.00  0.00     0.001 A 
ATOM     80  C   UNL A   1      46.185  22.177  34.760  1.00  0.00     0.000 A 
ENDBRANCH  62  75
ENDBRANCH  36  37
ENDBRANCH  29  31
ENDBRANCH  28  29
ENDBRANCH   1  28
TORSDOF 12
ENDMDL
