MODEL 1
REMARK VINA RESULT:     -10.2      0.000      0.000
REMARK SMILES CCCc1cc(OCC(=O)OCCOC(=O)c2ccc(-c3c4nc(c(-c5ccccc5)c5ccc([nH]5)c(-c5ccccc5)c5nc(c(-c6ccccc6)c6ccc3[nH]6)C=C5)C=C4)cc2)nc(Nc2ccc(C#N)cc2)n1
REMARK SMILES IDX 11 1 9 2 10 3 8 4 7 5 6 6 4 7 5 8 76 9 66 10 65 11 3 12 2 13
REMARK SMILES IDX 1 14 67 15 68 17 69 18 75 19 70 20 74 21 71 22 72 23 73 24
REMARK SMILES IDX 12 25 13 26 14 27 15 28 16 29 17 30 18 31 64 32 19 33 63 34
REMARK SMILES IDX 20 35 21 36 22 37 57 38 23 39 62 40 56 41 58 42 24 43 61 44
REMARK SMILES IDX 55 45 54 46 25 48 47 49 32 50 46 51 33 52 36 53 45 54 59 55
REMARK SMILES IDX 34 56 35 57 44 59 60 60 37 61 26 62 27 63 31 64 28 65 30 66
REMARK SMILES IDX 29 67 48 68 49 69 53 70 50 71 52 72 51 73 38 74 39 75 43 76
REMARK SMILES IDX 40 77 42 78 41 79
REMARK H PARENT 67 16 58 47 36 58
REMARK Flexibility Score: inf
ROOT
ATOM      1  O   UNL A   1      32.422  30.497  27.497  1.00  0.00    -0.460 OA
ENDROOT
BRANCH   1   2
ATOM      2  C   UNL A   1      32.342  29.215  27.052  1.00  0.00     0.344 C 
ATOM      3  O   UNL A   1      31.507  28.403  27.452  1.00  0.00    -0.248 OA
BRANCH   2   4
ATOM      4  C   UNL A   1      33.346  28.839  25.939  1.00  0.00     0.353 C 
BRANCH   4   5
ATOM      5  O   UNL A   1      33.181  29.129  24.569  1.00  0.00    -0.466 OA
BRANCH   5   6
ATOM      6  C   UNL A   1      32.096  28.700  23.862  1.00  0.00     0.218 A 
ATOM      7  C   UNL A   1      30.088  28.944  22.671  1.00  0.00     0.050 A 
ATOM      8  C   UNL A   1      30.891  29.353  23.714  1.00  0.00     0.092 A 
ATOM      9  N   UNL A   1      30.370  27.830  22.006  1.00  0.00    -0.218 NA
ATOM     10  C   UNL A   1      31.425  27.102  22.378  1.00  0.00     0.230 A 
ATOM     11  N   UNL A   1      32.331  27.519  23.262  1.00  0.00    -0.177 NA
BRANCH   7  12
ATOM     12  C   UNL A   1      28.843  29.629  22.182  1.00  0.00     0.056 C 
BRANCH  12  13
ATOM     13  C   UNL A   1      27.764  29.962  23.207  1.00  0.00     0.003 C 
ATOM     14  C   UNL A   1      27.555  31.427  23.553  1.00  0.00     0.004 C 
ENDBRANCH  12  13
ENDBRANCH   7  12
BRANCH  10  15
ATOM     15  N   UNL A   1      31.487  25.799  21.889  1.00  0.00    -0.324 N 
ATOM     16  H   UNL A   1      31.343  25.661  20.924  1.00  0.00     0.170 HD
BRANCH  15  17
ATOM     17  C   UNL A   1      31.740  24.673  22.682  1.00  0.00     0.041 A 
ATOM     18  C   UNL A   1      30.836  24.279  23.672  1.00  0.00     0.027 A 
ATOM     19  C   UNL A   1      32.801  23.808  22.363  1.00  0.00     0.027 A 
ATOM     20  C   UNL A   1      31.002  23.056  24.337  1.00  0.00     0.021 A 
ATOM     21  C   UNL A   1      32.977  22.594  23.025  1.00  0.00     0.021 A 
ATOM     22  C   UNL A   1      32.076  22.216  24.019  1.00  0.00     0.052 A 
BRANCH  22  23
ATOM     23  C   UNL A   1      32.253  20.970  24.698  1.00  0.00     0.099 C 
ATOM     24  N   UNL A   1      32.386  19.950  25.244  1.00  0.00    -0.192 NA
ENDBRANCH  22  23
ENDBRANCH  15  17
ENDBRANCH  10  15
ENDBRANCH   5   6
ENDBRANCH   4   5
ENDBRANCH   2   4
ENDBRANCH   1   2
BRANCH   1  25
ATOM     25  C   UNL A   1      31.778  31.508  26.672  1.00  0.00     0.274 C 
BRANCH  25  26
ATOM     26  C   UNL A   1      31.852  32.938  27.261  1.00  0.00     0.275 C 
BRANCH  26  27
ATOM     27  O   UNL A   1      33.200  33.494  27.297  1.00  0.00    -0.458 OA
BRANCH  27  28
ATOM     28  C   UNL A   1      33.359  34.264  28.386  1.00  0.00     0.338 C 
ATOM     29  O   UNL A   1      32.558  35.133  28.699  1.00  0.00    -0.246 OA
BRANCH  28  30
ATOM     30  C   UNL A   1      34.528  34.123  29.275  1.00  0.00     0.060 A 
ATOM     31  C   UNL A   1      35.763  34.326  28.646  1.00  0.00     0.016 A 
ATOM     32  C   UNL A   1      34.452  33.249  30.366  1.00  0.00     0.016 A 
ATOM     33  C   UNL A   1      36.873  33.556  28.994  1.00  0.00     0.010 A 
ATOM     34  C   UNL A   1      35.590  32.519  30.760  1.00  0.00     0.010 A 
ATOM     35  C   UNL A   1      36.804  32.645  30.062  1.00  0.00    -0.014 A 
BRANCH  35  36
ATOM     36  C   UNL A   1      38.069  32.074  30.599  1.00  0.00     0.031 A 
ATOM     37  C   UNL A   1      38.918  32.704  31.671  1.00  0.00     0.074 A 
ATOM     38  C   UNL A   1      38.453  30.911  30.042  1.00  0.00     0.049 A 
ATOM     39  N   UNL A   1      40.024  32.252  32.216  1.00  0.00    -0.248 NA
ATOM     40  C   UNL A   1      38.485  33.998  32.201  1.00  0.00     0.031 C 
ATOM     41  C   UNL A   1      37.713  30.207  28.990  1.00  0.00     0.029 A 
ATOM     42  N   UNL A   1      39.543  30.121  30.272  1.00  0.00    -0.354 N 
ATOM     43  C   UNL A   1      40.416  33.204  33.155  1.00  0.00     0.074 A 
ATOM     44  C   UNL A   1      39.430  34.264  33.097  1.00  0.00     0.031 C 
ATOM     45  C   UNL A   1      38.359  29.080  28.681  1.00  0.00     0.029 A 
ATOM     46  C   UNL A   1      39.588  29.020  29.457  1.00  0.00     0.049 A 
ATOM     47  H   UNL A   1      40.227  30.321  30.952  1.00  0.00     0.167 HD
ATOM     48  C   UNL A   1      41.504  33.200  33.968  1.00  0.00     0.031 A 
ATOM     49  C   UNL A   1      40.528  28.072  29.315  1.00  0.00     0.031 A 
ATOM     50  C   UNL A   1      42.519  32.169  33.965  1.00  0.00     0.049 A 
ATOM     51  C   UNL A   1      41.746  28.127  30.179  1.00  0.00     0.074 A 
ATOM     52  C   UNL A   1      43.646  32.060  34.765  1.00  0.00     0.029 A 
ATOM     53  N   UNL A   1      42.546  31.086  33.098  1.00  0.00    -0.354 N 
ATOM     54  N   UNL A   1      42.066  28.999  31.103  1.00  0.00    -0.248 NA
ATOM     55  C   UNL A   1      42.723  27.050  29.991  1.00  0.00     0.031 C 
ATOM     56  C   UNL A   1      44.393  30.961  34.326  1.00  0.00     0.029 A 
ATOM     57  C   UNL A   1      43.688  30.329  33.316  1.00  0.00     0.049 A 
ATOM     58  H   UNL A   1      41.856  30.883  32.426  1.00  0.00     0.167 HD
ATOM     59  C   UNL A   1      43.272  28.560  31.631  1.00  0.00     0.074 A 
ATOM     60  C   UNL A   1      43.605  27.331  30.938  1.00  0.00     0.031 C 
ATOM     61  C   UNL A   1      44.028  29.121  32.605  1.00  0.00     0.031 A 
BRANCH  48  62
ATOM     62  C   UNL A   1      41.701  34.372  34.904  1.00  0.00    -0.014 A 
ATOM     63  C   UNL A   1      42.399  35.524  34.507  1.00  0.00     0.009 A 
ATOM     64  C   UNL A   1      41.113  34.354  36.181  1.00  0.00     0.009 A 
ATOM     65  C   UNL A   1      42.534  36.612  35.378  1.00  0.00     0.001 A 
ATOM     66  C   UNL A   1      41.222  35.452  37.037  1.00  0.00     0.001 A 
ATOM     67  C   UNL A   1      41.942  36.577  36.640  1.00  0.00     0.000 A 
ENDBRANCH  48  62
BRANCH  49  68
ATOM     68  C   UNL A   1      40.333  27.008  28.301  1.00  0.00    -0.014 A 
ATOM     69  C   UNL A   1      40.892  27.131  27.022  1.00  0.00     0.009 A 
ATOM     70  C   UNL A   1      39.624  25.840  28.628  1.00  0.00     0.009 A 
ATOM     71  C   UNL A   1      40.717  26.118  26.079  1.00  0.00     0.001 A 
ATOM     72  C   UNL A   1      39.487  24.811  27.696  1.00  0.00     0.001 A 
ATOM     73  C   UNL A   1      40.022  24.957  26.419  1.00  0.00     0.000 A 
ENDBRANCH  49  68
BRANCH  61  74
ATOM     74  C   UNL A   1      45.276  28.376  33.001  1.00  0.00    -0.014 A 
ATOM     75  C   UNL A   1      46.425  28.377  32.193  1.00  0.00     0.009 A 
ATOM     76  C   UNL A   1      45.290  27.641  34.197  1.00  0.00     0.009 A 
ATOM     77  C   UNL A   1      47.536  27.606  32.545  1.00  0.00     0.001 A 
ATOM     78  C   UNL A   1      46.417  26.907  34.567  1.00  0.00     0.001 A 
ATOM     79  C   UNL A   1      47.533  26.875  33.731  1.00  0.00     0.000 A 
ENDBRANCH  61  74
ENDBRANCH  35  36
ENDBRANCH  28  30
ENDBRANCH  27  28
ENDBRANCH  26  27
ENDBRANCH  25  26
ENDBRANCH   1  25
TORSDOF 18
ENDMDL
MODEL 2
REMARK VINA RESULT:     -10.0      4.080      9.251
REMARK SMILES CCCc1cc(OCC(=O)OCCOC(=O)c2ccc(-c3c4nc(c(-c5ccccc5)c5ccc([nH]5)c(-c5ccccc5)c5nc(c(-c6ccccc6)c6ccc3[nH]6)C=C5)C=C4)cc2)nc(Nc2ccc(C#N)cc2)n1
REMARK SMILES IDX 11 1 9 2 10 3 8 4 7 5 6 6 4 7 5 8 76 9 66 10 65 11 3 12 2 13
REMARK SMILES IDX 1 14 67 15 68 17 69 18 75 19 70 20 74 21 71 22 72 23 73 24
REMARK SMILES IDX 12 25 13 26 14 27 15 28 16 29 17 30 18 31 64 32 19 33 63 34
REMARK SMILES IDX 20 35 21 36 22 37 57 38 23 39 62 40 56 41 58 42 24 43 61 44
REMARK SMILES IDX 55 45 54 46 25 48 47 49 32 50 46 51 33 52 36 53 45 54 59 55
REMARK SMILES IDX 34 56 35 57 44 59 60 60 37 61 26 62 27 63 31 64 28 65 30 66
REMARK SMILES IDX 29 67 48 68 49 69 53 70 50 71 52 72 51 73 38 74 39 75 43 76
REMARK SMILES IDX 40 77 42 78 41 79
REMARK H PARENT 67 16 58 47 36 58
REMARK Flexibility Score: inf
ROOT
ATOM      1  O   UNL A   1      37.822  21.328  24.720  1.00  0.00    -0.460 OA
ENDROOT
BRANCH   1   2
ATOM      2  C   UNL A   1      36.948  22.308  24.369  1.00  0.00     0.344 C 
ATOM      3  O   UNL A   1      36.665  22.587  23.204  1.00  0.00    -0.248 OA
BRANCH   2   4
ATOM      4  C   UNL A   1      36.263  23.033  25.549  1.00  0.00     0.353 C 
BRANCH   4   5
ATOM      5  O   UNL A   1      35.249  22.482  26.359  1.00  0.00    -0.466 OA
BRANCH   5   6
ATOM      6  C   UNL A   1      34.152  21.867  25.830  1.00  0.00     0.218 A 
ATOM      7  C   UNL A   1      32.812  20.037  25.222  1.00  0.00     0.050 A 
ATOM      8  C   UNL A   1      34.074  20.576  25.352  1.00  0.00     0.092 A 
ATOM      9  N   UNL A   1      31.739  20.812  25.332  1.00  0.00    -0.218 NA
ATOM     10  C   UNL A   1      31.902  22.120  25.543  1.00  0.00     0.230 A 
ATOM     11  N   UNL A   1      33.077  22.675  25.840  1.00  0.00    -0.177 NA
BRANCH   7  12
ATOM     12  C   UNL A   1      32.481  18.601  24.927  1.00  0.00     0.056 C 
BRANCH  12  13
ATOM     13  C   UNL A   1      33.286  17.892  23.844  1.00  0.00     0.003 C 
ATOM     14  C   UNL A   1      32.718  17.890  22.436  1.00  0.00     0.004 C 
ENDBRANCH  12  13
ENDBRANCH   7  12
BRANCH  10  15
ATOM     15  N   UNL A   1      30.792  22.930  25.317  1.00  0.00    -0.324 N 
ATOM     16  H   UNL A   1      29.899  22.521  25.391  1.00  0.00     0.170 HD
BRANCH  15  17
ATOM     17  C   UNL A   1      30.866  24.291  24.991  1.00  0.00     0.041 A 
ATOM     18  C   UNL A   1      30.837  24.709  23.658  1.00  0.00     0.027 A 
ATOM     19  C   UNL A   1      30.766  25.265  26.000  1.00  0.00     0.027 A 
ATOM     20  C   UNL A   1      30.728  26.070  23.345  1.00  0.00     0.021 A 
ATOM     21  C   UNL A   1      30.665  26.621  25.696  1.00  0.00     0.021 A 
ATOM     22  C   UNL A   1      30.650  27.028  24.363  1.00  0.00     0.052 A 
BRANCH  22  23
ATOM     23  C   UNL A   1      30.544  28.419  24.049  1.00  0.00     0.099 C 
ATOM     24  N   UNL A   1      30.446  29.553  23.802  1.00  0.00    -0.192 NA
ENDBRANCH  22  23
ENDBRANCH  15  17
ENDBRANCH  10  15
ENDBRANCH   5   6
ENDBRANCH   4   5
ENDBRANCH   2   4
ENDBRANCH   1   2
BRANCH   1  25
ATOM     25  C   UNL A   1      38.820  21.681  25.719  1.00  0.00     0.274 C 
BRANCH  25  26
ATOM     26  C   UNL A   1      39.511  20.459  26.372  1.00  0.00     0.275 C 
BRANCH  26  27
ATOM     27  O   UNL A   1      40.352  19.695  25.457  1.00  0.00    -0.458 OA
BRANCH  27  28
ATOM     28  C   UNL A   1      41.583  19.542  25.972  1.00  0.00     0.338 C 
ATOM     29  O   UNL A   1      42.117  18.448  26.085  1.00  0.00    -0.246 OA
BRANCH  28  30
ATOM     30  C   UNL A   1      42.373  20.691  26.455  1.00  0.00     0.060 A 
ATOM     31  C   UNL A   1      42.184  20.995  27.810  1.00  0.00     0.016 A 
ATOM     32  C   UNL A   1      42.695  21.720  25.562  1.00  0.00     0.016 A 
ATOM     33  C   UNL A   1      42.162  22.321  28.245  1.00  0.00     0.010 A 
ATOM     34  C   UNL A   1      42.737  23.053  26.014  1.00  0.00     0.010 A 
ATOM     35  C   UNL A   1      42.446  23.369  27.352  1.00  0.00    -0.014 A 
BRANCH  35  36
ATOM     36  C   UNL A   1      42.715  24.726  27.903  1.00  0.00     0.031 A 
ATOM     37  C   UNL A   1      41.673  25.787  28.139  1.00  0.00     0.074 A 
ATOM     38  C   UNL A   1      44.005  24.984  28.181  1.00  0.00     0.049 A 
ATOM     39  N   UNL A   1      41.825  26.989  28.646  1.00  0.00    -0.248 NA
ATOM     40  C   UNL A   1      40.293  25.475  27.763  1.00  0.00     0.031 C 
ATOM     41  C   UNL A   1      45.105  24.033  27.990  1.00  0.00     0.029 A 
ATOM     42  N   UNL A   1      44.611  26.103  28.679  1.00  0.00    -0.354 N 
ATOM     43  C   UNL A   1      40.560  27.574  28.653  1.00  0.00     0.074 A 
ATOM     44  C   UNL A   1      39.653  26.593  28.090  1.00  0.00     0.031 C 
ATOM     45  C   UNL A   1      46.248  24.602  28.383  1.00  0.00     0.029 A 
ATOM     46  C   UNL A   1      45.971  25.973  28.785  1.00  0.00     0.049 A 
ATOM     47  H   UNL A   1      44.122  26.919  28.933  1.00  0.00     0.167 HD
ATOM     48  C   UNL A   1      40.198  28.815  29.070  1.00  0.00     0.031 A 
ATOM     49  C   UNL A   1      46.912  26.863  29.135  1.00  0.00     0.031 A 
ATOM     50  C   UNL A   1      41.124  29.810  29.564  1.00  0.00     0.049 A 
ATOM     51  C   UNL A   1      46.492  28.242  29.529  1.00  0.00     0.074 A 
ATOM     52  C   UNL A   1      40.856  31.087  30.032  1.00  0.00     0.029 A 
ATOM     53  N   UNL A   1      42.501  29.651  29.623  1.00  0.00    -0.354 N 
ATOM     54  N   UNL A   1      45.287  28.754  29.588  1.00  0.00    -0.248 NA
ATOM     55  C   UNL A   1      47.565  29.160  29.922  1.00  0.00     0.031 C 
ATOM     56  C   UNL A   1      42.073  31.725  30.295  1.00  0.00     0.029 A 
ATOM     57  C   UNL A   1      43.097  30.818  30.080  1.00  0.00     0.049 A 
ATOM     58  H   UNL A   1      42.986  28.830  29.377  1.00  0.00     0.167 HD
ATOM     59  C   UNL A   1      45.453  30.049  30.057  1.00  0.00     0.074 A 
ATOM     60  C   UNL A   1      46.873  30.229  30.288  1.00  0.00     0.031 C 
ATOM     61  C   UNL A   1      44.514  30.999  30.282  1.00  0.00     0.031 A 
BRANCH  48  62
ATOM     62  C   UNL A   1      38.741  29.207  28.965  1.00  0.00    -0.014 A 
ATOM     63  C   UNL A   1      38.182  29.655  27.757  1.00  0.00     0.009 A 
ATOM     64  C   UNL A   1      37.894  29.055  30.077  1.00  0.00     0.009 A 
ATOM     65  C   UNL A   1      36.821  29.974  27.675  1.00  0.00     0.001 A 
ATOM     66  C   UNL A   1      36.530  29.344  29.985  1.00  0.00     0.001 A 
ATOM     67  C   UNL A   1      35.996  29.815  28.788  1.00  0.00     0.000 A 
ENDBRANCH  48  62
BRANCH  49  68
ATOM     68  C   UNL A   1      48.338  26.456  29.111  1.00  0.00    -0.014 A 
ATOM     69  C   UNL A   1      48.959  25.969  30.268  1.00  0.00     0.009 A 
ATOM     70  C   UNL A   1      49.070  26.511  27.913  1.00  0.00     0.009 A 
ATOM     71  C   UNL A   1      50.296  25.573  30.234  1.00  0.00     0.001 A 
ATOM     72  C   UNL A   1      50.394  26.075  27.873  1.00  0.00     0.001 A 
ATOM     73  C   UNL A   1      51.009  25.619  29.035  1.00  0.00     0.000 A 
ENDBRANCH  49  68
BRANCH  61  74
ATOM     74  C   UNL A   1      45.002  32.309  30.845  1.00  0.00    -0.014 A 
ATOM     75  C   UNL A   1      45.097  32.529  32.229  1.00  0.00     0.009 A 
ATOM     76  C   UNL A   1      45.351  33.349  29.969  1.00  0.00     0.009 A 
ATOM     77  C   UNL A   1      45.470  33.782  32.721  1.00  0.00     0.001 A 
ATOM     78  C   UNL A   1      45.765  34.585  30.464  1.00  0.00     0.001 A 
ATOM     79  C   UNL A   1      45.807  34.807  31.839  1.00  0.00     0.000 A 
ENDBRANCH  61  74
ENDBRANCH  35  36
ENDBRANCH  28  30
ENDBRANCH  27  28
ENDBRANCH  26  27
ENDBRANCH  25  26
ENDBRANCH   1  25
TORSDOF 18
ENDMDL
MODEL 3
REMARK VINA RESULT:     -10.0      4.141      8.352
REMARK SMILES CCCc1cc(OCC(=O)OCCOC(=O)c2ccc(-c3c4nc(c(-c5ccccc5)c5ccc([nH]5)c(-c5ccccc5)c5nc(c(-c6ccccc6)c6ccc3[nH]6)C=C5)C=C4)cc2)nc(Nc2ccc(C#N)cc2)n1
REMARK SMILES IDX 11 1 9 2 10 3 8 4 7 5 6 6 4 7 5 8 76 9 66 10 65 11 3 12 2 13
REMARK SMILES IDX 1 14 67 15 68 17 69 18 75 19 70 20 74 21 71 22 72 23 73 24
REMARK SMILES IDX 12 25 13 26 14 27 15 28 16 29 17 30 18 31 64 32 19 33 63 34
REMARK SMILES IDX 20 35 21 36 22 37 57 38 23 39 62 40 56 41 58 42 24 43 61 44
REMARK SMILES IDX 55 45 54 46 25 48 47 49 32 50 46 51 33 52 36 53 45 54 59 55
REMARK SMILES IDX 34 56 35 57 44 59 60 60 37 61 26 62 27 63 31 64 28 65 30 66
REMARK SMILES IDX 29 67 48 68 49 69 53 70 50 71 52 72 51 73 38 74 39 75 43 76
REMARK SMILES IDX 40 77 42 78 41 79
REMARK H PARENT 67 16 58 47 36 58
REMARK Flexibility Score: inf
ROOT
ATOM      1  O   UNL A   1      33.897  35.506  32.337  1.00  0.00    -0.460 OA
ENDROOT
BRANCH   1   2
ATOM      2  C   UNL A   1      32.954  35.841  31.417  1.00  0.00     0.344 C 
ATOM      3  O   UNL A   1      31.801  36.163  31.706  1.00  0.00    -0.248 OA
BRANCH   2   4
ATOM      4  C   UNL A   1      33.440  35.856  29.950  1.00  0.00     0.353 C 
BRANCH   4   5
ATOM      5  O   UNL A   1      32.770  35.247  28.870  1.00  0.00    -0.466 OA
BRANCH   5   6
ATOM      6  C   UNL A   1      33.227  34.102  28.285  1.00  0.00     0.218 A 
ATOM      7  C   UNL A   1      34.692  32.291  27.987  1.00  0.00     0.050 A 
ATOM      8  C   UNL A   1      34.521  33.624  28.295  1.00  0.00     0.092 A 
ATOM      9  N   UNL A   1      33.686  31.586  27.482  1.00  0.00    -0.218 NA
ATOM     10  C   UNL A   1      32.519  32.192  27.256  1.00  0.00     0.230 A 
ATOM     11  N   UNL A   1      32.236  33.424  27.680  1.00  0.00    -0.177 NA
BRANCH   7  12
ATOM     12  C   UNL A   1      35.960  31.498  28.133  1.00  0.00     0.056 C 
BRANCH  12  13
ATOM     13  C   UNL A   1      35.838  30.010  28.444  1.00  0.00     0.003 C 
ATOM     14  C   UNL A   1      36.243  29.549  29.833  1.00  0.00     0.004 C 
ENDBRANCH  12  13
ENDBRANCH   7  12
BRANCH  10  15
ATOM     15  N   UNL A   1      31.619  31.522  26.431  1.00  0.00    -0.324 N 
ATOM     16  H   UNL A   1      30.911  32.051  25.994  1.00  0.00     0.170 HD
BRANCH  15  17
ATOM     17  C   UNL A   1      31.656  30.144  26.183  1.00  0.00     0.041 A 
ATOM     18  C   UNL A   1      31.869  29.236  27.224  1.00  0.00     0.027 A 
ATOM     19  C   UNL A   1      31.279  29.642  24.925  1.00  0.00     0.027 A 
ATOM     20  C   UNL A   1      31.726  27.860  27.004  1.00  0.00     0.021 A 
ATOM     21  C   UNL A   1      31.141  28.274  24.697  1.00  0.00     0.021 A 
ATOM     22  C   UNL A   1      31.369  27.377  25.740  1.00  0.00     0.052 A 
BRANCH  22  23
ATOM     23  C   UNL A   1      31.227  25.973  25.509  1.00  0.00     0.099 C 
ATOM     24  N   UNL A   1      31.121  24.826  25.331  1.00  0.00    -0.192 NA
ENDBRANCH  22  23
ENDBRANCH  15  17
ENDBRANCH  10  15
ENDBRANCH   5   6
ENDBRANCH   4   5
ENDBRANCH   2   4
ENDBRANCH   1   2
BRANCH   1  25
ATOM     25  C   UNL A   1      34.959  34.621  31.880  1.00  0.00     0.274 C 
BRANCH  25  26
ATOM     26  C   UNL A   1      34.809  33.160  32.367  1.00  0.00     0.275 C 
BRANCH  26  27
ATOM     27  O   UNL A   1      35.672  32.820  33.494  1.00  0.00    -0.458 OA
BRANCH  27  28
ATOM     28  C   UNL A   1      36.963  32.917  33.138  1.00  0.00     0.338 C 
ATOM     29  O   UNL A   1      37.727  33.723  33.650  1.00  0.00    -0.246 OA
BRANCH  28  30
ATOM     30  C   UNL A   1      37.547  32.063  32.086  1.00  0.00     0.060 A 
ATOM     31  C   UNL A   1      38.336  31.009  32.566  1.00  0.00     0.016 A 
ATOM     32  C   UNL A   1      37.843  32.625  30.838  1.00  0.00     0.016 A 
ATOM     33  C   UNL A   1      39.495  30.624  31.891  1.00  0.00     0.010 A 
ATOM     34  C   UNL A   1      38.977  32.191  30.124  1.00  0.00     0.010 A 
ATOM     35  C   UNL A   1      39.828  31.207  30.655  1.00  0.00    -0.014 A 
BRANCH  35  36
ATOM     36  C   UNL A   1      40.885  30.567  29.824  1.00  0.00     0.031 A 
ATOM     37  C   UNL A   1      40.785  29.204  29.194  1.00  0.00     0.074 A 
ATOM     38  C   UNL A   1      42.005  31.295  29.665  1.00  0.00     0.049 A 
ATOM     39  N   UNL A   1      41.655  28.586  28.428  1.00  0.00    -0.248 NA
ATOM     40  C   UNL A   1      39.568  28.430  29.448  1.00  0.00     0.031 C 
ATOM     41  C   UNL A   1      42.219  32.630  30.233  1.00  0.00     0.029 A 
ATOM     42  N   UNL A   1      43.162  31.027  28.990  1.00  0.00    -0.354 N 
ATOM     43  C   UNL A   1      41.088  27.354  28.106  1.00  0.00     0.074 A 
ATOM     44  C   UNL A   1      39.801  27.310  28.770  1.00  0.00     0.031 C 
ATOM     45  C   UNL A   1      43.425  33.073  29.866  1.00  0.00     0.029 A 
ATOM     46  C   UNL A   1      44.091  32.029  29.102  1.00  0.00     0.049 A 
ATOM     47  H   UNL A   1      43.314  30.201  28.477  1.00  0.00     0.167 HD
ATOM     48  C   UNL A   1      41.604  26.351  27.349  1.00  0.00     0.031 A 
ATOM     49  C   UNL A   1      45.360  32.100  28.670  1.00  0.00     0.031 A 
ATOM     50  C   UNL A   1      42.921  26.379  26.750  1.00  0.00     0.049 A 
ATOM     51  C   UNL A   1      45.924  30.956  27.892  1.00  0.00     0.074 A 
ATOM     52  C   UNL A   1      43.528  25.426  25.947  1.00  0.00     0.029 A 
ATOM     53  N   UNL A   1      43.847  27.399  26.917  1.00  0.00    -0.354 N 
ATOM     54  N   UNL A   1      45.351  29.829  27.546  1.00  0.00    -0.248 NA
ATOM     55  C   UNL A   1      47.306  31.105  27.429  1.00  0.00     0.031 C 
ATOM     56  C   UNL A   1      44.844  25.831  25.699  1.00  0.00     0.029 A 
ATOM     57  C   UNL A   1      45.031  27.080  26.267  1.00  0.00     0.049 A 
ATOM     58  H   UNL A   1      43.688  28.228  27.423  1.00  0.00     0.167 HD
ATOM     59  C   UNL A   1      46.296  29.144  26.795  1.00  0.00     0.074 A 
ATOM     60  C   UNL A   1      47.465  29.998  26.719  1.00  0.00     0.031 C 
ATOM     61  C   UNL A   1      46.200  27.922  26.217  1.00  0.00     0.031 A 
BRANCH  48  62
ATOM     62  C   UNL A   1      40.775  25.101  27.157  1.00  0.00    -0.014 A 
ATOM     63  C   UNL A   1      41.145  23.874  27.731  1.00  0.00     0.009 A 
ATOM     64  C   UNL A   1      39.561  25.169  26.451  1.00  0.00     0.009 A 
ATOM     65  C   UNL A   1      40.340  22.740  27.572  1.00  0.00     0.001 A 
ATOM     66  C   UNL A   1      38.743  24.044  26.319  1.00  0.00     0.001 A 
ATOM     67  C   UNL A   1      39.138  22.827  26.870  1.00  0.00     0.000 A 
ENDBRANCH  48  62
BRANCH  49  68
ATOM     68  C   UNL A   1      46.164  33.306  28.984  1.00  0.00    -0.014 A 
ATOM     69  C   UNL A   1      46.095  34.442  28.168  1.00  0.00     0.009 A 
ATOM     70  C   UNL A   1      46.971  33.338  30.134  1.00  0.00     0.009 A 
ATOM     71  C   UNL A   1      46.843  35.577  28.480  1.00  0.00     0.001 A 
ATOM     72  C   UNL A   1      47.684  34.489  30.465  1.00  0.00     0.001 A 
ATOM     73  C   UNL A   1      47.631  35.602  29.631  1.00  0.00     0.000 A 
ENDBRANCH  49  68
BRANCH  61  74
ATOM     74  C   UNL A   1      47.389  27.461  25.416  1.00  0.00    -0.014 A 
ATOM     75  C   UNL A   1      48.483  26.819  26.019  1.00  0.00     0.009 A 
ATOM     76  C   UNL A   1      47.422  27.698  24.032  1.00  0.00     0.009 A 
ATOM     77  C   UNL A   1      49.609  26.481  25.264  1.00  0.00     0.001 A 
ATOM     78  C   UNL A   1      48.530  27.320  23.273  1.00  0.00     0.001 A 
ATOM     79  C   UNL A   1      49.630  26.729  23.892  1.00  0.00     0.000 A 
ENDBRANCH  61  74
ENDBRANCH  35  36
ENDBRANCH  28  30
ENDBRANCH  27  28
ENDBRANCH  26  27
ENDBRANCH  25  26
ENDBRANCH   1  25
TORSDOF 18
ENDMDL
