MODEL 1
REMARK VINA RESULT:     -12.2      0.000      0.000
REMARK SMILES O=C(Nc1cccc(C(=O)OCCOC(=O)c2ccc(-c3c4nc(c(-c5ccccc5)c5ccc([nH]5)c(-c5ccccc5)c5nc(c(-c6ccccc6)c6ccc3[nH]6)C=C5)C=C4)cc2)c1)Nc1cc(Cl)c(Cl)cc1Cl
REMARK SMILES IDX 12 1 11 2 9 3 10 4 8 5 4 6 5 7 65 8 6 9 7 10 3 11 1 12 2 13
REMARK SMILES IDX 66 14 67 17 68 18 74 19 69 20 73 21 75 22 70 23 71 24 72 25
REMARK SMILES IDX 13 26 14 27 15 28 16 29 17 30 18 31 64 32 19 33 63 34 20 35
REMARK SMILES IDX 21 36 22 37 57 38 23 39 62 40 56 41 58 42 24 43 61 44 55 45
REMARK SMILES IDX 54 46 25 48 47 49 32 50 46 51 33 52 36 53 45 54 59 55 34 56
REMARK SMILES IDX 35 57 44 59 60 60 37 61 26 62 27 63 31 64 28 65 30 66 29 67
REMARK SMILES IDX 48 68 49 69 53 70 50 71 52 72 51 73 38 74 39 75 43 76 40 77
REMARK SMILES IDX 42 78 41 79
REMARK H PARENT 3 15 66 16 58 47 36 58
REMARK Flexibility Score: inf
ROOT
ATOM      1  C   UNL A   1      31.535  31.476  26.431  1.00  0.00     0.275 C 
ENDROOT
BRANCH   1   2
ATOM      2  O   UNL A   1      31.678  30.042  26.510  1.00  0.00    -0.458 OA
BRANCH   2   3
ATOM      3  C   UNL A   1      32.133  29.410  25.402  1.00  0.00     0.338 C 
ATOM      4  O   UNL A   1      33.174  29.638  24.807  1.00  0.00    -0.246 OA
BRANCH   3   5
ATOM      5  C   UNL A   1      31.221  28.300  25.029  1.00  0.00     0.062 A 
ATOM      6  C   UNL A   1      30.203  26.161  25.498  1.00  0.00     0.043 A 
ATOM      7  C   UNL A   1      29.517  26.209  24.283  1.00  0.00     0.026 A 
ATOM      8  C   UNL A   1      31.126  27.161  25.823  1.00  0.00     0.041 A 
ATOM      9  C   UNL A   1      29.601  27.349  23.491  1.00  0.00     0.003 A 
ATOM     10  C   UNL A   1      30.395  28.417  23.903  1.00  0.00     0.016 A 
BRANCH   6  11
ATOM     11  N   UNL A   1      29.880  25.126  26.386  1.00  0.00    -0.308 N 
ATOM     12  O   UNL A   1      29.958  23.065  27.274  1.00  0.00    -0.248 OA
ATOM     13  C   UNL A   1      30.448  23.880  26.499  1.00  0.00     0.323 C 
ATOM     14  N   UNL A   1      31.642  23.711  25.839  1.00  0.00    -0.306 N 
ATOM     15  H   UNL A   1      29.146  25.317  27.014  1.00  0.00     0.171 HD
ATOM     16  H   UNL A   1      32.067  24.520  25.475  1.00  0.00     0.171 HD
BRANCH  14  17
ATOM     17  C   UNL A   1      32.316  22.491  25.632  1.00  0.00     0.063 A 
ATOM     18  C   UNL A   1      31.951  21.774  24.482  1.00  0.00     0.049 A 
ATOM     19  C   UNL A   1      33.285  21.948  26.491  1.00  0.00     0.066 A 
ATOM     20  C   UNL A   1      32.618  20.596  24.134  1.00  0.00     0.061 A 
ATOM     21  C   UNL A   1      33.960  20.776  26.135  1.00  0.00     0.044 A 
ATOM     22  Cl  UNL A   1      33.572  22.536  28.094  1.00  0.00    -0.082 Cl
ATOM     23  Cl  UNL A   1      32.132  19.797  22.681  1.00  0.00    -0.083 Cl
ATOM     24  C   UNL A   1      33.643  20.110  24.949  1.00  0.00     0.061 A 
ATOM     25  Cl  UNL A   1      34.535  18.683  24.565  1.00  0.00    -0.083 Cl
ENDBRANCH  14  17
ENDBRANCH   6  11
ENDBRANCH   3   5
ENDBRANCH   2   3
ENDBRANCH   1   2
BRANCH   1  26
ATOM     26  C   UNL A   1      32.592  32.186  27.279  1.00  0.00     0.275 C 
BRANCH  26  27
ATOM     27  O   UNL A   1      32.254  33.575  27.456  1.00  0.00    -0.458 OA
BRANCH  27  28
ATOM     28  C   UNL A   1      32.994  34.229  28.378  1.00  0.00     0.338 C 
ATOM     29  O   UNL A   1      32.668  35.187  29.057  1.00  0.00    -0.246 OA
BRANCH  28  30
ATOM     30  C   UNL A   1      34.267  33.525  28.584  1.00  0.00     0.060 A 
ATOM     31  C   UNL A   1      34.366  32.716  29.708  1.00  0.00     0.016 A 
ATOM     32  C   UNL A   1      35.394  33.789  27.815  1.00  0.00     0.016 A 
ATOM     33  C   UNL A   1      35.598  32.264  30.153  1.00  0.00     0.010 A 
ATOM     34  C   UNL A   1      36.621  33.228  28.195  1.00  0.00     0.010 A 
ATOM     35  C   UNL A   1      36.747  32.494  29.392  1.00  0.00    -0.014 A 
BRANCH  35  36
ATOM     36  C   UNL A   1      38.068  31.996  29.871  1.00  0.00     0.031 A 
ATOM     37  C   UNL A   1      38.629  30.702  29.338  1.00  0.00     0.074 A 
ATOM     38  C   UNL A   1      38.784  32.711  30.763  1.00  0.00     0.049 A 
ATOM     39  N   UNL A   1      39.676  30.026  29.740  1.00  0.00    -0.248 NA
ATOM     40  C   UNL A   1      37.911  30.081  28.214  1.00  0.00     0.031 C 
ATOM     41  C   UNL A   1      38.406  34.016  31.311  1.00  0.00     0.029 A 
ATOM     42  N   UNL A   1      39.993  32.445  31.358  1.00  0.00    -0.354 N 
ATOM     43  C   UNL A   1      39.706  28.875  28.961  1.00  0.00     0.074 A 
ATOM     44  C   UNL A   1      38.566  28.938  28.073  1.00  0.00     0.031 C 
ATOM     45  C   UNL A   1      39.379  34.455  32.122  1.00  0.00     0.029 A 
ATOM     46  C   UNL A   1      40.399  33.421  32.237  1.00  0.00     0.049 A 
ATOM     47  H   UNL A   1      40.519  31.633  31.173  1.00  0.00     0.167 HD
ATOM     48  C   UNL A   1      40.601  27.857  28.984  1.00  0.00     0.031 A 
ATOM     49  C   UNL A   1      41.446  33.464  33.083  1.00  0.00     0.031 A 
ATOM     50  C   UNL A   1      41.748  27.809  29.854  1.00  0.00     0.049 A 
ATOM     51  C   UNL A   1      42.371  32.285  33.156  1.00  0.00     0.074 A 
ATOM     52  C   UNL A   1      42.718  26.826  29.952  1.00  0.00     0.029 A 
ATOM     53  N   UNL A   1      42.082  28.791  30.776  1.00  0.00    -0.354 N 
ATOM     54  N   UNL A   1      42.366  31.184  32.443  1.00  0.00    -0.248 NA
ATOM     55  C   UNL A   1      43.441  32.349  34.161  1.00  0.00     0.031 C 
ATOM     56  C   UNL A   1      43.604  27.185  30.973  1.00  0.00     0.029 A 
ATOM     57  C   UNL A   1      43.227  28.424  31.464  1.00  0.00     0.049 A 
ATOM     58  H   UNL A   1      41.579  29.625  30.920  1.00  0.00     0.167 HD
ATOM     59  C   UNL A   1      43.445  30.436  32.895  1.00  0.00     0.074 A 
ATOM     60  C   UNL A   1      44.093  31.219  33.929  1.00  0.00     0.031 C 
ATOM     61  C   UNL A   1      43.862  29.213  32.490  1.00  0.00     0.031 A 
BRANCH  48  62
ATOM     62  C   UNL A   1      40.340  26.683  28.078  1.00  0.00    -0.014 A 
ATOM     63  C   UNL A   1      40.899  26.599  26.793  1.00  0.00     0.009 A 
ATOM     64  C   UNL A   1      39.524  25.632  28.528  1.00  0.00     0.009 A 
ATOM     65  C   UNL A   1      40.607  25.513  25.963  1.00  0.00     0.001 A 
ATOM     66  C   UNL A   1      39.263  24.531  27.711  1.00  0.00     0.001 A 
ATOM     67  C   UNL A   1      39.793  24.480  26.423  1.00  0.00     0.000 A 
ENDBRANCH  48  62
BRANCH  49  68
ATOM     68  C   UNL A   1      41.646  34.645  33.966  1.00  0.00    -0.014 A 
ATOM     69  C   UNL A   1      42.374  35.756  33.515  1.00  0.00     0.009 A 
ATOM     70  C   UNL A   1      41.116  34.667  35.266  1.00  0.00     0.009 A 
ATOM     71  C   UNL A   1      42.585  36.853  34.354  1.00  0.00     0.001 A 
ATOM     72  C   UNL A   1      41.297  35.779  36.090  1.00  0.00     0.001 A 
ATOM     73  C   UNL A   1      42.040  36.866  35.637  1.00  0.00     0.000 A 
ENDBRANCH  49  68
BRANCH  61  74
ATOM     74  C   UNL A   1      45.108  28.668  33.131  1.00  0.00    -0.014 A 
ATOM     75  C   UNL A   1      46.385  29.007  32.660  1.00  0.00     0.009 A 
ATOM     76  C   UNL A   1      44.997  27.819  34.243  1.00  0.00     0.009 A 
ATOM     77  C   UNL A   1      47.525  28.475  33.266  1.00  0.00     0.001 A 
ATOM     78  C   UNL A   1      46.138  27.317  34.869  1.00  0.00     0.001 A 
ATOM     79  C   UNL A   1      47.401  27.636  34.374  1.00  0.00     0.000 A 
ENDBRANCH  61  74
ENDBRANCH  35  36
ENDBRANCH  28  30
ENDBRANCH  27  28
ENDBRANCH  26  27
ENDBRANCH   1  26
TORSDOF 13
ENDMDL
MODEL 2
REMARK VINA RESULT:     -12.1      5.383     10.063
REMARK SMILES O=C(Nc1cccc(C(=O)OCCOC(=O)c2ccc(-c3c4nc(c(-c5ccccc5)c5ccc([nH]5)c(-c5ccccc5)c5nc(c(-c6ccccc6)c6ccc3[nH]6)C=C5)C=C4)cc2)c1)Nc1cc(Cl)c(Cl)cc1Cl
REMARK SMILES IDX 12 1 11 2 9 3 10 4 8 5 4 6 5 7 65 8 6 9 7 10 3 11 1 12 2 13
REMARK SMILES IDX 66 14 67 17 68 18 74 19 69 20 73 21 75 22 70 23 71 24 72 25
REMARK SMILES IDX 13 26 14 27 15 28 16 29 17 30 18 31 64 32 19 33 63 34 20 35
REMARK SMILES IDX 21 36 22 37 57 38 23 39 62 40 56 41 58 42 24 43 61 44 55 45
REMARK SMILES IDX 54 46 25 48 47 49 32 50 46 51 33 52 36 53 45 54 59 55 34 56
REMARK SMILES IDX 35 57 44 59 60 60 37 61 26 62 27 63 31 64 28 65 30 66 29 67
REMARK SMILES IDX 48 68 49 69 53 70 50 71 52 72 51 73 38 74 39 75 43 76 40 77
REMARK SMILES IDX 42 78 41 79
REMARK H PARENT 3 15 66 16 58 47 36 58
REMARK Flexibility Score: inf
ROOT
ATOM      1  C   UNL A   1      33.270  34.179  28.258  1.00  0.00     0.275 C 
ENDROOT
BRANCH   1   2
ATOM      2  O   UNL A   1      32.588  34.802  29.368  1.00  0.00    -0.458 OA
BRANCH   2   3
ATOM      3  C   UNL A   1      32.888  36.099  29.620  1.00  0.00     0.338 C 
ATOM      4  O   UNL A   1      32.793  37.036  28.843  1.00  0.00    -0.246 OA
BRANCH   3   5
ATOM      5  C   UNL A   1      33.278  36.272  31.042  1.00  0.00     0.062 A 
ATOM      6  C   UNL A   1      34.060  35.363  33.138  1.00  0.00     0.043 A 
ATOM      7  C   UNL A   1      33.980  36.626  33.728  1.00  0.00     0.026 A 
ATOM      8  C   UNL A   1      33.618  35.173  31.825  1.00  0.00     0.041 A 
ATOM      9  C   UNL A   1      33.652  37.730  32.948  1.00  0.00     0.003 A 
ATOM     10  C   UNL A   1      33.373  37.557  31.594  1.00  0.00     0.016 A 
BRANCH   6  11
ATOM     11  N   UNL A   1      34.655  34.335  33.883  1.00  0.00    -0.308 N 
ATOM     12  O   UNL A   1      36.293  32.960  34.566  1.00  0.00    -0.248 OA
ATOM     13  C   UNL A   1      35.975  33.958  33.927  1.00  0.00     0.323 C 
ATOM     14  N   UNL A   1      36.865  34.848  33.374  1.00  0.00    -0.306 N 
ATOM     15  H   UNL A   1      34.044  33.813  34.451  1.00  0.00     0.171 HD
ATOM     16  H   UNL A   1      36.514  35.736  33.136  1.00  0.00     0.171 HD
BRANCH  14  17
ATOM     17  C   UNL A   1      38.230  34.612  33.114  1.00  0.00     0.063 A 
ATOM     18  C   UNL A   1      38.553  34.266  31.794  1.00  0.00     0.049 A 
ATOM     19  C   UNL A   1      39.256  34.674  34.071  1.00  0.00     0.066 A 
ATOM     20  C   UNL A   1      39.886  34.097  31.406  1.00  0.00     0.061 A 
ATOM     21  C   UNL A   1      40.589  34.516  33.679  1.00  0.00     0.044 A 
ATOM     22  Cl  UNL A   1      38.965  34.739  35.776  1.00  0.00    -0.082 Cl
ATOM     23  Cl  UNL A   1      40.198  33.710  29.752  1.00  0.00    -0.083 Cl
ATOM     24  C   UNL A   1      40.907  34.249  32.346  1.00  0.00     0.061 A 
ATOM     25  Cl  UNL A   1      42.577  34.090  31.934  1.00  0.00    -0.083 Cl
ENDBRANCH  14  17
ENDBRANCH   6  11
ENDBRANCH   3   5
ENDBRANCH   2   3
ENDBRANCH   1   2
BRANCH   1  26
ATOM     26  C   UNL A   1      34.256  33.113  28.741  1.00  0.00     0.275 C 
BRANCH  26  27
ATOM     27  O   UNL A   1      34.892  32.465  27.623  1.00  0.00    -0.458 OA
BRANCH  27  28
ATOM     28  C   UNL A   1      34.909  31.116  27.680  1.00  0.00     0.338 C 
ATOM     29  O   UNL A   1      34.180  30.333  27.095  1.00  0.00    -0.246 OA
BRANCH  28  30
ATOM     30  C   UNL A   1      36.064  30.666  28.467  1.00  0.00     0.060 A 
ATOM     31  C   UNL A   1      37.305  31.179  28.114  1.00  0.00     0.016 A 
ATOM     32  C   UNL A   1      35.976  29.634  29.394  1.00  0.00     0.016 A 
ATOM     33  C   UNL A   1      38.474  30.596  28.577  1.00  0.00     0.010 A 
ATOM     34  C   UNL A   1      37.154  29.126  29.958  1.00  0.00     0.010 A 
ATOM     35  C   UNL A   1      38.420  29.571  29.526  1.00  0.00    -0.014 A 
BRANCH  35  36
ATOM     36  C   UNL A   1      39.680  28.956  30.029  1.00  0.00     0.031 A 
ATOM     37  C   UNL A   1      40.328  29.472  31.288  1.00  0.00     0.074 A 
ATOM     38  C   UNL A   1      40.238  27.914  29.377  1.00  0.00     0.049 A 
ATOM     39  N   UNL A   1      41.498  29.179  31.797  1.00  0.00    -0.248 NA
ATOM     40  C   UNL A   1      39.565  30.457  32.069  1.00  0.00     0.031 C 
ATOM     41  C   UNL A   1      39.687  27.257  28.188  1.00  0.00     0.029 A 
ATOM     42  N   UNL A   1      41.391  27.212  29.632  1.00  0.00    -0.354 N 
ATOM     43  C   UNL A   1      41.635  29.985  32.922  1.00  0.00     0.074 A 
ATOM     44  C   UNL A   1      40.435  30.789  33.012  1.00  0.00     0.031 C 
ATOM     45  C   UNL A   1      40.474  26.226  27.847  1.00  0.00     0.029 A 
ATOM     46  C   UNL A   1      41.638  26.212  28.722  1.00  0.00     0.049 A 
ATOM     47  H   UNL A   1      41.984  27.407  30.394  1.00  0.00     0.167 HD
ATOM     48  C   UNL A   1      42.666  30.052  33.799  1.00  0.00     0.031 A 
ATOM     49  C   UNL A   1      42.704  25.403  28.571  1.00  0.00     0.031 A 
ATOM     50  C   UNL A   1      43.849  29.234  33.719  1.00  0.00     0.049 A 
ATOM     51  C   UNL A   1      43.873  25.558  29.499  1.00  0.00     0.074 A 
ATOM     52  C   UNL A   1      44.948  29.220  34.560  1.00  0.00     0.029 A 
ATOM     53  N   UNL A   1      44.085  28.279  32.740  1.00  0.00    -0.354 N 
ATOM     54  N   UNL A   1      44.008  26.353  30.533  1.00  0.00    -0.248 NA
ATOM     55  C   UNL A   1      45.044  24.713  29.230  1.00  0.00     0.031 C 
ATOM     56  C   UNL A   1      45.874  28.301  34.057  1.00  0.00     0.029 A 
ATOM     57  C   UNL A   1      45.323  27.691  32.941  1.00  0.00     0.049 A 
ATOM     58  H   UNL A   1      43.464  28.054  32.010  1.00  0.00     0.167 HD
ATOM     59  C   UNL A   1      45.266  26.085  31.054  1.00  0.00     0.074 A 
ATOM     60  C   UNL A   1      45.845  25.041  30.233  1.00  0.00     0.031 C 
ATOM     61  C   UNL A   1      45.886  26.652  32.117  1.00  0.00     0.031 A 
BRANCH  48  62
ATOM     62  C   UNL A   1      42.584  31.088  34.889  1.00  0.00    -0.014 A 
ATOM     63  C   UNL A   1      43.308  32.289  34.827  1.00  0.00     0.009 A 
ATOM     64  C   UNL A   1      41.752  30.858  35.998  1.00  0.00     0.009 A 
ATOM     65  C   UNL A   1      43.237  33.214  35.873  1.00  0.00     0.001 A 
ATOM     66  C   UNL A   1      41.656  31.799  37.025  1.00  0.00     0.001 A 
ATOM     67  C   UNL A   1      42.410  32.969  36.969  1.00  0.00     0.000 A 
ENDBRANCH  48  62
BRANCH  49  68
ATOM     68  C   UNL A   1      42.736  24.406  27.466  1.00  0.00    -0.014 A 
ATOM     69  C   UNL A   1      43.234  24.759  26.203  1.00  0.00     0.009 A 
ATOM     70  C   UNL A   1      42.264  23.099  27.665  1.00  0.00     0.009 A 
ATOM     71  C   UNL A   1      43.239  23.831  25.159  1.00  0.00     0.001 A 
ATOM     72  C   UNL A   1      42.302  22.163  26.631  1.00  0.00     0.001 A 
ATOM     73  C   UNL A   1      42.780  22.533  25.375  1.00  0.00     0.000 A 
ENDBRANCH  49  68
BRANCH  61  74
ATOM     74  C   UNL A   1      47.243  26.117  32.483  1.00  0.00    -0.014 A 
ATOM     75  C   UNL A   1      48.415  26.629  31.907  1.00  0.00     0.009 A 
ATOM     76  C   UNL A   1      47.347  25.098  33.443  1.00  0.00     0.009 A 
ATOM     77  C   UNL A   1      49.660  26.104  32.256  1.00  0.00     0.001 A 
ATOM     78  C   UNL A   1      48.595  24.599  33.816  1.00  0.00     0.001 A 
ATOM     79  C   UNL A   1      49.750  25.094  33.215  1.00  0.00     0.000 A 
ENDBRANCH  61  74
ENDBRANCH  35  36
ENDBRANCH  28  30
ENDBRANCH  27  28
ENDBRANCH  26  27
ENDBRANCH   1  26
TORSDOF 13
ENDMDL
MODEL 3
REMARK VINA RESULT:     -12.0      1.941      6.048
REMARK SMILES O=C(Nc1cccc(C(=O)OCCOC(=O)c2ccc(-c3c4nc(c(-c5ccccc5)c5ccc([nH]5)c(-c5ccccc5)c5nc(c(-c6ccccc6)c6ccc3[nH]6)C=C5)C=C4)cc2)c1)Nc1cc(Cl)c(Cl)cc1Cl
REMARK SMILES IDX 12 1 11 2 9 3 10 4 8 5 4 6 5 7 65 8 6 9 7 10 3 11 1 12 2 13
REMARK SMILES IDX 66 14 67 17 68 18 74 19 69 20 73 21 75 22 70 23 71 24 72 25
REMARK SMILES IDX 13 26 14 27 15 28 16 29 17 30 18 31 64 32 19 33 63 34 20 35
REMARK SMILES IDX 21 36 22 37 57 38 23 39 62 40 56 41 58 42 24 43 61 44 55 45
REMARK SMILES IDX 54 46 25 48 47 49 32 50 46 51 33 52 36 53 45 54 59 55 34 56
REMARK SMILES IDX 35 57 44 59 60 60 37 61 26 62 27 63 31 64 28 65 30 66 29 67
REMARK SMILES IDX 48 68 49 69 53 70 50 71 52 72 51 73 38 74 39 75 43 76 40 77
REMARK SMILES IDX 42 78 41 79
REMARK H PARENT 3 15 66 16 58 47 36 58
REMARK Flexibility Score: inf
ROOT
ATOM      1  C   UNL A   1      31.442  31.810  26.965  1.00  0.00     0.275 C 
ENDROOT
BRANCH   1   2
ATOM      2  O   UNL A   1      31.675  30.960  25.821  1.00  0.00    -0.458 OA
BRANCH   2   3
ATOM      3  C   UNL A   1      32.518  29.914  25.997  1.00  0.00     0.338 C 
ATOM      4  O   UNL A   1      33.640  29.953  26.476  1.00  0.00    -0.246 OA
BRANCH   3   5
ATOM      5  C   UNL A   1      31.856  28.645  25.603  1.00  0.00     0.062 A 
ATOM      6  C   UNL A   1      31.382  26.309  25.986  1.00  0.00     0.043 A 
ATOM      7  C   UNL A   1      30.620  26.261  24.817  1.00  0.00     0.026 A 
ATOM      8  C   UNL A   1      32.076  27.475  26.324  1.00  0.00     0.041 A 
ATOM      9  C   UNL A   1      30.388  27.429  24.099  1.00  0.00     0.003 A 
ATOM     10  C   UNL A   1      30.948  28.628  24.536  1.00  0.00     0.016 A 
BRANCH   6  11
ATOM     11  N   UNL A   1      31.363  25.183  26.820  1.00  0.00    -0.308 N 
ATOM     12  O   UNL A   1      31.939  23.137  27.543  1.00  0.00    -0.248 OA
ATOM     13  C   UNL A   1      32.175  24.075  26.789  1.00  0.00     0.323 C 
ATOM     14  N   UNL A   1      33.305  24.190  26.014  1.00  0.00    -0.306 N 
ATOM     15  H   UNL A   1      30.674  25.185  27.523  1.00  0.00     0.171 HD
ATOM     16  H   UNL A   1      33.522  25.088  25.675  1.00  0.00     0.171 HD
BRANCH  14  17
ATOM     17  C   UNL A   1      34.183  23.147  25.659  1.00  0.00     0.063 A 
ATOM     18  C   UNL A   1      35.546  23.384  25.894  1.00  0.00     0.049 A 
ATOM     19  C   UNL A   1      33.796  21.929  25.076  1.00  0.00     0.066 A 
ATOM     20  C   UNL A   1      36.495  22.384  25.661  1.00  0.00     0.061 A 
ATOM     21  C   UNL A   1      34.745  20.926  24.854  1.00  0.00     0.044 A 
ATOM     22  Cl  UNL A   1      32.221  21.648  24.415  1.00  0.00    -0.082 Cl
ATOM     23  Cl  UNL A   1      38.146  22.746  26.015  1.00  0.00    -0.083 Cl
ATOM     24  C   UNL A   1      36.089  21.143  25.164  1.00  0.00     0.061 A 
ATOM     25  Cl  UNL A   1      37.198  19.849  24.885  1.00  0.00    -0.083 Cl
ENDBRANCH  14  17
ENDBRANCH   6  11
ENDBRANCH   3   5
ENDBRANCH   2   3
ENDBRANCH   1   2
BRANCH   1  26
ATOM     26  C   UNL A   1      32.177  33.144  26.823  1.00  0.00     0.275 C 
BRANCH  26  27
ATOM     27  O   UNL A   1      32.182  33.858  28.074  1.00  0.00    -0.458 OA
BRANCH  27  28
ATOM     28  C   UNL A   1      33.280  34.612  28.296  1.00  0.00     0.338 C 
ATOM     29  O   UNL A   1      33.355  35.827  28.352  1.00  0.00    -0.246 OA
BRANCH  28  30
ATOM     30  C   UNL A   1      34.420  33.745  28.622  1.00  0.00     0.060 A 
ATOM     31  C   UNL A   1      34.144  32.575  29.316  1.00  0.00     0.016 A 
ATOM     32  C   UNL A   1      35.737  34.146  28.429  1.00  0.00     0.016 A 
ATOM     33  C   UNL A   1      35.158  31.857  29.932  1.00  0.00     0.010 A 
ATOM     34  C   UNL A   1      36.771  33.353  28.946  1.00  0.00     0.010 A 
ATOM     35  C   UNL A   1      36.493  32.221  29.740  1.00  0.00    -0.014 A 
BRANCH  35  36
ATOM     36  C   UNL A   1      37.579  31.439  30.396  1.00  0.00     0.031 A 
ATOM     37  C   UNL A   1      37.888  31.647  31.856  1.00  0.00     0.074 A 
ATOM     38  C   UNL A   1      38.276  30.519  29.696  1.00  0.00     0.049 A 
ATOM     39  N   UNL A   1      38.887  31.184  32.565  1.00  0.00    -0.248 NA
ATOM     40  C   UNL A   1      36.958  32.497  32.616  1.00  0.00     0.031 C 
ATOM     41  C   UNL A   1      38.041  30.155  28.296  1.00  0.00     0.029 A 
ATOM     42  N   UNL A   1      39.320  29.711  30.074  1.00  0.00    -0.354 N 
ATOM     43  C   UNL A   1      38.738  31.733  33.834  1.00  0.00     0.074 A 
ATOM     44  C   UNL A   1      37.561  32.575  33.793  1.00  0.00     0.031 C 
ATOM     45  C   UNL A   1      38.881  29.169  27.949  1.00  0.00     0.029 A 
ATOM     46  C   UNL A   1      39.783  28.904  29.061  1.00  0.00     0.049 A 
ATOM     47  H   UNL A   1      39.700  29.709  30.981  1.00  0.00     0.167 HD
ATOM     48  C   UNL A   1      39.512  31.556  34.933  1.00  0.00     0.031 A 
ATOM     49  C   UNL A   1      40.845  28.078  29.010  1.00  0.00     0.031 A 
ATOM     50  C   UNL A   1      40.669  30.699  34.976  1.00  0.00     0.049 A 
ATOM     51  C   UNL A   1      41.740  27.968  30.210  1.00  0.00     0.074 A 
ATOM     52  C   UNL A   1      41.517  30.446  36.040  1.00  0.00     0.029 A 
ATOM     53  N   UNL A   1      41.140  29.952  33.905  1.00  0.00    -0.354 N 
ATOM     54  N   UNL A   1      41.612  28.525  31.390  1.00  0.00    -0.248 NA
ATOM     55  C   UNL A   1      42.934  27.124  30.065  1.00  0.00     0.031 C 
ATOM     56  C   UNL A   1      42.534  29.593  35.597  1.00  0.00     0.029 A 
ATOM     57  C   UNL A   1      42.280  29.259  34.277  1.00  0.00     0.049 A 
ATOM     58  H   UNL A   1      40.724  29.919  33.013  1.00  0.00     0.167 HD
ATOM     59  C   UNL A   1      42.694  28.079  32.137  1.00  0.00     0.074 A 
ATOM     60  C   UNL A   1      43.455  27.190  31.281  1.00  0.00     0.031 C 
ATOM     61  C   UNL A   1      43.027  28.377  33.416  1.00  0.00     0.031 A 
BRANCH  48  62
ATOM     62  C   UNL A   1      39.163  32.350  36.163  1.00  0.00    -0.014 A 
ATOM     63  C   UNL A   1      38.231  31.886  37.106  1.00  0.00     0.009 A 
ATOM     64  C   UNL A   1      39.791  33.586  36.388  1.00  0.00     0.009 A 
ATOM     65  C   UNL A   1      37.902  32.665  38.219  1.00  0.00     0.001 A 
ATOM     66  C   UNL A   1      39.486  34.346  37.519  1.00  0.00     0.001 A 
ATOM     67  C   UNL A   1      38.532  33.892  38.425  1.00  0.00     0.000 A 
ENDBRANCH  48  62
BRANCH  49  68
ATOM     68  C   UNL A   1      41.150  27.328  27.761  1.00  0.00    -0.014 A 
ATOM     69  C   UNL A   1      40.543  26.090  27.507  1.00  0.00     0.009 A 
ATOM     70  C   UNL A   1      42.055  27.843  26.818  1.00  0.00     0.009 A 
ATOM     71  C   UNL A   1      40.850  25.374  26.347  1.00  0.00     0.001 A 
ATOM     72  C   UNL A   1      42.334  27.143  25.643  1.00  0.00     0.001 A 
ATOM     73  C   UNL A   1      41.739  25.904  25.414  1.00  0.00     0.000 A 
ENDBRANCH  49  68
BRANCH  61  74
ATOM     74  C   UNL A   1      44.241  27.695  33.984  1.00  0.00    -0.014 A 
ATOM     75  C   UNL A   1      44.144  26.474  34.668  1.00  0.00     0.009 A 
ATOM     76  C   UNL A   1      45.505  28.277  33.807  1.00  0.00     0.009 A 
ATOM     77  C   UNL A   1      45.287  25.870  35.197  1.00  0.00     0.001 A 
ATOM     78  C   UNL A   1      46.649  27.655  34.306  1.00  0.00     0.001 A 
ATOM     79  C   UNL A   1      46.539  26.457  35.010  1.00  0.00     0.000 A 
ENDBRANCH  61  74
ENDBRANCH  35  36
ENDBRANCH  28  30
ENDBRANCH  27  28
ENDBRANCH  26  27
ENDBRANCH   1  26
TORSDOF 13
ENDMDL
