MODEL 1
REMARK VINA RESULT:     -12.0      0.000      0.000
REMARK SMILES CCC(CC)([NH2+]CC(=O)Nc1ccc(C)cc1)C(=O)OCCOC(=O)c1ccc(-c2c3nc(c(-c4ccccc4)c4ccc([nH]4)c(-c4ccccc4)c4nc(c(-c5ccccc5)c5ccc2[nH]5)C=C4)C=C3)cc1
REMARK SMILES IDX 21 1 20 2 18 3 19 4 3 5 2 6 1 7 4 8 5 9 6 10 7 13 8 14 9 15
REMARK SMILES IDX 10 16 11 18 12 19 17 20 13 21 16 22 14 23 15 24 22 25 23 26
REMARK SMILES IDX 24 27 25 28 26 29 27 30 73 31 28 32 72 33 29 34 30 35 31 36
REMARK SMILES IDX 66 37 32 38 71 39 65 40 67 41 33 42 70 43 64 44 63 45 34 47
REMARK SMILES IDX 56 48 41 49 55 50 42 51 45 52 54 53 68 54 43 55 44 56 53 58
REMARK SMILES IDX 69 59 46 60 35 61 36 62 40 63 37 64 39 65 38 66 57 67 58 68
REMARK SMILES IDX 62 69 59 70 61 71 60 72 47 73 48 74 52 75 49 76 51 77 50 78
REMARK H PARENT 6 11 6 12 10 17 67 46 45 57
REMARK Flexibility Score: inf
ROOT
ATOM      1  C   UNL A   1      33.984  30.289  27.163  1.00  0.00     0.274 C 
ENDROOT
BRANCH   1   2
ATOM      2  O   UNL A   1      33.308  29.779  25.944  1.00  0.00    -0.457 OA
BRANCH   2   3
ATOM      3  C   UNL A   1      32.013  29.745  25.476  1.00  0.00     0.368 C 
ATOM      4  O   UNL A   1      31.296  30.736  25.508  1.00  0.00    -0.245 OA
BRANCH   3   5
ATOM      5  C   UNL A   1      31.576  28.196  24.740  1.00  0.00     0.194 C 
BRANCH   5   6
ATOM      6  C   UNL A   1      32.730  28.058  23.659  1.00  0.00     0.077 C 
ATOM      7  C   UNL A   1      33.799  26.959  23.987  1.00  0.00     0.011 C 
ENDBRANCH   5   6
BRANCH   5   8
ATOM      8  C   UNL A   1      30.414  27.326  24.023  1.00  0.00     0.077 C 
ATOM      9  C   UNL A   1      29.401  28.130  23.161  1.00  0.00     0.011 C 
ENDBRANCH   5   8
BRANCH   5  10
ATOM     10  N   UNL A   1      31.423  27.513  26.021  1.00  0.00    -0.324 N 
ATOM     11  H   UNL A   1      30.798  28.068  26.605  1.00  0.00     0.347 HD
ATOM     12  H   UNL A   1      32.360  27.421  26.412  1.00  0.00     0.347 HD
BRANCH  10  13
ATOM     13  C   UNL A   1      30.855  26.099  25.927  1.00  0.00     0.363 C 
BRANCH  13  14
ATOM     14  C   UNL A   1      31.581  24.619  26.174  1.00  0.00     0.279 C 
ATOM     15  O   UNL A   1      31.334  24.197  27.321  1.00  0.00    -0.268 OA
ATOM     16  N   UNL A   1      32.466  23.877  25.065  1.00  0.00    -0.321 N 
ATOM     17  H   UNL A   1      32.802  24.563  24.444  1.00  0.00     0.170 HD
BRANCH  16  18
ATOM     18  C   UNL A   1      33.167  22.084  24.437  1.00  0.00     0.041 A 
ATOM     19  C   UNL A   1      32.397  20.967  23.733  1.00  0.00     0.026 A 
ATOM     20  C   UNL A   1      34.449  21.325  24.775  1.00  0.00     0.026 A 
ATOM     21  C   UNL A   1      32.560  19.580  23.837  1.00  0.00     0.005 A 
ATOM     22  C   UNL A   1      34.661  19.920  24.804  1.00  0.00     0.005 A 
ATOM     23  C   UNL A   1      33.654  19.048  24.458  1.00  0.00    -0.051 A 
ATOM     24  C   UNL A   1      33.701  17.580  24.687  1.00  0.00     0.044 C 
ENDBRANCH  16  18
ENDBRANCH  13  14
ENDBRANCH  10  13
ENDBRANCH   5  10
ENDBRANCH   3   5
ENDBRANCH   2   3
ENDBRANCH   1   2
BRANCH   1  25
ATOM     25  C   UNL A   1      33.648  31.620  27.879  1.00  0.00     0.275 C 
BRANCH  25  26
ATOM     26  O   UNL A   1      34.485  32.713  27.551  1.00  0.00    -0.458 OA
BRANCH  26  27
ATOM     27  C   UNL A   1      34.205  33.705  28.396  1.00  0.00     0.338 C 
ATOM     28  O   UNL A   1      33.318  34.531  28.316  1.00  0.00    -0.246 OA
BRANCH  27  29
ATOM     29  C   UNL A   1      35.188  33.597  29.465  1.00  0.00     0.060 A 
ATOM     30  C   UNL A   1      36.913  33.727  28.879  1.00  0.00     0.016 A 
ATOM     31  C   UNL A   1      34.763  32.771  31.049  1.00  0.00     0.016 A 
ATOM     32  C   UNL A   1      38.222  32.835  29.787  1.00  0.00     0.010 A 
ATOM     33  C   UNL A   1      36.129  31.923  31.976  1.00  0.00     0.010 A 
ATOM     34  C   UNL A   1      37.818  31.956  31.295  1.00  0.00    -0.014 A 
BRANCH  34  35
ATOM     35  C   UNL A   1      38.673  30.878  31.742  1.00  0.00     0.031 A 
ATOM     36  C   UNL A   1      38.598  29.638  30.982  1.00  0.00     0.074 A 
ATOM     37  C   UNL A   1      39.761  31.394  32.352  1.00  0.00     0.049 A 
ATOM     38  N   UNL A   1      39.249  28.569  31.278  1.00  0.00    -0.248 NA
ATOM     39  C   UNL A   1      37.660  29.427  29.869  1.00  0.00     0.031 C 
ATOM     40  C   UNL A   1      41.170  31.353  31.992  1.00  0.00     0.029 A 
ATOM     41  N   UNL A   1      39.755  32.308  33.379  1.00  0.00    -0.354 N 
ATOM     42  C   UNL A   1      39.311  27.912  30.073  1.00  0.00     0.074 A 
ATOM     43  C   UNL A   1      38.073  28.239  29.416  1.00  0.00     0.031 C 
ATOM     44  C   UNL A   1      41.889  32.075  32.885  1.00  0.00     0.029 A 
ATOM     45  C   UNL A   1      40.991  32.594  33.918  1.00  0.00     0.049 A 
ATOM     46  H   UNL A   1      38.927  32.728  33.707  1.00  0.00     0.167 HD
ATOM     47  C   UNL A   1      40.544  27.581  29.584  1.00  0.00     0.031 A 
ATOM     48  C   UNL A   1      41.112  32.485  35.272  1.00  0.00     0.031 A 
ATOM     49  C   UNL A   1      41.629  27.953  30.527  1.00  0.00     0.049 A 
ATOM     50  C   UNL A   1      41.593  31.076  35.518  1.00  0.00     0.074 A 
ATOM     51  C   UNL A   1      42.776  28.729  30.442  1.00  0.00     0.029 A 
ATOM     52  N   UNL A   1      41.452  27.722  31.891  1.00  0.00    -0.354 N 
ATOM     53  N   UNL A   1      41.500  30.143  34.608  1.00  0.00    -0.248 NA
ATOM     54  C   UNL A   1      42.325  30.631  36.694  1.00  0.00     0.031 C 
ATOM     55  C   UNL A   1      43.276  28.939  31.769  1.00  0.00     0.029 A 
ATOM     56  C   UNL A   1      42.433  28.298  32.664  1.00  0.00     0.049 A 
ATOM     57  H   UNL A   1      40.703  27.202  32.262  1.00  0.00     0.167 HD
ATOM     58  C   UNL A   1      42.251  29.077  34.962  1.00  0.00     0.074 A 
ATOM     59  C   UNL A   1      42.697  29.394  36.309  1.00  0.00     0.031 C 
ATOM     60  C   UNL A   1      42.455  28.036  34.106  1.00  0.00     0.031 A 
BRANCH  47  61
ATOM     61  C   UNL A   1      40.804  27.124  28.158  1.00  0.00    -0.014 A 
ATOM     62  C   UNL A   1      41.369  28.029  27.243  1.00  0.00     0.009 A 
ATOM     63  C   UNL A   1      40.566  25.830  27.653  1.00  0.00     0.009 A 
ATOM     64  C   UNL A   1      41.699  27.663  25.931  1.00  0.00     0.001 A 
ATOM     65  C   UNL A   1      40.903  25.450  26.346  1.00  0.00     0.001 A 
ATOM     66  C   UNL A   1      41.482  26.367  25.485  1.00  0.00     0.000 A 
ENDBRANCH  47  61
BRANCH  48  67
ATOM     67  C   UNL A   1      40.058  33.243  36.038  1.00  0.00    -0.014 A 
ATOM     68  C   UNL A   1      39.114  32.491  36.772  1.00  0.00     0.009 A 
ATOM     69  C   UNL A   1      40.178  34.607  36.365  1.00  0.00     0.009 A 
ATOM     70  C   UNL A   1      38.379  33.055  37.830  1.00  0.00     0.001 A 
ATOM     71  C   UNL A   1      39.466  35.162  37.448  1.00  0.00     0.001 A 
ATOM     72  C   UNL A   1      38.586  34.382  38.195  1.00  0.00     0.000 A 
ENDBRANCH  48  67
BRANCH  60  73
ATOM     73  C   UNL A   1      42.615  26.619  34.580  1.00  0.00    -0.014 A 
ATOM     74  C   UNL A   1      41.665  25.945  35.353  1.00  0.00     0.009 A 
ATOM     75  C   UNL A   1      43.675  25.844  34.061  1.00  0.00     0.009 A 
ATOM     76  C   UNL A   1      41.786  24.580  35.624  1.00  0.00     0.001 A 
ATOM     77  C   UNL A   1      43.760  24.471  34.263  1.00  0.00     0.001 A 
ATOM     78  C   UNL A   1      42.822  23.842  35.064  1.00  0.00     0.000 A 
ENDBRANCH  60  73
ENDBRANCH  34  35
ENDBRANCH  27  29
ENDBRANCH  26  27
ENDBRANCH  25  26
ENDBRANCH   1  25
TORSDOF 17
ENDMDL
MODEL 2
REMARK VINA RESULT:     -11.9      4.677     10.010
REMARK SMILES CCC(CC)([NH2+]CC(=O)Nc1ccc(C)cc1)C(=O)OCCOC(=O)c1ccc(-c2c3nc(c(-c4ccccc4)c4ccc([nH]4)c(-c4ccccc4)c4nc(c(-c5ccccc5)c5ccc2[nH]5)C=C4)C=C3)cc1
REMARK SMILES IDX 21 1 20 2 18 3 19 4 3 5 2 6 1 7 4 8 5 9 6 10 7 13 8 14 9 15
REMARK SMILES IDX 10 16 11 18 12 19 17 20 13 21 16 22 14 23 15 24 22 25 23 26
REMARK SMILES IDX 24 27 25 28 26 29 27 30 73 31 28 32 72 33 29 34 30 35 31 36
REMARK SMILES IDX 66 37 32 38 71 39 65 40 67 41 33 42 70 43 64 44 63 45 34 47
REMARK SMILES IDX 56 48 41 49 55 50 42 51 45 52 54 53 68 54 43 55 44 56 53 58
REMARK SMILES IDX 69 59 46 60 35 61 36 62 40 63 37 64 39 65 38 66 57 67 58 68
REMARK SMILES IDX 62 69 59 70 61 71 60 72 47 73 48 74 52 75 49 76 51 77 50 78
REMARK H PARENT 6 11 6 12 10 17 67 46 45 57
REMARK Flexibility Score: inf
ROOT
ATOM      1  C   UNL A   1      38.516  22.459  26.148  1.00  0.00     0.274 C 
ENDROOT
BRANCH   1   2
ATOM      2  O   UNL A   1      37.125  22.253  25.670  1.00  0.00    -0.457 OA
BRANCH   2   3
ATOM      3  C   UNL A   1      36.411  21.201  25.140  1.00  0.00     0.368 C 
ATOM      4  O   UNL A   1      36.934  20.114  24.931  1.00  0.00    -0.245 OA
BRANCH   3   5
ATOM      5  C   UNL A   1      34.691  21.560  24.928  1.00  0.00     0.194 C 
BRANCH   5   6
ATOM      6  C   UNL A   1      34.209  21.547  26.440  1.00  0.00     0.077 C 
ATOM      7  C   UNL A   1      33.865  22.961  27.024  1.00  0.00     0.011 C 
ENDBRANCH   5   6
BRANCH   5   8
ATOM      8  C   UNL A   1      33.311  21.149  24.188  1.00  0.00     0.077 C 
ATOM      9  C   UNL A   1      32.781  19.720  24.489  1.00  0.00     0.011 C 
ENDBRANCH   5   8
BRANCH   5  10
ATOM     10  N   UNL A   1      34.933  22.698  24.045  1.00  0.00    -0.324 N 
ATOM     11  H   UNL A   1      35.727  22.473  23.446  1.00  0.00     0.347 HD
ATOM     12  H   UNL A   1      35.101  23.501  24.649  1.00  0.00     0.347 HD
BRANCH  10  13
ATOM     13  C   UNL A   1      33.754  23.072  23.149  1.00  0.00     0.363 C 
BRANCH  13  14
ATOM     14  C   UNL A   1      33.127  24.564  22.748  1.00  0.00     0.279 C 
ATOM     15  O   UNL A   1      33.285  24.791  21.532  1.00  0.00    -0.268 OA
ATOM     16  N   UNL A   1      32.427  25.538  23.808  1.00  0.00    -0.321 N 
ATOM     17  H   UNL A   1      32.768  25.302  24.701  1.00  0.00     0.170 HD
BRANCH  16  18
ATOM     18  C   UNL A   1      31.116  27.065  24.036  1.00  0.00     0.041 A 
ATOM     19  C   UNL A   1      29.697  27.178  23.482  1.00  0.00     0.026 A 
ATOM     20  C   UNL A   1      31.315  28.508  24.499  1.00  0.00     0.026 A 
ATOM     21  C   UNL A   1      29.008  28.314  23.040  1.00  0.00     0.005 A 
ATOM     22  C   UNL A   1      30.575  29.663  24.128  1.00  0.00     0.005 A 
ATOM     23  C   UNL A   1      29.495  29.567  23.282  1.00  0.00    -0.051 A 
ATOM     24  C   UNL A   1      28.816  30.730  22.652  1.00  0.00     0.044 C 
ENDBRANCH  16  18
ENDBRANCH  13  14
ENDBRANCH  10  13
ENDBRANCH   5  10
ENDBRANCH   3   5
ENDBRANCH   2   3
ENDBRANCH   1   2
BRANCH   1  25
ATOM     25  C   UNL A   1      39.632  21.386  26.135  1.00  0.00     0.275 C 
BRANCH  25  26
ATOM     26  O   UNL A   1      40.351  21.244  27.345  1.00  0.00    -0.458 OA
BRANCH  26  27
ATOM     27  C   UNL A   1      41.496  20.622  27.065  1.00  0.00     0.338 C 
ATOM     28  O   UNL A   1      41.670  19.445  26.820  1.00  0.00    -0.246 OA
BRANCH  27  29
ATOM     29  C   UNL A   1      42.521  21.655  27.101  1.00  0.00     0.060 A 
ATOM     30  C   UNL A   1      42.701  22.441  28.740  1.00  0.00     0.016 A 
ATOM     31  C   UNL A   1      43.060  22.496  25.561  1.00  0.00     0.016 A 
ATOM     32  C   UNL A   1      43.237  24.184  28.829  1.00  0.00     0.010 A 
ATOM     33  C   UNL A   1      43.655  24.249  25.694  1.00  0.00     0.010 A 
ATOM     34  C   UNL A   1      43.694  25.051  27.329  1.00  0.00    -0.014 A 
BRANCH  34  35
ATOM     35  C   UNL A   1      43.638  26.496  27.297  1.00  0.00     0.031 A 
ATOM     36  C   UNL A   1      42.314  27.087  27.168  1.00  0.00     0.074 A 
ATOM     37  C   UNL A   1      44.693  26.999  27.974  1.00  0.00     0.049 A 
ATOM     38  N   UNL A   1      42.094  28.351  27.071  1.00  0.00    -0.248 NA
ATOM     39  C   UNL A   1      41.087  26.295  26.995  1.00  0.00     0.031 C 
ATOM     40  C   UNL A   1      44.757  27.782  29.199  1.00  0.00     0.029 A 
ATOM     41  N   UNL A   1      46.013  26.678  27.769  1.00  0.00    -0.354 N 
ATOM     42  C   UNL A   1      40.799  28.466  27.514  1.00  0.00     0.074 A 
ATOM     43  C   UNL A   1      40.157  27.251  27.082  1.00  0.00     0.031 C 
ATOM     44  C   UNL A   1      46.053  28.002  29.529  1.00  0.00     0.029 A 
ATOM     45  C   UNL A   1      46.917  27.414  28.505  1.00  0.00     0.049 A 
ATOM     46  H   UNL A   1      46.293  25.973  27.142  1.00  0.00     0.167 HD
ATOM     47  C   UNL A   1      40.550  29.304  28.565  1.00  0.00     0.031 A 
ATOM     48  C   UNL A   1      47.932  28.010  27.815  1.00  0.00     0.031 A 
ATOM     49  C   UNL A   1      41.777  30.017  29.002  1.00  0.00     0.049 A 
ATOM     50  C   UNL A   1      47.431  29.394  27.485  1.00  0.00     0.074 A 
ATOM     51  C   UNL A   1      42.459  30.144  30.204  1.00  0.00     0.029 A 
ATOM     52  N   UNL A   1      42.652  30.519  28.038  1.00  0.00    -0.354 N 
ATOM     53  N   UNL A   1      46.165  29.706  27.545  1.00  0.00    -0.248 NA
ATOM     54  C   UNL A   1      48.274  30.549  27.213  1.00  0.00     0.031 C 
ATOM     55  C   UNL A   1      43.737  30.736  29.935  1.00  0.00     0.029 A 
ATOM     56  C   UNL A   1      43.839  30.966  28.571  1.00  0.00     0.049 A 
ATOM     57  H   UNL A   1      42.441  30.549  27.077  1.00  0.00     0.167 HD
ATOM     58  C   UNL A   1      46.017  31.048  27.492  1.00  0.00     0.074 A 
ATOM     59  C   UNL A   1      47.357  31.538  27.214  1.00  0.00     0.031 C 
ATOM     60  C   UNL A   1      44.807  31.638  27.699  1.00  0.00     0.031 A 
BRANCH  47  61
ATOM     61  C   UNL A   1      39.252  29.325  29.354  1.00  0.00    -0.014 A 
ATOM     62  C   UNL A   1      38.094  29.846  28.751  1.00  0.00     0.009 A 
ATOM     63  C   UNL A   1      39.075  28.821  30.658  1.00  0.00     0.009 A 
ATOM     64  C   UNL A   1      36.846  29.838  29.391  1.00  0.00     0.001 A 
ATOM     65  C   UNL A   1      37.829  28.798  31.302  1.00  0.00     0.001 A 
ATOM     66  C   UNL A   1      36.709  29.298  30.662  1.00  0.00     0.000 A 
ENDBRANCH  47  61
BRANCH  48  67
ATOM     67  C   UNL A   1      48.688  27.066  26.914  1.00  0.00    -0.014 A 
ATOM     68  C   UNL A   1      48.776  27.399  25.544  1.00  0.00     0.009 A 
ATOM     69  C   UNL A   1      49.600  26.109  27.397  1.00  0.00     0.009 A 
ATOM     70  C   UNL A   1      49.773  26.858  24.713  1.00  0.00     0.001 A 
ATOM     71  C   UNL A   1      50.620  25.593  26.571  1.00  0.00     0.001 A 
ATOM     72  C   UNL A   1      50.722  25.986  25.238  1.00  0.00     0.000 A 
ENDBRANCH  48  67
BRANCH  60  73
ATOM     73  C   UNL A   1      44.395  32.905  27.005  1.00  0.00    -0.014 A 
ATOM     74  C   UNL A   1      44.215  33.011  25.622  1.00  0.00     0.009 A 
ATOM     75  C   UNL A   1      43.963  34.000  27.786  1.00  0.00     0.009 A 
ATOM     76  C   UNL A   1      43.671  34.162  25.047  1.00  0.00     0.001 A 
ATOM     77  C   UNL A   1      43.350  35.116  27.226  1.00  0.00     0.001 A 
ATOM     78  C   UNL A   1      43.223  35.205  25.850  1.00  0.00     0.000 A 
ENDBRANCH  60  73
ENDBRANCH  34  35
ENDBRANCH  27  29
ENDBRANCH  26  27
ENDBRANCH  25  26
ENDBRANCH   1  25
TORSDOF 17
ENDMDL
MODEL 3
REMARK VINA RESULT:     -11.6      1.712      2.182
REMARK SMILES CCC(CC)([NH2+]CC(=O)Nc1ccc(C)cc1)C(=O)OCCOC(=O)c1ccc(-c2c3nc(c(-c4ccccc4)c4ccc([nH]4)c(-c4ccccc4)c4nc(c(-c5ccccc5)c5ccc2[nH]5)C=C4)C=C3)cc1
REMARK SMILES IDX 21 1 20 2 18 3 19 4 3 5 2 6 1 7 4 8 5 9 6 10 7 13 8 14 9 15
REMARK SMILES IDX 10 16 11 18 12 19 17 20 13 21 16 22 14 23 15 24 22 25 23 26
REMARK SMILES IDX 24 27 25 28 26 29 27 30 73 31 28 32 72 33 29 34 30 35 31 36
REMARK SMILES IDX 66 37 32 38 71 39 65 40 67 41 33 42 70 43 64 44 63 45 34 47
REMARK SMILES IDX 56 48 41 49 55 50 42 51 45 52 54 53 68 54 43 55 44 56 53 58
REMARK SMILES IDX 69 59 46 60 35 61 36 62 40 63 37 64 39 65 38 66 57 67 58 68
REMARK SMILES IDX 62 69 59 70 61 71 60 72 47 73 48 74 52 75 49 76 51 77 50 78
REMARK H PARENT 6 11 6 12 10 17 67 46 45 57
REMARK Flexibility Score: inf
ROOT
ATOM      1  C   UNL A   1      32.752  30.472  26.833  1.00  0.00     0.274 C 
ENDROOT
BRANCH   1   2
ATOM      2  O   UNL A   1      31.708  30.010  25.884  1.00  0.00    -0.457 OA
BRANCH   2   3
ATOM      3  C   UNL A   1      30.823  30.616  25.020  1.00  0.00     0.368 C 
ATOM      4  O   UNL A   1      30.557  31.808  25.110  1.00  0.00    -0.245 OA
BRANCH   3   5
ATOM      5  C   UNL A   1      30.242  29.538  23.743  1.00  0.00     0.194 C 
BRANCH   5   6
ATOM      6  C   UNL A   1      28.870  30.247  23.374  1.00  0.00     0.077 C 
ATOM      7  C   UNL A   1      28.877  31.002  22.000  1.00  0.00     0.011 C 
ENDBRANCH   5   6
BRANCH   5   8
ATOM      8  C   UNL A   1      29.894  28.014  23.322  1.00  0.00     0.077 C 
ATOM      9  C   UNL A   1      28.387  27.636  23.334  1.00  0.00     0.011 C 
ENDBRANCH   5   8
BRANCH   5  10
ATOM     10  N   UNL A   1      31.510  29.546  23.018  1.00  0.00    -0.324 N 
ATOM     11  H   UNL A   1      32.173  30.114  23.544  1.00  0.00     0.347 HD
ATOM     12  H   UNL A   1      31.310  29.919  22.091  1.00  0.00     0.347 HD
BRANCH  10  13
ATOM     13  C   UNL A   1      32.130  28.168  22.803  1.00  0.00     0.363 C 
BRANCH  13  14
ATOM     14  C   UNL A   1      33.446  27.445  23.528  1.00  0.00     0.279 C 
ATOM     15  O   UNL A   1      34.058  28.266  24.239  1.00  0.00    -0.268 OA
ATOM     16  N   UNL A   1      33.835  25.907  23.313  1.00  0.00    -0.321 N 
ATOM     17  H   UNL A   1      33.445  25.619  22.456  1.00  0.00     0.170 HD
BRANCH  16  18
ATOM     18  C   UNL A   1      34.811  24.321  24.109  1.00  0.00     0.041 A 
ATOM     19  C   UNL A   1      35.288  24.135  25.549  1.00  0.00     0.026 A 
ATOM     20  C   UNL A   1      35.548  23.155  23.453  1.00  0.00     0.026 A 
ATOM     21  C   UNL A   1      36.427  23.477  26.024  1.00  0.00     0.005 A 
ATOM     22  C   UNL A   1      36.655  22.417  23.953  1.00  0.00     0.005 A 
ATOM     23  C   UNL A   1      37.173  22.684  25.200  1.00  0.00    -0.051 A 
ATOM     24  C   UNL A   1      38.461  22.139  25.706  1.00  0.00     0.044 C 
ENDBRANCH  16  18
ENDBRANCH  13  14
ENDBRANCH  10  13
ENDBRANCH   5  10
ENDBRANCH   3   5
ENDBRANCH   2   3
ENDBRANCH   1   2
BRANCH   1  25
ATOM     25  C   UNL A   1      32.863  31.905  27.409  1.00  0.00     0.275 C 
BRANCH  25  26
ATOM     26  O   UNL A   1      34.156  32.288  27.838  1.00  0.00    -0.458 OA
BRANCH  26  27
ATOM     27  C   UNL A   1      34.035  33.425  28.522  1.00  0.00     0.338 C 
ATOM     28  O   UNL A   1      33.243  34.328  28.343  1.00  0.00    -0.246 OA
BRANCH  27  29
ATOM     29  C   UNL A   1      35.055  33.368  29.559  1.00  0.00     0.060 A 
ATOM     30  C   UNL A   1      36.757  33.506  28.909  1.00  0.00     0.016 A 
ATOM     31  C   UNL A   1      34.700  32.588  31.183  1.00  0.00     0.016 A 
ATOM     32  C   UNL A   1      38.112  32.665  29.799  1.00  0.00     0.010 A 
ATOM     33  C   UNL A   1      36.110  31.794  32.089  1.00  0.00     0.010 A 
ATOM     34  C   UNL A   1      37.775  31.830  31.348  1.00  0.00    -0.014 A 
BRANCH  34  35
ATOM     35  C   UNL A   1      38.662  30.782  31.800  1.00  0.00     0.031 A 
ATOM     36  C   UNL A   1      38.613  29.531  31.057  1.00  0.00     0.074 A 
ATOM     37  C   UNL A   1      39.742  31.335  32.393  1.00  0.00     0.049 A 
ATOM     38  N   UNL A   1      39.296  28.484  31.360  1.00  0.00    -0.248 NA
ATOM     39  C   UNL A   1      37.670  29.280  29.956  1.00  0.00     0.031 C 
ATOM     40  C   UNL A   1      41.149  31.326  32.018  1.00  0.00     0.029 A 
ATOM     41  N   UNL A   1      39.722  32.261  33.407  1.00  0.00    -0.354 N 
ATOM     42  C   UNL A   1      39.363  27.812  30.163  1.00  0.00     0.074 A 
ATOM     43  C   UNL A   1      38.110  28.098  29.514  1.00  0.00     0.031 C 
ATOM     44  C   UNL A   1      41.856  32.079  32.895  1.00  0.00     0.029 A 
ATOM     45  C   UNL A   1      40.956  32.587  33.930  1.00  0.00     0.049 A 
ATOM     46  H   UNL A   1      38.886  32.663  33.738  1.00  0.00     0.167 HD
ATOM     47  C   UNL A   1      40.600  27.508  29.665  1.00  0.00     0.031 A 
ATOM     48  C   UNL A   1      41.093  32.499  35.284  1.00  0.00     0.031 A 
ATOM     49  C   UNL A   1      41.684  27.921  30.591  1.00  0.00     0.049 A 
ATOM     50  C   UNL A   1      41.614  31.106  35.543  1.00  0.00     0.074 A 
ATOM     51  C   UNL A   1      42.808  28.726  30.485  1.00  0.00     0.029 A 
ATOM     52  N   UNL A   1      41.527  27.704  31.960  1.00  0.00    -0.354 N 
ATOM     53  N   UNL A   1      41.537  30.160  34.646  1.00  0.00    -0.248 NA
ATOM     54  C   UNL A   1      42.370  30.697  36.717  1.00  0.00     0.031 C 
ATOM     55  C   UNL A   1      43.316  28.967  31.804  1.00  0.00     0.029 A 
ATOM     56  C   UNL A   1      42.500  28.316  32.716  1.00  0.00     0.049 A 
ATOM     57  H   UNL A   1      40.796  27.168  32.345  1.00  0.00     0.167 HD
ATOM     58  C   UNL A   1      42.320  29.119  35.005  1.00  0.00     0.074 A 
ATOM     59  C   UNL A   1      42.771  29.465  36.343  1.00  0.00     0.031 C 
ATOM     60  C   UNL A   1      42.543  28.073  34.161  1.00  0.00     0.031 A 
BRANCH  47  61
ATOM     61  C   UNL A   1      40.857  27.040  28.243  1.00  0.00    -0.014 A 
ATOM     62  C   UNL A   1      40.541  25.717  27.890  1.00  0.00     0.009 A 
ATOM     63  C   UNL A   1      41.359  27.837  27.193  1.00  0.00     0.009 A 
ATOM     64  C   UNL A   1      40.688  25.231  26.583  1.00  0.00     0.001 A 
ATOM     65  C   UNL A   1      41.499  27.365  25.880  1.00  0.00     0.001 A 
ATOM     66  C   UNL A   1      41.152  26.061  25.572  1.00  0.00     0.000 A 
ENDBRANCH  47  61
BRANCH  48  67
ATOM     67  C   UNL A   1      40.027  33.238  36.051  1.00  0.00    -0.014 A 
ATOM     68  C   UNL A   1      39.159  32.477  36.865  1.00  0.00     0.009 A 
ATOM     69  C   UNL A   1      40.079  34.624  36.297  1.00  0.00     0.009 A 
ATOM     70  C   UNL A   1      38.434  33.059  37.921  1.00  0.00     0.001 A 
ATOM     71  C   UNL A   1      39.378  35.199  37.377  1.00  0.00     0.001 A 
ATOM     72  C   UNL A   1      38.576  34.414  38.203  1.00  0.00     0.000 A 
ENDBRANCH  48  67
BRANCH  60  73
ATOM     73  C   UNL A   1      42.746  26.667  34.651  1.00  0.00    -0.014 A 
ATOM     74  C   UNL A   1      41.788  25.949  35.373  1.00  0.00     0.009 A 
ATOM     75  C   UNL A   1      43.871  25.944  34.196  1.00  0.00     0.009 A 
ATOM     76  C   UNL A   1      41.961  24.593  35.658  1.00  0.00     0.001 A 
ATOM     77  C   UNL A   1      44.011  24.577  34.410  1.00  0.00     0.001 A 
ATOM     78  C   UNL A   1      43.063  23.905  35.162  1.00  0.00     0.000 A 
ENDBRANCH  60  73
ENDBRANCH  34  35
ENDBRANCH  27  29
ENDBRANCH  26  27
ENDBRANCH  25  26
ENDBRANCH   1  25
TORSDOF 17
ENDMDL
