MODEL 1
REMARK VINA RESULT:     -10.8      0.000      0.000
REMARK SMILES CC(C)c1ccc(NC(=O)C[C@H]2SC[C@@H](C(=O)OCCOC(=O)c3ccc(-c4c5nc(c(-c6ccccc6)c6ccc([nH]6)c(-c6ccccc6)c6nc(c(-c7ccccc7)c7ccc4[nH]7)C=C6)C=C5)cc3)NC2=O)cc1
REMARK SMILES IDX 19 1 18 2 16 3 17 4 15 5 12 6 13 7 73 8 14 9 72 10 74 11
REMARK SMILES IDX 11 13 9 14 8 15 10 17 7 18 4 19 5 20 76 21 6 22 75 23 2 24
REMARK SMILES IDX 1 25 3 26 20 27 21 28 22 29 23 30 24 31 25 32 71 33 26 34
REMARK SMILES IDX 70 35 27 36 28 37 29 38 64 39 30 40 69 41 63 42 65 43 31 44
REMARK SMILES IDX 68 45 62 46 61 47 32 49 54 50 39 51 53 52 40 53 43 54 52 55
REMARK SMILES IDX 66 56 41 57 42 58 51 60 67 61 44 62 33 63 34 64 38 65 35 66
REMARK SMILES IDX 37 67 36 68 55 69 56 70 60 71 57 72 59 73 58 74 45 75 46 76
REMARK SMILES IDX 50 77 47 78 49 79 48 80
REMARK H PARENT 72 12 8 16 65 48 43 59
REMARK Flexibility Score: inf
ROOT
ATOM      1  C   UNL A   1      31.767  29.045  26.159  1.00  0.00     0.274 C 
ENDROOT
BRANCH   1   2
ATOM      2  O   UNL A   1      31.253  29.342  24.846  1.00  0.00    -0.461 OA
BRANCH   2   3
ATOM      3  C   UNL A   1      32.017  28.887  23.816  1.00  0.00     0.329 C 
ATOM      4  O   UNL A   1      33.220  29.081  23.708  1.00  0.00    -0.250 OA
BRANCH   3   5
ATOM      5  C   UNL A   1      31.163  28.225  22.735  1.00  0.00     0.202 C 
ATOM      6  C   UNL A   1      30.918  25.527  24.079  1.00  0.00     0.145 C 
ATOM      7  S   UNL A   1      29.293  26.387  23.918  1.00  0.00    -0.145 SA
ATOM      8  C   UNL A   1      31.959  25.884  23.022  1.00  0.00     0.234 C 
ATOM      9  C   UNL A   1      29.728  27.992  23.166  1.00  0.00     0.107 C 
ATOM     10  N   UNL A   1      31.867  27.035  22.304  1.00  0.00    -0.341 N 
ATOM     11  O   UNL A   1      32.904  25.145  22.744  1.00  0.00    -0.274 OA
ATOM     12  H   UNL A   1      32.312  27.062  21.426  1.00  0.00     0.164 HD
BRANCH   6  13
ATOM     13  C   UNL A   1      31.353  25.485  25.547  1.00  0.00     0.124 C 
BRANCH  13  14
ATOM     14  C   UNL A   1      31.225  24.202  26.353  1.00  0.00     0.226 C 
ATOM     15  N   UNL A   1      32.144  23.197  26.318  1.00  0.00    -0.326 N 
ATOM     16  H   UNL A   1      31.886  22.363  26.774  1.00  0.00     0.169 HD
ATOM     17  O   UNL A   1      30.222  24.013  27.053  1.00  0.00    -0.275 OA
BRANCH  15  18
ATOM     18  C   UNL A   1      33.404  23.196  25.718  1.00  0.00     0.041 A 
ATOM     19  C   UNL A   1      36.015  22.577  24.969  1.00  0.00    -0.045 A 
ATOM     20  C   UNL A   1      35.756  23.705  25.763  1.00  0.00     0.006 A 
ATOM     21  C   UNL A   1      34.935  21.878  24.415  1.00  0.00     0.006 A 
ATOM     22  C   UNL A   1      34.447  24.019  26.132  1.00  0.00     0.026 A 
ATOM     23  C   UNL A   1      33.629  22.207  24.763  1.00  0.00     0.026 A 
BRANCH  19  24
ATOM     24  C   UNL A   1      37.438  22.080  24.796  1.00  0.00     0.013 C 
ATOM     25  C   UNL A   1      38.357  22.671  25.874  1.00  0.00     0.012 C 
ATOM     26  C   UNL A   1      37.497  20.555  24.797  1.00  0.00     0.012 C 
ENDBRANCH  19  24
ENDBRANCH  15  18
ENDBRANCH  13  14
ENDBRANCH   6  13
ENDBRANCH   3   5
ENDBRANCH   2   3
ENDBRANCH   1   2
BRANCH   1  27
ATOM     27  C   UNL A   1      32.516  30.218  26.799  1.00  0.00     0.275 C 
BRANCH  27  28
ATOM     28  O   UNL A   1      33.910  29.929  27.021  1.00  0.00    -0.458 OA
BRANCH  28  29
ATOM     29  C   UNL A   1      34.524  30.722  27.929  1.00  0.00     0.338 C 
ATOM     30  O   UNL A   1      34.025  31.684  28.501  1.00  0.00    -0.246 OA
BRANCH  29  31
ATOM     31  C   UNL A   1      35.841  30.169  28.315  1.00  0.00     0.060 A 
ATOM     32  C   UNL A   1      36.824  30.169  27.322  1.00  0.00     0.016 A 
ATOM     33  C   UNL A   1      36.147  29.674  29.586  1.00  0.00     0.016 A 
ATOM     34  C   UNL A   1      38.121  29.757  27.602  1.00  0.00     0.010 A 
ATOM     35  C   UNL A   1      37.445  29.205  29.857  1.00  0.00     0.010 A 
ATOM     36  C   UNL A   1      38.443  29.263  28.870  1.00  0.00    -0.014 A 
BRANCH  36  37
ATOM     37  C   UNL A   1      39.825  28.768  29.084  1.00  0.00     0.031 A 
ATOM     38  C   UNL A   1      40.769  29.567  29.934  1.00  0.00     0.074 A 
ATOM     39  C   UNL A   1      40.185  27.537  28.674  1.00  0.00     0.049 A 
ATOM     40  N   UNL A   1      41.993  29.286  30.302  1.00  0.00    -0.248 NA
ATOM     41  C   UNL A   1      40.254  30.839  30.467  1.00  0.00     0.031 C 
ATOM     42  C   UNL A   1      39.318  26.596  27.969  1.00  0.00     0.029 A 
ATOM     43  N   UNL A   1      41.363  26.851  28.836  1.00  0.00    -0.354 N 
ATOM     44  C   UNL A   1      42.391  30.339  31.112  1.00  0.00     0.074 A 
ATOM     45  C   UNL A   1      41.275  31.257  31.199  1.00  0.00     0.031 C 
ATOM     46  C   UNL A   1      39.980  25.439  27.794  1.00  0.00     0.029 A 
ATOM     47  C   UNL A   1      41.339  25.579  28.316  1.00  0.00     0.049 A 
ATOM     48  H   UNL A   1      42.152  27.234  29.283  1.00  0.00     0.167 HD
ATOM     49  C   UNL A   1      43.589  30.545  31.709  1.00  0.00     0.031 A 
ATOM     50  C   UNL A   1      42.309  24.646  28.248  1.00  0.00     0.031 A 
ATOM     51  C   UNL A   1      44.729  29.682  31.564  1.00  0.00     0.049 A 
ATOM     52  C   UNL A   1      43.680  24.967  28.784  1.00  0.00     0.074 A 
ATOM     53  C   UNL A   1      46.023  29.878  32.014  1.00  0.00     0.029 A 
ATOM     54  N   UNL A   1      44.711  28.463  30.909  1.00  0.00    -0.354 N 
ATOM     55  N   UNL A   1      44.081  26.013  29.466  1.00  0.00    -0.248 NA
ATOM     56  C   UNL A   1      44.745  23.987  28.513  1.00  0.00     0.031 C 
ATOM     57  C   UNL A   1      46.801  28.796  31.586  1.00  0.00     0.029 A 
ATOM     58  C   UNL A   1      45.977  27.902  30.922  1.00  0.00     0.049 A 
ATOM     59  H   UNL A   1      43.916  28.054  30.493  1.00  0.00     0.167 HD
ATOM     60  C   UNL A   1      45.436  25.816  29.706  1.00  0.00     0.074 A 
ATOM     61  C   UNL A   1      45.784  24.536  29.126  1.00  0.00     0.031 C 
ATOM     62  C   UNL A   1      46.315  26.631  30.338  1.00  0.00     0.031 A 
BRANCH  49  63
ATOM     63  C   UNL A   1      43.742  31.819  32.483  1.00  0.00    -0.014 A 
ATOM     64  C   UNL A   1      44.163  33.005  31.863  1.00  0.00     0.009 A 
ATOM     65  C   UNL A   1      43.484  31.821  33.862  1.00  0.00     0.009 A 
ATOM     66  C   UNL A   1      44.354  34.163  32.620  1.00  0.00     0.001 A 
ATOM     67  C   UNL A   1      43.657  32.984  34.612  1.00  0.00     0.001 A 
ATOM     68  C   UNL A   1      44.100  34.151  33.992  1.00  0.00     0.000 A 
ENDBRANCH  49  63
BRANCH  50  69
ATOM     69  C   UNL A   1      42.061  23.340  27.578  1.00  0.00    -0.014 A 
ATOM     70  C   UNL A   1      41.543  22.250  28.296  1.00  0.00     0.009 A 
ATOM     71  C   UNL A   1      42.405  23.157  26.229  1.00  0.00     0.009 A 
ATOM     72  C   UNL A   1      41.402  21.000  27.684  1.00  0.00     0.001 A 
ATOM     73  C   UNL A   1      42.235  21.916  25.612  1.00  0.00     0.001 A 
ATOM     74  C   UNL A   1      41.745  20.836  26.343  1.00  0.00     0.000 A 
ENDBRANCH  50  69
BRANCH  62  75
ATOM     75  C   UNL A   1      47.740  26.164  30.448  1.00  0.00    -0.014 A 
ATOM     76  C   UNL A   1      48.642  26.331  29.386  1.00  0.00     0.009 A 
ATOM     77  C   UNL A   1      48.200  25.608  31.652  1.00  0.00     0.009 A 
ATOM     78  C   UNL A   1      49.973  25.926  29.521  1.00  0.00     0.001 A 
ATOM     79  C   UNL A   1      49.536  25.227  31.791  1.00  0.00     0.001 A 
ATOM     80  C   UNL A   1      50.420  25.381  30.724  1.00  0.00     0.000 A 
ENDBRANCH  62  75
ENDBRANCH  36  37
ENDBRANCH  29  31
ENDBRANCH  28  29
ENDBRANCH  27  28
ENDBRANCH   1  27
TORSDOF 15
ENDMDL
MODEL 2
REMARK VINA RESULT:     -10.7      0.662      5.945
REMARK SMILES CC(C)c1ccc(NC(=O)C[C@H]2SC[C@@H](C(=O)OCCOC(=O)c3ccc(-c4c5nc(c(-c6ccccc6)c6ccc([nH]6)c(-c6ccccc6)c6nc(c(-c7ccccc7)c7ccc4[nH]7)C=C6)C=C5)cc3)NC2=O)cc1
REMARK SMILES IDX 19 1 18 2 16 3 17 4 15 5 12 6 13 7 73 8 14 9 72 10 74 11
REMARK SMILES IDX 11 13 9 14 8 15 10 17 7 18 4 19 5 20 76 21 6 22 75 23 2 24
REMARK SMILES IDX 1 25 3 26 20 27 21 28 22 29 23 30 24 31 25 32 71 33 26 34
REMARK SMILES IDX 70 35 27 36 28 37 29 38 64 39 30 40 69 41 63 42 65 43 31 44
REMARK SMILES IDX 68 45 62 46 61 47 32 49 54 50 39 51 53 52 40 53 43 54 52 55
REMARK SMILES IDX 66 56 41 57 42 58 51 60 67 61 44 62 33 63 34 64 38 65 35 66
REMARK SMILES IDX 37 67 36 68 55 69 56 70 60 71 57 72 59 73 58 74 45 75 46 76
REMARK SMILES IDX 50 77 47 78 49 79 48 80
REMARK H PARENT 72 12 8 16 65 48 43 59
REMARK Flexibility Score: inf
ROOT
ATOM      1  C   UNL A   1      31.712  28.852  25.867  1.00  0.00     0.274 C 
ENDROOT
BRANCH   1   2
ATOM      2  O   UNL A   1      31.341  29.384  24.580  1.00  0.00    -0.461 OA
BRANCH   2   3
ATOM      3  C   UNL A   1      31.976  28.813  23.521  1.00  0.00     0.329 C 
ATOM      4  O   UNL A   1      33.186  28.839  23.343  1.00  0.00    -0.250 OA
BRANCH   3   5
ATOM      5  C   UNL A   1      30.981  28.258  22.503  1.00  0.00     0.202 C 
ATOM      6  C   UNL A   1      30.454  25.636  23.916  1.00  0.00     0.145 C 
ATOM      7  S   UNL A   1      28.952  26.706  23.828  1.00  0.00    -0.145 SA
ATOM      8  C   UNL A   1      31.469  25.835  22.795  1.00  0.00     0.234 C 
ATOM      9  C   UNL A   1      29.554  28.227  23.018  1.00  0.00     0.107 C 
ATOM     10  N   UNL A   1      31.492  26.978  22.060  1.00  0.00    -0.341 N 
ATOM     11  O   UNL A   1      32.290  24.971  22.481  1.00  0.00    -0.274 OA
ATOM     12  H   UNL A   1      31.884  26.932  21.158  1.00  0.00     0.164 HD
BRANCH   6  13
ATOM     13  C   UNL A   1      30.964  25.556  25.358  1.00  0.00     0.124 C 
BRANCH  13  14
ATOM     14  C   UNL A   1      30.877  24.251  26.135  1.00  0.00     0.226 C 
ATOM     15  N   UNL A   1      31.844  23.292  26.104  1.00  0.00    -0.326 N 
ATOM     16  H   UNL A   1      31.615  22.438  26.536  1.00  0.00     0.169 HD
ATOM     17  O   UNL A   1      29.867  24.000  26.804  1.00  0.00    -0.275 OA
BRANCH  15  18
ATOM     18  C   UNL A   1      33.117  23.364  25.537  1.00  0.00     0.041 A 
ATOM     19  C   UNL A   1      35.794  22.932  24.897  1.00  0.00    -0.045 A 
ATOM     20  C   UNL A   1      35.413  24.082  25.605  1.00  0.00     0.006 A 
ATOM     21  C   UNL A   1      34.796  22.104  24.365  1.00  0.00     0.006 A 
ATOM     22  C   UNL A   1      34.071  24.302  25.919  1.00  0.00     0.026 A 
ATOM     23  C   UNL A   1      33.457  22.338  24.657  1.00  0.00     0.026 A 
BRANCH  19  24
ATOM     24  C   UNL A   1      37.259  22.552  24.794  1.00  0.00     0.013 C 
ATOM     25  C   UNL A   1      38.074  23.216  25.913  1.00  0.00     0.012 C 
ATOM     26  C   UNL A   1      37.443  21.038  24.803  1.00  0.00     0.012 C 
ENDBRANCH  19  24
ENDBRANCH  15  18
ENDBRANCH  13  14
ENDBRANCH   6  13
ENDBRANCH   3   5
ENDBRANCH   2   3
ENDBRANCH   1   2
BRANCH   1  27
ATOM     27  C   UNL A   1      32.333  29.896  26.800  1.00  0.00     0.275 C 
BRANCH  27  28
ATOM     28  O   UNL A   1      33.702  29.592  27.136  1.00  0.00    -0.458 OA
BRANCH  28  29
ATOM     29  C   UNL A   1      34.383  30.596  27.736  1.00  0.00     0.338 C 
ATOM     30  O   UNL A   1      33.910  31.660  28.120  1.00  0.00    -0.246 OA
BRANCH  29  31
ATOM     31  C   UNL A   1      35.764  30.179  28.066  1.00  0.00     0.060 A 
ATOM     32  C   UNL A   1      35.981  29.751  29.378  1.00  0.00     0.016 A 
ATOM     33  C   UNL A   1      36.826  30.181  27.157  1.00  0.00     0.016 A 
ATOM     34  C   UNL A   1      37.219  29.254  29.769  1.00  0.00     0.010 A 
ATOM     35  C   UNL A   1      38.094  29.730  27.567  1.00  0.00     0.010 A 
ATOM     36  C   UNL A   1      38.289  29.245  28.871  1.00  0.00    -0.014 A 
BRANCH  36  37
ATOM     37  C   UNL A   1      39.603  28.773  29.372  1.00  0.00     0.031 A 
ATOM     38  C   UNL A   1      40.121  27.435  28.930  1.00  0.00     0.074 A 
ATOM     39  C   UNL A   1      40.408  29.595  30.071  1.00  0.00     0.049 A 
ATOM     40  N   UNL A   1      41.267  26.862  29.194  1.00  0.00    -0.248 NA
ATOM     41  C   UNL A   1      39.241  26.651  28.047  1.00  0.00     0.031 C 
ATOM     42  C   UNL A   1      40.091  30.973  30.439  1.00  0.00     0.029 A 
ATOM     43  N   UNL A   1      41.679  29.403  30.553  1.00  0.00    -0.354 N 
ATOM     44  C   UNL A   1      41.250  25.657  28.506  1.00  0.00     0.074 A 
ATOM     45  C   UNL A   1      39.990  25.587  27.799  1.00  0.00     0.031 C 
ATOM     46  C   UNL A   1      41.156  31.516  31.055  1.00  0.00     0.029 A 
ATOM     47  C   UNL A   1      42.205  30.506  31.183  1.00  0.00     0.049 A 
ATOM     48  H   UNL A   1      42.169  28.554  30.457  1.00  0.00     0.167 HD
ATOM     49  C   UNL A   1      42.185  24.677  28.487  1.00  0.00     0.031 A 
ATOM     50  C   UNL A   1      43.385  30.671  31.811  1.00  0.00     0.031 A 
ATOM     51  C   UNL A   1      43.403  24.700  29.249  1.00  0.00     0.049 A 
ATOM     52  C   UNL A   1      44.340  29.509  31.906  1.00  0.00     0.074 A 
ATOM     53  C   UNL A   1      44.344  23.697  29.404  1.00  0.00     0.029 A 
ATOM     54  N   UNL A   1      43.842  25.782  29.994  1.00  0.00    -0.354 N 
ATOM     55  N   UNL A   1      44.272  28.331  31.335  1.00  0.00    -0.248 NA
ATOM     56  C   UNL A   1      45.524  29.691  32.763  1.00  0.00     0.031 C 
ATOM     57  C   UNL A   1      45.329  24.157  30.284  1.00  0.00     0.029 A 
ATOM     58  C   UNL A   1      45.030  25.465  30.629  1.00  0.00     0.049 A 
ATOM     59  H   UNL A   1      43.377  26.648  30.063  1.00  0.00     0.167 HD
ATOM     60  C   UNL A   1      45.400  27.636  31.758  1.00  0.00     0.074 A 
ATOM     61  C   UNL A   1      46.152  28.534  32.608  1.00  0.00     0.031 C 
ATOM     62  C   UNL A   1      45.769  26.363  31.477  1.00  0.00     0.031 A 
BRANCH  49  63
ATOM     63  C   UNL A   1      41.854  23.452  27.690  1.00  0.00    -0.014 A 
ATOM     64  C   UNL A   1      41.090  22.410  28.236  1.00  0.00     0.009 A 
ATOM     65  C   UNL A   1      42.343  23.331  26.381  1.00  0.00     0.009 A 
ATOM     66  C   UNL A   1      40.848  21.254  27.491  1.00  0.00     0.001 A 
ATOM     67  C   UNL A   1      42.082  22.183  25.632  1.00  0.00     0.001 A 
ATOM     68  C   UNL A   1      41.343  21.142  26.191  1.00  0.00     0.000 A 
ENDBRANCH  49  63
BRANCH  50  69
ATOM     69  C   UNL A   1      43.717  31.960  32.477  1.00  0.00    -0.014 A 
ATOM     70  C   UNL A   1      43.300  32.220  33.793  1.00  0.00     0.009 A 
ATOM     71  C   UNL A   1      44.399  32.968  31.775  1.00  0.00     0.009 A 
ATOM     72  C   UNL A   1      43.534  33.468  34.378  1.00  0.00     0.001 A 
ATOM     73  C   UNL A   1      44.658  34.202  32.373  1.00  0.00     0.001 A 
ATOM     74  C   UNL A   1      44.215  34.456  33.669  1.00  0.00     0.000 A 
ENDBRANCH  50  69
BRANCH  62  75
ATOM     75  C   UNL A   1      47.049  25.861  32.085  1.00  0.00    -0.014 A 
ATOM     76  C   UNL A   1      47.059  25.230  33.339  1.00  0.00     0.009 A 
ATOM     77  C   UNL A   1      48.250  25.965  31.366  1.00  0.00     0.009 A 
ATOM     78  C   UNL A   1      48.253  24.735  33.871  1.00  0.00     0.001 A 
ATOM     79  C   UNL A   1      49.437  25.447  31.889  1.00  0.00     0.001 A 
ATOM     80  C   UNL A   1      49.438  24.838  33.143  1.00  0.00     0.000 A 
ENDBRANCH  62  75
ENDBRANCH  36  37
ENDBRANCH  29  31
ENDBRANCH  28  29
ENDBRANCH  27  28
ENDBRANCH   1  27
TORSDOF 15
ENDMDL
MODEL 3
REMARK VINA RESULT:     -10.6      1.312      1.909
REMARK SMILES CC(C)c1ccc(NC(=O)C[C@H]2SC[C@@H](C(=O)OCCOC(=O)c3ccc(-c4c5nc(c(-c6ccccc6)c6ccc([nH]6)c(-c6ccccc6)c6nc(c(-c7ccccc7)c7ccc4[nH]7)C=C6)C=C5)cc3)NC2=O)cc1
REMARK SMILES IDX 19 1 18 2 16 3 17 4 15 5 12 6 13 7 73 8 14 9 72 10 74 11
REMARK SMILES IDX 11 13 9 14 8 15 10 17 7 18 4 19 5 20 76 21 6 22 75 23 2 24
REMARK SMILES IDX 1 25 3 26 20 27 21 28 22 29 23 30 24 31 25 32 71 33 26 34
REMARK SMILES IDX 70 35 27 36 28 37 29 38 64 39 30 40 69 41 63 42 65 43 31 44
REMARK SMILES IDX 68 45 62 46 61 47 32 49 54 50 39 51 53 52 40 53 43 54 52 55
REMARK SMILES IDX 66 56 41 57 42 58 51 60 67 61 44 62 33 63 34 64 38 65 35 66
REMARK SMILES IDX 37 67 36 68 55 69 56 70 60 71 57 72 59 73 58 74 45 75 46 76
REMARK SMILES IDX 50 77 47 78 49 79 48 80
REMARK H PARENT 72 12 8 16 65 48 43 59
REMARK Flexibility Score: inf
ROOT
ATOM      1  C   UNL A   1      32.842  29.420  25.411  1.00  0.00     0.274 C 
ENDROOT
BRANCH   1   2
ATOM      2  O   UNL A   1      31.767  28.879  24.618  1.00  0.00    -0.461 OA
BRANCH   2   3
ATOM      3  C   UNL A   1      32.105  28.562  23.339  1.00  0.00     0.329 C 
ATOM      4  O   UNL A   1      33.096  28.984  22.759  1.00  0.00    -0.250 OA
BRANCH   3   5
ATOM      5  C   UNL A   1      31.019  27.726  22.663  1.00  0.00     0.202 C 
ATOM      6  C   UNL A   1      32.428  25.059  22.895  1.00  0.00     0.145 C 
ATOM      7  S   UNL A   1      30.862  25.119  23.871  1.00  0.00    -0.145 SA
ATOM      8  C   UNL A   1      32.474  25.967  21.669  1.00  0.00     0.234 C 
ATOM      9  C   UNL A   1      30.269  26.828  23.628  1.00  0.00     0.107 C 
ATOM     10  N   UNL A   1      31.640  27.035  21.553  1.00  0.00    -0.341 N 
ATOM     11  O   UNL A   1      33.235  25.766  20.722  1.00  0.00    -0.274 OA
ATOM     12  H   UNL A   1      31.444  27.362  20.645  1.00  0.00     0.164 HD
BRANCH   6  13
ATOM     13  C   UNL A   1      33.637  25.038  23.834  1.00  0.00     0.124 C 
BRANCH  13  14
ATOM     14  C   UNL A   1      33.457  24.759  25.318  1.00  0.00     0.226 C 
ATOM     15  N   UNL A   1      33.344  23.505  25.839  1.00  0.00    -0.326 N 
ATOM     16  H   UNL A   1      33.096  23.456  26.790  1.00  0.00     0.169 HD
ATOM     17  O   UNL A   1      33.359  25.701  26.113  1.00  0.00    -0.275 OA
BRANCH  15  18
ATOM     18  C   UNL A   1      33.536  22.280  25.198  1.00  0.00     0.041 A 
ATOM     19  C   UNL A   1      33.592  19.569  24.561  1.00  0.00    -0.045 A 
ATOM     20  C   UNL A   1      34.780  20.246  24.876  1.00  0.00     0.006 A 
ATOM     21  C   UNL A   1      32.415  20.310  24.396  1.00  0.00     0.006 A 
ATOM     22  C   UNL A   1      34.753  21.606  25.188  1.00  0.00     0.026 A 
ATOM     23  C   UNL A   1      32.393  21.671  24.683  1.00  0.00     0.026 A 
BRANCH  19  24
ATOM     24  C   UNL A   1      33.576  18.054  24.492  1.00  0.00     0.013 C 
ATOM     25  C   UNL A   1      32.696  17.466  25.605  1.00  0.00     0.012 C 
ATOM     26  C   UNL A   1      33.125  17.565  23.119  1.00  0.00     0.012 C 
ENDBRANCH  19  24
ENDBRANCH  15  18
ENDBRANCH  13  14
ENDBRANCH   6  13
ENDBRANCH   3   5
ENDBRANCH   2   3
ENDBRANCH   1   2
BRANCH   1  27
ATOM     27  C   UNL A   1      32.397  29.885  26.801  1.00  0.00     0.275 C 
BRANCH  27  28
ATOM     28  O   UNL A   1      33.437  29.748  27.790  1.00  0.00    -0.458 OA
BRANCH  28  29
ATOM     29  C   UNL A   1      34.396  30.702  27.751  1.00  0.00     0.338 C 
ATOM     30  O   UNL A   1      34.219  31.895  27.533  1.00  0.00    -0.246 OA
BRANCH  29  31
ATOM     31  C   UNL A   1      35.698  30.166  28.204  1.00  0.00     0.060 A 
ATOM     32  C   UNL A   1      36.729  30.172  27.262  1.00  0.00     0.016 A 
ATOM     33  C   UNL A   1      35.945  29.681  29.492  1.00  0.00     0.016 A 
ATOM     34  C   UNL A   1      38.015  29.776  27.609  1.00  0.00     0.010 A 
ATOM     35  C   UNL A   1      37.234  29.228  29.830  1.00  0.00     0.010 A 
ATOM     36  C   UNL A   1      38.279  29.292  28.894  1.00  0.00    -0.014 A 
BRANCH  36  37
ATOM     37  C   UNL A   1      39.654  28.814  29.180  1.00  0.00     0.031 A 
ATOM     38  C   UNL A   1      40.531  29.608  30.103  1.00  0.00     0.074 A 
ATOM     39  C   UNL A   1      40.058  27.599  28.764  1.00  0.00     0.049 A 
ATOM     40  N   UNL A   1      41.736  29.337  30.538  1.00  0.00    -0.248 NA
ATOM     41  C   UNL A   1      39.964  30.858  30.633  1.00  0.00     0.031 C 
ATOM     42  C   UNL A   1      39.251  26.661  27.988  1.00  0.00     0.029 A 
ATOM     43  N   UNL A   1      41.236  26.927  28.982  1.00  0.00    -0.354 N 
ATOM     44  C   UNL A   1      42.067  30.376  31.394  1.00  0.00     0.074 A 
ATOM     45  C   UNL A   1      40.932  31.274  31.434  1.00  0.00     0.031 C 
ATOM     46  C   UNL A   1      39.943  25.519  27.827  1.00  0.00     0.029 A 
ATOM     47  C   UNL A   1      41.265  25.667  28.433  1.00  0.00     0.049 A 
ATOM     48  H   UNL A   1      41.991  27.312  29.485  1.00  0.00     0.167 HD
ATOM     49  C   UNL A   1      43.223  30.587  32.067  1.00  0.00     0.031 A 
ATOM     50  C   UNL A   1      42.253  24.752  28.402  1.00  0.00     0.031 A 
ATOM     51  C   UNL A   1      44.384  29.746  31.971  1.00  0.00     0.049 A 
ATOM     52  C   UNL A   1      43.584  25.082  29.027  1.00  0.00     0.074 A 
ATOM     53  C   UNL A   1      45.646  29.951  32.502  1.00  0.00     0.029 A 
ATOM     54  N   UNL A   1      44.427  28.542  31.288  1.00  0.00    -0.354 N 
ATOM     55  N   UNL A   1      43.926  26.118  29.755  1.00  0.00    -0.248 NA
ATOM     56  C   UNL A   1      44.680  24.125  28.798  1.00  0.00     0.031 C 
ATOM     57  C   UNL A   1      46.466  28.892  32.098  1.00  0.00     0.029 A 
ATOM     58  C   UNL A   1      45.699  28.001  31.365  1.00  0.00     0.049 A 
ATOM     59  H   UNL A   1      43.665  28.131  30.816  1.00  0.00     0.167 HD
ATOM     60  C   UNL A   1      45.267  25.936  30.072  1.00  0.00     0.074 A 
ATOM     61  C   UNL A   1      45.671  24.676  29.485  1.00  0.00     0.031 C 
ATOM     62  C   UNL A   1      46.092  26.749  30.774  1.00  0.00     0.031 A 
BRANCH  49  63
ATOM     63  C   UNL A   1      43.307  31.845  32.877  1.00  0.00    -0.014 A 
ATOM     64  C   UNL A   1      43.723  33.056  32.305  1.00  0.00     0.009 A 
ATOM     65  C   UNL A   1      42.991  31.804  34.243  1.00  0.00     0.009 A 
ATOM     66  C   UNL A   1      43.849  34.199  33.097  1.00  0.00     0.001 A 
ATOM     67  C   UNL A   1      43.099  32.953  35.028  1.00  0.00     0.001 A 
ATOM     68  C   UNL A   1      43.537  34.146  34.455  1.00  0.00     0.000 A 
ENDBRANCH  49  63
BRANCH  50  69
ATOM     69  C   UNL A   1      42.068  23.458  27.689  1.00  0.00    -0.014 A 
ATOM     70  C   UNL A   1      42.502  23.297  26.364  1.00  0.00     0.009 A 
ATOM     71  C   UNL A   1      41.394  22.395  28.312  1.00  0.00     0.009 A 
ATOM     72  C   UNL A   1      42.240  22.111  25.671  1.00  0.00     0.001 A 
ATOM     73  C   UNL A   1      41.161  21.201  27.628  1.00  0.00     0.001 A 
ATOM     74  C   UNL A   1      41.573  21.064  26.304  1.00  0.00     0.000 A 
ENDBRANCH  50  69
BRANCH  62  75
ATOM     75  C   UNL A   1      47.516  26.303  30.959  1.00  0.00    -0.014 A 
ATOM     76  C   UNL A   1      47.934  25.688  32.149  1.00  0.00     0.009 A 
ATOM     77  C   UNL A   1      48.434  26.444  29.907  1.00  0.00     0.009 A 
ATOM     78  C   UNL A   1      49.253  25.245  32.290  1.00  0.00     0.001 A 
ATOM     79  C   UNL A   1      49.743  25.978  30.041  1.00  0.00     0.001 A 
ATOM     80  C   UNL A   1      50.153  25.384  31.234  1.00  0.00     0.000 A 
ENDBRANCH  62  75
ENDBRANCH  36  37
ENDBRANCH  29  31
ENDBRANCH  28  29
ENDBRANCH  27  28
ENDBRANCH   1  27
TORSDOF 15
ENDMDL
