MODEL 1
REMARK VINA RESULT:     -10.1      0.000      0.000
REMARK SMILES CSc1nc(O)nc(C)c1C(=O)N1C[C@@H](O)C[C@@H]1C(=O)OCCOC(=O)c1ccc(-c2c3nc(c(-c4ccccc4)c4ccc([nH]4)c(-c4ccccc4)c4nc(c(-c5ccccc5)c5ccc2[nH]5)C=C4)C=C3)cc1
REMARK SMILES IDX 22 1 21 2 19 3 20 4 18 5 13 6 14 7 15 8 17 9 11 10 12 11
REMARK SMILES IDX 10 12 3 13 4 14 5 15 8 16 7 17 9 18 2 19 1 20 6 21 16 23
REMARK SMILES IDX 23 25 24 26 25 27 26 28 27 29 28 30 74 31 29 32 73 33 30 34
REMARK SMILES IDX 31 35 32 36 67 37 33 38 72 39 66 40 68 41 34 42 71 43 65 44
REMARK SMILES IDX 64 45 35 47 57 48 42 49 56 50 43 51 46 52 55 53 69 54 44 55
REMARK SMILES IDX 45 56 54 58 70 59 47 60 36 61 37 62 41 63 38 64 40 65 39 66
REMARK SMILES IDX 58 67 59 68 63 69 60 70 62 71 61 72 48 73 49 74 53 75 50 76
REMARK SMILES IDX 52 77 51 78
REMARK H PARENT 6 22 16 24 68 46 46 57
REMARK Flexibility Score: inf
ROOT
ATOM      1  C   UNL A   1      31.785  30.014  25.736  1.00  0.00     0.274 C 
ENDROOT
BRANCH   1   2
ATOM      2  O   UNL A   1      31.743  28.683  25.175  1.00  0.00    -0.461 OA
BRANCH   2   3
ATOM      3  C   UNL A   1      32.618  28.414  24.172  1.00  0.00     0.329 C 
ATOM      4  O   UNL A   1      33.438  29.219  23.745  1.00  0.00    -0.250 OA
BRANCH   3   5
ATOM      5  C   UNL A   1      32.525  26.972  23.649  1.00  0.00     0.198 C 
ATOM      6  N   UNL A   1      33.655  26.119  23.998  1.00  0.00    -0.322 N 
ATOM      7  C   UNL A   1      33.618  24.995  23.078  1.00  0.00     0.152 C 
ATOM      8  C   UNL A   1      33.275  25.628  21.742  1.00  0.00     0.136 C 
ATOM      9  C   UNL A   1      32.431  26.853  22.118  1.00  0.00     0.071 C 
BRANCH   6  10
ATOM     10  C   UNL A   1      33.858  25.817  25.331  1.00  0.00     0.259 C 
ATOM     11  O   UNL A   1      34.185  26.684  26.135  1.00  0.00    -0.269 OA
BRANCH  10  12
ATOM     12  C   UNL A   1      33.720  24.391  25.732  1.00  0.00     0.093 A 
ATOM     13  C   UNL A   1      32.509  23.748  26.025  1.00  0.00     0.116 A 
ATOM     14  N   UNL A   1      32.451  22.468  26.457  1.00  0.00    -0.188 NA
ATOM     15  C   UNL A   1      33.611  21.858  26.644  1.00  0.00     0.315 A 
ATOM     16  C   UNL A   1      34.869  23.606  25.902  1.00  0.00     0.058 A 
ATOM     17  N   UNL A   1      34.820  22.341  26.390  1.00  0.00    -0.200 NA
ATOM     18  C   UNL A   1      36.272  24.076  25.627  1.00  0.00     0.068 C 
BRANCH  13  19
ATOM     19  S   UNL A   1      30.885  24.498  26.125  1.00  0.00    -0.109 SA
ATOM     20  C   UNL A   1      29.931  23.158  26.878  1.00  0.00     0.092 C 
ENDBRANCH  13  19
BRANCH  15  21
ATOM     21  O   UNL A   1      33.598  20.644  27.250  1.00  0.00    -0.479 OA
ATOM     22  H   UNL A   1      33.347  20.573  28.149  1.00  0.00     0.297 HD
ENDBRANCH  15  21
ENDBRANCH  10  12
ENDBRANCH   6  10
BRANCH   8  23
ATOM     23  O   UNL A   1      32.547  24.736  20.916  1.00  0.00    -0.391 OA
ATOM     24  H   UNL A   1      32.327  25.176  20.080  1.00  0.00     0.211 HD
ENDBRANCH   8  23
ENDBRANCH   3   5
ENDBRANCH   2   3
ENDBRANCH   1   2
BRANCH   1  25
ATOM     25  C   UNL A   1      32.319  30.016  27.172  1.00  0.00     0.275 C 
BRANCH  25  26
ATOM     26  O   UNL A   1      33.743  29.822  27.188  1.00  0.00    -0.458 OA
BRANCH  26  27
ATOM     27  C   UNL A   1      34.455  30.767  27.837  1.00  0.00     0.338 C 
ATOM     28  O   UNL A   1      34.067  31.858  28.230  1.00  0.00    -0.246 OA
BRANCH  27  29
ATOM     29  C   UNL A   1      35.769  30.210  28.171  1.00  0.00     0.060 A 
ATOM     30  C   UNL A   1      35.949  29.656  29.442  1.00  0.00     0.016 A 
ATOM     31  C   UNL A   1      36.815  30.244  27.251  1.00  0.00     0.016 A 
ATOM     32  C   UNL A   1      37.167  29.098  29.794  1.00  0.00     0.010 A 
ATOM     33  C   UNL A   1      38.049  29.705  27.612  1.00  0.00     0.010 A 
ATOM     34  C   UNL A   1      38.225  29.130  28.882  1.00  0.00    -0.014 A 
BRANCH  34  35
ATOM     35  C   UNL A   1      39.540  28.630  29.310  1.00  0.00     0.031 A 
ATOM     36  C   UNL A   1      40.341  29.435  30.283  1.00  0.00     0.074 A 
ATOM     37  C   UNL A   1      39.971  27.433  28.874  1.00  0.00     0.049 A 
ATOM     38  N   UNL A   1      41.525  29.188  30.775  1.00  0.00    -0.248 NA
ATOM     39  C   UNL A   1      39.723  30.678  30.780  1.00  0.00     0.031 C 
ATOM     40  C   UNL A   1      39.219  26.535  27.997  1.00  0.00     0.029 A 
ATOM     41  N   UNL A   1      41.139  26.764  29.124  1.00  0.00    -0.354 N 
ATOM     42  C   UNL A   1      41.795  30.240  31.637  1.00  0.00     0.074 A 
ATOM     43  C   UNL A   1      40.664  31.139  31.591  1.00  0.00     0.031 C 
ATOM     44  C   UNL A   1      39.950  25.428  27.781  1.00  0.00     0.029 A 
ATOM     45  C   UNL A   1      41.229  25.559  28.475  1.00  0.00     0.049 A 
ATOM     46  H   UNL A   1      41.847  27.114  29.712  1.00  0.00     0.167 HD
ATOM     47  C   UNL A   1      42.894  30.428  32.401  1.00  0.00     0.031 A 
ATOM     48  C   UNL A   1      42.239  24.670  28.432  1.00  0.00     0.031 A 
ATOM     49  C   UNL A   1      44.014  29.532  32.427  1.00  0.00     0.049 A 
ATOM     50  C   UNL A   1      43.494  24.956  29.207  1.00  0.00     0.074 A 
ATOM     51  C   UNL A   1      45.184  29.644  33.154  1.00  0.00     0.029 A 
ATOM     52  N   UNL A   1      44.102  28.360  31.692  1.00  0.00    -0.354 N 
ATOM     53  N   UNL A   1      43.754  25.969  29.999  1.00  0.00    -0.248 NA
ATOM     54  C   UNL A   1      44.592  23.989  29.082  1.00  0.00     0.031 C 
ATOM     55  C   UNL A   1      46.003  28.563  32.823  1.00  0.00     0.029 A 
ATOM     56  C   UNL A   1      45.320  27.751  31.930  1.00  0.00     0.049 A 
ATOM     57  H   UNL A   1      43.404  28.014  31.091  1.00  0.00     0.167 HD
ATOM     58  C   UNL A   1      45.037  25.753  30.482  1.00  0.00     0.074 A 
ATOM     59  C   UNL A   1      45.502  24.511  29.896  1.00  0.00     0.031 C 
ATOM     60  C   UNL A   1      45.761  26.515  31.335  1.00  0.00     0.031 A 
BRANCH  47  61
ATOM     61  C   UNL A   1      42.951  31.658  33.254  1.00  0.00    -0.014 A 
ATOM     62  C   UNL A   1      42.392  31.670  34.541  1.00  0.00     0.009 A 
ATOM     63  C   UNL A   1      43.646  32.788  32.797  1.00  0.00     0.009 A 
ATOM     64  C   UNL A   1      42.527  32.797  35.354  1.00  0.00     0.001 A 
ATOM     65  C   UNL A   1      43.795  33.905  33.620  1.00  0.00     0.001 A 
ATOM     66  C   UNL A   1      43.235  33.909  34.897  1.00  0.00     0.000 A 
ENDBRANCH  47  61
BRANCH  48  67
ATOM     67  C   UNL A   1      42.090  23.439  27.617  1.00  0.00    -0.014 A 
ATOM     68  C   UNL A   1      42.558  23.397  26.296  1.00  0.00     0.009 A 
ATOM     69  C   UNL A   1      41.537  22.277  28.180  1.00  0.00     0.009 A 
ATOM     70  C   UNL A   1      42.477  22.215  25.556  1.00  0.00     0.001 A 
ATOM     71  C   UNL A   1      41.476  21.091  27.445  1.00  0.00     0.001 A 
ATOM     72  C   UNL A   1      41.945  21.062  26.133  1.00  0.00     0.000 A 
ENDBRANCH  48  67
BRANCH  60  73
ATOM     73  C   UNL A   1      47.133  26.042  31.714  1.00  0.00    -0.014 A 
ATOM     74  C   UNL A   1      48.253  26.420  30.960  1.00  0.00     0.009 A 
ATOM     75  C   UNL A   1      47.317  25.343  32.917  1.00  0.00     0.009 A 
ATOM     76  C   UNL A   1      49.538  26.108  31.409  1.00  0.00     0.001 A 
ATOM     77  C   UNL A   1      48.603  25.052  33.373  1.00  0.00     0.001 A 
ATOM     78  C   UNL A   1      49.711  25.435  32.619  1.00  0.00     0.000 A 
ENDBRANCH  60  73
ENDBRANCH  34  35
ENDBRANCH  27  29
ENDBRANCH  26  27
ENDBRANCH  25  26
ENDBRANCH   1  25
TORSDOF 16
ENDMDL
MODEL 2
REMARK VINA RESULT:     -10.1      1.309      6.603
REMARK SMILES CSc1nc(O)nc(C)c1C(=O)N1C[C@@H](O)C[C@@H]1C(=O)OCCOC(=O)c1ccc(-c2c3nc(c(-c4ccccc4)c4ccc([nH]4)c(-c4ccccc4)c4nc(c(-c5ccccc5)c5ccc2[nH]5)C=C4)C=C3)cc1
REMARK SMILES IDX 22 1 21 2 19 3 20 4 18 5 13 6 14 7 15 8 17 9 11 10 12 11
REMARK SMILES IDX 10 12 3 13 4 14 5 15 8 16 7 17 9 18 2 19 1 20 6 21 16 23
REMARK SMILES IDX 23 25 24 26 25 27 26 28 27 29 28 30 74 31 29 32 73 33 30 34
REMARK SMILES IDX 31 35 32 36 67 37 33 38 72 39 66 40 68 41 34 42 71 43 65 44
REMARK SMILES IDX 64 45 35 47 57 48 42 49 56 50 43 51 46 52 55 53 69 54 44 55
REMARK SMILES IDX 45 56 54 58 70 59 47 60 36 61 37 62 41 63 38 64 40 65 39 66
REMARK SMILES IDX 58 67 59 68 63 69 60 70 62 71 61 72 48 73 49 74 53 75 50 76
REMARK SMILES IDX 52 77 51 78
REMARK H PARENT 6 22 16 24 68 46 46 57
REMARK Flexibility Score: inf
ROOT
ATOM      1  C   UNL A   1      32.085  27.687  27.099  1.00  0.00     0.274 C 
ENDROOT
BRANCH   1   2
ATOM      2  O   UNL A   1      31.011  27.362  26.188  1.00  0.00    -0.461 OA
BRANCH   2   3
ATOM      3  C   UNL A   1      31.068  26.147  25.584  1.00  0.00     0.329 C 
ATOM      4  O   UNL A   1      30.478  25.870  24.546  1.00  0.00    -0.250 OA
BRANCH   3   5
ATOM      5  C   UNL A   1      31.997  25.152  26.298  1.00  0.00     0.198 C 
ATOM      6  N   UNL A   1      32.856  24.372  25.415  1.00  0.00    -0.322 N 
ATOM      7  C   UNL A   1      33.298  23.223  26.186  1.00  0.00     0.152 C 
ATOM      8  C   UNL A   1      32.055  22.788  26.940  1.00  0.00     0.136 C 
ATOM      9  C   UNL A   1      31.268  24.089  27.138  1.00  0.00     0.071 C 
BRANCH   6  10
ATOM     10  C   UNL A   1      33.825  25.039  24.691  1.00  0.00     0.259 C 
ATOM     11  O   UNL A   1      34.832  25.479  25.235  1.00  0.00    -0.269 OA
BRANCH  10  12
ATOM     12  C   UNL A   1      33.564  25.252  23.242  1.00  0.00     0.093 A 
ATOM     13  C   UNL A   1      33.454  26.502  22.617  1.00  0.00     0.116 A 
ATOM     14  N   UNL A   1      33.141  26.635  21.308  1.00  0.00    -0.188 NA
ATOM     15  C   UNL A   1      32.888  25.516  20.647  1.00  0.00     0.315 A 
ATOM     16  C   UNL A   1      33.344  24.146  22.410  1.00  0.00     0.058 A 
ATOM     17  N   UNL A   1      32.974  24.276  21.110  1.00  0.00    -0.200 NA
ATOM     18  C   UNL A   1      33.431  22.711  22.855  1.00  0.00     0.068 C 
BRANCH  13  19
ATOM     19  S   UNL A   1      33.459  28.109  23.407  1.00  0.00    -0.109 SA
ATOM     20  C   UNL A   1      31.829  28.734  22.932  1.00  0.00     0.092 C 
ENDBRANCH  13  19
BRANCH  15  21
ATOM     21  O   UNL A   1      32.393  25.621  19.389  1.00  0.00    -0.479 OA
ATOM     22  H   UNL A   1      32.819  26.174  18.764  1.00  0.00     0.297 HD
ENDBRANCH  15  21
ENDBRANCH  10  12
ENDBRANCH   6  10
BRANCH   8  23
ATOM     23  O   UNL A   1      32.383  22.191  28.182  1.00  0.00    -0.391 OA
ATOM     24  H   UNL A   1      32.229  22.828  28.898  1.00  0.00     0.211 HD
ENDBRANCH   8  23
ENDBRANCH   3   5
ENDBRANCH   2   3
ENDBRANCH   1   2
BRANCH   1  25
ATOM     25  C   UNL A   1      32.509  29.154  26.990  1.00  0.00     0.275 C 
BRANCH  25  26
ATOM     26  O   UNL A   1      33.941  29.275  27.005  1.00  0.00    -0.458 OA
BRANCH  26  27
ATOM     27  C   UNL A   1      34.434  30.312  27.716  1.00  0.00     0.338 C 
ATOM     28  O   UNL A   1      33.845  31.324  28.067  1.00  0.00    -0.246 OA
BRANCH  27  29
ATOM     29  C   UNL A   1      35.782  29.961  28.173  1.00  0.00     0.060 A 
ATOM     30  C   UNL A   1      36.829  30.020  27.251  1.00  0.00     0.016 A 
ATOM     31  C   UNL A   1      36.009  29.566  29.490  1.00  0.00     0.016 A 
ATOM     32  C   UNL A   1      38.123  29.718  27.643  1.00  0.00     0.010 A 
ATOM     33  C   UNL A   1      37.307  29.238  29.881  1.00  0.00     0.010 A 
ATOM     34  C   UNL A   1      38.364  29.315  28.958  1.00  0.00    -0.014 A 
BRANCH  34  35
ATOM     35  C   UNL A   1      39.724  28.897  29.330  1.00  0.00     0.031 A 
ATOM     36  C   UNL A   1      40.212  27.551  28.897  1.00  0.00     0.074 A 
ATOM     37  C   UNL A   1      40.525  29.749  29.992  1.00  0.00     0.049 A 
ATOM     38  N   UNL A   1      41.363  26.982  29.130  1.00  0.00    -0.248 NA
ATOM     39  C   UNL A   1      39.289  26.743  28.080  1.00  0.00     0.031 C 
ATOM     40  C   UNL A   1      40.169  31.116  30.376  1.00  0.00     0.029 A 
ATOM     41  N   UNL A   1      41.809  29.594  30.444  1.00  0.00    -0.354 N 
ATOM     42  C   UNL A   1      41.304  25.751  28.493  1.00  0.00     0.074 A 
ATOM     43  C   UNL A   1      40.001  25.645  27.877  1.00  0.00     0.031 C 
ATOM     44  C   UNL A   1      41.214  31.675  31.009  1.00  0.00     0.029 A 
ATOM     45  C   UNL A   1      42.293  30.695  31.104  1.00  0.00     0.049 A 
ATOM     46  H   UNL A   1      42.333  28.771  30.310  1.00  0.00     0.167 HD
ATOM     47  C   UNL A   1      42.263  24.801  28.428  1.00  0.00     0.031 A 
ATOM     48  C   UNL A   1      43.470  30.883  31.729  1.00  0.00     0.031 A 
ATOM     49  C   UNL A   1      43.549  24.916  29.055  1.00  0.00     0.049 A 
ATOM     50  C   UNL A   1      44.478  29.768  31.734  1.00  0.00     0.074 A 
ATOM     51  C   UNL A   1      44.583  23.999  29.064  1.00  0.00     0.029 A 
ATOM     52  N   UNL A   1      43.974  26.017  29.784  1.00  0.00    -0.354 N 
ATOM     53  N   UNL A   1      44.404  28.595  31.151  1.00  0.00    -0.248 NA
ATOM     54  C   UNL A   1      45.723  29.995  32.480  1.00  0.00     0.031 C 
ATOM     55  C   UNL A   1      45.618  24.524  29.840  1.00  0.00     0.029 A 
ATOM     56  C   UNL A   1      45.247  25.790  30.269  1.00  0.00     0.049 A 
ATOM     57  H   UNL A   1      43.447  26.834  29.935  1.00  0.00     0.167 HD
ATOM     58  C   UNL A   1      45.598  27.950  31.445  1.00  0.00     0.074 A 
ATOM     59  C   UNL A   1      46.380  28.863  32.254  1.00  0.00     0.031 C 
ATOM     60  C   UNL A   1      46.006  26.714  31.073  1.00  0.00     0.031 A 
BRANCH  47  61
ATOM     61  C   UNL A   1      41.953  23.544  27.674  1.00  0.00    -0.014 A 
ATOM     62  C   UNL A   1      42.356  23.385  26.340  1.00  0.00     0.009 A 
ATOM     63  C   UNL A   1      41.326  22.476  28.334  1.00  0.00     0.009 A 
ATOM     64  C   UNL A   1      42.132  22.176  25.678  1.00  0.00     0.001 A 
ATOM     65  C   UNL A   1      41.123  21.263  27.675  1.00  0.00     0.001 A 
ATOM     66  C   UNL A   1      41.525  21.115  26.348  1.00  0.00     0.000 A 
ENDBRANCH  47  61
BRANCH  48  67
ATOM     67  C   UNL A   1      43.739  32.178  32.402  1.00  0.00    -0.014 A 
ATOM     68  C   UNL A   1      44.335  33.236  31.701  1.00  0.00     0.009 A 
ATOM     69  C   UNL A   1      43.340  32.383  33.733  1.00  0.00     0.009 A 
ATOM     70  C   UNL A   1      44.524  34.474  32.319  1.00  0.00     0.001 A 
ATOM     71  C   UNL A   1      43.512  33.628  34.342  1.00  0.00     0.001 A 
ATOM     72  C   UNL A   1      44.105  34.672  33.634  1.00  0.00     0.000 A 
ENDBRANCH  48  67
BRANCH  60  73
ATOM     73  C   UNL A   1      47.365  26.258  31.515  1.00  0.00    -0.014 A 
ATOM     74  C   UNL A   1      47.534  25.595  32.739  1.00  0.00     0.009 A 
ATOM     75  C   UNL A   1      48.451  26.357  30.631  1.00  0.00     0.009 A 
ATOM     76  C   UNL A   1      48.769  25.034  33.069  1.00  0.00     0.001 A 
ATOM     77  C   UNL A   1      49.678  25.777  30.955  1.00  0.00     0.001 A 
ATOM     78  C   UNL A   1      49.836  25.117  32.171  1.00  0.00     0.000 A 
ENDBRANCH  60  73
ENDBRANCH  34  35
ENDBRANCH  27  29
ENDBRANCH  26  27
ENDBRANCH  25  26
ENDBRANCH   1  25
TORSDOF 16
ENDMDL
MODEL 3
REMARK VINA RESULT:     -10.0      0.898      6.155
REMARK SMILES CSc1nc(O)nc(C)c1C(=O)N1C[C@@H](O)C[C@@H]1C(=O)OCCOC(=O)c1ccc(-c2c3nc(c(-c4ccccc4)c4ccc([nH]4)c(-c4ccccc4)c4nc(c(-c5ccccc5)c5ccc2[nH]5)C=C4)C=C3)cc1
REMARK SMILES IDX 22 1 21 2 19 3 20 4 18 5 13 6 14 7 15 8 17 9 11 10 12 11
REMARK SMILES IDX 10 12 3 13 4 14 5 15 8 16 7 17 9 18 2 19 1 20 6 21 16 23
REMARK SMILES IDX 23 25 24 26 25 27 26 28 27 29 28 30 74 31 29 32 73 33 30 34
REMARK SMILES IDX 31 35 32 36 67 37 33 38 72 39 66 40 68 41 34 42 71 43 65 44
REMARK SMILES IDX 64 45 35 47 57 48 42 49 56 50 43 51 46 52 55 53 69 54 44 55
REMARK SMILES IDX 45 56 54 58 70 59 47 60 36 61 37 62 41 63 38 64 40 65 39 66
REMARK SMILES IDX 58 67 59 68 63 69 60 70 62 71 61 72 48 73 49 74 53 75 50 76
REMARK SMILES IDX 52 77 51 78
REMARK H PARENT 6 22 16 24 68 46 46 57
REMARK Flexibility Score: inf
ROOT
ATOM      1  C   UNL A   1      32.104  30.007  25.640  1.00  0.00     0.274 C 
ENDROOT
BRANCH   1   2
ATOM      2  O   UNL A   1      31.852  28.734  25.003  1.00  0.00    -0.461 OA
BRANCH   2   3
ATOM      3  C   UNL A   1      32.795  28.288  24.133  1.00  0.00     0.329 C 
ATOM      4  O   UNL A   1      33.730  28.970  23.728  1.00  0.00    -0.250 OA
BRANCH   3   5
ATOM      5  C   UNL A   1      32.615  26.814  23.738  1.00  0.00     0.198 C 
ATOM      6  N   UNL A   1      33.709  25.935  24.133  1.00  0.00    -0.322 N 
ATOM      7  C   UNL A   1      33.589  24.741  23.313  1.00  0.00     0.152 C 
ATOM      8  C   UNL A   1      33.242  25.277  21.936  1.00  0.00     0.136 C 
ATOM      9  C   UNL A   1      32.472  26.572  22.225  1.00  0.00     0.071 C 
BRANCH   6  10
ATOM     10  C   UNL A   1      33.932  25.736  25.481  1.00  0.00     0.259 C 
ATOM     11  O   UNL A   1      34.206  26.673  26.223  1.00  0.00    -0.269 OA
BRANCH  10  12
ATOM     12  C   UNL A   1      33.885  24.334  25.978  1.00  0.00     0.093 A 
ATOM     13  C   UNL A   1      34.979  23.460  26.030  1.00  0.00     0.116 A 
ATOM     14  N   UNL A   1      34.861  22.171  26.422  1.00  0.00    -0.188 NA
ATOM     15  C   UNL A   1      33.638  21.753  26.707  1.00  0.00     0.315 A 
ATOM     16  C   UNL A   1      32.660  23.784  26.378  1.00  0.00     0.058 A 
ATOM     17  N   UNL A   1      32.526  22.476  26.717  1.00  0.00    -0.200 NA
ATOM     18  C   UNL A   1      31.359  24.538  26.426  1.00  0.00     0.068 C 
BRANCH  13  19
ATOM     19  S   UNL A   1      36.629  23.755  25.399  1.00  0.00    -0.109 SA
ATOM     20  C   UNL A   1      36.620  22.725  23.911  1.00  0.00     0.092 C 
ENDBRANCH  13  19
BRANCH  15  21
ATOM     21  O   UNL A   1      33.456  20.426  26.924  1.00  0.00    -0.479 OA
ATOM     22  H   UNL A   1      32.590  20.084  27.028  1.00  0.00     0.297 HD
ENDBRANCH  15  21
ENDBRANCH  10  12
ENDBRANCH   6  10
BRANCH   8  23
ATOM     23  O   UNL A   1      32.447  24.358  21.207  1.00  0.00    -0.391 OA
ATOM     24  H   UNL A   1      31.553  24.720  21.097  1.00  0.00     0.211 HD
ENDBRANCH   8  23
ENDBRANCH   3   5
ENDBRANCH   2   3
ENDBRANCH   1   2
BRANCH   1  25
ATOM     25  C   UNL A   1      32.391  29.855  27.137  1.00  0.00     0.275 C 
BRANCH  25  26
ATOM     26  O   UNL A   1      33.787  29.608  27.368  1.00  0.00    -0.458 OA
BRANCH  26  27
ATOM     27  C   UNL A   1      34.473  30.617  27.945  1.00  0.00     0.338 C 
ATOM     28  O   UNL A   1      34.041  31.701  28.312  1.00  0.00    -0.246 OA
BRANCH  27  29
ATOM     29  C   UNL A   1      35.830  30.148  28.238  1.00  0.00     0.060 A 
ATOM     30  C   UNL A   1      36.096  29.647  29.516  1.00  0.00     0.016 A 
ATOM     31  C   UNL A   1      36.833  30.211  27.272  1.00  0.00     0.016 A 
ATOM     32  C   UNL A   1      37.358  29.172  29.831  1.00  0.00     0.010 A 
ATOM     33  C   UNL A   1      38.111  29.756  27.596  1.00  0.00     0.010 A 
ATOM     34  C   UNL A   1      38.373  29.235  28.874  1.00  0.00    -0.014 A 
BRANCH  34  35
ATOM     35  C   UNL A   1      39.732  28.825  29.260  1.00  0.00     0.031 A 
ATOM     36  C   UNL A   1      40.231  27.480  28.837  1.00  0.00     0.074 A 
ATOM     37  C   UNL A   1      40.523  29.685  29.924  1.00  0.00     0.049 A 
ATOM     38  N   UNL A   1      41.383  26.918  29.083  1.00  0.00    -0.248 NA
ATOM     39  C   UNL A   1      39.318  26.664  28.017  1.00  0.00     0.031 C 
ATOM     40  C   UNL A   1      40.156  31.051  30.299  1.00  0.00     0.029 A 
ATOM     41  N   UNL A   1      41.803  29.539  30.388  1.00  0.00    -0.354 N 
ATOM     42  C   UNL A   1      41.336  25.684  28.451  1.00  0.00     0.074 A 
ATOM     43  C   UNL A   1      40.038  25.568  27.824  1.00  0.00     0.031 C 
ATOM     44  C   UNL A   1      41.193  31.619  30.938  1.00  0.00     0.029 A 
ATOM     45  C   UNL A   1      42.277  30.646  31.046  1.00  0.00     0.049 A 
ATOM     46  H   UNL A   1      42.333  28.718  30.262  1.00  0.00     0.167 HD
ATOM     47  C   UNL A   1      42.299  24.739  28.399  1.00  0.00     0.031 A 
ATOM     48  C   UNL A   1      43.447  30.842  31.680  1.00  0.00     0.031 A 
ATOM     49  C   UNL A   1      43.579  24.864  29.036  1.00  0.00     0.049 A 
ATOM     50  C   UNL A   1      44.461  29.733  31.699  1.00  0.00     0.074 A 
ATOM     51  C   UNL A   1      44.618  23.952  29.058  1.00  0.00     0.029 A 
ATOM     52  N   UNL A   1      43.992  25.969  29.764  1.00  0.00    -0.354 N 
ATOM     53  N   UNL A   1      44.398  28.557  31.122  1.00  0.00    -0.248 NA
ATOM     54  C   UNL A   1      45.698  29.970  32.455  1.00  0.00     0.031 C 
ATOM     55  C   UNL A   1      45.644  24.486  29.840  1.00  0.00     0.029 A 
ATOM     56  C   UNL A   1      45.263  25.752  30.261  1.00  0.00     0.049 A 
ATOM     57  H   UNL A   1      43.460  26.785  29.905  1.00  0.00     0.167 HD
ATOM     58  C   UNL A   1      45.592  27.920  31.428  1.00  0.00     0.074 A 
ATOM     59  C   UNL A   1      46.363  28.840  32.239  1.00  0.00     0.031 C 
ATOM     60  C   UNL A   1      46.010  26.684  31.066  1.00  0.00     0.031 A 
BRANCH  47  61
ATOM     61  C   UNL A   1      42.002  23.477  27.649  1.00  0.00    -0.014 A 
ATOM     62  C   UNL A   1      42.423  23.311  26.321  1.00  0.00     0.009 A 
ATOM     63  C   UNL A   1      41.369  22.411  28.306  1.00  0.00     0.009 A 
ATOM     64  C   UNL A   1      42.211  22.097  25.663  1.00  0.00     0.001 A 
ATOM     65  C   UNL A   1      41.177  21.193  27.652  1.00  0.00     0.001 A 
ATOM     66  C   UNL A   1      41.597  21.038  26.331  1.00  0.00     0.000 A 
ENDBRANCH  47  61
BRANCH  48  67
ATOM     67  C   UNL A   1      43.704  32.142  32.349  1.00  0.00    -0.014 A 
ATOM     68  C   UNL A   1      43.372  32.327  33.698  1.00  0.00     0.009 A 
ATOM     69  C   UNL A   1      44.342  33.184  31.656  1.00  0.00     0.009 A 
ATOM     70  C   UNL A   1      43.676  33.530  34.341  1.00  0.00     0.001 A 
ATOM     71  C   UNL A   1      44.663  34.377  32.307  1.00  0.00     0.001 A 
ATOM     72  C   UNL A   1      44.328  34.549  33.648  1.00  0.00     0.000 A 
ENDBRANCH  48  67
BRANCH  60  73
ATOM     73  C   UNL A   1      47.367  26.237  31.522  1.00  0.00    -0.014 A 
ATOM     74  C   UNL A   1      47.534  25.605  32.762  1.00  0.00     0.009 A 
ATOM     75  C   UNL A   1      48.455  26.310  30.637  1.00  0.00     0.009 A 
ATOM     76  C   UNL A   1      48.767  25.051  33.109  1.00  0.00     0.001 A 
ATOM     77  C   UNL A   1      49.681  25.738  30.978  1.00  0.00     0.001 A 
ATOM     78  C   UNL A   1      49.835  25.108  32.211  1.00  0.00     0.000 A 
ENDBRANCH  60  73
ENDBRANCH  34  35
ENDBRANCH  27  29
ENDBRANCH  26  27
ENDBRANCH  25  26
ENDBRANCH   1  25
TORSDOF 16
ENDMDL
