MODEL 1
REMARK VINA RESULT:     -12.2      0.000      0.000
REMARK SMILES C[C@H]1c2ccc(O)cc2OC(=O)[C@@H]1CC(=O)N[C@@H](CC1=c2ccccc2=NC1)C(=O)OCCOC(=O)c1ccc(-c2c3nc(c(-c4ccccc4)c4ccc([nH]4)c(-c4ccccc4)c4nc(c(-c5ccccc5)c5ccc2[nH]5)C=C4)C=C3)cc1
REMARK SMILES IDX 32 1 31 2 29 3 30 4 18 5 17 6 15 7 16 8 14 10 13 11 1 12
REMARK SMILES IDX 2 13 3 14 4 15 9 16 11 17 5 18 8 19 10 20 12 21 6 22 7 23
REMARK SMILES IDX 19 25 20 26 21 27 28 28 22 29 26 30 27 31 23 32 25 33 24 34
REMARK SMILES IDX 33 35 34 36 35 37 36 38 37 39 38 40 84 41 39 42 83 43 40 44
REMARK SMILES IDX 41 45 42 46 77 47 43 48 82 49 76 50 78 51 44 52 81 53 75 54
REMARK SMILES IDX 74 55 45 57 67 58 52 59 66 60 53 61 56 62 65 63 79 64 54 65
REMARK SMILES IDX 55 66 64 68 80 69 57 70 46 71 47 72 51 73 48 74 50 75 49 76
REMARK SMILES IDX 68 77 69 78 73 79 70 80 72 81 71 82 58 83 59 84 63 85 60 86
REMARK SMILES IDX 62 87 61 88
REMARK H PARENT 17 9 7 24 78 56 56 67
REMARK Flexibility Score: inf
ROOT
ATOM      1  C   UNL A   1      32.312  29.408  25.840  1.00  0.00     0.274 C 
ENDROOT
BRANCH   1   2
ATOM      2  O   UNL A   1      32.478  27.987  26.015  1.00  0.00    -0.461 OA
BRANCH   2   3
ATOM      3  C   UNL A   1      31.484  27.375  26.703  1.00  0.00     0.329 C 
ATOM      4  O   UNL A   1      31.063  27.738  27.799  1.00  0.00    -0.250 OA
BRANCH   3   5
ATOM      5  C   UNL A   1      31.024  26.062  26.072  1.00  0.00     0.196 C 
BRANCH   5   6
ATOM      6  N   UNL A   1      30.742  24.898  26.920  1.00  0.00    -0.342 N 
ATOM      7  C   UNL A   1      30.550  23.584  26.588  1.00  0.00     0.221 C 
ATOM      8  O   UNL A   1      30.045  22.832  27.423  1.00  0.00    -0.275 OA
ATOM      9  H   UNL A   1      30.681  25.094  27.883  1.00  0.00     0.164 HD
BRANCH   7  10
ATOM     10  C   UNL A   1      31.045  23.024  25.259  1.00  0.00     0.116 C 
BRANCH  10  11
ATOM     11  C   UNL A   1      32.527  23.267  24.896  1.00  0.00     0.116 C 
ATOM     12  C   UNL A   1      34.388  22.885  23.150  1.00  0.00     0.014 C 
ATOM     13  C   UNL A   1      32.962  22.537  23.597  1.00  0.00     0.034 C 
ATOM     14  C   UNL A   1      32.866  21.053  23.839  1.00  0.00    -0.001 A 
ATOM     15  C   UNL A   1      32.508  20.141  22.847  1.00  0.00     0.011 A 
ATOM     16  C   UNL A   1      33.091  20.587  25.137  1.00  0.00     0.138 A 
ATOM     17  C   UNL A   1      33.448  22.821  25.997  1.00  0.00     0.315 C 
ATOM     18  C   UNL A   1      32.265  18.810  23.197  1.00  0.00     0.047 A 
ATOM     19  C   UNL A   1      32.801  19.286  25.509  1.00  0.00     0.093 A 
ATOM     20  O   UNL A   1      33.576  21.445  26.135  1.00  0.00    -0.426 OA
ATOM     21  O   UNL A   1      34.007  23.599  26.760  1.00  0.00    -0.251 OA
ATOM     22  C   UNL A   1      32.339  18.426  24.534  1.00  0.00     0.119 A 
BRANCH  22  23
ATOM     23  O   UNL A   1      31.883  17.205  24.915  1.00  0.00    -0.508 OA
ATOM     24  H   UNL A   1      31.196  16.790  24.432  1.00  0.00     0.293 HD
ENDBRANCH  22  23
ENDBRANCH  10  11
ENDBRANCH   7  10
ENDBRANCH   5   6
BRANCH   5  25
ATOM     25  C   UNL A   1      29.857  26.416  25.109  1.00  0.00     0.070 C 
BRANCH  25  26
ATOM     26  C   UNL A   1      30.047  26.532  23.588  1.00  0.00    -0.037 C 
ATOM     27  C   UNL A   1      31.254  26.392  23.025  1.00  0.00     0.001 A 
ATOM     28  C   UNL A   1      29.470  27.849  23.087  1.00  0.00     0.174 C 
ATOM     29  C   UNL A   1      31.727  25.479  22.012  1.00  0.00     0.010 A 
ATOM     30  C   UNL A   1      31.596  27.811  22.746  1.00  0.00     0.065 A 
ATOM     31  N   UNL A   1      30.649  28.691  22.792  1.00  0.00    -0.280 NA
ATOM     32  C   UNL A   1      32.872  25.800  21.380  1.00  0.00     0.001 A 
ATOM     33  C   UNL A   1      33.015  28.022  22.400  1.00  0.00     0.028 A 
ATOM     34  C   UNL A   1      33.611  27.005  21.752  1.00  0.00     0.002 A 
ENDBRANCH  25  26
ENDBRANCH   5  25
ENDBRANCH   3   5
ENDBRANCH   2   3
ENDBRANCH   1   2
BRANCH   1  35
ATOM     35  C   UNL A   1      33.544  30.184  26.312  1.00  0.00     0.275 C 
BRANCH  35  36
ATOM     36  O   UNL A   1      33.961  29.783  27.633  1.00  0.00    -0.458 OA
BRANCH  36  37
ATOM     37  C   UNL A   1      34.635  30.734  28.333  1.00  0.00     0.338 C 
ATOM     38  O   UNL A   1      34.173  31.750  28.803  1.00  0.00    -0.246 OA
BRANCH  37  39
ATOM     39  C   UNL A   1      36.014  30.272  28.618  1.00  0.00     0.060 A 
ATOM     40  C   UNL A   1      36.394  29.676  29.823  1.00  0.00     0.016 A 
ATOM     41  C   UNL A   1      36.952  30.426  27.597  1.00  0.00     0.016 A 
ATOM     42  C   UNL A   1      37.725  29.259  30.011  1.00  0.00     0.010 A 
ATOM     43  C   UNL A   1      38.271  30.022  27.791  1.00  0.00     0.010 A 
ATOM     44  C   UNL A   1      38.683  29.453  29.006  1.00  0.00    -0.014 A 
BRANCH  44  45
ATOM     45  C   UNL A   1      40.091  28.983  29.140  1.00  0.00     0.031 A 
ATOM     46  C   UNL A   1      41.185  29.868  29.675  1.00  0.00     0.074 A 
ATOM     47  C   UNL A   1      40.413  27.778  28.642  1.00  0.00     0.049 A 
ATOM     48  N   UNL A   1      42.486  29.698  29.639  1.00  0.00    -0.248 NA
ATOM     49  C   UNL A   1      40.769  31.150  30.241  1.00  0.00     0.031 C 
ATOM     50  C   UNL A   1      39.466  26.833  28.052  1.00  0.00     0.029 A 
ATOM     51  N   UNL A   1      41.625  27.143  28.559  1.00  0.00    -0.354 N 
ATOM     52  C   UNL A   1      43.041  30.906  30.061  1.00  0.00     0.074 A 
ATOM     53  C   UNL A   1      41.929  31.792  30.324  1.00  0.00     0.031 C 
ATOM     54  C   UNL A   1      40.127  25.718  27.706  1.00  0.00     0.029 A 
ATOM     55  C   UNL A   1      41.540  25.874  28.046  1.00  0.00     0.049 A 
ATOM     56  H   UNL A   1      42.473  27.557  28.839  1.00  0.00     0.167 HD
ATOM     57  C   UNL A   1      44.349  31.233  30.222  1.00  0.00     0.031 A 
ATOM     58  C   UNL A   1      42.483  24.922  27.913  1.00  0.00     0.031 A 
ATOM     59  C   UNL A   1      45.421  30.267  30.139  1.00  0.00     0.049 A 
ATOM     60  C   UNL A   1      43.883  25.197  28.381  1.00  0.00     0.074 A 
ATOM     61  C   UNL A   1      46.754  30.428  30.479  1.00  0.00     0.029 A 
ATOM     62  N   UNL A   1      45.267  28.945  29.751  1.00  0.00    -0.354 N 
ATOM     63  N   UNL A   1      44.397  26.322  28.815  1.00  0.00    -0.248 NA
ATOM     64  C   UNL A   1      44.822  24.067  28.380  1.00  0.00     0.031 C 
ATOM     65  C   UNL A   1      47.408  29.209  30.288  1.00  0.00     0.029 A 
ATOM     66  C   UNL A   1      46.471  28.274  29.879  1.00  0.00     0.049 A 
ATOM     67  H   UNL A   1      44.427  28.544  29.433  1.00  0.00     0.167 HD
ATOM     68  C   UNL A   1      45.710  26.031  29.164  1.00  0.00     0.074 A 
ATOM     69  C   UNL A   1      45.907  24.619  28.909  1.00  0.00     0.031 C 
ATOM     70  C   UNL A   1      46.662  26.865  29.644  1.00  0.00     0.031 A 
BRANCH  57  71
ATOM     71  C   UNL A   1      44.728  32.658  30.575  1.00  0.00    -0.014 A 
ATOM     72  C   UNL A   1      44.768  33.056  31.926  1.00  0.00     0.009 A 
ATOM     73  C   UNL A   1      44.925  33.643  29.595  1.00  0.00     0.009 A 
ATOM     74  C   UNL A   1      44.987  34.392  32.281  1.00  0.00     0.001 A 
ATOM     75  C   UNL A   1      45.199  34.967  29.951  1.00  0.00     0.001 A 
ATOM     76  C   UNL A   1      45.216  35.344  31.292  1.00  0.00     0.000 A 
ENDBRANCH  57  71
BRANCH  58  77
ATOM     77  C   UNL A   1      42.053  23.571  27.477  1.00  0.00    -0.014 A 
ATOM     78  C   UNL A   1      41.526  22.643  28.388  1.00  0.00     0.009 A 
ATOM     79  C   UNL A   1      42.304  23.165  26.157  1.00  0.00     0.009 A 
ATOM     80  C   UNL A   1      41.289  21.325  27.990  1.00  0.00     0.001 A 
ATOM     81  C   UNL A   1      42.040  21.856  25.756  1.00  0.00     0.001 A 
ATOM     82  C   UNL A   1      41.545  20.934  26.676  1.00  0.00     0.000 A 
ENDBRANCH  58  77
BRANCH  70  83
ATOM     83  C   UNL A   1      48.020  26.298  29.957  1.00  0.00    -0.014 A 
ATOM     84  C   UNL A   1      48.918  26.024  28.912  1.00  0.00     0.009 A 
ATOM     85  C   UNL A   1      48.359  25.910  31.262  1.00  0.00     0.009 A 
ATOM     86  C   UNL A   1      50.116  25.355  29.163  1.00  0.00     0.001 A 
ATOM     87  C   UNL A   1      49.572  25.265  31.514  1.00  0.00     0.001 A 
ATOM     88  C   UNL A   1      50.443  24.977  30.464  1.00  0.00     0.000 A 
ENDBRANCH  70  83
ENDBRANCH  44  45
ENDBRANCH  37  39
ENDBRANCH  36  37
ENDBRANCH  35  36
ENDBRANCH   1  35
TORSDOF 17
ENDMDL
MODEL 2
REMARK VINA RESULT:     -12.2      2.074      7.893
REMARK SMILES C[C@H]1c2ccc(O)cc2OC(=O)[C@@H]1CC(=O)N[C@@H](CC1=c2ccccc2=NC1)C(=O)OCCOC(=O)c1ccc(-c2c3nc(c(-c4ccccc4)c4ccc([nH]4)c(-c4ccccc4)c4nc(c(-c5ccccc5)c5ccc2[nH]5)C=C4)C=C3)cc1
REMARK SMILES IDX 32 1 31 2 29 3 30 4 18 5 17 6 15 7 16 8 14 10 13 11 1 12
REMARK SMILES IDX 2 13 3 14 4 15 9 16 11 17 5 18 8 19 10 20 12 21 6 22 7 23
REMARK SMILES IDX 19 25 20 26 21 27 28 28 22 29 26 30 27 31 23 32 25 33 24 34
REMARK SMILES IDX 33 35 34 36 35 37 36 38 37 39 38 40 84 41 39 42 83 43 40 44
REMARK SMILES IDX 41 45 42 46 77 47 43 48 82 49 76 50 78 51 44 52 81 53 75 54
REMARK SMILES IDX 74 55 45 57 67 58 52 59 66 60 53 61 56 62 65 63 79 64 54 65
REMARK SMILES IDX 55 66 64 68 80 69 57 70 46 71 47 72 51 73 48 74 50 75 49 76
REMARK SMILES IDX 68 77 69 78 73 79 70 80 72 81 71 82 58 83 59 84 63 85 60 86
REMARK SMILES IDX 62 87 61 88
REMARK H PARENT 17 9 7 24 78 56 56 67
REMARK Flexibility Score: inf
ROOT
ATOM      1  C   UNL A   1      37.636  20.537  25.009  1.00  0.00     0.274 C 
ENDROOT
BRANCH   1   2
ATOM      2  O   UNL A   1      36.872  21.743  25.206  1.00  0.00    -0.461 OA
BRANCH   2   3
ATOM      3  C   UNL A   1      35.667  21.765  24.586  1.00  0.00     0.329 C 
ATOM      4  O   UNL A   1      35.353  22.549  23.692  1.00  0.00    -0.250 OA
BRANCH   3   5
ATOM      5  C   UNL A   1      34.641  20.824  25.212  1.00  0.00     0.196 C 
BRANCH   5   6
ATOM      6  N   UNL A   1      34.130  21.085  26.563  1.00  0.00    -0.342 N 
ATOM      7  C   UNL A   1      33.793  22.264  27.172  1.00  0.00     0.221 C 
ATOM      8  O   UNL A   1      33.661  22.280  28.396  1.00  0.00    -0.275 OA
ATOM      9  H   UNL A   1      34.012  20.283  27.121  1.00  0.00     0.164 HD
BRANCH   7  10
ATOM     10  C   UNL A   1      33.478  23.513  26.355  1.00  0.00     0.116 C 
BRANCH  10  11
ATOM     11  C   UNL A   1      32.092  23.584  25.677  1.00  0.00     0.116 C 
ATOM     12  C   UNL A   1      30.788  24.235  23.547  1.00  0.00     0.014 C 
ATOM     13  C   UNL A   1      32.128  24.285  24.293  1.00  0.00     0.034 C 
ATOM     14  C   UNL A   1      32.524  25.723  24.505  1.00  0.00    -0.001 A 
ATOM     15  C   UNL A   1      33.292  26.446  23.592  1.00  0.00     0.011 A 
ATOM     16  C   UNL A   1      32.150  26.333  25.705  1.00  0.00     0.138 A 
ATOM     17  C   UNL A   1      31.094  24.316  26.529  1.00  0.00     0.315 C 
ATOM     18  C   UNL A   1      33.767  27.710  23.947  1.00  0.00     0.047 A 
ATOM     19  C   UNL A   1      32.658  27.560  26.094  1.00  0.00     0.093 A 
ATOM     20  O   UNL A   1      31.274  25.693  26.595  1.00  0.00    -0.426 OA
ATOM     21  O   UNL A   1      30.217  23.752  27.170  1.00  0.00    -0.251 OA
ATOM     22  C   UNL A   1      33.508  28.209  25.222  1.00  0.00     0.119 A 
BRANCH  22  23
ATOM     23  O   UNL A   1      34.152  29.322  25.659  1.00  0.00    -0.508 OA
ATOM     24  H   UNL A   1      34.049  30.133  25.201  1.00  0.00     0.293 HD
ENDBRANCH  22  23
ENDBRANCH  10  11
ENDBRANCH   7  10
ENDBRANCH   5   6
BRANCH   5  25
ATOM     25  C   UNL A   1      33.514  20.629  24.159  1.00  0.00     0.070 C 
BRANCH  25  26
ATOM     26  C   UNL A   1      32.597  19.395  24.150  1.00  0.00    -0.037 C 
ATOM     27  C   UNL A   1      32.993  18.230  24.677  1.00  0.00     0.001 A 
ATOM     28  C   UNL A   1      32.123  19.105  22.731  1.00  0.00     0.174 C 
ATOM     29  C   UNL A   1      32.413  17.417  25.719  1.00  0.00     0.010 A 
ATOM     30  C   UNL A   1      33.321  17.465  23.445  1.00  0.00     0.065 A 
ATOM     31  N   UNL A   1      32.890  17.915  22.311  1.00  0.00    -0.280 NA
ATOM     32  C   UNL A   1      32.813  16.132  25.792  1.00  0.00     0.001 A 
ATOM     33  C   UNL A   1      34.085  16.229  23.701  1.00  0.00     0.028 A 
ATOM     34  C   UNL A   1      33.825  15.618  24.872  1.00  0.00     0.002 A 
ENDBRANCH  25  26
ENDBRANCH   5  25
ENDBRANCH   3   5
ENDBRANCH   2   3
ENDBRANCH   1   2
BRANCH   1  35
ATOM     35  C   UNL A   1      39.112  20.739  25.363  1.00  0.00     0.275 C 
BRANCH  35  36
ATOM     36  O   UNL A   1      39.752  19.503  25.736  1.00  0.00    -0.458 OA
BRANCH  36  37
ATOM     37  C   UNL A   1      41.088  19.599  25.968  1.00  0.00     0.338 C 
ATOM     38  O   UNL A   1      41.945  18.824  25.603  1.00  0.00    -0.246 OA
BRANCH  37  39
ATOM     39  C   UNL A   1      41.403  20.908  26.587  1.00  0.00     0.060 A 
ATOM     40  C   UNL A   1      41.245  21.174  27.950  1.00  0.00     0.016 A 
ATOM     41  C   UNL A   1      41.913  21.895  25.745  1.00  0.00     0.016 A 
ATOM     42  C   UNL A   1      41.574  22.443  28.461  1.00  0.00     0.010 A 
ATOM     43  C   UNL A   1      42.227  23.154  26.252  1.00  0.00     0.010 A 
ATOM     44  C   UNL A   1      42.044  23.455  27.610  1.00  0.00    -0.014 A 
BRANCH  44  45
ATOM     45  C   UNL A   1      42.452  24.797  28.113  1.00  0.00     0.031 A 
ATOM     46  C   UNL A   1      43.883  25.130  28.443  1.00  0.00     0.074 A 
ATOM     47  C   UNL A   1      41.492  25.690  28.405  1.00  0.00     0.049 A 
ATOM     48  N   UNL A   1      44.369  26.155  29.101  1.00  0.00    -0.248 NA
ATOM     49  C   UNL A   1      44.888  24.137  28.064  1.00  0.00     0.031 C 
ATOM     50  C   UNL A   1      40.062  25.488  28.182  1.00  0.00     0.029 A 
ATOM     51  N   UNL A   1      41.578  26.946  28.947  1.00  0.00    -0.354 N 
ATOM     52  C   UNL A   1      45.715  25.864  29.323  1.00  0.00     0.074 A 
ATOM     53  C   UNL A   1      45.947  24.560  28.744  1.00  0.00     0.031 C 
ATOM     54  C   UNL A   1      39.406  26.600  28.545  1.00  0.00     0.029 A 
ATOM     55  C   UNL A   1      40.369  27.588  29.027  1.00  0.00     0.049 A 
ATOM     56  H   UNL A   1      42.425  27.348  29.250  1.00  0.00     0.167 HD
ATOM     57  C   UNL A   1      46.660  26.620  29.940  1.00  0.00     0.031 A 
ATOM     58  C   UNL A   1      40.074  28.848  29.397  1.00  0.00     0.031 A 
ATOM     59  C   UNL A   1      46.441  27.994  30.331  1.00  0.00     0.049 A 
ATOM     60  C   UNL A   1      41.181  29.781  29.796  1.00  0.00     0.074 A 
ATOM     61  C   UNL A   1      47.370  28.922  30.774  1.00  0.00     0.029 A 
ATOM     62  N   UNL A   1      45.225  28.653  30.260  1.00  0.00    -0.354 N 
ATOM     63  N   UNL A   1      42.453  29.519  29.966  1.00  0.00    -0.248 NA
ATOM     64  C   UNL A   1      40.822  31.189  30.013  1.00  0.00     0.031 C 
ATOM     65  C   UNL A   1      46.715  30.137  30.980  1.00  0.00     0.029 A 
ATOM     66  C   UNL A   1      45.387  29.981  30.615  1.00  0.00     0.049 A 
ATOM     67  H   UNL A   1      44.372  28.239  29.996  1.00  0.00     0.167 HD
ATOM     68  C   UNL A   1      43.053  30.731  30.286  1.00  0.00     0.074 A 
ATOM     69  C   UNL A   1      42.007  31.733  30.264  1.00  0.00     0.031 C 
ATOM     70  C   UNL A   1      44.352  30.981  30.575  1.00  0.00     0.031 A 
BRANCH  57  71
ATOM     71  C   UNL A   1      48.042  26.043  30.179  1.00  0.00    -0.014 A 
ATOM     72  C   UNL A   1      48.388  25.565  31.459  1.00  0.00     0.009 A 
ATOM     73  C   UNL A   1      49.045  26.078  29.199  1.00  0.00     0.009 A 
ATOM     74  C   UNL A   1      49.692  25.148  31.746  1.00  0.00     0.001 A 
ATOM     75  C   UNL A   1      50.334  25.608  29.470  1.00  0.00     0.001 A 
ATOM     76  C   UNL A   1      50.661  25.157  30.747  1.00  0.00     0.000 A 
ENDBRANCH  57  71
BRANCH  58  77
ATOM     77  C   UNL A   1      38.679  29.319  29.217  1.00  0.00    -0.014 A 
ATOM     78  C   UNL A   1      37.749  29.263  30.267  1.00  0.00     0.009 A 
ATOM     79  C   UNL A   1      38.242  29.698  27.937  1.00  0.00     0.009 A 
ATOM     80  C   UNL A   1      36.402  29.549  30.028  1.00  0.00     0.001 A 
ATOM     81  C   UNL A   1      36.903  30.009  27.710  1.00  0.00     0.001 A 
ATOM     82  C   UNL A   1      35.981  29.922  28.752  1.00  0.00     0.000 A 
ENDBRANCH  58  77
BRANCH  70  83
ATOM     83  C   UNL A   1      44.757  32.398  30.882  1.00  0.00    -0.014 A 
ATOM     84  C   UNL A   1      44.640  32.887  32.193  1.00  0.00     0.009 A 
ATOM     85  C   UNL A   1      45.122  33.284  29.857  1.00  0.00     0.009 A 
ATOM     86  C   UNL A   1      44.859  34.238  32.469  1.00  0.00     0.001 A 
ATOM     87  C   UNL A   1      45.368  34.629  30.141  1.00  0.00     0.001 A 
ATOM     88  C   UNL A   1      45.225  35.107  31.443  1.00  0.00     0.000 A 
ENDBRANCH  70  83
ENDBRANCH  44  45
ENDBRANCH  37  39
ENDBRANCH  36  37
ENDBRANCH  35  36
ENDBRANCH   1  35
TORSDOF 17
ENDMDL
MODEL 3
REMARK VINA RESULT:     -11.9      2.124      7.887
REMARK SMILES C[C@H]1c2ccc(O)cc2OC(=O)[C@@H]1CC(=O)N[C@@H](CC1=c2ccccc2=NC1)C(=O)OCCOC(=O)c1ccc(-c2c3nc(c(-c4ccccc4)c4ccc([nH]4)c(-c4ccccc4)c4nc(c(-c5ccccc5)c5ccc2[nH]5)C=C4)C=C3)cc1
REMARK SMILES IDX 32 1 31 2 29 3 30 4 18 5 17 6 15 7 16 8 14 10 13 11 1 12
REMARK SMILES IDX 2 13 3 14 4 15 9 16 11 17 5 18 8 19 10 20 12 21 6 22 7 23
REMARK SMILES IDX 19 25 20 26 21 27 28 28 22 29 26 30 27 31 23 32 25 33 24 34
REMARK SMILES IDX 33 35 34 36 35 37 36 38 37 39 38 40 84 41 39 42 83 43 40 44
REMARK SMILES IDX 41 45 42 46 77 47 43 48 82 49 76 50 78 51 44 52 81 53 75 54
REMARK SMILES IDX 74 55 45 57 67 58 52 59 66 60 53 61 56 62 65 63 79 64 54 65
REMARK SMILES IDX 55 66 64 68 80 69 57 70 46 71 47 72 51 73 48 74 50 75 49 76
REMARK SMILES IDX 68 77 69 78 73 79 70 80 72 81 71 82 58 83 59 84 63 85 60 86
REMARK SMILES IDX 62 87 61 88
REMARK H PARENT 17 9 7 24 78 56 56 67
REMARK Flexibility Score: inf
ROOT
ATOM      1  C   UNL A   1      38.137  20.743  24.967  1.00  0.00     0.274 C 
ENDROOT
BRANCH   1   2
ATOM      2  O   UNL A   1      37.282  21.838  25.351  1.00  0.00    -0.461 OA
BRANCH   2   3
ATOM      3  C   UNL A   1      36.092  21.889  24.704  1.00  0.00     0.329 C 
ATOM      4  O   UNL A   1      35.821  22.675  23.797  1.00  0.00    -0.250 OA
BRANCH   3   5
ATOM      5  C   UNL A   1      35.025  20.984  25.314  1.00  0.00     0.196 C 
BRANCH   5   6
ATOM      6  N   UNL A   1      34.493  21.272  26.652  1.00  0.00    -0.342 N 
ATOM      7  C   UNL A   1      34.090  22.454  27.212  1.00  0.00     0.221 C 
ATOM      8  O   UNL A   1      33.951  22.512  28.434  1.00  0.00    -0.275 OA
ATOM      9  H   UNL A   1      34.414  20.487  27.241  1.00  0.00     0.164 HD
BRANCH   7  10
ATOM     10  C   UNL A   1      33.714  23.651  26.345  1.00  0.00     0.116 C 
BRANCH  10  11
ATOM     11  C   UNL A   1      32.309  23.648  25.704  1.00  0.00     0.116 C 
ATOM     12  C   UNL A   1      30.911  24.250  23.620  1.00  0.00     0.014 C 
ATOM     13  C   UNL A   1      32.265  24.370  24.331  1.00  0.00     0.034 C 
ATOM     14  C   UNL A   1      32.579  25.826  24.557  1.00  0.00    -0.001 A 
ATOM     15  C   UNL A   1      33.276  26.608  23.636  1.00  0.00     0.011 A 
ATOM     16  C   UNL A   1      32.201  26.395  25.776  1.00  0.00     0.138 A 
ATOM     17  C   UNL A   1      31.292  24.305  26.594  1.00  0.00     0.315 C 
ATOM     18  C   UNL A   1      33.684  27.893  23.999  1.00  0.00     0.047 A 
ATOM     19  C   UNL A   1      32.645  27.644  26.171  1.00  0.00     0.093 A 
ATOM     20  O   UNL A   1      31.390  25.689  26.677  1.00  0.00    -0.426 OA
ATOM     21  O   UNL A   1      30.468  23.679  27.248  1.00  0.00    -0.251 OA
ATOM     22  C   UNL A   1      33.430  28.357  25.288  1.00  0.00     0.119 A 
BRANCH  22  23
ATOM     23  O   UNL A   1      34.017  29.500  25.726  1.00  0.00    -0.508 OA
ATOM     24  H   UNL A   1      34.928  29.504  25.945  1.00  0.00     0.293 HD
ENDBRANCH  22  23
ENDBRANCH  10  11
ENDBRANCH   7  10
ENDBRANCH   5   6
BRANCH   5  25
ATOM     25  C   UNL A   1      33.916  20.814  24.238  1.00  0.00     0.070 C 
BRANCH  25  26
ATOM     26  C   UNL A   1      32.855  19.705  24.314  1.00  0.00    -0.037 C 
ATOM     27  C   UNL A   1      33.166  18.472  24.734  1.00  0.00     0.001 A 
ATOM     28  C   UNL A   1      32.156  19.555  22.969  1.00  0.00     0.174 C 
ATOM     29  C   UNL A   1      32.636  17.679  25.817  1.00  0.00     0.010 A 
ATOM     30  C   UNL A   1      33.219  17.743  23.440  1.00  0.00     0.065 A 
ATOM     31  N   UNL A   1      32.697  18.305  22.398  1.00  0.00    -0.280 NA
ATOM     32  C   UNL A   1      32.872  16.353  25.782  1.00  0.00     0.001 A 
ATOM     33  C   UNL A   1      33.845  16.410  23.536  1.00  0.00     0.028 A 
ATOM     34  C   UNL A   1      33.673  15.771  24.707  1.00  0.00     0.002 A 
ENDBRANCH  25  26
ENDBRANCH   5  25
ENDBRANCH   3   5
ENDBRANCH   2   3
ENDBRANCH   1   2
BRANCH   1  35
ATOM     35  C   UNL A   1      39.335  20.604  25.910  1.00  0.00     0.275 C 
BRANCH  35  36
ATOM     36  O   UNL A   1      40.075  19.391  25.668  1.00  0.00    -0.458 OA
BRANCH  36  37
ATOM     37  C   UNL A   1      41.403  19.467  25.948  1.00  0.00     0.338 C 
ATOM     38  O   UNL A   1      42.261  18.683  25.607  1.00  0.00    -0.246 OA
BRANCH  37  39
ATOM     39  C   UNL A   1      41.713  20.766  26.589  1.00  0.00     0.060 A 
ATOM     40  C   UNL A   1      41.661  20.977  27.970  1.00  0.00     0.016 A 
ATOM     41  C   UNL A   1      42.106  21.805  25.747  1.00  0.00     0.016 A 
ATOM     42  C   UNL A   1      41.978  22.242  28.500  1.00  0.00     0.010 A 
ATOM     43  C   UNL A   1      42.409  23.059  26.273  1.00  0.00     0.010 A 
ATOM     44  C   UNL A   1      42.329  23.303  27.653  1.00  0.00    -0.014 A 
BRANCH  44  45
ATOM     45  C   UNL A   1      42.721  24.644  28.171  1.00  0.00     0.031 A 
ATOM     46  C   UNL A   1      41.704  25.700  28.517  1.00  0.00     0.074 A 
ATOM     47  C   UNL A   1      44.026  24.963  28.200  1.00  0.00     0.049 A 
ATOM     48  N   UNL A   1      41.879  26.979  28.753  1.00  0.00    -0.248 NA
ATOM     49  C   UNL A   1      40.302  25.284  28.508  1.00  0.00     0.031 C 
ATOM     50  C   UNL A   1      45.118  24.057  27.849  1.00  0.00     0.029 A 
ATOM     51  N   UNL A   1      44.650  26.132  28.547  1.00  0.00    -0.354 N 
ATOM     52  C   UNL A   1      40.603  27.538  28.792  1.00  0.00     0.074 A 
ATOM     53  C   UNL A   1      39.679  26.456  28.536  1.00  0.00     0.031 C 
ATOM     54  C   UNL A   1      46.284  24.692  28.039  1.00  0.00     0.029 A 
ATOM     55  C   UNL A   1      46.018  26.046  28.521  1.00  0.00     0.049 A 
ATOM     56  H   UNL A   1      44.164  26.954  28.790  1.00  0.00     0.167 HD
ATOM     57  C   UNL A   1      40.242  28.827  29.031  1.00  0.00     0.031 A 
ATOM     58  C   UNL A   1      46.955  26.939  28.893  1.00  0.00     0.031 A 
ATOM     59  C   UNL A   1      41.175  29.837  29.475  1.00  0.00     0.049 A 
ATOM     60  C   UNL A   1      46.532  28.269  29.447  1.00  0.00     0.074 A 
ATOM     61  C   UNL A   1      40.904  31.113  29.942  1.00  0.00     0.029 A 
ATOM     62  N   UNL A   1      42.546  29.662  29.572  1.00  0.00    -0.354 N 
ATOM     63  N   UNL A   1      45.328  28.781  29.522  1.00  0.00    -0.248 NA
ATOM     64  C   UNL A   1      47.586  29.127  30.004  1.00  0.00     0.031 C 
ATOM     65  C   UNL A   1      42.110  31.712  30.312  1.00  0.00     0.029 A 
ATOM     66  C   UNL A   1      43.128  30.790  30.124  1.00  0.00     0.049 A 
ATOM     67  H   UNL A   1      43.034  28.855  29.291  1.00  0.00     0.167 HD
ATOM     68  C   UNL A   1      45.475  30.008  30.156  1.00  0.00     0.074 A 
ATOM     69  C   UNL A   1      46.882  30.154  30.464  1.00  0.00     0.031 C 
ATOM     70  C   UNL A   1      44.524  30.928  30.448  1.00  0.00     0.031 A 
BRANCH  57  71
ATOM     71  C   UNL A   1      38.788  29.235  28.901  1.00  0.00    -0.014 A 
ATOM     72  C   UNL A   1      37.920  29.089  30.001  1.00  0.00     0.009 A 
ATOM     73  C   UNL A   1      38.235  29.645  27.679  1.00  0.00     0.009 A 
ATOM     74  C   UNL A   1      36.548  29.334  29.878  1.00  0.00     0.001 A 
ATOM     75  C   UNL A   1      36.873  29.944  27.570  1.00  0.00     0.001 A 
ATOM     76  C   UNL A   1      36.028  29.775  28.664  1.00  0.00     0.000 A 
ENDBRANCH  57  71
BRANCH  58  77
ATOM     77  C   UNL A   1      48.371  26.496  28.912  1.00  0.00    -0.014 A 
ATOM     78  C   UNL A   1      48.917  25.843  30.027  1.00  0.00     0.009 A 
ATOM     79  C   UNL A   1      49.216  26.859  27.851  1.00  0.00     0.009 A 
ATOM     80  C   UNL A   1      50.289  25.591  30.091  1.00  0.00     0.001 A 
ATOM     81  C   UNL A   1      50.581  26.579  27.906  1.00  0.00     0.001 A 
ATOM     82  C   UNL A   1      51.119  25.957  29.031  1.00  0.00     0.000 A 
ENDBRANCH  58  77
BRANCH  70  83
ATOM     83  C   UNL A   1      44.941  32.188  31.157  1.00  0.00    -0.014 A 
ATOM     84  C   UNL A   1      44.834  32.268  32.556  1.00  0.00     0.009 A 
ATOM     85  C   UNL A   1      45.308  33.335  30.438  1.00  0.00     0.009 A 
ATOM     86  C   UNL A   1      45.064  33.475  33.217  1.00  0.00     0.001 A 
ATOM     87  C   UNL A   1      45.564  34.535  31.106  1.00  0.00     0.001 A 
ATOM     88  C   UNL A   1      45.431  34.608  32.492  1.00  0.00     0.000 A 
ENDBRANCH  70  83
ENDBRANCH  44  45
ENDBRANCH  37  39
ENDBRANCH  36  37
ENDBRANCH  35  36
ENDBRANCH   1  35
TORSDOF 17
ENDMDL
