MODEL 1
REMARK VINA RESULT:     -12.0      0.000      0.000
REMARK SMILES CC(=O)N[C@H]1[C@@H](Oc2ccc(C)c(C)c2)O[C@H]2CO[C@H](c3ccco3)O[C@@H]2[C@H]1OCC(=O)OCCOC(=O)c1ccc(-c2c3nc(c(-c4ccccc4)c4ccc([nH]4)c(-c4ccccc4)c4nc(c(-c5ccccc5)c5ccc2[nH]5)C=C4)C=C3)cc1
REMARK SMILES IDX 34 1 33 2 31 3 32 4 30 5 29 6 28 7 5 8 6 9 16 10 27 11 17 12
REMARK SMILES IDX 26 13 18 14 20 15 19 16 4 17 1 18 2 19 3 20 7 22 8 23 9 24
REMARK SMILES IDX 15 25 10 26 13 27 11 28 14 29 12 30 21 31 22 32 25 33 23 34
REMARK SMILES IDX 24 35 35 36 36 37 37 38 38 39 39 40 40 41 86 42 41 43 85 44
REMARK SMILES IDX 42 45 43 46 44 47 79 48 45 49 84 50 78 51 80 52 46 53 83 54
REMARK SMILES IDX 77 55 76 56 47 58 69 59 54 60 68 61 55 62 58 63 67 64 81 65
REMARK SMILES IDX 56 66 57 67 66 69 82 70 59 71 48 72 49 73 53 74 50 75 52 76
REMARK SMILES IDX 51 77 70 78 71 79 75 80 72 81 74 82 73 83 60 84 61 85 65 86
REMARK SMILES IDX 62 87 64 88 63 89
REMARK H PARENT 4 21 80 57 58 68
REMARK Flexibility Score: inf
ROOT
ATOM      1  C   UNL A   1      38.635  21.181  25.728  1.00  0.00     0.274 C 
ENDROOT
BRANCH   1   2
ATOM      2  O   UNL A   1      37.538  21.401  24.815  1.00  0.00    -0.460 OA
BRANCH   2   3
ATOM      3  C   UNL A   1      37.197  22.698  24.603  1.00  0.00     0.332 C 
ATOM      4  O   UNL A   1      37.341  23.600  25.422  1.00  0.00    -0.250 OA
BRANCH   3   5
ATOM      5  C   UNL A   1      36.623  22.953  23.199  1.00  0.00     0.283 C 
BRANCH   5   6
ATOM      6  O   UNL A   1      35.292  23.346  22.946  1.00  0.00    -0.361 OA
BRANCH   6   7
ATOM      7  C   UNL A   1      34.409  23.497  24.059  1.00  0.00     0.179 C 
ATOM      8  C   UNL A   1      33.704  24.875  23.976  1.00  0.00     0.182 C 
ATOM      9  C   UNL A   1      32.497  24.951  24.995  1.00  0.00     0.333 C 
ATOM     10  O   UNL A   1      31.650  23.801  25.017  1.00  0.00    -0.332 OA
ATOM     11  C   UNL A   1      33.349  22.368  24.103  1.00  0.00     0.184 C 
ATOM     12  C   UNL A   1      32.384  22.610  25.266  1.00  0.00     0.180 C 
ATOM     13  O   UNL A   1      33.928  21.064  24.203  1.00  0.00    -0.337 OA
ATOM     14  C   UNL A   1      31.406  21.440  25.394  1.00  0.00     0.199 C 
ATOM     15  C   UNL A   1      32.863  20.104  24.158  1.00  0.00     0.319 C 
ATOM     16  O   UNL A   1      32.081  20.188  25.348  1.00  0.00    -0.343 OA
BRANCH   8  17
ATOM     17  N   UNL A   1      33.434  25.442  22.620  1.00  0.00    -0.345 N 
ATOM     18  C   UNL A   1      34.005  27.910  22.482  1.00  0.00     0.114 C 
ATOM     19  C   UNL A   1      33.485  26.611  21.940  1.00  0.00     0.217 C 
ATOM     20  O   UNL A   1      33.057  26.589  20.779  1.00  0.00    -0.275 OA
ATOM     21  H   UNL A   1      33.112  24.729  22.023  1.00  0.00     0.164 HD
ENDBRANCH   8  17
BRANCH   9  22
ATOM     22  O   UNL A   1      31.758  26.178  24.968  1.00  0.00    -0.463 OA
BRANCH  22  23
ATOM     23  C   UNL A   1      32.306  27.340  25.428  1.00  0.00     0.123 A 
ATOM     24  C   UNL A   1      33.486  27.473  26.144  1.00  0.00     0.047 A 
ATOM     25  C   UNL A   1      31.535  28.479  25.189  1.00  0.00     0.050 A 
ATOM     26  C   UNL A   1      33.791  28.680  26.776  1.00  0.00     0.007 A 
ATOM     27  C   UNL A   1      31.865  29.723  25.757  1.00  0.00    -0.045 A 
ATOM     28  C   UNL A   1      32.959  29.799  26.636  1.00  0.00    -0.048 A 
ATOM     29  C   UNL A   1      31.036  30.913  25.366  1.00  0.00     0.045 C 
ATOM     30  C   UNL A   1      33.283  31.033  27.428  1.00  0.00     0.044 C 
ENDBRANCH  22  23
ENDBRANCH   9  22
BRANCH  15  31
ATOM     31  C   UNL A   1      33.383  18.715  24.053  1.00  0.00     0.159 A 
ATOM     32  C   UNL A   1      32.951  17.637  23.299  1.00  0.00     0.051 A 
ATOM     33  O   UNL A   1      34.530  18.380  24.715  1.00  0.00    -0.464 OA
ATOM     34  C   UNL A   1      33.884  16.597  23.507  1.00  0.00     0.042 A 
ATOM     35  C   UNL A   1      34.820  17.095  24.381  1.00  0.00     0.195 A 
ENDBRANCH  15  31
ENDBRANCH   6   7
ENDBRANCH   5   6
ENDBRANCH   3   5
ENDBRANCH   2   3
ENDBRANCH   1   2
BRANCH   1  36
ATOM     36  C   UNL A   1      39.291  19.822  25.480  1.00  0.00     0.275 C 
BRANCH  36  37
ATOM     37  O   UNL A   1      40.311  19.574  26.465  1.00  0.00    -0.458 OA
BRANCH  37  38
ATOM     38  C   UNL A   1      41.582  19.788  26.058  1.00  0.00     0.338 C 
ATOM     39  O   UNL A   1      42.279  19.055  25.380  1.00  0.00    -0.246 OA
BRANCH  38  40
ATOM     40  C   UNL A   1      42.036  21.123  26.480  1.00  0.00     0.060 A 
ATOM     41  C   UNL A   1      42.032  21.460  27.833  1.00  0.00     0.016 A 
ATOM     42  C   UNL A   1      42.319  22.089  25.515  1.00  0.00     0.016 A 
ATOM     43  C   UNL A   1      42.250  22.775  28.229  1.00  0.00     0.010 A 
ATOM     44  C   UNL A   1      42.623  23.391  25.918  1.00  0.00     0.010 A 
ATOM     45  C   UNL A   1      42.573  23.748  27.277  1.00  0.00    -0.014 A 
BRANCH  45  46
ATOM     46  C   UNL A   1      42.888  25.135  27.694  1.00  0.00     0.031 A 
ATOM     47  C   UNL A   1      44.313  25.560  27.900  1.00  0.00     0.074 A 
ATOM     48  C   UNL A   1      41.885  26.002  27.927  1.00  0.00     0.049 A 
ATOM     49  N   UNL A   1      44.775  26.646  28.464  1.00  0.00    -0.248 NA
ATOM     50  C   UNL A   1      45.354  24.635  27.423  1.00  0.00     0.031 C 
ATOM     51  C   UNL A   1      40.460  25.729  27.722  1.00  0.00     0.029 A 
ATOM     52  N   UNL A   1      41.913  27.288  28.400  1.00  0.00    -0.354 N 
ATOM     53  C   UNL A   1      46.158  26.517  28.452  1.00  0.00     0.074 A 
ATOM     54  C   UNL A   1      46.460  25.247  27.825  1.00  0.00     0.031 C 
ATOM     55  C   UNL A   1      39.753  26.817  28.058  1.00  0.00     0.029 A 
ATOM     56  C   UNL A   1      40.664  27.833  28.570  1.00  0.00     0.049 A 
ATOM     57  H   UNL A   1      42.746  27.774  28.599  1.00  0.00     0.167 HD
ATOM     58  C   UNL A   1      47.089  27.379  28.928  1.00  0.00     0.031 A 
ATOM     59  C   UNL A   1      40.287  29.001  29.119  1.00  0.00     0.031 A 
ATOM     60  C   UNL A   1      46.784  28.653  29.525  1.00  0.00     0.049 A 
ATOM     61  C   UNL A   1      41.332  29.920  29.676  1.00  0.00     0.074 A 
ATOM     62  C   UNL A   1      47.657  29.603  30.026  1.00  0.00     0.029 A 
ATOM     63  N   UNL A   1      45.505  29.159  29.689  1.00  0.00    -0.354 N 
ATOM     64  N   UNL A   1      42.633  29.766  29.703  1.00  0.00    -0.248 NA
ATOM     65  C   UNL A   1      40.855  31.166  30.290  1.00  0.00     0.031 C 
ATOM     66  C   UNL A   1      46.902  30.672  30.523  1.00  0.00     0.029 A 
ATOM     67  C   UNL A   1      45.562  30.402  30.296  1.00  0.00     0.049 A 
ATOM     68  H   UNL A   1      44.677  28.702  29.415  1.00  0.00     0.167 HD
ATOM     69  C   UNL A   1      43.133  30.900  30.327  1.00  0.00     0.074 A 
ATOM     70  C   UNL A   1      41.996  31.740  30.648  1.00  0.00     0.031 C 
ATOM     71  C   UNL A   1      44.419  31.217  30.612  1.00  0.00     0.031 A 
BRANCH  58  72
ATOM     72  C   UNL A   1      48.527  26.951  28.860  1.00  0.00    -0.014 A 
ATOM     73  C   UNL A   1      49.344  27.300  27.775  1.00  0.00     0.009 A 
ATOM     74  C   UNL A   1      49.079  26.215  29.921  1.00  0.00     0.009 A 
ATOM     75  C   UNL A   1      50.683  26.899  27.743  1.00  0.00     0.001 A 
ATOM     76  C   UNL A   1      50.421  25.834  29.896  1.00  0.00     0.001 A 
ATOM     77  C   UNL A   1      51.220  26.170  28.804  1.00  0.00     0.000 A 
ENDBRANCH  58  72
BRANCH  59  78
ATOM     78  C   UNL A   1      38.845  29.338  29.209  1.00  0.00    -0.014 A 
ATOM     79  C   UNL A   1      38.116  29.040  30.369  1.00  0.00     0.009 A 
ATOM     80  C   UNL A   1      38.198  29.987  28.144  1.00  0.00     0.009 A 
ATOM     81  C   UNL A   1      36.765  29.376  30.457  1.00  0.00     0.001 A 
ATOM     82  C   UNL A   1      36.853  30.343  28.246  1.00  0.00     0.001 A 
ATOM     83  C   UNL A   1      36.136  30.032  29.400  1.00  0.00     0.000 A 
ENDBRANCH  59  78
BRANCH  71  84
ATOM     84  C   UNL A   1      44.657  32.539  31.279  1.00  0.00    -0.014 A 
ATOM     85  C   UNL A   1      44.570  32.670  32.673  1.00  0.00     0.009 A 
ATOM     86  C   UNL A   1      44.991  33.659  30.504  1.00  0.00     0.009 A 
ATOM     87  C   UNL A   1      44.785  33.910  33.276  1.00  0.00     0.001 A 
ATOM     88  C   UNL A   1      45.224  34.893  31.111  1.00  0.00     0.001 A 
ATOM     89  C   UNL A   1      45.114  35.019  32.496  1.00  0.00     0.000 A 
ENDBRANCH  71  84
ENDBRANCH  45  46
ENDBRANCH  38  40
ENDBRANCH  37  38
ENDBRANCH  36  37
ENDBRANCH   1  36
TORSDOF 17
ENDMDL
MODEL 2
REMARK VINA RESULT:     -11.9      1.023      5.622
REMARK SMILES CC(=O)N[C@H]1[C@@H](Oc2ccc(C)c(C)c2)O[C@H]2CO[C@H](c3ccco3)O[C@@H]2[C@H]1OCC(=O)OCCOC(=O)c1ccc(-c2c3nc(c(-c4ccccc4)c4ccc([nH]4)c(-c4ccccc4)c4nc(c(-c5ccccc5)c5ccc2[nH]5)C=C4)C=C3)cc1
REMARK SMILES IDX 34 1 33 2 31 3 32 4 30 5 29 6 28 7 5 8 6 9 16 10 27 11 17 12
REMARK SMILES IDX 26 13 18 14 20 15 19 16 4 17 1 18 2 19 3 20 7 22 8 23 9 24
REMARK SMILES IDX 15 25 10 26 13 27 11 28 14 29 12 30 21 31 22 32 25 33 23 34
REMARK SMILES IDX 24 35 35 36 36 37 37 38 38 39 39 40 40 41 86 42 41 43 85 44
REMARK SMILES IDX 42 45 43 46 44 47 79 48 45 49 84 50 78 51 80 52 46 53 83 54
REMARK SMILES IDX 77 55 76 56 47 58 69 59 54 60 68 61 55 62 58 63 67 64 81 65
REMARK SMILES IDX 56 66 57 67 66 69 82 70 59 71 48 72 49 73 53 74 50 75 52 76
REMARK SMILES IDX 51 77 70 78 71 79 75 80 72 81 74 82 73 83 60 84 61 85 65 86
REMARK SMILES IDX 62 87 64 88 63 89
REMARK H PARENT 4 21 80 57 58 68
REMARK Flexibility Score: inf
ROOT
ATOM      1  C   UNL A   1      37.613  20.617  24.941  1.00  0.00     0.274 C 
ENDROOT
BRANCH   1   2
ATOM      2  O   UNL A   1      38.124  21.965  25.040  1.00  0.00    -0.460 OA
BRANCH   2   3
ATOM      3  C   UNL A   1      37.218  22.956  24.841  1.00  0.00     0.332 C 
ATOM      4  O   UNL A   1      36.917  23.805  25.674  1.00  0.00    -0.250 OA
BRANCH   3   5
ATOM      5  C   UNL A   1      36.602  22.941  23.431  1.00  0.00     0.283 C 
BRANCH   5   6
ATOM      6  O   UNL A   1      35.269  23.300  23.145  1.00  0.00    -0.361 OA
BRANCH   6   7
ATOM      7  C   UNL A   1      34.408  23.628  24.237  1.00  0.00     0.179 C 
ATOM      8  C   UNL A   1      33.844  25.058  24.039  1.00  0.00     0.182 C 
ATOM      9  C   UNL A   1      32.653  25.337  25.040  1.00  0.00     0.333 C 
ATOM     10  O   UNL A   1      31.695  24.283  25.150  1.00  0.00    -0.332 OA
ATOM     11  C   UNL A   1      33.241  22.618  24.365  1.00  0.00     0.184 C 
ATOM     12  C   UNL A   1      32.307  23.048  25.500  1.00  0.00     0.180 C 
ATOM     13  O   UNL A   1      33.686  21.275  24.573  1.00  0.00    -0.337 OA
ATOM     14  C   UNL A   1      31.217  21.996  25.715  1.00  0.00     0.199 C 
ATOM     15  C   UNL A   1      32.531  20.426  24.599  1.00  0.00     0.319 C 
ATOM     16  O   UNL A   1      31.763  20.683  25.774  1.00  0.00    -0.343 OA
BRANCH   8  17
ATOM     17  N   UNL A   1      33.629  25.538  22.639  1.00  0.00    -0.345 N 
ATOM     18  C   UNL A   1      34.064  28.026  22.402  1.00  0.00     0.114 C 
ATOM     19  C   UNL A   1      33.656  26.672  21.901  1.00  0.00     0.217 C 
ATOM     20  O   UNL A   1      33.305  26.564  20.719  1.00  0.00    -0.275 OA
ATOM     21  H   UNL A   1      33.389  24.777  22.064  1.00  0.00     0.164 HD
ENDBRANCH   8  17
BRANCH   9  22
ATOM     22  O   UNL A   1      32.040  26.626  24.911  1.00  0.00    -0.463 OA
BRANCH  22  23
ATOM     23  C   UNL A   1      32.614  27.736  25.458  1.00  0.00     0.123 A 
ATOM     24  C   UNL A   1      33.858  27.812  26.066  1.00  0.00     0.047 A 
ATOM     25  C   UNL A   1      31.805  28.874  25.443  1.00  0.00     0.050 A 
ATOM     26  C   UNL A   1      34.206  28.938  26.814  1.00  0.00     0.007 A 
ATOM     27  C   UNL A   1      32.171  30.045  26.130  1.00  0.00    -0.045 A 
ATOM     28  C   UNL A   1      33.347  30.042  26.899  1.00  0.00    -0.048 A 
ATOM     29  C   UNL A   1      31.288  31.252  25.977  1.00  0.00     0.045 C 
ATOM     30  C   UNL A   1      33.731  31.176  27.807  1.00  0.00     0.044 C 
ENDBRANCH  22  23
ENDBRANCH   9  22
BRANCH  15  31
ATOM     31  C   UNL A   1      32.909  18.988  24.610  1.00  0.00     0.159 A 
ATOM     32  C   UNL A   1      34.075  18.352  24.223  1.00  0.00     0.051 A 
ATOM     33  O   UNL A   1      32.050  18.077  25.157  1.00  0.00    -0.464 OA
ATOM     34  C   UNL A   1      33.924  16.987  24.555  1.00  0.00     0.042 A 
ATOM     35  C   UNL A   1      32.673  16.870  25.113  1.00  0.00     0.195 A 
ENDBRANCH  15  31
ENDBRANCH   6   7
ENDBRANCH   5   6
ENDBRANCH   3   5
ENDBRANCH   2   3
ENDBRANCH   1   2
BRANCH   1  36
ATOM     36  C   UNL A   1      38.743  19.593  25.049  1.00  0.00     0.275 C 
BRANCH  36  37
ATOM     37  O   UNL A   1      39.528  19.840  26.230  1.00  0.00    -0.458 OA
BRANCH  37  38
ATOM     38  C   UNL A   1      40.866  19.742  26.075  1.00  0.00     0.338 C 
ATOM     39  O   UNL A   1      41.492  18.822  25.579  1.00  0.00    -0.246 OA
BRANCH  38  40
ATOM     40  C   UNL A   1      41.526  20.979  26.524  1.00  0.00     0.060 A 
ATOM     41  C   UNL A   1      41.814  21.158  27.877  1.00  0.00     0.016 A 
ATOM     42  C   UNL A   1      41.716  22.022  25.619  1.00  0.00     0.016 A 
ATOM     43  C   UNL A   1      42.235  22.397  28.346  1.00  0.00     0.010 A 
ATOM     44  C   UNL A   1      42.222  23.241  26.077  1.00  0.00     0.010 A 
ATOM     45  C   UNL A   1      42.468  23.443  27.446  1.00  0.00    -0.014 A 
BRANCH  45  46
ATOM     46  C   UNL A   1      42.996  24.743  27.924  1.00  0.00     0.031 A 
ATOM     47  C   UNL A   1      42.056  25.823  28.376  1.00  0.00     0.074 A 
ATOM     48  C   UNL A   1      44.324  24.965  27.912  1.00  0.00     0.049 A 
ATOM     49  N   UNL A   1      42.307  27.085  28.618  1.00  0.00    -0.248 NA
ATOM     50  C   UNL A   1      40.649  25.439  28.565  1.00  0.00     0.031 C 
ATOM     51  C   UNL A   1      45.346  23.985  27.538  1.00  0.00     0.029 A 
ATOM     52  N   UNL A   1      45.040  26.095  28.212  1.00  0.00    -0.354 N 
ATOM     53  C   UNL A   1      41.084  27.655  28.945  1.00  0.00     0.074 A 
ATOM     54  C   UNL A   1      40.091  26.603  28.868  1.00  0.00     0.031 C 
ATOM     55  C   UNL A   1      46.557  24.553  27.640  1.00  0.00     0.029 A 
ATOM     56  C   UNL A   1      46.391  25.953  28.014  1.00  0.00     0.049 A 
ATOM     57  H   UNL A   1      44.626  26.927  28.537  1.00  0.00     0.167 HD
ATOM     58  C   UNL A   1      40.814  28.942  29.271  1.00  0.00     0.031 A 
ATOM     59  C   UNL A   1      47.384  26.856  28.078  1.00  0.00     0.031 A 
ATOM     60  C   UNL A   1      41.809  29.978  29.373  1.00  0.00     0.049 A 
ATOM     61  C   UNL A   1      47.057  28.283  28.401  1.00  0.00     0.074 A 
ATOM     62  C   UNL A   1      41.639  31.309  29.709  1.00  0.00     0.029 A 
ATOM     63  N   UNL A   1      43.164  29.792  29.150  1.00  0.00    -0.354 N 
ATOM     64  N   UNL A   1      45.890  28.822  28.660  1.00  0.00    -0.248 NA
ATOM     65  C   UNL A   1      48.181  29.228  28.427  1.00  0.00     0.031 C 
ATOM     66  C   UNL A   1      42.888  31.937  29.659  1.00  0.00     0.029 A 
ATOM     67  C   UNL A   1      43.841  30.986  29.328  1.00  0.00     0.049 A 
ATOM     68  H   UNL A   1      43.584  28.936  28.902  1.00  0.00     0.167 HD
ATOM     69  C   UNL A   1      46.140  30.167  28.890  1.00  0.00     0.074 A 
ATOM     70  C   UNL A   1      47.570  30.359  28.756  1.00  0.00     0.031 C 
ATOM     71  C   UNL A   1      45.262  31.156  29.183  1.00  0.00     0.031 A 
BRANCH  58  72
ATOM     72  C   UNL A   1      39.377  29.312  29.501  1.00  0.00    -0.014 A 
ATOM     73  C   UNL A   1      38.828  29.352  30.791  1.00  0.00     0.009 A 
ATOM     74  C   UNL A   1      38.570  29.660  28.406  1.00  0.00     0.009 A 
ATOM     75  C   UNL A   1      37.490  29.710  30.977  1.00  0.00     0.001 A 
ATOM     76  C   UNL A   1      37.240  30.038  28.597  1.00  0.00     0.001 A 
ATOM     77  C   UNL A   1      36.700  30.056  29.882  1.00  0.00     0.000 A 
ENDBRANCH  58  72
BRANCH  59  78
ATOM     78  C   UNL A   1      48.777  26.439  27.782  1.00  0.00    -0.014 A 
ATOM     79  C   UNL A   1      49.622  26.002  28.812  1.00  0.00     0.009 A 
ATOM     80  C   UNL A   1      49.257  26.447  26.462  1.00  0.00     0.009 A 
ATOM     81  C   UNL A   1      50.925  25.592  28.526  1.00  0.00     0.001 A 
ATOM     82  C   UNL A   1      50.552  26.013  26.178  1.00  0.00     0.001 A 
ATOM     83  C   UNL A   1      51.387  25.592  27.211  1.00  0.00     0.000 A 
ENDBRANCH  59  78
BRANCH  71  84
ATOM     84  C   UNL A   1      45.836  32.524  29.404  1.00  0.00    -0.014 A 
ATOM     85  C   UNL A   1      45.966  33.432  28.343  1.00  0.00     0.009 A 
ATOM     86  C   UNL A   1      46.232  32.912  30.693  1.00  0.00     0.009 A 
ATOM     87  C   UNL A   1      46.511  34.698  28.566  1.00  0.00     0.001 A 
ATOM     88  C   UNL A   1      46.759  34.185  30.915  1.00  0.00     0.001 A 
ATOM     89  C   UNL A   1      46.904  35.074  29.850  1.00  0.00     0.000 A 
ENDBRANCH  71  84
ENDBRANCH  45  46
ENDBRANCH  38  40
ENDBRANCH  37  38
ENDBRANCH  36  37
ENDBRANCH   1  36
TORSDOF 17
ENDMDL
MODEL 3
REMARK VINA RESULT:     -11.8      2.038      8.400
REMARK SMILES CC(=O)N[C@H]1[C@@H](Oc2ccc(C)c(C)c2)O[C@H]2CO[C@H](c3ccco3)O[C@@H]2[C@H]1OCC(=O)OCCOC(=O)c1ccc(-c2c3nc(c(-c4ccccc4)c4ccc([nH]4)c(-c4ccccc4)c4nc(c(-c5ccccc5)c5ccc2[nH]5)C=C4)C=C3)cc1
REMARK SMILES IDX 34 1 33 2 31 3 32 4 30 5 29 6 28 7 5 8 6 9 16 10 27 11 17 12
REMARK SMILES IDX 26 13 18 14 20 15 19 16 4 17 1 18 2 19 3 20 7 22 8 23 9 24
REMARK SMILES IDX 15 25 10 26 13 27 11 28 14 29 12 30 21 31 22 32 25 33 23 34
REMARK SMILES IDX 24 35 35 36 36 37 37 38 38 39 39 40 40 41 86 42 41 43 85 44
REMARK SMILES IDX 42 45 43 46 44 47 79 48 45 49 84 50 78 51 80 52 46 53 83 54
REMARK SMILES IDX 77 55 76 56 47 58 69 59 54 60 68 61 55 62 58 63 67 64 81 65
REMARK SMILES IDX 56 66 57 67 66 69 82 70 59 71 48 72 49 73 53 74 50 75 52 76
REMARK SMILES IDX 51 77 70 78 71 79 75 80 72 81 74 82 73 83 60 84 61 85 65 86
REMARK SMILES IDX 62 87 64 88 63 89
REMARK H PARENT 4 21 80 57 58 68
REMARK Flexibility Score: inf
ROOT
ATOM      1  C   UNL A   1      32.173  29.738  25.958  1.00  0.00     0.274 C 
ENDROOT
BRANCH   1   2
ATOM      2  O   UNL A   1      32.789  29.760  24.652  1.00  0.00    -0.460 OA
BRANCH   2   3
ATOM      3  C   UNL A   1      33.392  28.607  24.264  1.00  0.00     0.332 C 
ATOM      4  O   UNL A   1      34.039  27.874  25.006  1.00  0.00    -0.250 OA
BRANCH   3   5
ATOM      5  C   UNL A   1      33.168  28.274  22.779  1.00  0.00     0.283 C 
BRANCH   5   6
ATOM      6  O   UNL A   1      33.220  26.971  22.242  1.00  0.00    -0.361 OA
BRANCH   6   7
ATOM      7  C   UNL A   1      32.084  26.123  22.415  1.00  0.00     0.179 C 
ATOM      8  C   UNL A   1      32.489  24.876  23.242  1.00  0.00     0.182 C 
ATOM      9  C   UNL A   1      31.211  24.081  23.726  1.00  0.00     0.333 C 
ATOM     10  O   UNL A   1      30.164  24.890  24.263  1.00  0.00    -0.332 OA
ATOM     11  C   UNL A   1      30.922  26.865  23.123  1.00  0.00     0.184 C 
ATOM     12  C   UNL A   1      29.755  25.901  23.351  1.00  0.00     0.180 C 
ATOM     13  O   UNL A   1      30.478  28.018  22.404  1.00  0.00    -0.337 OA
ATOM     14  C   UNL A   1      28.558  26.649  23.940  1.00  0.00     0.199 C 
ATOM     15  C   UNL A   1      29.462  28.661  23.186  1.00  0.00     0.319 C 
ATOM     16  O   UNL A   1      28.289  27.850  23.225  1.00  0.00    -0.343 OA
BRANCH   8  17
ATOM     17  N   UNL A   1      33.569  25.035  24.263  1.00  0.00    -0.345 N 
ATOM     18  C   UNL A   1      35.335  23.223  24.081  1.00  0.00     0.114 C 
ATOM     19  C   UNL A   1      34.702  24.435  24.698  1.00  0.00     0.217 C 
ATOM     20  O   UNL A   1      35.241  24.938  25.691  1.00  0.00    -0.275 OA
ATOM     21  H   UNL A   1      33.401  25.845  24.797  1.00  0.00     0.164 HD
ENDBRANCH   8  17
BRANCH   9  22
ATOM     22  O   UNL A   1      31.483  22.927  24.530  1.00  0.00    -0.463 OA
BRANCH  22  23
ATOM     23  C   UNL A   1      31.906  21.760  23.965  1.00  0.00     0.123 A 
ATOM     24  C   UNL A   1      31.955  21.465  22.611  1.00  0.00     0.047 A 
ATOM     25  C   UNL A   1      32.253  20.764  24.880  1.00  0.00     0.050 A 
ATOM     26  C   UNL A   1      32.156  20.150  22.186  1.00  0.00     0.007 A 
ATOM     27  C   UNL A   1      32.531  19.449  24.467  1.00  0.00    -0.045 A 
ATOM     28  C   UNL A   1      32.390  19.121  23.108  1.00  0.00    -0.048 A 
ATOM     29  C   UNL A   1      32.991  18.470  25.510  1.00  0.00     0.045 C 
ATOM     30  C   UNL A   1      32.489  17.712  22.595  1.00  0.00     0.044 C 
ENDBRANCH  22  23
ENDBRANCH   9  22
BRANCH  15  31
ATOM     31  C   UNL A   1      29.082  29.980  22.612  1.00  0.00     0.159 A 
ATOM     32  C   UNL A   1      28.823  31.195  23.221  1.00  0.00     0.051 A 
ATOM     33  O   UNL A   1      29.041  30.130  21.255  1.00  0.00    -0.464 OA
ATOM     34  C   UNL A   1      28.620  32.134  22.185  1.00  0.00     0.042 A 
ATOM     35  C   UNL A   1      28.755  31.435  21.009  1.00  0.00     0.195 A 
ENDBRANCH  15  31
ENDBRANCH   6   7
ENDBRANCH   5   6
ENDBRANCH   3   5
ENDBRANCH   2   3
ENDBRANCH   1   2
BRANCH   1  36
ATOM     36  C   UNL A   1      32.903  30.673  26.924  1.00  0.00     0.275 C 
BRANCH  36  37
ATOM     37  O   UNL A   1      33.944  29.960  27.616  1.00  0.00    -0.458 OA
BRANCH  37  38
ATOM     38  C   UNL A   1      34.775  30.718  28.365  1.00  0.00     0.338 C 
ATOM     39  O   UNL A   1      34.509  31.748  28.958  1.00  0.00    -0.246 OA
BRANCH  38  40
ATOM     40  C   UNL A   1      36.099  30.084  28.462  1.00  0.00     0.060 A 
ATOM     41  C   UNL A   1      36.550  29.608  29.693  1.00  0.00     0.016 A 
ATOM     42  C   UNL A   1      36.953  30.103  27.360  1.00  0.00     0.016 A 
ATOM     43  C   UNL A   1      37.873  29.205  29.848  1.00  0.00     0.010 A 
ATOM     44  C   UNL A   1      38.256  29.617  27.494  1.00  0.00     0.010 A 
ATOM     45  C   UNL A   1      38.731  29.182  28.743  1.00  0.00    -0.014 A 
BRANCH  45  46
ATOM     46  C   UNL A   1      40.118  28.678  28.878  1.00  0.00     0.031 A 
ATOM     47  C   UNL A   1      41.228  29.608  29.270  1.00  0.00     0.074 A 
ATOM     48  C   UNL A   1      40.383  27.386  28.606  1.00  0.00     0.049 A 
ATOM     49  N   UNL A   1      42.521  29.411  29.230  1.00  0.00    -0.248 NA
ATOM     50  C   UNL A   1      40.834  30.940  29.757  1.00  0.00     0.031 C 
ATOM     51  C   UNL A   1      39.389  26.369  28.257  1.00  0.00     0.029 A 
ATOM     52  N   UNL A   1      41.576  26.712  28.569  1.00  0.00    -0.354 N 
ATOM     53  C   UNL A   1      43.097  30.605  29.642  1.00  0.00     0.074 A 
ATOM     54  C   UNL A   1      42.014  31.523  29.927  1.00  0.00     0.031 C 
ATOM     55  C   UNL A   1      40.012  25.199  28.051  1.00  0.00     0.029 A 
ATOM     56  C   UNL A   1      41.450  25.401  28.180  1.00  0.00     0.049 A 
ATOM     57  H   UNL A   1      42.440  27.126  28.798  1.00  0.00     0.167 HD
ATOM     58  C   UNL A   1      44.412  30.909  29.764  1.00  0.00     0.031 A 
ATOM     59  C   UNL A   1      42.386  24.474  27.912  1.00  0.00     0.031 A 
ATOM     60  C   UNL A   1      45.485  29.984  29.507  1.00  0.00     0.049 A 
ATOM     61  C   UNL A   1      43.835  24.846  28.014  1.00  0.00     0.074 A 
ATOM     62  C   UNL A   1      46.849  30.192  29.614  1.00  0.00     0.029 A 
ATOM     63  N   UNL A   1      45.311  28.670  29.102  1.00  0.00    -0.354 N 
ATOM     64  N   UNL A   1      44.368  25.992  28.357  1.00  0.00    -0.248 NA
ATOM     65  C   UNL A   1      44.809  23.799  27.678  1.00  0.00     0.031 C 
ATOM     66  C   UNL A   1      47.502  29.011  29.243  1.00  0.00     0.029 A 
ATOM     67  C   UNL A   1      46.542  28.058  28.942  1.00  0.00     0.049 A 
ATOM     68  H   UNL A   1      44.440  28.236  28.951  1.00  0.00     0.167 HD
ATOM     69  C   UNL A   1      45.741  25.803  28.290  1.00  0.00     0.074 A 
ATOM     70  C   UNL A   1      45.958  24.428  27.888  1.00  0.00     0.031 C 
ATOM     71  C   UNL A   1      46.735  26.692  28.535  1.00  0.00     0.031 A 
BRANCH  58  72
ATOM     72  C   UNL A   1      44.764  32.315  30.155  1.00  0.00    -0.014 A 
ATOM     73  C   UNL A   1      44.938  32.680  31.499  1.00  0.00     0.009 A 
ATOM     74  C   UNL A   1      44.959  33.282  29.156  1.00  0.00     0.009 A 
ATOM     75  C   UNL A   1      45.276  33.994  31.834  1.00  0.00     0.001 A 
ATOM     76  C   UNL A   1      45.318  34.587  29.492  1.00  0.00     0.001 A 
ATOM     77  C   UNL A   1      45.470  34.944  30.832  1.00  0.00     0.000 A 
ENDBRANCH  58  72
BRANCH  59  78
ATOM     78  C   UNL A   1      41.972  23.119  27.472  1.00  0.00    -0.014 A 
ATOM     79  C   UNL A   1      41.918  22.800  26.108  1.00  0.00     0.009 A 
ATOM     80  C   UNL A   1      41.659  22.129  28.418  1.00  0.00     0.009 A 
ATOM     81  C   UNL A   1      41.546  21.518  25.700  1.00  0.00     0.001 A 
ATOM     82  C   UNL A   1      41.311  20.842  28.006  1.00  0.00     0.001 A 
ATOM     83  C   UNL A   1      41.250  20.540  26.647  1.00  0.00     0.000 A 
ENDBRANCH  59  78
BRANCH  71  84
ATOM     84  C   UNL A   1      48.140  26.185  28.401  1.00  0.00    -0.014 A 
ATOM     85  C   UNL A   1      48.798  25.585  29.484  1.00  0.00     0.009 A 
ATOM     86  C   UNL A   1      48.803  26.293  27.169  1.00  0.00     0.009 A 
ATOM     87  C   UNL A   1      50.109  25.128  29.343  1.00  0.00     0.001 A 
ATOM     88  C   UNL A   1      50.107  25.818  27.026  1.00  0.00     0.001 A 
ATOM     89  C   UNL A   1      50.761  25.242  28.115  1.00  0.00     0.000 A 
ENDBRANCH  71  84
ENDBRANCH  45  46
ENDBRANCH  38  40
ENDBRANCH  37  38
ENDBRANCH  36  37
ENDBRANCH   1  36
TORSDOF 17
ENDMDL
