MODEL 1
REMARK VINA RESULT:     -11.8      0.000      0.000
REMARK SMILES Cc1ccnc(C(=O)c2[nH]c3ccc(F)cc3c2CC(=O)OCCOC(=O)c2ccc(-c3c4nc(c(-c5ccccc5)c5ccc([nH]5)c(-c5ccccc5)c5nc(c(-c6ccccc6)c6ccc3[nH]6)C=C5)C=C4)cc2)c1
REMARK SMILES IDX 23 1 22 2 20 3 21 4 19 5 18 6 9 7 10 8 11 9 17 11 12 12
REMARK SMILES IDX 16 13 13 14 14 15 15 16 7 17 8 18 6 19 1 20 2 21 3 22 76 23
REMARK SMILES IDX 4 24 5 25 24 26 25 27 26 28 27 29 28 30 29 31 75 32 30 33
REMARK SMILES IDX 74 34 31 35 32 36 33 37 68 38 34 39 73 40 67 41 69 42 35 43
REMARK SMILES IDX 72 44 66 45 65 46 36 48 58 49 43 50 57 51 44 52 47 53 56 54
REMARK SMILES IDX 70 55 45 56 46 57 55 59 71 60 48 61 37 62 38 63 42 64 39 65
REMARK SMILES IDX 41 66 40 67 59 68 60 69 64 70 61 71 63 72 62 73 49 74 50 75
REMARK SMILES IDX 54 76 51 77 53 78 52 79
REMARK H PARENT 10 10 69 47 47 58
REMARK Flexibility Score: inf
ROOT
ATOM      1  C   UNL A   1      31.548  31.648  26.654  1.00  0.00     0.274 C 
ENDROOT
BRANCH   1   2
ATOM      2  O   UNL A   1      31.761  30.237  26.877  1.00  0.00    -0.462 OA
BRANCH   2   3
ATOM      3  C   UNL A   1      32.181  29.526  25.798  1.00  0.00     0.310 C 
ATOM      4  O   UNL A   1      33.252  29.727  25.225  1.00  0.00    -0.252 OA
BRANCH   3   5
ATOM      5  C   UNL A   1      31.314  28.339  25.441  1.00  0.00     0.161 C 
BRANCH   5   6
ATOM      6  C   UNL A   1      31.412  27.772  24.057  1.00  0.00     0.000 A 
ATOM      7  C   UNL A   1      30.488  27.876  23.013  1.00  0.00     0.093 A 
ATOM      8  N   UNL A   1      30.862  26.951  22.062  1.00  0.00    -0.352 N 
ATOM      9  C   UNL A   1      31.957  26.230  22.477  1.00  0.00     0.046 A 
ATOM     10  H   UNL A   1      30.407  26.823  21.198  1.00  0.00     0.167 HD
ATOM     11  C   UNL A   1      32.377  26.781  23.685  1.00  0.00     0.007 A 
ATOM     12  C   UNL A   1      32.565  25.102  21.910  1.00  0.00     0.030 A 
ATOM     13  C   UNL A   1      33.492  26.217  24.338  1.00  0.00     0.049 A 
ATOM     14  C   UNL A   1      33.649  24.540  22.591  1.00  0.00     0.041 A 
ATOM     15  C   UNL A   1      34.108  25.104  23.774  1.00  0.00     0.123 A 
ATOM     16  F   UNL A   1      35.148  24.542  24.407  1.00  0.00    -0.207 F 
BRANCH   7  17
ATOM     17  C   UNL A   1      29.176  28.520  22.962  1.00  0.00     0.227 C 
ATOM     18  O   UNL A   1      28.191  27.904  23.368  1.00  0.00    -0.285 OA
BRANCH  17  19
ATOM     19  C   UNL A   1      28.982  29.903  22.367  1.00  0.00     0.113 A 
ATOM     20  C   UNL A   1      28.990  33.585  23.294  1.00  0.00     0.044 C 
ATOM     21  C   UNL A   1      28.863  32.307  22.517  1.00  0.00    -0.047 A 
ATOM     22  C   UNL A   1      28.145  32.308  21.320  1.00  0.00     0.023 A 
ATOM     23  C   UNL A   1      29.326  31.082  23.032  1.00  0.00     0.036 A 
ATOM     24  C   UNL A   1      27.921  31.102  20.683  1.00  0.00     0.112 A 
ATOM     25  N   UNL A   1      28.319  29.912  21.173  1.00  0.00    -0.253 NA
ENDBRANCH  17  19
ENDBRANCH   7  17
ENDBRANCH   5   6
ENDBRANCH   3   5
ENDBRANCH   2   3
ENDBRANCH   1   2
BRANCH   1  26
ATOM     26  C   UNL A   1      32.603  32.498  27.383  1.00  0.00     0.275 C 
BRANCH  26  27
ATOM     27  O   UNL A   1      32.210  33.881  27.563  1.00  0.00    -0.458 OA
BRANCH  27  28
ATOM     28  C   UNL A   1      32.970  34.520  28.477  1.00  0.00     0.338 C 
ATOM     29  O   UNL A   1      32.687  35.570  29.019  1.00  0.00    -0.246 OA
BRANCH  28  30
ATOM     30  C   UNL A   1      34.183  33.833  28.901  1.00  0.00     0.060 A 
ATOM     31  C   UNL A   1      34.143  33.124  30.102  1.00  0.00     0.016 A 
ATOM     32  C   UNL A   1      35.399  34.169  28.302  1.00  0.00     0.016 A 
ATOM     33  C   UNL A   1      35.334  32.744  30.711  1.00  0.00     0.010 A 
ATOM     34  C   UNL A   1      36.592  33.734  28.882  1.00  0.00     0.010 A 
ATOM     35  C   UNL A   1      36.563  33.013  30.086  1.00  0.00    -0.014 A 
BRANCH  35  36
ATOM     36  C   UNL A   1      37.774  32.326  30.583  1.00  0.00     0.031 A 
ATOM     37  C   UNL A   1      38.308  31.068  29.974  1.00  0.00     0.074 A 
ATOM     38  C   UNL A   1      38.394  32.902  31.630  1.00  0.00     0.049 A 
ATOM     39  N   UNL A   1      39.376  30.392  30.319  1.00  0.00    -0.248 NA
ATOM     40  C   UNL A   1      37.560  30.488  28.851  1.00  0.00     0.031 C 
ATOM     41  C   UNL A   1      37.947  34.131  32.293  1.00  0.00     0.029 A 
ATOM     42  N   UNL A   1      39.529  32.550  32.306  1.00  0.00    -0.354 N 
ATOM     43  C   UNL A   1      39.431  29.303  29.460  1.00  0.00     0.074 A 
ATOM     44  C   UNL A   1      38.276  29.399  28.588  1.00  0.00     0.031 C 
ATOM     45  C   UNL A   1      38.818  34.450  33.258  1.00  0.00     0.029 A 
ATOM     46  C   UNL A   1      39.851  33.424  33.312  1.00  0.00     0.049 A 
ATOM     47  H   UNL A   1      40.061  31.750  32.093  1.00  0.00     0.167 HD
ATOM     48  C   UNL A   1      40.364  28.320  29.411  1.00  0.00     0.031 A 
ATOM     49  C   UNL A   1      40.861  33.404  34.198  1.00  0.00     0.031 A 
ATOM     50  C   UNL A   1      41.507  28.235  30.288  1.00  0.00     0.049 A 
ATOM     51  C   UNL A   1      41.855  32.292  34.136  1.00  0.00     0.074 A 
ATOM     52  C   UNL A   1      42.528  27.299  30.287  1.00  0.00     0.029 A 
ATOM     53  N   UNL A   1      41.777  29.113  31.327  1.00  0.00    -0.354 N 
ATOM     54  N   UNL A   1      41.907  31.284  33.300  1.00  0.00    -0.248 NA
ATOM     55  C   UNL A   1      42.926  32.311  35.138  1.00  0.00     0.031 C 
ATOM     56  C   UNL A   1      43.389  27.583  31.353  1.00  0.00     0.029 A 
ATOM     57  C   UNL A   1      42.930  28.723  31.991  1.00  0.00     0.049 A 
ATOM     58  H   UNL A   1      41.230  29.898  31.559  1.00  0.00     0.167 HD
ATOM     59  C   UNL A   1      43.023  30.550  33.668  1.00  0.00     0.074 A 
ATOM     60  C   UNL A   1      43.628  31.240  34.792  1.00  0.00     0.031 C 
ATOM     61  C   UNL A   1      43.502  29.406  33.123  1.00  0.00     0.031 A 
BRANCH  48  62
ATOM     62  C   UNL A   1      40.185  27.231  28.390  1.00  0.00    -0.014 A 
ATOM     63  C   UNL A   1      40.804  27.301  27.134  1.00  0.00     0.009 A 
ATOM     64  C   UNL A   1      39.456  26.077  28.724  1.00  0.00     0.009 A 
ATOM     65  C   UNL A   1      40.683  26.246  26.225  1.00  0.00     0.001 A 
ATOM     66  C   UNL A   1      39.352  25.017  27.821  1.00  0.00     0.001 A 
ATOM     67  C   UNL A   1      39.962  25.103  26.570  1.00  0.00     0.000 A 
ENDBRANCH  48  62
BRANCH  49  68
ATOM     68  C   UNL A   1      40.952  34.485  35.207  1.00  0.00    -0.014 A 
ATOM     69  C   UNL A   1      40.303  34.357  36.442  1.00  0.00     0.009 A 
ATOM     70  C   UNL A   1      41.758  35.609  34.968  1.00  0.00     0.009 A 
ATOM     71  C   UNL A   1      40.457  35.342  37.420  1.00  0.00     0.001 A 
ATOM     72  C   UNL A   1      41.929  36.578  35.955  1.00  0.00     0.001 A 
ATOM     73  C   UNL A   1      41.275  36.446  37.179  1.00  0.00     0.000 A 
ENDBRANCH  49  68
BRANCH  61  74
ATOM     74  C   UNL A   1      44.743  28.841  33.747  1.00  0.00    -0.014 A 
ATOM     75  C   UNL A   1      46.015  29.230  33.298  1.00  0.00     0.009 A 
ATOM     76  C   UNL A   1      44.640  27.907  34.788  1.00  0.00     0.009 A 
ATOM     77  C   UNL A   1      47.161  28.664  33.858  1.00  0.00     0.001 A 
ATOM     78  C   UNL A   1      45.788  27.361  35.361  1.00  0.00     0.001 A 
ATOM     79  C   UNL A   1      47.048  27.732  34.889  1.00  0.00     0.000 A 
ENDBRANCH  61  74
ENDBRANCH  35  36
ENDBRANCH  28  30
ENDBRANCH  27  28
ENDBRANCH  26  27
ENDBRANCH   1  26
TORSDOF 14
ENDMDL
MODEL 2
REMARK VINA RESULT:     -11.8      1.063      5.971
REMARK SMILES Cc1ccnc(C(=O)c2[nH]c3ccc(F)cc3c2CC(=O)OCCOC(=O)c2ccc(-c3c4nc(c(-c5ccccc5)c5ccc([nH]5)c(-c5ccccc5)c5nc(c(-c6ccccc6)c6ccc3[nH]6)C=C5)C=C4)cc2)c1
REMARK SMILES IDX 23 1 22 2 20 3 21 4 19 5 18 6 9 7 10 8 11 9 17 11 12 12
REMARK SMILES IDX 16 13 13 14 14 15 15 16 7 17 8 18 6 19 1 20 2 21 3 22 76 23
REMARK SMILES IDX 4 24 5 25 24 26 25 27 26 28 27 29 28 30 29 31 75 32 30 33
REMARK SMILES IDX 74 34 31 35 32 36 33 37 68 38 34 39 73 40 67 41 69 42 35 43
REMARK SMILES IDX 72 44 66 45 65 46 36 48 58 49 43 50 57 51 44 52 47 53 56 54
REMARK SMILES IDX 70 55 45 56 46 57 55 59 71 60 48 61 37 62 38 63 42 64 39 65
REMARK SMILES IDX 41 66 40 67 59 68 60 69 64 70 61 71 63 72 62 73 49 74 50 75
REMARK SMILES IDX 54 76 51 77 53 78 52 79
REMARK H PARENT 10 10 69 47 47 58
REMARK Flexibility Score: inf
ROOT
ATOM      1  C   UNL A   1      31.688  31.796  26.769  1.00  0.00     0.274 C 
ENDROOT
BRANCH   1   2
ATOM      2  O   UNL A   1      31.671  30.358  26.901  1.00  0.00    -0.462 OA
BRANCH   2   3
ATOM      3  C   UNL A   1      32.105  29.661  25.818  1.00  0.00     0.310 C 
ATOM      4  O   UNL A   1      33.192  29.857  25.274  1.00  0.00    -0.252 OA
BRANCH   3   5
ATOM      5  C   UNL A   1      31.229  28.494  25.420  1.00  0.00     0.161 C 
BRANCH   5   6
ATOM      6  C   UNL A   1      31.378  27.927  24.040  1.00  0.00     0.000 A 
ATOM      7  C   UNL A   1      30.486  28.018  22.967  1.00  0.00     0.093 A 
ATOM      8  N   UNL A   1      30.902  27.097  22.030  1.00  0.00    -0.352 N 
ATOM      9  C   UNL A   1      31.992  26.391  22.480  1.00  0.00     0.046 A 
ATOM     10  H   UNL A   1      30.475  26.962  21.152  1.00  0.00     0.167 HD
ATOM     11  C   UNL A   1      32.367  26.948  23.700  1.00  0.00     0.007 A 
ATOM     12  C   UNL A   1      32.632  25.270  21.934  1.00  0.00     0.030 A 
ATOM     13  C   UNL A   1      33.468  26.400  24.389  1.00  0.00     0.049 A 
ATOM     14  C   UNL A   1      33.702  24.723  22.650  1.00  0.00     0.041 A 
ATOM     15  C   UNL A   1      34.116  25.294  23.845  1.00  0.00     0.123 A 
ATOM     16  F   UNL A   1      35.143  24.747  24.512  1.00  0.00    -0.207 F 
BRANCH   7  17
ATOM     17  C   UNL A   1      29.167  28.644  22.874  1.00  0.00     0.227 C 
ATOM     18  O   UNL A   1      28.176  28.007  23.229  1.00  0.00    -0.285 OA
BRANCH  17  19
ATOM     19  C   UNL A   1      28.978  30.035  22.296  1.00  0.00     0.113 A 
ATOM     20  C   UNL A   1      29.000  33.706  23.268  1.00  0.00     0.044 C 
ATOM     21  C   UNL A   1      28.867  32.437  22.476  1.00  0.00    -0.047 A 
ATOM     22  C   UNL A   1      28.148  32.455  21.280  1.00  0.00     0.023 A 
ATOM     23  C   UNL A   1      29.326  31.205  22.975  1.00  0.00     0.036 A 
ATOM     24  C   UNL A   1      27.919  31.258  20.628  1.00  0.00     0.112 A 
ATOM     25  N   UNL A   1      28.313  30.061  21.103  1.00  0.00    -0.253 NA
ENDBRANCH  17  19
ENDBRANCH   7  17
ENDBRANCH   5   6
ENDBRANCH   3   5
ENDBRANCH   2   3
ENDBRANCH   1   2
BRANCH   1  26
ATOM     26  C   UNL A   1      32.822  32.423  27.600  1.00  0.00     0.275 C 
BRANCH  26  27
ATOM     27  O   UNL A   1      32.729  33.865  27.713  1.00  0.00    -0.458 OA
BRANCH  27  28
ATOM     28  C   UNL A   1      33.176  34.321  28.902  1.00  0.00     0.338 C 
ATOM     29  O   UNL A   1      32.546  35.019  29.670  1.00  0.00    -0.246 OA
BRANCH  28  30
ATOM     30  C   UNL A   1      34.491  33.852  29.319  1.00  0.00     0.060 A 
ATOM     31  C   UNL A   1      35.556  34.032  28.436  1.00  0.00     0.016 A 
ATOM     32  C   UNL A   1      34.588  32.965  30.393  1.00  0.00     0.016 A 
ATOM     33  C   UNL A   1      36.733  33.318  28.629  1.00  0.00     0.010 A 
ATOM     34  C   UNL A   1      35.790  32.294  30.622  1.00  0.00     0.010 A 
ATOM     35  C   UNL A   1      36.870  32.474  29.744  1.00  0.00    -0.014 A 
BRANCH  35  36
ATOM     36  C   UNL A   1      38.220  31.987  30.100  1.00  0.00     0.031 A 
ATOM     37  C   UNL A   1      39.150  32.737  30.999  1.00  0.00     0.074 A 
ATOM     38  C   UNL A   1      38.581  30.803  29.570  1.00  0.00     0.049 A 
ATOM     39  N   UNL A   1      40.351  32.391  31.394  1.00  0.00    -0.248 NA
ATOM     40  C   UNL A   1      38.692  34.034  31.517  1.00  0.00     0.031 C 
ATOM     41  C   UNL A   1      37.741  29.995  28.679  1.00  0.00     0.029 A 
ATOM     42  N   UNL A   1      39.724  30.067  29.709  1.00  0.00    -0.354 N 
ATOM     43  C   UNL A   1      40.798  33.425  32.204  1.00  0.00     0.074 A 
ATOM     44  C   UNL A   1      39.745  34.422  32.229  1.00  0.00     0.031 C 
ATOM     45  C   UNL A   1      38.383  28.860  28.381  1.00  0.00     0.029 A 
ATOM     46  C   UNL A   1      39.694  28.885  29.016  1.00  0.00     0.049 A 
ATOM     47  H   UNL A   1      40.492  30.357  30.253  1.00  0.00     0.167 HD
ATOM     48  C   UNL A   1      41.980  33.524  32.861  1.00  0.00     0.031 A 
ATOM     49  C   UNL A   1      40.622  27.921  28.889  1.00  0.00     0.031 A 
ATOM     50  C   UNL A   1      43.021  32.524  32.824  1.00  0.00     0.049 A 
ATOM     51  C   UNL A   1      41.925  28.074  29.602  1.00  0.00     0.074 A 
ATOM     52  C   UNL A   1      44.235  32.517  33.491  1.00  0.00     0.029 A 
ATOM     53  N   UNL A   1      42.975  31.359  32.073  1.00  0.00    -0.354 N 
ATOM     54  N   UNL A   1      42.321  29.046  30.386  1.00  0.00    -0.248 NA
ATOM     55  C   UNL A   1      42.907  27.001  29.414  1.00  0.00     0.031 C 
ATOM     56  C   UNL A   1      44.943  31.372  33.107  1.00  0.00     0.029 A 
ATOM     57  C   UNL A   1      44.151  30.642  32.236  1.00  0.00     0.049 A 
ATOM     58  H   UNL A   1      42.219  31.081  31.507  1.00  0.00     0.167 HD
ATOM     59  C   UNL A   1      43.600  28.700  30.794  1.00  0.00     0.074 A 
ATOM     60  C   UNL A   1      43.902  27.419  30.184  1.00  0.00     0.031 C 
ATOM     61  C   UNL A   1      44.446  29.384  31.601  1.00  0.00     0.031 A 
BRANCH  48  62
ATOM     62  C   UNL A   1      42.236  34.767  33.667  1.00  0.00    -0.014 A 
ATOM     63  C   UNL A   1      42.836  35.897  33.092  1.00  0.00     0.009 A 
ATOM     64  C   UNL A   1      41.790  34.838  34.997  1.00  0.00     0.009 A 
ATOM     65  C   UNL A   1      43.001  37.067  33.838  1.00  0.00     0.001 A 
ATOM     66  C   UNL A   1      41.940  36.015  35.735  1.00  0.00     0.001 A 
ATOM     67  C   UNL A   1      42.549  37.128  35.156  1.00  0.00     0.000 A 
ENDBRANCH  48  62
BRANCH  49  68
ATOM     68  C   UNL A   1      40.322  26.743  28.043  1.00  0.00    -0.014 A 
ATOM     69  C   UNL A   1      40.811  26.669  26.731  1.00  0.00     0.009 A 
ATOM     70  C   UNL A   1      39.616  25.653  28.574  1.00  0.00     0.009 A 
ATOM     71  C   UNL A   1      40.593  25.523  25.966  1.00  0.00     0.001 A 
ATOM     72  C   UNL A   1      39.421  24.500  27.815  1.00  0.00     0.001 A 
ATOM     73  C   UNL A   1      39.907  24.437  26.510  1.00  0.00     0.000 A 
ENDBRANCH  49  68
BRANCH  61  74
ATOM     74  C   UNL A   1      45.777  28.745  31.862  1.00  0.00    -0.014 A 
ATOM     75  C   UNL A   1      46.883  29.026  31.043  1.00  0.00     0.009 A 
ATOM     76  C   UNL A   1      45.927  27.850  32.931  1.00  0.00     0.009 A 
ATOM     77  C   UNL A   1      48.105  28.392  31.270  1.00  0.00     0.001 A 
ATOM     78  C   UNL A   1      47.156  27.236  33.169  1.00  0.00     0.001 A 
ATOM     79  C   UNL A   1      48.241  27.499  32.333  1.00  0.00     0.000 A 
ENDBRANCH  61  74
ENDBRANCH  35  36
ENDBRANCH  28  30
ENDBRANCH  27  28
ENDBRANCH  26  27
ENDBRANCH   1  26
TORSDOF 14
ENDMDL
MODEL 3
REMARK VINA RESULT:     -11.7      1.694      3.776
REMARK SMILES Cc1ccnc(C(=O)c2[nH]c3ccc(F)cc3c2CC(=O)OCCOC(=O)c2ccc(-c3c4nc(c(-c5ccccc5)c5ccc([nH]5)c(-c5ccccc5)c5nc(c(-c6ccccc6)c6ccc3[nH]6)C=C5)C=C4)cc2)c1
REMARK SMILES IDX 23 1 22 2 20 3 21 4 19 5 18 6 9 7 10 8 11 9 17 11 12 12
REMARK SMILES IDX 16 13 13 14 14 15 15 16 7 17 8 18 6 19 1 20 2 21 3 22 76 23
REMARK SMILES IDX 4 24 5 25 24 26 25 27 26 28 27 29 28 30 29 31 75 32 30 33
REMARK SMILES IDX 74 34 31 35 32 36 33 37 68 38 34 39 73 40 67 41 69 42 35 43
REMARK SMILES IDX 72 44 66 45 65 46 36 48 58 49 43 50 57 51 44 52 47 53 56 54
REMARK SMILES IDX 70 55 45 56 46 57 55 59 71 60 48 61 37 62 38 63 42 64 39 65
REMARK SMILES IDX 41 66 40 67 59 68 60 69 64 70 61 71 63 72 62 73 49 74 50 75
REMARK SMILES IDX 54 76 51 77 53 78 52 79
REMARK H PARENT 10 10 69 47 47 58
REMARK Flexibility Score: inf
ROOT
ATOM      1  C   UNL A   1      31.679  31.357  26.501  1.00  0.00     0.274 C 
ENDROOT
BRANCH   1   2
ATOM      2  O   UNL A   1      31.972  29.955  26.689  1.00  0.00    -0.462 OA
BRANCH   2   3
ATOM      3  C   UNL A   1      32.896  29.427  25.844  1.00  0.00     0.310 C 
ATOM      4  O   UNL A   1      33.912  28.846  26.223  1.00  0.00    -0.252 OA
BRANCH   3   5
ATOM      5  C   UNL A   1      32.505  29.447  24.382  1.00  0.00     0.161 C 
BRANCH   5   6
ATOM      6  C   UNL A   1      31.251  28.739  23.967  1.00  0.00     0.000 A 
ATOM      7  C   UNL A   1      31.109  27.419  23.526  1.00  0.00     0.093 A 
ATOM      8  N   UNL A   1      29.850  27.322  22.974  1.00  0.00    -0.352 N 
ATOM      9  C   UNL A   1      29.202  28.534  23.002  1.00  0.00     0.046 A 
ATOM     10  H   UNL A   1      29.463  26.493  22.608  1.00  0.00     0.167 HD
ATOM     11  C   UNL A   1      30.021  29.421  23.697  1.00  0.00     0.007 A 
ATOM     12  C   UNL A   1      27.991  28.927  22.417  1.00  0.00     0.030 A 
ATOM     13  C   UNL A   1      29.591  30.753  23.868  1.00  0.00     0.049 A 
ATOM     14  C   UNL A   1      27.600  30.260  22.571  1.00  0.00     0.041 A 
ATOM     15  C   UNL A   1      28.383  31.145  23.298  1.00  0.00     0.123 A 
ATOM     16  F   UNL A   1      27.985  32.419  23.428  1.00  0.00    -0.207 F 
BRANCH   7  17
ATOM     17  C   UNL A   1      32.108  26.373  23.311  1.00  0.00     0.227 C 
ATOM     18  O   UNL A   1      32.396  26.047  22.160  1.00  0.00    -0.285 OA
BRANCH  17  19
ATOM     19  C   UNL A   1      32.758  25.634  24.467  1.00  0.00     0.113 A 
ATOM     20  C   UNL A   1      36.068  24.140  25.578  1.00  0.00     0.044 C 
ATOM     21  C   UNL A   1      34.623  24.546  25.542  1.00  0.00    -0.047 A 
ATOM     22  C   UNL A   1      33.712  23.892  26.373  1.00  0.00     0.023 A 
ATOM     23  C   UNL A   1      34.139  25.466  24.594  1.00  0.00     0.036 A 
ATOM     24  C   UNL A   1      32.367  24.179  26.236  1.00  0.00     0.112 A 
ATOM     25  N   UNL A   1      31.874  25.026  25.313  1.00  0.00    -0.253 NA
ENDBRANCH  17  19
ENDBRANCH   7  17
ENDBRANCH   5   6
ENDBRANCH   3   5
ENDBRANCH   2   3
ENDBRANCH   1   2
BRANCH   1  26
ATOM     26  C   UNL A   1      32.710  32.247  27.217  1.00  0.00     0.275 C 
BRANCH  26  27
ATOM     27  O   UNL A   1      32.192  33.547  27.593  1.00  0.00    -0.458 OA
BRANCH  27  28
ATOM     28  C   UNL A   1      33.086  34.279  28.289  1.00  0.00     0.338 C 
ATOM     29  O   UNL A   1      32.916  35.418  28.676  1.00  0.00    -0.246 OA
BRANCH  28  30
ATOM     30  C   UNL A   1      34.315  33.598  28.675  1.00  0.00     0.060 A 
ATOM     31  C   UNL A   1      34.332  32.933  29.901  1.00  0.00     0.016 A 
ATOM     32  C   UNL A   1      35.502  33.903  28.004  1.00  0.00     0.016 A 
ATOM     33  C   UNL A   1      35.550  32.565  30.463  1.00  0.00     0.010 A 
ATOM     34  C   UNL A   1      36.719  33.480  28.539  1.00  0.00     0.010 A 
ATOM     35  C   UNL A   1      36.747  32.803  29.767  1.00  0.00    -0.014 A 
BRANCH  35  36
ATOM     36  C   UNL A   1      37.978  32.124  30.227  1.00  0.00     0.031 A 
ATOM     37  C   UNL A   1      38.459  30.828  29.656  1.00  0.00     0.074 A 
ATOM     38  C   UNL A   1      38.667  32.745  31.202  1.00  0.00     0.049 A 
ATOM     39  N   UNL A   1      39.538  30.155  29.972  1.00  0.00    -0.248 NA
ATOM     40  C   UNL A   1      37.636  30.201  28.612  1.00  0.00     0.031 C 
ATOM     41  C   UNL A   1      38.277  34.015  31.824  1.00  0.00     0.029 A 
ATOM     42  N   UNL A   1      39.837  32.412  31.827  1.00  0.00    -0.354 N 
ATOM     43  C   UNL A   1      39.527  29.021  29.171  1.00  0.00     0.074 A 
ATOM     44  C   UNL A   1      38.322  29.089  28.367  1.00  0.00     0.031 C 
ATOM     45  C   UNL A   1      39.208  34.371  32.716  1.00  0.00     0.029 A 
ATOM     46  C   UNL A   1      40.230  33.334  32.764  1.00  0.00     0.049 A 
ATOM     47  H   UNL A   1      40.346  31.594  31.626  1.00  0.00     0.167 HD
ATOM     48  C   UNL A   1      40.443  28.022  29.120  1.00  0.00     0.031 A 
ATOM     49  C   UNL A   1      41.292  33.345  33.587  1.00  0.00     0.031 A 
ATOM     50  C   UNL A   1      41.637  27.967  29.930  1.00  0.00     0.049 A 
ATOM     51  C   UNL A   1      42.267  32.216  33.526  1.00  0.00     0.074 A 
ATOM     52  C   UNL A   1      42.644  27.016  29.917  1.00  0.00     0.029 A 
ATOM     53  N   UNL A   1      41.980  28.895  30.902  1.00  0.00    -0.354 N 
ATOM     54  N   UNL A   1      42.256  31.165  32.743  1.00  0.00    -0.248 NA
ATOM     55  C   UNL A   1      43.397  32.272  34.459  1.00  0.00     0.031 C 
ATOM     56  C   UNL A   1      43.572  27.343  30.913  1.00  0.00     0.029 A 
ATOM     57  C   UNL A   1      43.166  28.523  31.515  1.00  0.00     0.049 A 
ATOM     58  H   UNL A   1      41.458  29.699  31.123  1.00  0.00     0.167 HD
ATOM     59  C   UNL A   1      43.383  30.434  33.083  1.00  0.00     0.074 A 
ATOM     60  C   UNL A   1      44.063  31.174  34.129  1.00  0.00     0.031 C 
ATOM     61  C   UNL A   1      43.814  29.256  32.573  1.00  0.00     0.031 A 
BRANCH  48  62
ATOM     62  C   UNL A   1      40.189  26.884  28.171  1.00  0.00    -0.014 A 
ATOM     63  C   UNL A   1      40.695  26.899  26.863  1.00  0.00     0.009 A 
ATOM     64  C   UNL A   1      39.507  25.741  28.622  1.00  0.00     0.009 A 
ATOM     65  C   UNL A   1      40.508  25.800  26.020  1.00  0.00     0.001 A 
ATOM     66  C   UNL A   1      39.338  24.637  27.784  1.00  0.00     0.001 A 
ATOM     67  C   UNL A   1      39.835  24.668  26.481  1.00  0.00     0.000 A 
ENDBRANCH  48  62
BRANCH  49  68
ATOM     68  C   UNL A   1      41.457  34.476  34.529  1.00  0.00    -0.014 A 
ATOM     69  C   UNL A   1      42.113  35.646  34.125  1.00  0.00     0.009 A 
ATOM     70  C   UNL A   1      40.885  34.418  35.810  1.00  0.00     0.009 A 
ATOM     71  C   UNL A   1      42.196  36.738  34.992  1.00  0.00     0.001 A 
ATOM     72  C   UNL A   1      40.948  35.518  36.663  1.00  0.00     0.001 A 
ATOM     73  C   UNL A   1      41.607  36.677  36.254  1.00  0.00     0.000 A 
ENDBRANCH  49  68
BRANCH  61  74
ATOM     74  C   UNL A   1      45.084  28.706  33.150  1.00  0.00    -0.014 A 
ATOM     75  C   UNL A   1      45.054  27.810  34.231  1.00  0.00     0.009 A 
ATOM     76  C   UNL A   1      46.321  29.092  32.614  1.00  0.00     0.009 A 
ATOM     77  C   UNL A   1      46.245  27.340  34.786  1.00  0.00     0.001 A 
ATOM     78  C   UNL A   1      47.508  28.602  33.158  1.00  0.00     0.001 A 
ATOM     79  C   UNL A   1      47.470  27.734  34.250  1.00  0.00     0.000 A 
ENDBRANCH  61  74
ENDBRANCH  35  36
ENDBRANCH  28  30
ENDBRANCH  27  28
ENDBRANCH  26  27
ENDBRANCH   1  26
TORSDOF 14
ENDMDL
