MODEL 1
REMARK VINA RESULT:     -12.4      0.000      0.000
REMARK SMILES O=C(CCN1C(=O)S/C(=C\c2ccccc2F)C1=O)Nc1ccc(C(=O)OCCOC(=O)c2ccc(-c3c4nc(c(-c5ccccc5)c5ccc([nH]5)c(-c5ccccc5)c5nc(c(-c6ccccc6)c6ccc3[nH]6)C=C5)C=C4)cc2)c(O)c1
REMARK SMILES IDX 27 1 25 2 26 3 24 4 21 5 22 6 83 7 23 8 81 9 20 10 1 11 2 12
REMARK SMILES IDX 3 14 4 15 5 16 6 17 18 18 7 19 8 20 9 21 19 22 10 23 11 24
REMARK SMILES IDX 12 25 16 26 13 27 15 28 17 29 14 30 82 31 28 33 29 34 30 35
REMARK SMILES IDX 31 36 32 37 33 38 34 39 80 40 35 41 79 42 36 43 37 44 38 45
REMARK SMILES IDX 73 46 39 47 78 48 72 49 74 50 40 51 77 52 71 53 70 54 41 56
REMARK SMILES IDX 63 57 48 58 62 59 49 60 52 61 61 62 75 63 50 64 51 65 60 67
REMARK SMILES IDX 76 68 53 69 42 70 43 71 47 72 44 73 46 74 45 75 64 76 65 77
REMARK SMILES IDX 69 78 66 79 68 80 67 81 54 82 55 83 59 84 56 85 58 86 57 87
REMARK H PARENT 20 13 82 32 74 55 52 66
REMARK Flexibility Score: inf
ROOT
ATOM      1  O   UNL A   1      41.390  20.698  25.763  1.00  0.00    -0.458 OA
ENDROOT
BRANCH   1   2
ATOM      2  C   UNL A   1      40.539  21.067  26.759  1.00  0.00     0.342 C 
ATOM      3  O   UNL A   1      40.724  20.929  27.956  1.00  0.00    -0.246 OA
BRANCH   2   4
ATOM      4  C   UNL A   1      39.355  21.756  26.199  1.00  0.00     0.101 A 
ATOM      5  C   UNL A   1      37.105  23.157  25.282  1.00  0.00     0.044 A 
ATOM      6  C   UNL A   1      38.064  23.822  26.027  1.00  0.00     0.027 A 
ATOM      7  C   UNL A   1      37.271  21.797  24.993  1.00  0.00     0.073 A 
ATOM      8  C   UNL A   1      39.141  23.101  26.541  1.00  0.00     0.022 A 
ATOM      9  C   UNL A   1      38.416  21.113  25.400  1.00  0.00     0.132 A 
BRANCH   5  10
ATOM     10  N   UNL A   1      35.917  23.774  24.881  1.00  0.00    -0.326 N 
ATOM     11  O   UNL A   1      35.706  23.038  22.693  1.00  0.00    -0.275 OA
ATOM     12  C   UNL A   1      35.318  23.715  23.640  1.00  0.00     0.226 C 
ATOM     13  H   UNL A   1      35.452  24.311  25.563  1.00  0.00     0.169 HD
BRANCH  12  14
ATOM     14  C   UNL A   1      34.111  24.631  23.509  1.00  0.00     0.122 C 
BRANCH  14  15
ATOM     15  C   UNL A   1      32.905  24.253  24.381  1.00  0.00     0.140 C 
BRANCH  15  16
ATOM     16  N   UNL A   1      32.900  22.855  24.816  1.00  0.00    -0.268 N 
ATOM     17  C   UNL A   1      33.261  22.507  26.090  1.00  0.00     0.293 C 
ATOM     18  C   UNL A   1      32.519  21.828  23.975  1.00  0.00     0.268 C 
ATOM     19  O   UNL A   1      33.578  23.268  26.996  1.00  0.00    -0.261 OA
ATOM     20  S   UNL A   1      33.303  20.766  26.250  1.00  0.00    -0.022 SA
ATOM     21  C   UNL A   1      32.807  20.518  24.622  1.00  0.00     0.083 C 
ATOM     22  O   UNL A   1      32.134  21.949  22.824  1.00  0.00    -0.268 OA
ATOM     23  C   UNL A   1      32.804  19.376  23.919  1.00  0.00     0.032 C 
BRANCH  23  24
ATOM     24  C   UNL A   1      33.215  18.058  24.420  1.00  0.00     0.012 A 
ATOM     25  C   UNL A   1      32.240  17.123  24.792  1.00  0.00     0.011 A 
ATOM     26  C   UNL A   1      34.562  17.709  24.559  1.00  0.00     0.130 A 
ATOM     27  C   UNL A   1      32.610  15.861  25.266  1.00  0.00     0.001 A 
ATOM     28  C   UNL A   1      34.937  16.454  25.027  1.00  0.00     0.040 A 
ATOM     29  F   UNL A   1      35.522  18.593  24.249  1.00  0.00    -0.206 F 
ATOM     30  C   UNL A   1      33.959  15.524  25.379  1.00  0.00     0.003 A 
ENDBRANCH  23  24
ENDBRANCH  15  16
ENDBRANCH  14  15
ENDBRANCH  12  14
ENDBRANCH   5  10
BRANCH   9  31
ATOM     31  O   UNL A   1      38.526  19.811  24.997  1.00  0.00    -0.507 OA
ATOM     32  H   UNL A   1      38.701  19.613  24.099  1.00  0.00     0.293 HD
ENDBRANCH   9  31
ENDBRANCH   2   4
ENDBRANCH   1   2
BRANCH   1  33
ATOM     33  C   UNL A   1      42.784  20.605  26.130  1.00  0.00     0.275 C 
BRANCH  33  34
ATOM     34  C   UNL A   1      43.671  21.420  25.185  1.00  0.00     0.275 C 
BRANCH  34  35
ATOM     35  O   UNL A   1      43.008  22.633  24.780  1.00  0.00    -0.458 OA
BRANCH  35  36
ATOM     36  C   UNL A   1      43.709  23.769  24.992  1.00  0.00     0.338 C 
ATOM     37  O   UNL A   1      44.740  24.117  24.442  1.00  0.00    -0.246 OA
BRANCH  36  38
ATOM     38  C   UNL A   1      42.989  24.647  25.927  1.00  0.00     0.060 A 
ATOM     39  C   UNL A   1      43.171  26.013  25.779  1.00  0.00     0.016 A 
ATOM     40  C   UNL A   1      42.336  24.156  27.051  1.00  0.00     0.016 A 
ATOM     41  C   UNL A   1      42.865  26.884  26.817  1.00  0.00     0.010 A 
ATOM     42  C   UNL A   1      41.872  25.057  28.022  1.00  0.00     0.010 A 
ATOM     43  C   UNL A   1      42.173  26.432  27.944  1.00  0.00    -0.014 A 
BRANCH  43  44
ATOM     44  C   UNL A   1      41.785  27.393  29.022  1.00  0.00     0.031 A 
ATOM     45  C   UNL A   1      42.614  27.516  30.278  1.00  0.00     0.074 A 
ATOM     46  C   UNL A   1      40.693  28.176  28.880  1.00  0.00     0.049 A 
ATOM     47  N   UNL A   1      42.333  28.140  31.397  1.00  0.00    -0.248 NA
ATOM     48  C   UNL A   1      43.917  26.835  30.287  1.00  0.00     0.031 C 
ATOM     49  C   UNL A   1      39.819  28.221  27.703  1.00  0.00     0.029 A 
ATOM     50  N   UNL A   1      40.133  29.099  29.732  1.00  0.00    -0.354 N 
ATOM     51  C   UNL A   1      43.392  27.872  32.259  1.00  0.00     0.074 A 
ATOM     52  C   UNL A   1      44.313  27.020  31.538  1.00  0.00     0.031 C 
ATOM     53  C   UNL A   1      38.878  29.158  27.883  1.00  0.00     0.029 A 
ATOM     54  C   UNL A   1      38.998  29.692  29.231  1.00  0.00     0.049 A 
ATOM     55  H   UNL A   1      40.510  29.316  30.616  1.00  0.00     0.167 HD
ATOM     56  C   UNL A   1      43.575  28.291  33.535  1.00  0.00     0.031 A 
ATOM     57  C   UNL A   1      38.107  30.524  29.802  1.00  0.00     0.031 A 
ATOM     58  C   UNL A   1      42.677  29.174  34.235  1.00  0.00     0.049 A 
ATOM     59  C   UNL A   1      38.295  30.921  31.235  1.00  0.00     0.074 A 
ATOM     60  C   UNL A   1      42.786  29.671  35.523  1.00  0.00     0.029 A 
ATOM     61  N   UNL A   1      41.514  29.706  33.700  1.00  0.00    -0.354 N 
ATOM     62  N   UNL A   1      39.269  30.613  32.055  1.00  0.00    -0.248 NA
ATOM     63  C   UNL A   1      37.249  31.766  31.828  1.00  0.00     0.031 C 
ATOM     64  C   UNL A   1      41.656  30.453  35.788  1.00  0.00     0.029 A 
ATOM     65  C   UNL A   1      40.880  30.501  34.641  1.00  0.00     0.049 A 
ATOM     66  H   UNL A   1      41.186  29.542  32.786  1.00  0.00     0.167 HD
ATOM     67  C   UNL A   1      38.965  31.241  33.255  1.00  0.00     0.074 A 
ATOM     68  C   UNL A   1      37.729  31.967  33.047  1.00  0.00     0.031 C 
ATOM     69  C   UNL A   1      39.649  31.215  34.424  1.00  0.00     0.031 A 
BRANCH  56  70
ATOM     70  C   UNL A   1      44.771  27.759  34.282  1.00  0.00    -0.014 A 
ATOM     71  C   UNL A   1      46.008  28.420  34.273  1.00  0.00     0.009 A 
ATOM     72  C   UNL A   1      44.638  26.585  35.042  1.00  0.00     0.009 A 
ATOM     73  C   UNL A   1      47.096  27.896  34.977  1.00  0.00     0.001 A 
ATOM     74  C   UNL A   1      45.717  26.081  35.772  1.00  0.00     0.001 A 
ATOM     75  C   UNL A   1      46.948  26.730  35.729  1.00  0.00     0.000 A 
ENDBRANCH  56  70
BRANCH  57  76
ATOM     76  C   UNL A   1      36.915  30.979  29.033  1.00  0.00    -0.014 A 
ATOM     77  C   UNL A   1      35.881  30.086  28.719  1.00  0.00     0.009 A 
ATOM     78  C   UNL A   1      36.806  32.315  28.610  1.00  0.00     0.009 A 
ATOM     79  C   UNL A   1      34.773  30.517  27.985  1.00  0.00     0.001 A 
ATOM     80  C   UNL A   1      35.681  32.753  27.911  1.00  0.00     0.001 A 
ATOM     81  C   UNL A   1      34.669  31.850  27.589  1.00  0.00     0.000 A 
ENDBRANCH  57  76
BRANCH  69  82
ATOM     82  C   UNL A   1      39.093  32.032  35.556  1.00  0.00    -0.014 A 
ATOM     83  C   UNL A   1      38.310  31.447  36.564  1.00  0.00     0.009 A 
ATOM     84  C   UNL A   1      39.378  33.405  35.626  1.00  0.00     0.009 A 
ATOM     85  C   UNL A   1      37.791  32.231  37.598  1.00  0.00     0.001 A 
ATOM     86  C   UNL A   1      38.887  34.178  36.677  1.00  0.00     0.001 A 
ATOM     87  C   UNL A   1      38.084  33.593  37.655  1.00  0.00     0.000 A 
ENDBRANCH  69  82
ENDBRANCH  43  44
ENDBRANCH  36  38
ENDBRANCH  35  36
ENDBRANCH  34  35
ENDBRANCH  33  34
ENDBRANCH   1  33
TORSDOF 17
ENDMDL
MODEL 2
REMARK VINA RESULT:     -12.4      2.885      4.768
REMARK SMILES O=C(CCN1C(=O)S/C(=C\c2ccccc2F)C1=O)Nc1ccc(C(=O)OCCOC(=O)c2ccc(-c3c4nc(c(-c5ccccc5)c5ccc([nH]5)c(-c5ccccc5)c5nc(c(-c6ccccc6)c6ccc3[nH]6)C=C5)C=C4)cc2)c(O)c1
REMARK SMILES IDX 27 1 25 2 26 3 24 4 21 5 22 6 83 7 23 8 81 9 20 10 1 11 2 12
REMARK SMILES IDX 3 14 4 15 5 16 6 17 18 18 7 19 8 20 9 21 19 22 10 23 11 24
REMARK SMILES IDX 12 25 16 26 13 27 15 28 17 29 14 30 82 31 28 33 29 34 30 35
REMARK SMILES IDX 31 36 32 37 33 38 34 39 80 40 35 41 79 42 36 43 37 44 38 45
REMARK SMILES IDX 73 46 39 47 78 48 72 49 74 50 40 51 77 52 71 53 70 54 41 56
REMARK SMILES IDX 63 57 48 58 62 59 49 60 52 61 61 62 75 63 50 64 51 65 60 67
REMARK SMILES IDX 76 68 53 69 42 70 43 71 47 72 44 73 46 74 45 75 64 76 65 77
REMARK SMILES IDX 69 78 66 79 68 80 67 81 54 82 55 83 59 84 56 85 58 86 57 87
REMARK H PARENT 20 13 82 32 74 55 52 66
REMARK Flexibility Score: inf
ROOT
ATOM      1  O   UNL A   1      41.339  20.778  25.735  1.00  0.00    -0.458 OA
ENDROOT
BRANCH   1   2
ATOM      2  C   UNL A   1      40.490  21.155  26.728  1.00  0.00     0.342 C 
ATOM      3  O   UNL A   1      40.687  21.053  27.927  1.00  0.00    -0.246 OA
BRANCH   2   4
ATOM      4  C   UNL A   1      39.287  21.805  26.160  1.00  0.00     0.101 A 
ATOM      5  C   UNL A   1      37.000  23.134  25.227  1.00  0.00     0.044 A 
ATOM      6  C   UNL A   1      37.944  23.835  25.958  1.00  0.00     0.027 A 
ATOM      7  C   UNL A   1      37.199  21.773  24.960  1.00  0.00     0.073 A 
ATOM      8  C   UNL A   1      39.040  23.149  26.481  1.00  0.00     0.022 A 
ATOM      9  C   UNL A   1      38.362  21.126  25.375  1.00  0.00     0.132 A 
BRANCH   5  10
ATOM     10  N   UNL A   1      35.795  23.714  24.819  1.00  0.00    -0.326 N 
ATOM     11  O   UNL A   1      35.723  23.147  22.573  1.00  0.00    -0.275 OA
ATOM     12  C   UNL A   1      35.255  23.722  23.550  1.00  0.00     0.226 C 
ATOM     13  H   UNL A   1      35.270  24.167  25.518  1.00  0.00     0.169 HD
BRANCH  12  14
ATOM     14  C   UNL A   1      34.003  24.576  23.434  1.00  0.00     0.122 C 
BRANCH  14  15
ATOM     15  C   UNL A   1      33.376  25.004  24.769  1.00  0.00     0.140 C 
BRANCH  15  16
ATOM     16  N   UNL A   1      32.234  25.908  24.627  1.00  0.00    -0.268 N 
ATOM     17  C   UNL A   1      30.958  25.426  24.498  1.00  0.00     0.293 C 
ATOM     18  C   UNL A   1      32.381  27.281  24.633  1.00  0.00     0.268 C 
ATOM     19  O   UNL A   1      30.612  24.251  24.522  1.00  0.00    -0.261 OA
ATOM     20  S   UNL A   1      29.845  26.741  24.191  1.00  0.00    -0.022 SA
ATOM     21  C   UNL A   1      31.088  27.926  24.271  1.00  0.00     0.083 C 
ATOM     22  O   UNL A   1      33.430  27.888  24.773  1.00  0.00    -0.268 OA
ATOM     23  C   UNL A   1      31.027  29.220  23.923  1.00  0.00     0.032 C 
BRANCH  23  24
ATOM     24  C   UNL A   1      29.840  29.915  23.410  1.00  0.00     0.012 A 
ATOM     25  C   UNL A   1      29.155  29.394  22.304  1.00  0.00     0.011 A 
ATOM     26  C   UNL A   1      29.378  31.105  23.981  1.00  0.00     0.130 A 
ATOM     27  C   UNL A   1      28.018  30.037  21.804  1.00  0.00     0.001 A 
ATOM     28  C   UNL A   1      28.245  31.748  23.491  1.00  0.00     0.040 A 
ATOM     29  F   UNL A   1      30.031  31.653  25.017  1.00  0.00    -0.206 F 
ATOM     30  C   UNL A   1      27.561  31.212  22.401  1.00  0.00     0.003 A 
ENDBRANCH  23  24
ENDBRANCH  15  16
ENDBRANCH  14  15
ENDBRANCH  12  14
ENDBRANCH   5  10
BRANCH   9  31
ATOM     31  O   UNL A   1      38.504  19.820  24.994  1.00  0.00    -0.507 OA
ATOM     32  H   UNL A   1      37.754  19.325  24.732  1.00  0.00     0.293 HD
ENDBRANCH   9  31
ENDBRANCH   2   4
ENDBRANCH   1   2
BRANCH   1  33
ATOM     33  C   UNL A   1      42.692  20.477  26.146  1.00  0.00     0.275 C 
BRANCH  33  34
ATOM     34  C   UNL A   1      43.701  21.436  25.509  1.00  0.00     0.275 C 
BRANCH  34  35
ATOM     35  O   UNL A   1      43.028  22.555  24.900  1.00  0.00    -0.458 OA
BRANCH  35  36
ATOM     36  C   UNL A   1      43.662  23.742  25.024  1.00  0.00     0.338 C 
ATOM     37  O   UNL A   1      44.624  24.140  24.387  1.00  0.00    -0.246 OA
BRANCH  36  38
ATOM     38  C   UNL A   1      42.953  24.603  25.982  1.00  0.00     0.060 A 
ATOM     39  C   UNL A   1      43.063  25.973  25.804  1.00  0.00     0.016 A 
ATOM     40  C   UNL A   1      42.384  24.103  27.147  1.00  0.00     0.016 A 
ATOM     41  C   UNL A   1      42.772  26.848  26.844  1.00  0.00     0.010 A 
ATOM     42  C   UNL A   1      41.931  24.999  28.129  1.00  0.00     0.010 A 
ATOM     43  C   UNL A   1      42.163  26.384  28.014  1.00  0.00    -0.014 A 
BRANCH  43  44
ATOM     44  C   UNL A   1      41.789  27.345  29.096  1.00  0.00     0.031 A 
ATOM     45  C   UNL A   1      42.610  27.440  30.359  1.00  0.00     0.074 A 
ATOM     46  C   UNL A   1      40.716  28.155  28.952  1.00  0.00     0.049 A 
ATOM     47  N   UNL A   1      42.335  28.062  31.481  1.00  0.00    -0.248 NA
ATOM     48  C   UNL A   1      43.898  26.729  30.373  1.00  0.00     0.031 C 
ATOM     49  C   UNL A   1      39.853  28.229  27.769  1.00  0.00     0.029 A 
ATOM     50  N   UNL A   1      40.172  29.084  29.807  1.00  0.00    -0.354 N 
ATOM     51  C   UNL A   1      43.381  27.762  32.349  1.00  0.00     0.074 A 
ATOM     52  C   UNL A   1      44.288  26.895  31.629  1.00  0.00     0.031 C 
ATOM     53  C   UNL A   1      38.932  29.186  27.949  1.00  0.00     0.029 A 
ATOM     54  C   UNL A   1      39.054  29.707  29.302  1.00  0.00     0.049 A 
ATOM     55  H   UNL A   1      40.546  29.285  30.695  1.00  0.00     0.167 HD
ATOM     56  C   UNL A   1      43.564  28.167  33.630  1.00  0.00     0.031 A 
ATOM     57  C   UNL A   1      38.178  30.554  29.873  1.00  0.00     0.031 A 
ATOM     58  C   UNL A   1      42.681  29.065  34.329  1.00  0.00     0.049 A 
ATOM     59  C   UNL A   1      38.364  30.935  31.311  1.00  0.00     0.074 A 
ATOM     60  C   UNL A   1      42.791  29.549  35.623  1.00  0.00     0.029 A 
ATOM     61  N   UNL A   1      41.534  29.627  33.790  1.00  0.00    -0.354 N 
ATOM     62  N   UNL A   1      39.324  30.599  32.135  1.00  0.00    -0.248 NA
ATOM     63  C   UNL A   1      37.333  31.800  31.902  1.00  0.00     0.031 C 
ATOM     64  C   UNL A   1      41.678  30.354  35.885  1.00  0.00     0.029 A 
ATOM     65  C   UNL A   1      40.912  30.429  34.733  1.00  0.00     0.049 A 
ATOM     66  H   UNL A   1      41.210  29.478  32.872  1.00  0.00     0.167 HD
ATOM     67  C   UNL A   1      39.025  31.224  33.338  1.00  0.00     0.074 A 
ATOM     68  C   UNL A   1      37.808  31.980  33.127  1.00  0.00     0.031 C 
ATOM     69  C   UNL A   1      39.699  31.173  34.512  1.00  0.00     0.031 A 
BRANCH  56  70
ATOM     70  C   UNL A   1      44.741  27.602  34.381  1.00  0.00    -0.014 A 
ATOM     71  C   UNL A   1      46.000  28.219  34.365  1.00  0.00     0.009 A 
ATOM     72  C   UNL A   1      44.569  26.441  35.155  1.00  0.00     0.009 A 
ATOM     73  C   UNL A   1      47.071  27.665  35.073  1.00  0.00     0.001 A 
ATOM     74  C   UNL A   1      45.631  25.908  35.889  1.00  0.00     0.001 A 
ATOM     75  C   UNL A   1      46.883  26.514  35.838  1.00  0.00     0.000 A 
ENDBRANCH  56  70
BRANCH  57  76
ATOM     76  C   UNL A   1      37.003  31.043  29.099  1.00  0.00    -0.014 A 
ATOM     77  C   UNL A   1      36.929  32.376  28.672  1.00  0.00     0.009 A 
ATOM     78  C   UNL A   1      35.946  30.172  28.781  1.00  0.00     0.009 A 
ATOM     79  C   UNL A   1      35.817  32.830  27.959  1.00  0.00     0.001 A 
ATOM     80  C   UNL A   1      34.854  30.618  28.035  1.00  0.00     0.001 A 
ATOM     81  C   UNL A   1      34.785  31.950  27.634  1.00  0.00     0.000 A 
ENDBRANCH  57  76
BRANCH  69  82
ATOM     82  C   UNL A   1      39.153  31.993  35.646  1.00  0.00    -0.014 A 
ATOM     83  C   UNL A   1      38.252  31.449  36.575  1.00  0.00     0.009 A 
ATOM     84  C   UNL A   1      39.566  33.326  35.799  1.00  0.00     0.009 A 
ATOM     85  C   UNL A   1      37.746  32.237  37.612  1.00  0.00     0.001 A 
ATOM     86  C   UNL A   1      39.086  34.100  36.856  1.00  0.00     0.001 A 
ATOM     87  C   UNL A   1      38.167  33.559  37.753  1.00  0.00     0.000 A 
ENDBRANCH  69  82
ENDBRANCH  43  44
ENDBRANCH  36  38
ENDBRANCH  35  36
ENDBRANCH  34  35
ENDBRANCH  33  34
ENDBRANCH   1  33
TORSDOF 17
ENDMDL
MODEL 3
REMARK VINA RESULT:     -12.4      1.865      3.966
REMARK SMILES O=C(CCN1C(=O)S/C(=C\c2ccccc2F)C1=O)Nc1ccc(C(=O)OCCOC(=O)c2ccc(-c3c4nc(c(-c5ccccc5)c5ccc([nH]5)c(-c5ccccc5)c5nc(c(-c6ccccc6)c6ccc3[nH]6)C=C5)C=C4)cc2)c(O)c1
REMARK SMILES IDX 27 1 25 2 26 3 24 4 21 5 22 6 83 7 23 8 81 9 20 10 1 11 2 12
REMARK SMILES IDX 3 14 4 15 5 16 6 17 18 18 7 19 8 20 9 21 19 22 10 23 11 24
REMARK SMILES IDX 12 25 16 26 13 27 15 28 17 29 14 30 82 31 28 33 29 34 30 35
REMARK SMILES IDX 31 36 32 37 33 38 34 39 80 40 35 41 79 42 36 43 37 44 38 45
REMARK SMILES IDX 73 46 39 47 78 48 72 49 74 50 40 51 77 52 71 53 70 54 41 56
REMARK SMILES IDX 63 57 48 58 62 59 49 60 52 61 61 62 75 63 50 64 51 65 60 67
REMARK SMILES IDX 76 68 53 69 42 70 43 71 47 72 44 73 46 74 45 75 64 76 65 77
REMARK SMILES IDX 69 78 66 79 68 80 67 81 54 82 55 83 59 84 56 85 58 86 57 87
REMARK H PARENT 20 13 82 32 74 55 52 66
REMARK Flexibility Score: inf
ROOT
ATOM      1  O   UNL A   1      41.641  20.583  25.788  1.00  0.00    -0.458 OA
ENDROOT
BRANCH   1   2
ATOM      2  C   UNL A   1      40.714  21.015  26.685  1.00  0.00     0.342 C 
ATOM      3  O   UNL A   1      40.928  21.377  27.829  1.00  0.00    -0.246 OA
BRANCH   2   4
ATOM      4  C   UNL A   1      39.375  21.075  26.056  1.00  0.00     0.101 A 
ATOM      5  C   UNL A   1      36.795  21.306  24.982  1.00  0.00     0.044 A 
ATOM      6  C   UNL A   1      37.426  22.430  25.486  1.00  0.00     0.027 A 
ATOM      7  C   UNL A   1      37.452  20.069  25.011  1.00  0.00     0.073 A 
ATOM      8  C   UNL A   1      38.677  22.292  26.084  1.00  0.00     0.022 A 
ATOM      9  C   UNL A   1      38.756  19.964  25.493  1.00  0.00     0.132 A 
BRANCH   5  10
ATOM     10  N   UNL A   1      35.474  21.337  24.524  1.00  0.00    -0.326 N 
ATOM     11  O   UNL A   1      34.276  21.275  26.508  1.00  0.00    -0.275 OA
ATOM     12  C   UNL A   1      34.323  21.284  25.282  1.00  0.00     0.226 C 
ATOM     13  H   UNL A   1      35.351  21.406  23.550  1.00  0.00     0.169 HD
BRANCH  12  14
ATOM     14  C   UNL A   1      33.056  21.187  24.446  1.00  0.00     0.122 C 
BRANCH  14  15
ATOM     15  C   UNL A   1      33.053  22.027  23.161  1.00  0.00     0.140 C 
BRANCH  15  16
ATOM     16  N   UNL A   1      32.964  23.470  23.393  1.00  0.00    -0.268 N 
ATOM     17  C   UNL A   1      34.068  24.275  23.293  1.00  0.00     0.293 C 
ATOM     18  C   UNL A   1      31.770  24.088  23.706  1.00  0.00     0.268 C 
ATOM     19  O   UNL A   1      35.200  23.930  22.977  1.00  0.00    -0.261 OA
ATOM     20  S   UNL A   1      33.669  25.907  23.780  1.00  0.00    -0.022 SA
ATOM     21  C   UNL A   1      32.023  25.508  24.081  1.00  0.00     0.083 C 
ATOM     22  O   UNL A   1      30.683  23.543  23.802  1.00  0.00    -0.268 OA
ATOM     23  C   UNL A   1      31.089  26.245  24.700  1.00  0.00     0.032 C 
BRANCH  23  24
ATOM     24  C   UNL A   1      31.282  27.596  25.242  1.00  0.00     0.012 A 
ATOM     25  C   UNL A   1      31.057  28.710  24.422  1.00  0.00     0.011 A 
ATOM     26  C   UNL A   1      31.706  27.809  26.557  1.00  0.00     0.130 A 
ATOM     27  C   UNL A   1      31.229  30.005  24.921  1.00  0.00     0.001 A 
ATOM     28  C   UNL A   1      31.876  29.095  27.060  1.00  0.00     0.040 A 
ATOM     29  F   UNL A   1      31.968  26.765  27.358  1.00  0.00    -0.206 F 
ATOM     30  C   UNL A   1      31.634  30.197  26.242  1.00  0.00     0.003 A 
ENDBRANCH  23  24
ENDBRANCH  15  16
ENDBRANCH  14  15
ENDBRANCH  12  14
ENDBRANCH   5  10
BRANCH   9  31
ATOM     31  O   UNL A   1      39.344  18.732  25.403  1.00  0.00    -0.507 OA
ATOM     32  H   UNL A   1      39.324  18.263  24.592  1.00  0.00     0.293 HD
ENDBRANCH   9  31
ENDBRANCH   2   4
ENDBRANCH   1   2
BRANCH   1  33
ATOM     33  C   UNL A   1      43.022  20.793  26.161  1.00  0.00     0.275 C 
BRANCH  33  34
ATOM     34  C   UNL A   1      43.778  21.589  25.095  1.00  0.00     0.275 C 
BRANCH  34  35
ATOM     35  O   UNL A   1      43.068  22.796  24.759  1.00  0.00    -0.458 OA
BRANCH  35  36
ATOM     36  C   UNL A   1      43.764  23.941  24.943  1.00  0.00     0.338 C 
ATOM     37  O   UNL A   1      44.786  24.287  24.374  1.00  0.00    -0.246 OA
BRANCH  36  38
ATOM     38  C   UNL A   1      43.049  24.830  25.871  1.00  0.00     0.060 A 
ATOM     39  C   UNL A   1      43.411  26.168  25.871  1.00  0.00     0.016 A 
ATOM     40  C   UNL A   1      42.211  24.342  26.867  1.00  0.00     0.016 A 
ATOM     41  C   UNL A   1      43.091  26.988  26.946  1.00  0.00     0.010 A 
ATOM     42  C   UNL A   1      41.747  25.218  27.862  1.00  0.00     0.010 A 
ATOM     43  C   UNL A   1      42.219  26.543  27.944  1.00  0.00    -0.014 A 
BRANCH  43  44
ATOM     44  C   UNL A   1      41.824  27.459  29.058  1.00  0.00     0.031 A 
ATOM     45  C   UNL A   1      42.619  27.499  30.341  1.00  0.00     0.074 A 
ATOM     46  C   UNL A   1      40.756  28.277  28.925  1.00  0.00     0.049 A 
ATOM     47  N   UNL A   1      42.321  28.074  31.481  1.00  0.00    -0.248 NA
ATOM     48  C   UNL A   1      43.905  26.784  30.352  1.00  0.00     0.031 C 
ATOM     49  C   UNL A   1      39.918  28.404  27.729  1.00  0.00     0.029 A 
ATOM     50  N   UNL A   1      40.196  29.171  29.807  1.00  0.00    -0.354 N 
ATOM     51  C   UNL A   1      43.348  27.735  32.358  1.00  0.00     0.074 A 
ATOM     52  C   UNL A   1      44.269  26.897  31.621  1.00  0.00     0.031 C 
ATOM     53  C   UNL A   1      38.996  29.354  27.929  1.00  0.00     0.029 A 
ATOM     54  C   UNL A   1      39.090  29.818  29.305  1.00  0.00     0.049 A 
ATOM     55  H   UNL A   1      40.552  29.334  30.710  1.00  0.00     0.167 HD
ATOM     56  C   UNL A   1      43.505  28.086  33.658  1.00  0.00     0.031 A 
ATOM     57  C   UNL A   1      38.204  30.644  29.892  1.00  0.00     0.031 A 
ATOM     58  C   UNL A   1      42.609  28.957  34.376  1.00  0.00     0.049 A 
ATOM     59  C   UNL A   1      38.361  30.964  31.348  1.00  0.00     0.074 A 
ATOM     60  C   UNL A   1      42.693  29.386  35.691  1.00  0.00     0.029 A 
ATOM     61  N   UNL A   1      41.475  29.544  33.837  1.00  0.00    -0.354 N 
ATOM     62  N   UNL A   1      39.302  30.591  32.178  1.00  0.00    -0.248 NA
ATOM     63  C   UNL A   1      37.319  31.806  31.953  1.00  0.00     0.031 C 
ATOM     64  C   UNL A   1      41.576  30.183  35.962  1.00  0.00     0.029 A 
ATOM     65  C   UNL A   1      40.835  30.308  34.799  1.00  0.00     0.049 A 
ATOM     66  H   UNL A   1      41.170  29.434  32.907  1.00  0.00     0.167 HD
ATOM     67  C   UNL A   1      38.980  31.166  33.399  1.00  0.00     0.074 A 
ATOM     68  C   UNL A   1      37.768  31.933  33.194  1.00  0.00     0.031 C 
ATOM     69  C   UNL A   1      39.628  31.065  34.584  1.00  0.00     0.031 A 
BRANCH  56  70
ATOM     70  C   UNL A   1      44.665  27.487  34.410  1.00  0.00    -0.014 A 
ATOM     71  C   UNL A   1      44.525  26.336  35.200  1.00  0.00     0.009 A 
ATOM     72  C   UNL A   1      45.937  28.073  34.291  1.00  0.00     0.009 A 
ATOM     73  C   UNL A   1      45.624  25.809  35.885  1.00  0.00     0.001 A 
ATOM     74  C   UNL A   1      47.040  27.525  34.949  1.00  0.00     0.001 A 
ATOM     75  C   UNL A   1      46.880  26.401  35.755  1.00  0.00     0.000 A 
ENDBRANCH  56  70
BRANCH  57  76
ATOM     76  C   UNL A   1      37.047  31.167  29.115  1.00  0.00    -0.014 A 
ATOM     77  C   UNL A   1      37.003  32.509  28.709  1.00  0.00     0.009 A 
ATOM     78  C   UNL A   1      35.977  30.323  28.772  1.00  0.00     0.009 A 
ATOM     79  C   UNL A   1      35.907  32.996  27.993  1.00  0.00     0.001 A 
ATOM     80  C   UNL A   1      34.901  30.802  28.023  1.00  0.00     0.001 A 
ATOM     81  C   UNL A   1      34.862  32.142  27.643  1.00  0.00     0.000 A 
ENDBRANCH  57  76
BRANCH  69  82
ATOM     82  C   UNL A   1      39.061  31.838  35.740  1.00  0.00    -0.014 A 
ATOM     83  C   UNL A   1      38.180  31.242  36.657  1.00  0.00     0.009 A 
ATOM     84  C   UNL A   1      39.431  33.179  35.925  1.00  0.00     0.009 A 
ATOM     85  C   UNL A   1      37.654  31.988  37.715  1.00  0.00     0.001 A 
ATOM     86  C   UNL A   1      38.930  33.911  37.001  1.00  0.00     0.001 A 
ATOM     87  C   UNL A   1      38.032  33.319  37.888  1.00  0.00     0.000 A 
ENDBRANCH  69  82
ENDBRANCH  43  44
ENDBRANCH  36  38
ENDBRANCH  35  36
ENDBRANCH  34  35
ENDBRANCH  33  34
ENDBRANCH   1  33
TORSDOF 17
ENDMDL
