MODEL 1
REMARK VINA RESULT:     -10.8      0.000      0.000
REMARK SMILES CCc1ccc(N2C(=O)C[C@@H](SC[C@@H](NC(C)=O)C(=O)OCCOC(=O)c3ccc(-c4c5nc(c(-c6ccccc6)c6ccc([nH]6)c(-c6ccccc6)c6nc(c(-c7ccccc7)c7ccc4[nH]7)C=C6)C=C5)cc3)C2=O)cc1
REMARK SMILES IDX 21 1 19 2 20 3 14 4 13 5 12 6 11 7 7 8 8 9 75 10 9 11 10 12
REMARK SMILES IDX 76 13 6 14 3 15 4 16 78 17 5 18 77 19 2 20 1 21 15 22 16 23
REMARK SMILES IDX 17 25 18 26 22 27 23 28 24 29 25 30 26 31 27 32 28 33 74 34
REMARK SMILES IDX 29 35 73 36 30 37 31 38 32 39 67 40 33 41 72 42 66 43 68 44
REMARK SMILES IDX 34 45 71 46 65 47 64 48 35 50 57 51 42 52 56 53 43 54 46 55
REMARK SMILES IDX 55 56 69 57 44 58 45 59 54 61 70 62 47 63 36 64 37 65 41 66
REMARK SMILES IDX 38 67 40 68 39 69 58 70 59 71 63 72 60 73 62 74 61 75 48 76
REMARK SMILES IDX 49 77 53 78 50 79 52 80 51 81
REMARK H PARENT 15 24 68 49 46 60
REMARK Flexibility Score: inf
ROOT
ATOM      1  O   UNL A   1      35.361  21.334  24.896  1.00  0.00    -0.461 OA
ENDROOT
BRANCH   1   2
ATOM      2  C   UNL A   1      34.501  21.084  25.914  1.00  0.00     0.329 C 
ATOM      3  O   UNL A   1      34.597  21.585  27.033  1.00  0.00    -0.250 OA
BRANCH   2   4
ATOM      4  C   UNL A   1      33.405  20.074  25.584  1.00  0.00     0.202 C 
BRANCH   4   5
ATOM      5  C   UNL A   1      32.127  20.645  24.954  1.00  0.00     0.107 C 
BRANCH   5   6
ATOM      6  S   UNL A   1      32.229  22.071  23.719  1.00  0.00    -0.145 SA
BRANCH   6   7
ATOM      7  C   UNL A   1      31.132  23.388  24.368  1.00  0.00     0.146 C 
ATOM      8  N   UNL A   1      31.559  25.674  24.762  1.00  0.00    -0.250 N 
ATOM      9  C   UNL A   1      30.541  25.649  23.856  1.00  0.00     0.235 C 
ATOM     10  C   UNL A   1      31.906  24.411  25.151  1.00  0.00     0.247 C 
ATOM     11  O   UNL A   1      29.811  26.561  23.497  1.00  0.00    -0.274 OA
ATOM     12  C   UNL A   1      30.481  24.249  23.283  1.00  0.00     0.125 C 
ATOM     13  O   UNL A   1      32.627  24.159  26.100  1.00  0.00    -0.273 OA
BRANCH   8  14
ATOM     14  C   UNL A   1      32.080  26.772  25.480  1.00  0.00     0.052 A 
ATOM     15  C   UNL A   1      33.438  28.627  27.091  1.00  0.00    -0.048 A 
ATOM     16  C   UNL A   1      34.027  28.169  25.914  1.00  0.00     0.006 A 
ATOM     17  C   UNL A   1      32.150  28.183  27.434  1.00  0.00     0.006 A 
ATOM     18  C   UNL A   1      33.353  27.252  25.121  1.00  0.00     0.027 A 
ATOM     19  C   UNL A   1      31.459  27.274  26.621  1.00  0.00     0.027 A 
BRANCH  15  20
ATOM     20  C   UNL A   1      34.171  29.636  27.933  1.00  0.00     0.032 C 
ATOM     21  C   UNL A   1      34.056  31.015  27.306  1.00  0.00     0.009 C 
ENDBRANCH  15  20
ENDBRANCH   8  14
ENDBRANCH   6   7
ENDBRANCH   5   6
ENDBRANCH   4   5
BRANCH   4  22
ATOM     22  N   UNL A   1      33.896  18.889  24.871  1.00  0.00    -0.342 N 
ATOM     23  C   UNL A   1      33.099  17.779  24.696  1.00  0.00     0.217 C 
ATOM     24  H   UNL A   1      34.813  18.887  24.512  1.00  0.00     0.164 HD
ATOM     25  C   UNL A   1      33.433  16.985  23.466  1.00  0.00     0.114 C 
ATOM     26  O   UNL A   1      32.216  17.436  25.469  1.00  0.00    -0.275 OA
ENDBRANCH   4  22
ENDBRANCH   2   4
ENDBRANCH   1   2
BRANCH   1  27
ATOM     27  C   UNL A   1      36.667  20.772  25.128  1.00  0.00     0.274 C 
BRANCH  27  28
ATOM     28  C   UNL A   1      37.808  21.789  24.959  1.00  0.00     0.275 C 
BRANCH  28  29
ATOM     29  O   UNL A   1      38.055  22.606  26.124  1.00  0.00    -0.458 OA
BRANCH  29  30
ATOM     30  C   UNL A   1      39.354  22.889  26.375  1.00  0.00     0.338 C 
ATOM     31  O   UNL A   1      40.322  22.185  26.105  1.00  0.00    -0.246 OA
BRANCH  30  32
ATOM     32  C   UNL A   1      39.506  24.243  26.941  1.00  0.00     0.060 A 
ATOM     33  C   UNL A   1      40.196  25.214  26.203  1.00  0.00     0.016 A 
ATOM     34  C   UNL A   1      39.071  24.527  28.236  1.00  0.00     0.016 A 
ATOM     35  C   UNL A   1      40.468  26.463  26.761  1.00  0.00     0.010 A 
ATOM     36  C   UNL A   1      39.343  25.782  28.793  1.00  0.00     0.010 A 
ATOM     37  C   UNL A   1      40.058  26.753  28.068  1.00  0.00    -0.014 A 
BRANCH  37  38
ATOM     38  C   UNL A   1      40.424  28.042  28.709  1.00  0.00     0.031 A 
ATOM     39  C   UNL A   1      41.802  28.224  29.286  1.00  0.00     0.074 A 
ATOM     40  C   UNL A   1      39.529  29.046  28.788  1.00  0.00     0.049 A 
ATOM     41  N   UNL A   1      42.283  29.214  29.997  1.00  0.00    -0.248 NA
ATOM     42  C   UNL A   1      42.770  27.144  29.028  1.00  0.00     0.031 C 
ATOM     43  C   UNL A   1      38.179  29.023  28.226  1.00  0.00     0.029 A 
ATOM     44  N   UNL A   1      39.621  30.277  29.390  1.00  0.00    -0.354 N 
ATOM     45  C   UNL A   1      43.600  28.872  30.281  1.00  0.00     0.074 A 
ATOM     46  C   UNL A   1      43.835  27.571  29.693  1.00  0.00     0.031 C 
ATOM     47  C   UNL A   1      37.565  30.183  28.517  1.00  0.00     0.029 A 
ATOM     48  C   UNL A   1      38.458  31.005  29.329  1.00  0.00     0.049 A 
ATOM     49  H   UNL A   1      40.441  30.606  29.823  1.00  0.00     0.167 HD
ATOM     50  C   UNL A   1      44.533  29.582  30.961  1.00  0.00     0.031 A 
ATOM     51  C   UNL A   1      38.135  32.185  29.895  1.00  0.00     0.031 A 
ATOM     52  C   UNL A   1      44.296  30.870  31.560  1.00  0.00     0.049 A 
ATOM     53  C   UNL A   1      39.156  32.901  30.741  1.00  0.00     0.074 A 
ATOM     54  C   UNL A   1      45.174  31.661  32.281  1.00  0.00     0.029 A 
ATOM     55  N   UNL A   1      43.093  31.556  31.505  1.00  0.00    -0.354 N 
ATOM     56  N   UNL A   1      40.397  32.568  31.002  1.00  0.00    -0.248 NA
ATOM     57  C   UNL A   1      38.728  34.160  31.368  1.00  0.00     0.031 C 
ATOM     58  C   UNL A   1      44.486  32.803  32.707  1.00  0.00     0.029 A 
ATOM     59  C   UNL A   1      43.200  32.752  32.195  1.00  0.00     0.049 A 
ATOM     60  H   UNL A   1      42.282  31.239  31.044  1.00  0.00     0.167 HD
ATOM     61  C   UNL A   1      40.908  33.594  31.789  1.00  0.00     0.074 A 
ATOM     62  C   UNL A   1      39.848  34.568  31.947  1.00  0.00     0.031 C 
ATOM     63  C   UNL A   1      42.142  33.719  32.332  1.00  0.00     0.031 A 
BRANCH  50  64
ATOM     64  C   UNL A   1      45.897  28.968  31.116  1.00  0.00    -0.014 A 
ATOM     65  C   UNL A   1      46.917  29.221  30.185  1.00  0.00     0.009 A 
ATOM     66  C   UNL A   1      46.183  28.167  32.233  1.00  0.00     0.009 A 
ATOM     67  C   UNL A   1      48.185  28.659  30.353  1.00  0.00     0.001 A 
ATOM     68  C   UNL A   1      47.460  27.632  32.415  1.00  0.00     0.001 A 
ATOM     69  C   UNL A   1      48.457  27.870  31.470  1.00  0.00     0.000 A 
ENDBRANCH  50  64
BRANCH  51  70
ATOM     70  C   UNL A   1      36.772  32.758  29.725  1.00  0.00    -0.014 A 
ATOM     71  C   UNL A   1      36.495  33.647  28.675  1.00  0.00     0.009 A 
ATOM     72  C   UNL A   1      35.754  32.463  30.646  1.00  0.00     0.009 A 
ATOM     73  C   UNL A   1      35.244  34.260  28.577  1.00  0.00     0.001 A 
ATOM     74  C   UNL A   1      34.492  33.049  30.524  1.00  0.00     0.001 A 
ATOM     75  C   UNL A   1      34.243  33.959  29.499  1.00  0.00     0.000 A 
ENDBRANCH  51  70
BRANCH  63  76
ATOM     76  C   UNL A   1      42.436  34.982  33.096  1.00  0.00    -0.014 A 
ATOM     77  C   UNL A   1      41.978  35.171  34.409  1.00  0.00     0.009 A 
ATOM     78  C   UNL A   1      43.216  35.985  32.498  1.00  0.00     0.009 A 
ATOM     79  C   UNL A   1      42.263  36.356  35.093  1.00  0.00     0.001 A 
ATOM     80  C   UNL A   1      43.526  37.154  33.195  1.00  0.00     0.001 A 
ATOM     81  C   UNL A   1      43.040  37.343  34.488  1.00  0.00     0.000 A 
ENDBRANCH  63  76
ENDBRANCH  37  38
ENDBRANCH  30  32
ENDBRANCH  29  30
ENDBRANCH  28  29
ENDBRANCH  27  28
ENDBRANCH   1  27
TORSDOF 17
ENDMDL
MODEL 2
REMARK VINA RESULT:     -10.7      2.829      8.351
REMARK SMILES CCc1ccc(N2C(=O)C[C@@H](SC[C@@H](NC(C)=O)C(=O)OCCOC(=O)c3ccc(-c4c5nc(c(-c6ccccc6)c6ccc([nH]6)c(-c6ccccc6)c6nc(c(-c7ccccc7)c7ccc4[nH]7)C=C6)C=C5)cc3)C2=O)cc1
REMARK SMILES IDX 21 1 19 2 20 3 14 4 13 5 12 6 11 7 7 8 8 9 75 10 9 11 10 12
REMARK SMILES IDX 76 13 6 14 3 15 4 16 78 17 5 18 77 19 2 20 1 21 15 22 16 23
REMARK SMILES IDX 17 25 18 26 22 27 23 28 24 29 25 30 26 31 27 32 28 33 74 34
REMARK SMILES IDX 29 35 73 36 30 37 31 38 32 39 67 40 33 41 72 42 66 43 68 44
REMARK SMILES IDX 34 45 71 46 65 47 64 48 35 50 57 51 42 52 56 53 43 54 46 55
REMARK SMILES IDX 55 56 69 57 44 58 45 59 54 61 70 62 47 63 36 64 37 65 41 66
REMARK SMILES IDX 38 67 40 68 39 69 58 70 59 71 63 72 60 73 62 74 61 75 48 76
REMARK SMILES IDX 49 77 53 78 50 79 52 80 51 81
REMARK H PARENT 15 24 68 49 46 60
REMARK Flexibility Score: inf
ROOT
ATOM      1  O   UNL A   1      31.970  29.476  25.147  1.00  0.00    -0.461 OA
ENDROOT
BRANCH   1   2
ATOM      2  C   UNL A   1      32.043  29.161  23.830  1.00  0.00     0.329 C 
ATOM      3  O   UNL A   1      33.089  28.877  23.248  1.00  0.00    -0.250 OA
BRANCH   2   4
ATOM      4  C   UNL A   1      30.711  29.233  23.087  1.00  0.00     0.202 C 
BRANCH   4   5
ATOM      5  C   UNL A   1      30.036  27.889  22.778  1.00  0.00     0.107 C 
BRANCH   5   6
ATOM      6  S   UNL A   1      30.217  26.436  23.972  1.00  0.00    -0.145 SA
BRANCH   6   7
ATOM      7  C   UNL A   1      31.235  25.184  23.102  1.00  0.00     0.146 C 
ATOM      8  N   UNL A   1      32.912  23.743  23.923  1.00  0.00    -0.250 N 
ATOM      9  C   UNL A   1      31.952  22.923  23.410  1.00  0.00     0.235 C 
ATOM     10  C   UNL A   1      32.598  25.057  23.724  1.00  0.00     0.247 C 
ATOM     11  O   UNL A   1      32.015  21.726  23.171  1.00  0.00    -0.274 OA
ATOM     12  C   UNL A   1      30.702  23.754  23.221  1.00  0.00     0.125 C 
ATOM     13  O   UNL A   1      33.375  25.981  23.887  1.00  0.00    -0.273 OA
BRANCH   8  14
ATOM     14  C   UNL A   1      34.210  23.417  24.372  1.00  0.00     0.052 A 
ATOM     15  C   UNL A   1      36.839  23.254  25.343  1.00  0.00    -0.048 A 
ATOM     16  C   UNL A   1      35.786  23.468  26.229  1.00  0.00     0.006 A 
ATOM     17  C   UNL A   1      36.565  23.080  23.976  1.00  0.00     0.006 A 
ATOM     18  C   UNL A   1      34.488  23.548  25.745  1.00  0.00     0.027 A 
ATOM     19  C   UNL A   1      35.251  23.138  23.490  1.00  0.00     0.027 A 
BRANCH  15  20
ATOM     20  C   UNL A   1      38.240  23.150  25.882  1.00  0.00     0.032 C 
ATOM     21  C   UNL A   1      38.722  21.711  25.798  1.00  0.00     0.009 C 
ENDBRANCH  15  20
ENDBRANCH   8  14
ENDBRANCH   6   7
ENDBRANCH   5   6
ENDBRANCH   4   5
BRANCH   4  22
ATOM     22  N   UNL A   1      29.774  30.208  23.656  1.00  0.00    -0.342 N 
ATOM     23  C   UNL A   1      28.870  30.878  22.862  1.00  0.00     0.217 C 
ATOM     24  H   UNL A   1      29.793  30.388  24.625  1.00  0.00     0.164 HD
ATOM     25  C   UNL A   1      27.618  31.286  23.585  1.00  0.00     0.114 C 
ATOM     26  O   UNL A   1      29.057  31.153  21.685  1.00  0.00    -0.275 OA
ENDBRANCH   4  22
ENDBRANCH   2   4
ENDBRANCH   1   2
BRANCH   1  27
ATOM     27  C   UNL A   1      32.216  28.340  25.998  1.00  0.00     0.274 C 
BRANCH  27  28
ATOM     28  C   UNL A   1      33.189  28.642  27.151  1.00  0.00     0.275 C 
BRANCH  28  29
ATOM     29  O   UNL A   1      34.283  29.516  26.794  1.00  0.00    -0.458 OA
BRANCH  29  30
ATOM     30  C   UNL A   1      34.686  30.373  27.760  1.00  0.00     0.338 C 
ATOM     31  O   UNL A   1      34.007  31.244  28.293  1.00  0.00    -0.246 OA
BRANCH  30  32
ATOM     32  C   UNL A   1      36.061  30.074  28.200  1.00  0.00     0.060 A 
ATOM     33  C   UNL A   1      37.110  30.194  27.279  1.00  0.00     0.016 A 
ATOM     34  C   UNL A   1      36.306  29.570  29.478  1.00  0.00     0.016 A 
ATOM     35  C   UNL A   1      38.402  29.797  27.624  1.00  0.00     0.010 A 
ATOM     36  C   UNL A   1      37.604  29.174  29.824  1.00  0.00     0.010 A 
ATOM     37  C   UNL A   1      38.657  29.267  28.896  1.00  0.00    -0.014 A 
BRANCH  37  38
ATOM     38  C   UNL A   1      40.006  28.751  29.245  1.00  0.00     0.031 A 
ATOM     39  C   UNL A   1      40.967  29.628  30.001  1.00  0.00     0.074 A 
ATOM     40  C   UNL A   1      40.379  27.510  28.879  1.00  0.00     0.049 A 
ATOM     41  N   UNL A   1      42.228  29.422  30.292  1.00  0.00    -0.248 NA
ATOM     42  C   UNL A   1      40.437  30.910  30.496  1.00  0.00     0.031 C 
ATOM     43  C   UNL A   1      39.530  26.538  28.190  1.00  0.00     0.029 A 
ATOM     44  N   UNL A   1      41.581  26.860  29.027  1.00  0.00    -0.354 N 
ATOM     45  C   UNL A   1      42.644  30.549  30.991  1.00  0.00     0.074 A 
ATOM     46  C   UNL A   1      41.513  31.449  31.054  1.00  0.00     0.031 C 
ATOM     47  C   UNL A   1      40.241  25.419  27.966  1.00  0.00     0.029 A 
ATOM     48  C   UNL A   1      41.605  25.615  28.448  1.00  0.00     0.049 A 
ATOM     49  H   UNL A   1      42.350  27.250  29.502  1.00  0.00     0.167 HD
ATOM     50  C   UNL A   1      43.856  30.808  31.539  1.00  0.00     0.031 A 
ATOM     51  C   UNL A   1      42.622  24.745  28.290  1.00  0.00     0.031 A 
ATOM     52  C   UNL A   1      44.988  29.921  31.464  1.00  0.00     0.049 A 
ATOM     53  C   UNL A   1      43.989  25.106  28.811  1.00  0.00     0.074 A 
ATOM     54  C   UNL A   1      46.261  30.101  31.975  1.00  0.00     0.029 A 
ATOM     55  N   UNL A   1      44.980  28.685  30.837  1.00  0.00    -0.354 N 
ATOM     56  N   UNL A   1      44.371  26.174  29.470  1.00  0.00    -0.248 NA
ATOM     57  C   UNL A   1      45.067  24.136  28.568  1.00  0.00     0.031 C 
ATOM     58  C   UNL A   1      47.039  28.995  31.614  1.00  0.00     0.029 A 
ATOM     59  C   UNL A   1      46.232  28.099  30.933  1.00  0.00     0.049 A 
ATOM     60  H   UNL A   1      44.201  28.283  30.389  1.00  0.00     0.167 HD
ATOM     61  C   UNL A   1      45.719  25.985  29.752  1.00  0.00     0.074 A 
ATOM     62  C   UNL A   1      46.083  24.694  29.209  1.00  0.00     0.031 C 
ATOM     63  C   UNL A   1      46.578  26.807  30.402  1.00  0.00     0.031 A 
BRANCH  50  64
ATOM     64  C   UNL A   1      44.031  32.121  32.254  1.00  0.00    -0.014 A 
ATOM     65  C   UNL A   1      43.790  32.234  33.632  1.00  0.00     0.009 A 
ATOM     66  C   UNL A   1      44.490  33.246  31.551  1.00  0.00     0.009 A 
ATOM     67  C   UNL A   1      43.975  33.455  34.285  1.00  0.00     0.001 A 
ATOM     68  C   UNL A   1      44.703  34.457  32.211  1.00  0.00     0.001 A 
ATOM     69  C   UNL A   1      44.437  34.564  33.576  1.00  0.00     0.000 A 
ENDBRANCH  50  64
BRANCH  51  70
ATOM     70  C   UNL A   1      42.413  23.458  27.572  1.00  0.00    -0.014 A 
ATOM     71  C   UNL A   1      42.051  22.298  28.273  1.00  0.00     0.009 A 
ATOM     72  C   UNL A   1      42.631  23.371  26.187  1.00  0.00     0.009 A 
ATOM     73  C   UNL A   1      41.953  21.071  27.610  1.00  0.00     0.001 A 
ATOM     74  C   UNL A   1      42.496  22.150  25.521  1.00  0.00     0.001 A 
ATOM     75  C   UNL A   1      42.172  21.000  26.236  1.00  0.00     0.000 A 
ENDBRANCH  51  70
BRANCH  63  76
ATOM     76  C   UNL A   1      47.981  26.308  30.618  1.00  0.00    -0.014 A 
ATOM     77  C   UNL A   1      48.978  26.474  29.645  1.00  0.00     0.009 A 
ATOM     78  C   UNL A   1      48.315  25.690  31.834  1.00  0.00     0.009 A 
ATOM     79  C   UNL A   1      50.272  25.997  29.871  1.00  0.00     0.001 A 
ATOM     80  C   UNL A   1      49.616  25.244  32.070  1.00  0.00     0.001 A 
ATOM     81  C   UNL A   1      50.590  25.387  31.084  1.00  0.00     0.000 A 
ENDBRANCH  63  76
ENDBRANCH  37  38
ENDBRANCH  30  32
ENDBRANCH  29  30
ENDBRANCH  28  29
ENDBRANCH  27  28
ENDBRANCH   1  27
TORSDOF 17
ENDMDL
MODEL 3
REMARK VINA RESULT:     -10.6      2.643      8.576
REMARK SMILES CCc1ccc(N2C(=O)C[C@@H](SC[C@@H](NC(C)=O)C(=O)OCCOC(=O)c3ccc(-c4c5nc(c(-c6ccccc6)c6ccc([nH]6)c(-c6ccccc6)c6nc(c(-c7ccccc7)c7ccc4[nH]7)C=C6)C=C5)cc3)C2=O)cc1
REMARK SMILES IDX 21 1 19 2 20 3 14 4 13 5 12 6 11 7 7 8 8 9 75 10 9 11 10 12
REMARK SMILES IDX 76 13 6 14 3 15 4 16 78 17 5 18 77 19 2 20 1 21 15 22 16 23
REMARK SMILES IDX 17 25 18 26 22 27 23 28 24 29 25 30 26 31 27 32 28 33 74 34
REMARK SMILES IDX 29 35 73 36 30 37 31 38 32 39 67 40 33 41 72 42 66 43 68 44
REMARK SMILES IDX 34 45 71 46 65 47 64 48 35 50 57 51 42 52 56 53 43 54 46 55
REMARK SMILES IDX 55 56 69 57 44 58 45 59 54 61 70 62 47 63 36 64 37 65 41 66
REMARK SMILES IDX 38 67 40 68 39 69 58 70 59 71 63 72 60 73 62 74 61 75 48 76
REMARK SMILES IDX 49 77 53 78 50 79 52 80 51 81
REMARK H PARENT 15 24 68 49 46 60
REMARK Flexibility Score: inf
ROOT
ATOM      1  O   UNL A   1      31.703  29.564  25.211  1.00  0.00    -0.461 OA
ENDROOT
BRANCH   1   2
ATOM      2  C   UNL A   1      32.205  29.142  24.025  1.00  0.00     0.329 C 
ATOM      3  O   UNL A   1      33.407  29.029  23.789  1.00  0.00    -0.250 OA
BRANCH   2   4
ATOM      4  C   UNL A   1      31.153  28.856  22.957  1.00  0.00     0.202 C 
BRANCH   4   5
ATOM      5  C   UNL A   1      31.062  27.403  22.469  1.00  0.00     0.107 C 
BRANCH   5   6
ATOM      6  S   UNL A   1      30.596  26.022  23.670  1.00  0.00    -0.145 SA
BRANCH   6   7
ATOM      7  C   UNL A   1      32.166  25.205  24.145  1.00  0.00     0.146 C 
ATOM      8  N   UNL A   1      32.917  23.002  23.763  1.00  0.00    -0.250 N 
ATOM      9  C   UNL A   1      33.835  23.806  23.155  1.00  0.00     0.235 C 
ATOM     10  C   UNL A   1      31.964  23.738  24.407  1.00  0.00     0.247 C 
ATOM     11  O   UNL A   1      34.942  23.517  22.725  1.00  0.00    -0.274 OA
ATOM     12  C   UNL A   1      33.219  25.183  23.035  1.00  0.00     0.125 C 
ATOM     13  O   UNL A   1      31.162  23.279  25.201  1.00  0.00    -0.273 OA
BRANCH   8  14
ATOM     14  C   UNL A   1      32.976  21.612  24.001  1.00  0.00     0.052 A 
ATOM     15  C   UNL A   1      33.526  18.869  24.234  1.00  0.00    -0.048 A 
ATOM     16  C   UNL A   1      34.205  19.782  25.037  1.00  0.00     0.006 A 
ATOM     17  C   UNL A   1      32.542  19.332  23.345  1.00  0.00     0.006 A 
ATOM     18  C   UNL A   1      33.931  21.137  24.919  1.00  0.00     0.027 A 
ATOM     19  C   UNL A   1      32.248  20.699  23.241  1.00  0.00     0.027 A 
BRANCH  15  20
ATOM     20  C   UNL A   1      33.818  17.401  24.385  1.00  0.00     0.032 C 
ATOM     21  C   UNL A   1      34.183  16.803  23.037  1.00  0.00     0.009 C 
ENDBRANCH  15  20
ENDBRANCH   8  14
ENDBRANCH   6   7
ENDBRANCH   5   6
ENDBRANCH   4   5
BRANCH   4  22
ATOM     22  N   UNL A   1      29.835  29.421  23.267  1.00  0.00    -0.342 N 
ATOM     23  C   UNL A   1      28.914  29.675  22.274  1.00  0.00     0.217 C 
ATOM     24  H   UNL A   1      29.604  29.625  24.203  1.00  0.00     0.164 HD
ATOM     25  C   UNL A   1      27.489  29.601  22.740  1.00  0.00     0.114 C 
ATOM     26  O   UNL A   1      29.205  29.963  21.122  1.00  0.00    -0.275 OA
ENDBRANCH   4  22
ENDBRANCH   2   4
ENDBRANCH   1   2
BRANCH   1  27
ATOM     27  C   UNL A   1      31.783  28.552  26.234  1.00  0.00     0.274 C 
BRANCH  27  28
ATOM     28  C   UNL A   1      32.625  28.979  27.449  1.00  0.00     0.275 C 
BRANCH  28  29
ATOM     29  O   UNL A   1      34.004  29.280  27.142  1.00  0.00    -0.458 OA
BRANCH  29  30
ATOM     30  C   UNL A   1      34.541  30.320  27.821  1.00  0.00     0.338 C 
ATOM     31  O   UNL A   1      33.967  31.352  28.151  1.00  0.00    -0.246 OA
BRANCH  30  32
ATOM     32  C   UNL A   1      35.927  30.029  28.236  1.00  0.00     0.060 A 
ATOM     33  C   UNL A   1      36.959  30.171  27.298  1.00  0.00     0.016 A 
ATOM     34  C   UNL A   1      36.198  29.512  29.503  1.00  0.00     0.016 A 
ATOM     35  C   UNL A   1      38.260  29.783  27.618  1.00  0.00     0.010 A 
ATOM     36  C   UNL A   1      37.505  29.125  29.822  1.00  0.00     0.010 A 
ATOM     37  C   UNL A   1      38.542  29.240  28.878  1.00  0.00    -0.014 A 
BRANCH  37  38
ATOM     38  C   UNL A   1      39.901  28.734  29.199  1.00  0.00     0.031 A 
ATOM     39  C   UNL A   1      40.882  29.628  29.909  1.00  0.00     0.074 A 
ATOM     40  C   UNL A   1      40.266  27.485  28.848  1.00  0.00     0.049 A 
ATOM     41  N   UNL A   1      42.151  29.430  30.167  1.00  0.00    -0.248 NA
ATOM     42  C   UNL A   1      40.364  30.918  30.392  1.00  0.00     0.031 C 
ATOM     43  C   UNL A   1      39.400  26.498  28.204  1.00  0.00     0.029 A 
ATOM     44  N   UNL A   1      41.473  26.841  28.975  1.00  0.00    -0.354 N 
ATOM     45  C   UNL A   1      42.585  30.571  30.830  1.00  0.00     0.074 A 
ATOM     46  C   UNL A   1      41.454  31.471  30.908  1.00  0.00     0.031 C 
ATOM     47  C   UNL A   1      40.107  25.376  27.983  1.00  0.00     0.029 A 
ATOM     48  C   UNL A   1      41.484  25.584  28.420  1.00  0.00     0.049 A 
ATOM     49  H   UNL A   1      42.255  27.241  29.419  1.00  0.00     0.167 HD
ATOM     50  C   UNL A   1      43.812  30.843  31.338  1.00  0.00     0.031 A 
ATOM     51  C   UNL A   1      42.498  24.713  28.252  1.00  0.00     0.031 A 
ATOM     52  C   UNL A   1      44.942  29.957  31.248  1.00  0.00     0.049 A 
ATOM     53  C   UNL A   1      43.878  25.087  28.725  1.00  0.00     0.074 A 
ATOM     54  C   UNL A   1      46.230  30.149  31.719  1.00  0.00     0.029 A 
ATOM     55  N   UNL A   1      44.920  28.708  30.647  1.00  0.00    -0.354 N 
ATOM     56  N   UNL A   1      44.276  26.169  29.351  1.00  0.00    -0.248 NA
ATOM     57  C   UNL A   1      44.950  24.113  28.471  1.00  0.00     0.031 C 
ATOM     58  C   UNL A   1      46.999  29.038  31.357  1.00  0.00     0.029 A 
ATOM     59  C   UNL A   1      46.175  28.127  30.719  1.00  0.00     0.049 A 
ATOM     60  H   UNL A   1      44.128  28.295  30.230  1.00  0.00     0.167 HD
ATOM     61  C   UNL A   1      45.632  25.987  29.597  1.00  0.00     0.074 A 
ATOM     62  C   UNL A   1      45.984  24.686  29.071  1.00  0.00     0.031 C 
ATOM     63  C   UNL A   1      46.508  26.824  30.205  1.00  0.00     0.031 A 
BRANCH  50  64
ATOM     64  C   UNL A   1      44.004  32.171  32.020  1.00  0.00    -0.014 A 
ATOM     65  C   UNL A   1      43.804  32.312  33.402  1.00  0.00     0.009 A 
ATOM     66  C   UNL A   1      44.440  33.282  31.281  1.00  0.00     0.009 A 
ATOM     67  C   UNL A   1      44.005  33.547  34.024  1.00  0.00     0.001 A 
ATOM     68  C   UNL A   1      44.669  34.507  31.910  1.00  0.00     0.001 A 
ATOM     69  C   UNL A   1      44.443  34.641  33.279  1.00  0.00     0.000 A 
ENDBRANCH  50  64
BRANCH  51  70
ATOM     70  C   UNL A   1      42.271  23.411  27.566  1.00  0.00    -0.014 A 
ATOM     71  C   UNL A   1      41.737  22.317  28.265  1.00  0.00     0.009 A 
ATOM     72  C   UNL A   1      42.640  23.239  26.222  1.00  0.00     0.009 A 
ATOM     73  C   UNL A   1      41.618  21.070  27.646  1.00  0.00     0.001 A 
ATOM     74  C   UNL A   1      42.486  22.000  25.595  1.00  0.00     0.001 A 
ATOM     75  C   UNL A   1      41.990  20.914  26.312  1.00  0.00     0.000 A 
ENDBRANCH  51  70
BRANCH  63  76
ATOM     76  C   UNL A   1      47.918  26.331  30.390  1.00  0.00    -0.014 A 
ATOM     77  C   UNL A   1      48.885  26.474  29.384  1.00  0.00     0.009 A 
ATOM     78  C   UNL A   1      48.290  25.744  31.610  1.00  0.00     0.009 A 
ATOM     79  C   UNL A   1      50.186  26.005  29.583  1.00  0.00     0.001 A 
ATOM     80  C   UNL A   1      49.598  25.305  31.818  1.00  0.00     0.001 A 
ATOM     81  C   UNL A   1      50.542  25.425  30.800  1.00  0.00     0.000 A 
ENDBRANCH  63  76
ENDBRANCH  37  38
ENDBRANCH  30  32
ENDBRANCH  29  30
ENDBRANCH  28  29
ENDBRANCH  27  28
ENDBRANCH   1  27
TORSDOF 17
ENDMDL
