MODEL 1
REMARK VINA RESULT:     -12.7      0.000      0.000
REMARK SMILES CS(=O)(=O)c1ccc(/C=C(/C(=O)OCCOC(=O)c2ccc(-c3c4nc(c(-c5ccccc5)c5ccc([nH]5)c(-c5ccccc5)c5nc(c(-c6ccccc6)c6ccc3[nH]6)C=C5)C=C4)cc2)c2ccc(-c3ccc(F)cc3F)cc2)cc1
REMARK SMILES IDX 14 1 13 2 11 3 12 4 10 5 9 6 8 7 5 8 6 9 82 10 7 11 81 12
REMARK SMILES IDX 2 13 1 14 3 15 4 16 67 17 68 18 80 19 69 20 79 21 70 22
REMARK SMILES IDX 71 23 72 24 77 25 73 26 76 27 78 28 74 29 75 30 15 31 16 32
REMARK SMILES IDX 17 33 18 34 19 35 20 36 66 37 21 38 65 39 22 40 23 41 24 42
REMARK SMILES IDX 59 43 25 44 64 45 58 46 60 47 26 48 63 49 57 50 56 51 27 53
REMARK SMILES IDX 49 54 34 55 48 56 35 57 38 58 47 59 61 60 36 61 37 62 46 64
REMARK SMILES IDX 62 65 39 66 28 67 29 68 33 69 30 70 32 71 31 72 50 73 51 74
REMARK SMILES IDX 55 75 52 76 54 77 53 78 40 79 41 80 45 81 42 82 44 83 43 84
REMARK H PARENT 60 52 38 63
REMARK Flexibility Score: inf
ROOT
ATOM      1  C   UNL A   1      32.843  28.178  23.532  1.00  0.00     0.275 C 
ENDROOT
BRANCH   1   2
ATOM      2  O   UNL A   1      32.426  26.799  23.569  1.00  0.00    -0.458 OA
BRANCH   2   3
ATOM      3  C   UNL A   1      33.128  25.958  22.765  1.00  0.00     0.338 C 
ATOM      4  O   UNL A   1      33.669  26.271  21.713  1.00  0.00    -0.246 OA
BRANCH   3   5
ATOM      5  C   UNL A   1      33.217  24.579  23.333  1.00  0.00     0.067 C 
ATOM      6  C   UNL A   1      32.165  23.739  23.205  1.00  0.00     0.024 C 
BRANCH   6   7
ATOM      7  C   UNL A   1      32.159  22.280  23.461  1.00  0.00    -0.025 A 
ATOM      8  C   UNL A   1      32.502  19.515  23.780  1.00  0.00     0.067 A 
ATOM      9  C   UNL A   1      32.461  20.338  24.903  1.00  0.00     0.021 A 
ATOM     10  C   UNL A   1      32.268  20.037  22.510  1.00  0.00     0.021 A 
ATOM     11  C   UNL A   1      32.259  21.708  24.737  1.00  0.00     0.009 A 
ATOM     12  C   UNL A   1      32.103  21.418  22.354  1.00  0.00     0.009 A 
BRANCH   8  13
ATOM     13  S   UNL A   1      32.866  17.790  23.995  1.00  0.00     0.175 S 
ATOM     14  C   UNL A   1      34.585  17.787  24.440  1.00  0.00     0.163 C 
ATOM     15  O   UNL A   1      32.743  17.147  22.699  1.00  0.00    -0.224 OA
ATOM     16  O   UNL A   1      32.097  17.329  25.134  1.00  0.00    -0.224 OA
ENDBRANCH   8  13
ENDBRANCH   6   7
BRANCH   5  17
ATOM     17  C   UNL A   1      34.517  24.143  23.880  1.00  0.00    -0.011 A 
ATOM     18  C   UNL A   1      34.806  24.373  25.230  1.00  0.00     0.009 A 
ATOM     19  C   UNL A   1      35.434  23.435  23.103  1.00  0.00     0.009 A 
ATOM     20  C   UNL A   1      35.972  23.858  25.805  1.00  0.00     0.009 A 
ATOM     21  C   UNL A   1      36.598  22.918  23.686  1.00  0.00     0.009 A 
ATOM     22  C   UNL A   1      36.885  23.098  25.052  1.00  0.00    -0.015 A 
BRANCH  22  23
ATOM     23  C   UNL A   1      38.072  22.480  25.686  1.00  0.00     0.018 A 
ATOM     24  C   UNL A   1      38.384  21.123  25.458  1.00  0.00     0.015 A 
ATOM     25  C   UNL A   1      38.957  23.206  26.507  1.00  0.00     0.133 A 
ATOM     26  C   UNL A   1      39.521  20.533  26.018  1.00  0.00     0.040 A 
ATOM     27  C   UNL A   1      40.097  22.628  27.062  1.00  0.00     0.079 A 
ATOM     28  F   UNL A   1      38.723  24.499  26.781  1.00  0.00    -0.206 F 
ATOM     29  C   UNL A   1      40.369  21.294  26.810  1.00  0.00     0.126 A 
ATOM     30  F   UNL A   1      41.470  20.733  27.325  1.00  0.00    -0.207 F 
ENDBRANCH  22  23
ENDBRANCH   5  17
ENDBRANCH   3   5
ENDBRANCH   2   3
ENDBRANCH   1   2
BRANCH   1  31
ATOM     31  C   UNL A   1      32.315  28.948  24.742  1.00  0.00     0.275 C 
BRANCH  31  32
ATOM     32  O   UNL A   1      33.293  29.896  25.208  1.00  0.00    -0.458 OA
BRANCH  32  33
ATOM     33  C   UNL A   1      32.931  30.607  26.299  1.00  0.00     0.338 C 
ATOM     34  O   UNL A   1      31.880  31.195  26.493  1.00  0.00    -0.246 OA
BRANCH  33  35
ATOM     35  C   UNL A   1      34.004  30.579  27.304  1.00  0.00     0.060 A 
ATOM     36  C   UNL A   1      34.642  31.763  27.662  1.00  0.00     0.016 A 
ATOM     37  C   UNL A   1      34.505  29.352  27.736  1.00  0.00     0.016 A 
ATOM     38  C   UNL A   1      35.859  31.714  28.341  1.00  0.00     0.010 A 
ATOM     39  C   UNL A   1      35.665  29.318  28.517  1.00  0.00     0.010 A 
ATOM     40  C   UNL A   1      36.388  30.495  28.786  1.00  0.00    -0.014 A 
BRANCH  40  41
ATOM     41  C   UNL A   1      37.700  30.426  29.491  1.00  0.00     0.031 A 
ATOM     42  C   UNL A   1      38.871  29.724  28.848  1.00  0.00     0.074 A 
ATOM     43  C   UNL A   1      37.859  30.965  30.717  1.00  0.00     0.049 A 
ATOM     44  N   UNL A   1      39.980  29.291  29.392  1.00  0.00    -0.248 NA
ATOM     45  C   UNL A   1      38.773  29.461  27.402  1.00  0.00     0.031 C 
ATOM     46  C   UNL A   1      36.859  31.744  31.447  1.00  0.00     0.029 A 
ATOM     47  N   UNL A   1      38.934  30.925  31.574  1.00  0.00    -0.354 N 
ATOM     48  C   UNL A   1      40.670  28.633  28.380  1.00  0.00     0.074 A 
ATOM     49  C   UNL A   1      39.865  28.742  27.182  1.00  0.00     0.031 C 
ATOM     50  C   UNL A   1      37.372  32.132  32.622  1.00  0.00     0.029 A 
ATOM     51  C   UNL A   1      38.691  31.535  32.781  1.00  0.00     0.049 A 
ATOM     52  H   UNL A   1      39.794  30.501  31.345  1.00  0.00     0.167 HD
ATOM     53  C   UNL A   1      41.858  27.984  28.449  1.00  0.00     0.031 A 
ATOM     54  C   UNL A   1      39.408  31.556  33.920  1.00  0.00     0.031 A 
ATOM     55  C   UNL A   1      42.681  27.926  29.630  1.00  0.00     0.049 A 
ATOM     56  C   UNL A   1      40.698  30.795  33.992  1.00  0.00     0.074 A 
ATOM     57  C   UNL A   1      43.904  27.297  29.799  1.00  0.00     0.029 A 
ATOM     58  N   UNL A   1      42.377  28.540  30.834  1.00  0.00    -0.354 N 
ATOM     59  N   UNL A   1      41.293  30.092  33.061  1.00  0.00    -0.248 NA
ATOM     60  C   UNL A   1      41.402  30.812  35.282  1.00  0.00     0.031 C 
ATOM     61  C   UNL A   1      44.322  27.502  31.118  1.00  0.00     0.029 A 
ATOM     62  C   UNL A   1      43.384  28.299  31.753  1.00  0.00     0.049 A 
ATOM     63  H   UNL A   1      41.565  29.067  31.010  1.00  0.00     0.167 HD
ATOM     64  C   UNL A   1      42.450  29.596  33.646  1.00  0.00     0.074 A 
ATOM     65  C   UNL A   1      42.479  30.089  35.008  1.00  0.00     0.031 C 
ATOM     66  C   UNL A   1      43.402  28.802  33.101  1.00  0.00     0.031 A 
BRANCH  53  67
ATOM     67  C   UNL A   1      42.322  27.236  27.230  1.00  0.00    -0.014 A 
ATOM     68  C   UNL A   1      43.181  27.818  26.286  1.00  0.00     0.009 A 
ATOM     69  C   UNL A   1      41.930  25.898  27.057  1.00  0.00     0.009 A 
ATOM     70  C   UNL A   1      43.615  27.083  25.180  1.00  0.00     0.001 A 
ATOM     71  C   UNL A   1      42.385  25.159  25.965  1.00  0.00     0.001 A 
ATOM     72  C   UNL A   1      43.221  25.754  25.022  1.00  0.00     0.000 A 
ENDBRANCH  53  67
BRANCH  54  73
ATOM     73  C   UNL A   1      38.872  32.267  35.110  1.00  0.00    -0.014 A 
ATOM     74  C   UNL A   1      39.047  33.650  35.253  1.00  0.00     0.009 A 
ATOM     75  C   UNL A   1      38.156  31.566  36.095  1.00  0.00     0.009 A 
ATOM     76  C   UNL A   1      38.522  34.316  36.363  1.00  0.00     0.001 A 
ATOM     77  C   UNL A   1      37.604  32.239  37.185  1.00  0.00     0.001 A 
ATOM     78  C   UNL A   1      37.794  33.613  37.322  1.00  0.00     0.000 A 
ENDBRANCH  54  73
BRANCH  66  79
ATOM     79  C   UNL A   1      44.582  28.460  33.962  1.00  0.00    -0.014 A 
ATOM     80  C   UNL A   1      45.701  29.303  34.031  1.00  0.00     0.009 A 
ATOM     81  C   UNL A   1      44.553  27.295  34.744  1.00  0.00     0.009 A 
ATOM     82  C   UNL A   1      46.782  28.970  34.850  1.00  0.00     0.001 A 
ATOM     83  C   UNL A   1      45.624  26.977  35.578  1.00  0.00     0.001 A 
ATOM     84  C   UNL A   1      46.741  27.810  35.625  1.00  0.00     0.000 A 
ENDBRANCH  66  79
ENDBRANCH  40  41
ENDBRANCH  33  35
ENDBRANCH  32  33
ENDBRANCH  31  32
ENDBRANCH   1  31
TORSDOF 15
ENDMDL
MODEL 2
REMARK VINA RESULT:     -12.5      3.952      9.065
REMARK SMILES CS(=O)(=O)c1ccc(/C=C(/C(=O)OCCOC(=O)c2ccc(-c3c4nc(c(-c5ccccc5)c5ccc([nH]5)c(-c5ccccc5)c5nc(c(-c6ccccc6)c6ccc3[nH]6)C=C5)C=C4)cc2)c2ccc(-c3ccc(F)cc3F)cc2)cc1
REMARK SMILES IDX 14 1 13 2 11 3 12 4 10 5 9 6 8 7 5 8 6 9 82 10 7 11 81 12
REMARK SMILES IDX 2 13 1 14 3 15 4 16 67 17 68 18 80 19 69 20 79 21 70 22
REMARK SMILES IDX 71 23 72 24 77 25 73 26 76 27 78 28 74 29 75 30 15 31 16 32
REMARK SMILES IDX 17 33 18 34 19 35 20 36 66 37 21 38 65 39 22 40 23 41 24 42
REMARK SMILES IDX 59 43 25 44 64 45 58 46 60 47 26 48 63 49 57 50 56 51 27 53
REMARK SMILES IDX 49 54 34 55 48 56 35 57 38 58 47 59 61 60 36 61 37 62 46 64
REMARK SMILES IDX 62 65 39 66 28 67 29 68 33 69 30 70 32 71 31 72 50 73 51 74
REMARK SMILES IDX 55 75 52 76 54 77 53 78 40 79 41 80 45 81 42 82 44 83 43 84
REMARK H PARENT 60 52 38 63
REMARK Flexibility Score: inf
ROOT
ATOM      1  C   UNL A   1      34.785  22.467  25.995  1.00  0.00     0.275 C 
ENDROOT
BRANCH   1   2
ATOM      2  O   UNL A   1      33.659  22.977  25.253  1.00  0.00    -0.458 OA
BRANCH   2   3
ATOM      3  C   UNL A   1      32.718  23.618  25.993  1.00  0.00     0.338 C 
ATOM      4  O   UNL A   1      32.321  23.264  27.095  1.00  0.00    -0.246 OA
BRANCH   3   5
ATOM      5  C   UNL A   1      32.233  24.866  25.329  1.00  0.00     0.067 C 
ATOM      6  C   UNL A   1      31.350  24.775  24.308  1.00  0.00     0.024 C 
BRANCH   6   7
ATOM      7  C   UNL A   1      30.567  25.882  23.712  1.00  0.00    -0.025 A 
ATOM      8  C   UNL A   1      29.096  28.140  22.937  1.00  0.00     0.067 A 
ATOM      9  C   UNL A   1      30.374  27.940  22.421  1.00  0.00     0.021 A 
ATOM     10  C   UNL A   1      28.502  27.177  23.750  1.00  0.00     0.021 A 
ATOM     11  C   UNL A   1      31.087  26.798  22.787  1.00  0.00     0.009 A 
ATOM     12  C   UNL A   1      29.241  26.054  24.139  1.00  0.00     0.009 A 
BRANCH   8  13
ATOM     13  S   UNL A   1      28.242  29.647  22.549  1.00  0.00     0.175 S 
ATOM     14  C   UNL A   1      29.071  30.857  23.551  1.00  0.00     0.163 C 
ATOM     15  O   UNL A   1      26.882  29.524  23.040  1.00  0.00    -0.224 OA
ATOM     16  O   UNL A   1      28.511  29.945  21.156  1.00  0.00    -0.224 OA
ENDBRANCH   8  13
ENDBRANCH   6   7
BRANCH   5  17
ATOM     17  C   UNL A   1      32.628  26.159  25.922  1.00  0.00    -0.011 A 
ATOM     18  C   UNL A   1      33.800  26.785  25.483  1.00  0.00     0.009 A 
ATOM     19  C   UNL A   1      31.820  26.812  26.852  1.00  0.00     0.009 A 
ATOM     20  C   UNL A   1      34.131  28.068  25.932  1.00  0.00     0.009 A 
ATOM     21  C   UNL A   1      32.154  28.098  27.295  1.00  0.00     0.009 A 
ATOM     22  C   UNL A   1      33.304  28.765  26.832  1.00  0.00    -0.015 A 
BRANCH  22  23
ATOM     23  C   UNL A   1      33.612  30.156  27.234  1.00  0.00     0.018 A 
ATOM     24  C   UNL A   1      32.650  31.177  27.084  1.00  0.00     0.015 A 
ATOM     25  C   UNL A   1      34.844  30.524  27.808  1.00  0.00     0.133 A 
ATOM     26  C   UNL A   1      32.910  32.489  27.492  1.00  0.00     0.040 A 
ATOM     27  C   UNL A   1      35.109  31.826  28.227  1.00  0.00     0.079 A 
ATOM     28  F   UNL A   1      35.815  29.611  27.973  1.00  0.00    -0.206 F 
ATOM     29  C   UNL A   1      34.135  32.797  28.065  1.00  0.00     0.126 A 
ATOM     30  F   UNL A   1      34.373  34.048  28.479  1.00  0.00    -0.207 F 
ENDBRANCH  22  23
ENDBRANCH   5  17
ENDBRANCH   3   5
ENDBRANCH   2   3
ENDBRANCH   1   2
BRANCH   1  31
ATOM     31  C   UNL A   1      35.620  21.509  25.146  1.00  0.00     0.275 C 
BRANCH  31  32
ATOM     32  O   UNL A   1      36.876  22.112  24.785  1.00  0.00    -0.458 OA
BRANCH  32  33
ATOM     33  C   UNL A   1      37.957  21.617  25.428  1.00  0.00     0.338 C 
ATOM     34  O   UNL A   1      38.386  20.476  25.399  1.00  0.00    -0.246 OA
BRANCH  33  35
ATOM     35  C   UNL A   1      38.618  22.678  26.203  1.00  0.00     0.060 A 
ATOM     36  C   UNL A   1      38.142  23.983  26.129  1.00  0.00     0.016 A 
ATOM     37  C   UNL A   1      39.829  22.406  26.838  1.00  0.00     0.016 A 
ATOM     38  C   UNL A   1      38.939  25.036  26.575  1.00  0.00     0.010 A 
ATOM     39  C   UNL A   1      40.570  23.459  27.386  1.00  0.00     0.010 A 
ATOM     40  C   UNL A   1      40.161  24.794  27.216  1.00  0.00    -0.014 A 
BRANCH  40  41
ATOM     41  C   UNL A   1      41.036  25.912  27.674  1.00  0.00     0.031 A 
ATOM     42  C   UNL A   1      40.511  26.934  28.653  1.00  0.00     0.074 A 
ATOM     43  C   UNL A   1      42.295  26.044  27.210  1.00  0.00     0.049 A 
ATOM     44  N   UNL A   1      40.977  28.122  28.942  1.00  0.00    -0.248 NA
ATOM     45  C   UNL A   1      39.289  26.576  29.393  1.00  0.00     0.031 C 
ATOM     46  C   UNL A   1      42.984  25.106  26.324  1.00  0.00     0.029 A 
ATOM     47  N   UNL A   1      43.219  27.041  27.417  1.00  0.00    -0.354 N 
ATOM     48  C   UNL A   1      40.065  28.684  29.828  1.00  0.00     0.074 A 
ATOM     49  C   UNL A   1      39.028  27.699  30.047  1.00  0.00     0.031 C 
ATOM     50  C   UNL A   1      44.226  25.551  26.087  1.00  0.00     0.029 A 
ATOM     51  C   UNL A   1      44.382  26.861  26.706  1.00  0.00     0.049 A 
ATOM     52  H   UNL A   1      43.064  27.807  28.015  1.00  0.00     0.167 HD
ATOM     53  C   UNL A   1      40.085  29.916  30.394  1.00  0.00     0.031 A 
ATOM     54  C   UNL A   1      45.431  27.680  26.508  1.00  0.00     0.031 A 
ATOM     55  C   UNL A   1      41.147  30.872  30.216  1.00  0.00     0.049 A 
ATOM     56  C   UNL A   1      45.415  29.056  27.104  1.00  0.00     0.074 A 
ATOM     57  C   UNL A   1      41.260  32.145  30.750  1.00  0.00     0.029 A 
ATOM     58  N   UNL A   1      42.290  30.649  29.466  1.00  0.00    -0.354 N 
ATOM     59  N   UNL A   1      44.501  29.616  27.858  1.00  0.00    -0.248 NA
ATOM     60  C   UNL A   1      46.564  29.920  26.801  1.00  0.00     0.031 C 
ATOM     61  C   UNL A   1      42.458  32.706  30.294  1.00  0.00     0.029 A 
ATOM     62  C   UNL A   1      43.111  31.763  29.517  1.00  0.00     0.049 A 
ATOM     63  H   UNL A   1      42.488  29.823  28.970  1.00  0.00     0.167 HD
ATOM     64  C   UNL A   1      44.972  30.892  28.133  1.00  0.00     0.074 A 
ATOM     65  C   UNL A   1      46.257  31.018  27.477  1.00  0.00     0.031 C 
ATOM     66  C   UNL A   1      44.389  31.871  28.865  1.00  0.00     0.031 A 
BRANCH  53  67
ATOM     67  C   UNL A   1      38.897  30.329  31.218  1.00  0.00    -0.014 A 
ATOM     68  C   UNL A   1      37.744  30.875  30.635  1.00  0.00     0.009 A 
ATOM     69  C   UNL A   1      38.918  30.112  32.607  1.00  0.00     0.009 A 
ATOM     70  C   UNL A   1      36.648  31.220  31.430  1.00  0.00     0.001 A 
ATOM     71  C   UNL A   1      37.811  30.433  33.394  1.00  0.00     0.001 A 
ATOM     72  C   UNL A   1      36.680  30.995  32.806  1.00  0.00     0.000 A 
ENDBRANCH  53  67
BRANCH  54  73
ATOM     73  C   UNL A   1      46.552  27.238  25.638  1.00  0.00    -0.014 A 
ATOM     74  C   UNL A   1      46.642  27.679  24.310  1.00  0.00     0.009 A 
ATOM     75  C   UNL A   1      47.555  26.395  26.144  1.00  0.00     0.009 A 
ATOM     76  C   UNL A   1      47.710  27.278  23.504  1.00  0.00     0.001 A 
ATOM     77  C   UNL A   1      48.638  26.022  25.347  1.00  0.00     0.001 A 
ATOM     78  C   UNL A   1      48.711  26.458  24.025  1.00  0.00     0.000 A 
ENDBRANCH  54  73
BRANCH  66  79
ATOM     79  C   UNL A   1      45.161  33.146  29.038  1.00  0.00    -0.014 A 
ATOM     80  C   UNL A   1      44.999  34.222  28.152  1.00  0.00     0.009 A 
ATOM     81  C   UNL A   1      46.034  33.282  30.128  1.00  0.00     0.009 A 
ATOM     82  C   UNL A   1      45.719  35.402  28.342  1.00  0.00     0.001 A 
ATOM     83  C   UNL A   1      46.736  34.471  30.327  1.00  0.00     0.001 A 
ATOM     84  C   UNL A   1      46.584  35.527  29.430  1.00  0.00     0.000 A 
ENDBRANCH  66  79
ENDBRANCH  40  41
ENDBRANCH  33  35
ENDBRANCH  32  33
ENDBRANCH  31  32
ENDBRANCH   1  31
TORSDOF 15
ENDMDL
MODEL 3
REMARK VINA RESULT:     -11.3      3.607      6.897
REMARK SMILES CS(=O)(=O)c1ccc(/C=C(/C(=O)OCCOC(=O)c2ccc(-c3c4nc(c(-c5ccccc5)c5ccc([nH]5)c(-c5ccccc5)c5nc(c(-c6ccccc6)c6ccc3[nH]6)C=C5)C=C4)cc2)c2ccc(-c3ccc(F)cc3F)cc2)cc1
REMARK SMILES IDX 14 1 13 2 11 3 12 4 10 5 9 6 8 7 5 8 6 9 82 10 7 11 81 12
REMARK SMILES IDX 2 13 1 14 3 15 4 16 67 17 68 18 80 19 69 20 79 21 70 22
REMARK SMILES IDX 71 23 72 24 77 25 73 26 76 27 78 28 74 29 75 30 15 31 16 32
REMARK SMILES IDX 17 33 18 34 19 35 20 36 66 37 21 38 65 39 22 40 23 41 24 42
REMARK SMILES IDX 59 43 25 44 64 45 58 46 60 47 26 48 63 49 57 50 56 51 27 53
REMARK SMILES IDX 49 54 34 55 48 56 35 57 38 58 47 59 61 60 36 61 37 62 46 64
REMARK SMILES IDX 62 65 39 66 28 67 29 68 33 69 30 70 32 71 31 72 50 73 51 74
REMARK SMILES IDX 55 75 52 76 54 77 53 78 40 79 41 80 45 81 42 82 44 83 43 84
REMARK H PARENT 60 52 38 63
REMARK Flexibility Score: inf
ROOT
ATOM      1  C   UNL A   1      34.949  22.874  24.349  1.00  0.00     0.275 C 
ENDROOT
BRANCH   1   2
ATOM      2  O   UNL A   1      33.588  22.485  24.623  1.00  0.00    -0.458 OA
BRANCH   2   3
ATOM      3  C   UNL A   1      32.941  23.246  25.543  1.00  0.00     0.338 C 
ATOM      4  O   UNL A   1      32.756  22.939  26.714  1.00  0.00    -0.246 OA
BRANCH   3   5
ATOM      5  C   UNL A   1      32.503  24.560  24.982  1.00  0.00     0.067 C 
ATOM      6  C   UNL A   1      31.614  24.582  23.962  1.00  0.00     0.024 C 
BRANCH   6   7
ATOM      7  C   UNL A   1      30.874  25.762  23.458  1.00  0.00    -0.025 A 
ATOM      8  C   UNL A   1      29.482  28.125  22.870  1.00  0.00     0.067 A 
ATOM      9  C   UNL A   1      30.762  27.935  22.358  1.00  0.00     0.021 A 
ATOM     10  C   UNL A   1      28.846  27.110  23.583  1.00  0.00     0.021 A 
ATOM     11  C   UNL A   1      31.436  26.743  22.628  1.00  0.00     0.009 A 
ATOM     12  C   UNL A   1      29.545  25.934  23.878  1.00  0.00     0.009 A 
BRANCH   8  13
ATOM     13  S   UNL A   1      28.677  29.686  22.610  1.00  0.00     0.175 S 
ATOM     14  C   UNL A   1      27.037  29.410  23.235  1.00  0.00     0.163 C 
ATOM     15  O   UNL A   1      28.574  29.897  21.177  1.00  0.00    -0.224 OA
ATOM     16  O   UNL A   1      29.336  30.654  23.464  1.00  0.00    -0.224 OA
ENDBRANCH   8  13
ENDBRANCH   6   7
BRANCH   5  17
ATOM     17  C   UNL A   1      32.951  25.786  25.670  1.00  0.00    -0.011 A 
ATOM     18  C   UNL A   1      34.142  26.401  25.271  1.00  0.00     0.009 A 
ATOM     19  C   UNL A   1      32.173  26.393  26.656  1.00  0.00     0.009 A 
ATOM     20  C   UNL A   1      34.524  27.631  25.816  1.00  0.00     0.009 A 
ATOM     21  C   UNL A   1      32.558  27.627  27.195  1.00  0.00     0.009 A 
ATOM     22  C   UNL A   1      33.730  28.285  26.775  1.00  0.00    -0.015 A 
BRANCH  22  23
ATOM     23  C   UNL A   1      34.093  29.628  27.283  1.00  0.00     0.018 A 
ATOM     24  C   UNL A   1      33.161  30.687  27.245  1.00  0.00     0.015 A 
ATOM     25  C   UNL A   1      35.350  29.909  27.851  1.00  0.00     0.133 A 
ATOM     26  C   UNL A   1      33.473  31.951  27.753  1.00  0.00     0.040 A 
ATOM     27  C   UNL A   1      35.667  31.163  28.368  1.00  0.00     0.079 A 
ATOM     28  F   UNL A   1      36.295  28.957  27.913  1.00  0.00    -0.206 F 
ATOM     29  C   UNL A   1      34.722  32.173  28.315  1.00  0.00     0.126 A 
ATOM     30  F   UNL A   1      35.011  33.378  28.824  1.00  0.00    -0.207 F 
ENDBRANCH  22  23
ENDBRANCH   5  17
ENDBRANCH   3   5
ENDBRANCH   2   3
ENDBRANCH   1   2
BRANCH   1  31
ATOM     31  C   UNL A   1      35.910  21.702  24.547  1.00  0.00     0.275 C 
BRANCH  31  32
ATOM     32  O   UNL A   1      36.621  21.832  25.791  1.00  0.00    -0.458 OA
BRANCH  32  33
ATOM     33  C   UNL A   1      37.967  21.749  25.696  1.00  0.00     0.338 C 
ATOM     34  O   UNL A   1      38.625  20.900  25.118  1.00  0.00    -0.246 OA
BRANCH  33  35
ATOM     35  C   UNL A   1      38.598  22.879  26.394  1.00  0.00     0.060 A 
ATOM     36  C   UNL A   1      37.954  24.112  26.430  1.00  0.00     0.016 A 
ATOM     37  C   UNL A   1      39.916  22.762  26.834  1.00  0.00     0.016 A 
ATOM     38  C   UNL A   1      38.669  25.256  26.782  1.00  0.00     0.010 A 
ATOM     39  C   UNL A   1      40.591  23.897  27.296  1.00  0.00     0.010 A 
ATOM     40  C   UNL A   1      39.995  25.169  27.227  1.00  0.00    -0.014 A 
BRANCH  40  41
ATOM     41  C   UNL A   1      40.779  26.387  27.582  1.00  0.00     0.031 A 
ATOM     42  C   UNL A   1      42.141  26.617  26.974  1.00  0.00     0.074 A 
ATOM     43  C   UNL A   1      40.301  27.288  28.464  1.00  0.00     0.049 A 
ATOM     44  N   UNL A   1      43.097  27.423  27.360  1.00  0.00    -0.248 NA
ATOM     45  C   UNL A   1      42.476  25.821  25.781  1.00  0.00     0.031 C 
ATOM     46  C   UNL A   1      38.976  27.261  29.084  1.00  0.00     0.029 A 
ATOM     47  N   UNL A   1      40.893  28.407  29.002  1.00  0.00    -0.354 N 
ATOM     48  C   UNL A   1      44.171  27.172  26.514  1.00  0.00     0.074 A 
ATOM     49  C   UNL A   1      43.744  26.153  25.579  1.00  0.00     0.031 C 
ATOM     50  C   UNL A   1      38.843  28.323  29.891  1.00  0.00     0.029 A 
ATOM     51  C   UNL A   1      40.110  29.041  29.937  1.00  0.00     0.049 A 
ATOM     52  H   UNL A   1      41.789  28.723  28.744  1.00  0.00     0.167 HD
ATOM     53  C   UNL A   1      45.407  27.730  26.528  1.00  0.00     0.031 A 
ATOM     54  C   UNL A   1      40.391  30.041  30.792  1.00  0.00     0.031 A 
ATOM     55  C   UNL A   1      45.811  28.782  27.425  1.00  0.00     0.049 A 
ATOM     56  C   UNL A   1      41.776  30.615  30.825  1.00  0.00     0.074 A 
ATOM     57  C   UNL A   1      47.039  29.416  27.514  1.00  0.00     0.029 A 
ATOM     58  N   UNL A   1      44.986  29.372  28.369  1.00  0.00    -0.354 N 
ATOM     59  N   UNL A   1      42.815  30.302  30.090  1.00  0.00    -0.248 NA
ATOM     60  C   UNL A   1      42.032  31.664  31.822  1.00  0.00     0.031 C 
ATOM     61  C   UNL A   1      46.967  30.367  28.537  1.00  0.00     0.029 A 
ATOM     62  C   UNL A   1      45.680  30.357  29.050  1.00  0.00     0.049 A 
ATOM     63  H   UNL A   1      44.047  29.126  28.532  1.00  0.00     0.167 HD
ATOM     64  C   UNL A   1      43.843  31.126  30.524  1.00  0.00     0.074 A 
ATOM     65  C   UNL A   1      43.301  31.961  31.576  1.00  0.00     0.031 C 
ATOM     66  C   UNL A   1      45.125  31.183  30.089  1.00  0.00     0.031 A 
BRANCH  53  67
ATOM     67  C   UNL A   1      46.436  27.180  25.580  1.00  0.00    -0.014 A 
ATOM     68  C   UNL A   1      46.750  27.822  24.373  1.00  0.00     0.009 A 
ATOM     69  C   UNL A   1      47.146  26.020  25.936  1.00  0.00     0.009 A 
ATOM     70  C   UNL A   1      47.733  27.296  23.529  1.00  0.00     0.001 A 
ATOM     71  C   UNL A   1      48.145  25.513  25.104  1.00  0.00     0.001 A 
ATOM     72  C   UNL A   1      48.432  26.147  23.898  1.00  0.00     0.000 A 
ENDBRANCH  53  67
BRANCH  54  73
ATOM     73  C   UNL A   1      39.348  30.506  31.744  1.00  0.00    -0.014 A 
ATOM     74  C   UNL A   1      38.445  31.512  31.376  1.00  0.00     0.009 A 
ATOM     75  C   UNL A   1      39.236  29.922  33.017  1.00  0.00     0.009 A 
ATOM     76  C   UNL A   1      37.452  31.929  32.267  1.00  0.00     0.001 A 
ATOM     77  C   UNL A   1      38.224  30.318  33.892  1.00  0.00     0.001 A 
ATOM     78  C   UNL A   1      37.337  31.327  33.519  1.00  0.00     0.000 A 
ENDBRANCH  54  73
BRANCH  66  79
ATOM     79  C   UNL A   1      46.012  32.219  30.713  1.00  0.00    -0.014 A 
ATOM     80  C   UNL A   1      46.088  33.521  30.195  1.00  0.00     0.009 A 
ATOM     81  C   UNL A   1      46.754  31.894  31.859  1.00  0.00     0.009 A 
ATOM     82  C   UNL A   1      46.912  34.471  30.801  1.00  0.00     0.001 A 
ATOM     83  C   UNL A   1      47.559  32.852  32.475  1.00  0.00     0.001 A 
ATOM     84  C   UNL A   1      47.644  34.137  31.942  1.00  0.00     0.000 A 
ENDBRANCH  66  79
ENDBRANCH  40  41
ENDBRANCH  33  35
ENDBRANCH  32  33
ENDBRANCH  31  32
ENDBRANCH   1  31
TORSDOF 15
ENDMDL
