MODEL 1
REMARK VINA RESULT:     -11.0      0.000      0.000
REMARK SMILES Cc1cc(O[C@@H](C)C(=O)NCCC(=O)OCCOC(=O)c2ccc(-c3c4nc(c(-c5ccccc5)c5ccc([nH]5)c(-c5ccccc5)c5nc(c(-c6ccccc6)c6ccc3[nH]6)C=C5)C=C4)cc2)c2c3c(c(=O)oc2c1)CCCC3
REMARK SMILES IDX 15 1 13 2 14 3 12 4 11 5 10 6 8 7 9 8 6 10 7 11 5 12 4 13
REMARK SMILES IDX 1 14 2 15 3 16 76 17 75 18 69 19 74 20 70 21 72 22 71 23
REMARK SMILES IDX 80 24 73 25 77 26 79 27 78 28 16 29 17 30 18 31 19 32 20 33
REMARK SMILES IDX 21 34 22 35 68 36 23 37 67 38 24 39 25 40 26 41 61 42 27 43
REMARK SMILES IDX 66 44 60 45 62 46 28 47 65 48 59 49 58 50 29 52 51 53 36 54
REMARK SMILES IDX 50 55 37 56 40 57 49 58 63 59 38 60 39 61 48 63 64 64 41 65
REMARK SMILES IDX 30 66 31 67 35 68 32 69 34 70 33 71 52 72 53 73 57 74 54 75
REMARK SMILES IDX 56 76 55 77 42 78 43 79 47 80 44 81 46 82 45 83
REMARK H PARENT 10 9 62 51 40 62
REMARK Flexibility Score: inf
ROOT
ATOM      1  O   UNL A   1      31.811  28.917  25.521  1.00  0.00    -0.462 OA
ENDROOT
BRANCH   1   2
ATOM      2  C   UNL A   1      31.639  27.644  25.084  1.00  0.00     0.307 C 
ATOM      3  O   UNL A   1      32.007  27.225  23.993  1.00  0.00    -0.252 OA
BRANCH   2   4
ATOM      4  C   UNL A   1      30.917  26.779  26.086  1.00  0.00     0.144 C 
BRANCH   4   5
ATOM      5  C   UNL A   1      30.263  25.537  25.489  1.00  0.00     0.127 C 
BRANCH   5   6
ATOM      6  N   UNL A   1      30.156  24.469  26.462  1.00  0.00    -0.352 N 
ATOM      7  C   UNL A   1      30.795  23.278  26.578  1.00  0.00     0.260 C 
ATOM      8  O   UNL A   1      30.432  22.558  27.518  1.00  0.00    -0.271 OA
ATOM      9  H   UNL A   1      29.495  24.638  27.172  1.00  0.00     0.163 HD
BRANCH   7  10
ATOM     10  C   UNL A   1      31.972  22.827  25.670  1.00  0.00     0.258 C 
ATOM     11  C   UNL A   1      31.604  22.875  24.191  1.00  0.00     0.064 C 
BRANCH  10  12
ATOM     12  O   UNL A   1      32.868  21.822  26.121  1.00  0.00    -0.480 OA
BRANCH  12  13
ATOM     13  C   UNL A   1      33.311  20.707  25.486  1.00  0.00     0.132 A 
ATOM     14  C   UNL A   1      32.015  17.392  24.127  1.00  0.00     0.044 C 
ATOM     15  C   UNL A   1      32.967  18.486  24.507  1.00  0.00    -0.044 A 
ATOM     16  C   UNL A   1      32.470  19.691  25.017  1.00  0.00     0.050 A 
ATOM     17  C   UNL A   1      34.342  18.310  24.443  1.00  0.00     0.051 A 
ATOM     18  C   UNL A   1      35.184  19.355  24.825  1.00  0.00     0.142 A 
ATOM     19  C   UNL A   1      34.712  20.583  25.304  1.00  0.00     0.063 A 
ATOM     20  O   UNL A   1      36.557  19.069  24.721  1.00  0.00    -0.422 OA
ATOM     21  C   UNL A   1      35.729  21.646  25.534  1.00  0.00    -0.023 A 
ATOM     22  C   UNL A   1      37.521  19.996  25.062  1.00  0.00     0.339 A 
ATOM     23  C   UNL A   1      37.040  21.353  25.415  1.00  0.00     0.042 A 
ATOM     24  C   UNL A   1      35.284  23.070  25.794  1.00  0.00     0.037 C 
ATOM     25  O   UNL A   1      38.714  19.714  25.032  1.00  0.00    -0.246 OA
ATOM     26  C   UNL A   1      38.147  22.367  25.587  1.00  0.00     0.043 C 
ATOM     27  C   UNL A   1      36.368  24.125  25.555  1.00  0.00     0.005 C 
ATOM     28  C   UNL A   1      37.686  23.697  26.175  1.00  0.00     0.005 C 
ENDBRANCH  12  13
ENDBRANCH  10  12
ENDBRANCH   7  10
ENDBRANCH   5   6
ENDBRANCH   4   5
ENDBRANCH   2   4
ENDBRANCH   1   2
BRANCH   1  29
ATOM     29  C   UNL A   1      33.141  29.456  25.414  1.00  0.00     0.274 C 
BRANCH  29  30
ATOM     30  C   UNL A   1      34.128  28.665  26.280  1.00  0.00     0.275 C 
BRANCH  30  31
ATOM     31  O   UNL A   1      34.062  29.045  27.670  1.00  0.00    -0.458 OA
BRANCH  31  32
ATOM     32  C   UNL A   1      34.706  30.189  28.001  1.00  0.00     0.338 C 
ATOM     33  O   UNL A   1      34.229  31.306  28.098  1.00  0.00    -0.246 OA
BRANCH  32  34
ATOM     34  C   UNL A   1      36.106  29.895  28.345  1.00  0.00     0.060 A 
ATOM     35  C   UNL A   1      36.444  29.319  29.568  1.00  0.00     0.016 A 
ATOM     36  C   UNL A   1      37.082  30.103  27.368  1.00  0.00     0.016 A 
ATOM     37  C   UNL A   1      37.774  28.956  29.812  1.00  0.00     0.010 A 
ATOM     38  C   UNL A   1      38.398  29.701  27.599  1.00  0.00     0.010 A 
ATOM     39  C   UNL A   1      38.764  29.132  28.826  1.00  0.00    -0.014 A 
BRANCH  39  40
ATOM     40  C   UNL A   1      40.171  28.713  29.078  1.00  0.00     0.031 A 
ATOM     41  C   UNL A   1      40.645  27.329  28.720  1.00  0.00     0.074 A 
ATOM     42  C   UNL A   1      41.039  29.579  29.641  1.00  0.00     0.049 A 
ATOM     43  N   UNL A   1      41.864  26.846  28.747  1.00  0.00    -0.248 NA
ATOM     44  C   UNL A   1      39.625  26.355  28.298  1.00  0.00     0.031 C 
ATOM     45  C   UNL A   1      40.705  30.922  30.116  1.00  0.00     0.029 A 
ATOM     46  N   UNL A   1      42.386  29.465  29.885  1.00  0.00    -0.354 N 
ATOM     47  C   UNL A   1      41.755  25.521  28.342  1.00  0.00     0.074 A 
ATOM     48  C   UNL A   1      40.348  25.255  28.142  1.00  0.00     0.031 C 
ATOM     49  C   UNL A   1      41.829  31.533  30.527  1.00  0.00     0.029 A 
ATOM     50  C   UNL A   1      42.958  30.621  30.361  1.00  0.00     0.049 A 
ATOM     51  H   UNL A   1      42.894  28.636  29.732  1.00  0.00     0.167 HD
ATOM     52  C   UNL A   1      42.736  24.614  28.120  1.00  0.00     0.031 A 
ATOM     53  C   UNL A   1      44.248  30.932  30.601  1.00  0.00     0.031 A 
ATOM     54  C   UNL A   1      44.138  24.868  28.306  1.00  0.00     0.049 A 
ATOM     55  C   UNL A   1      45.326  29.921  30.321  1.00  0.00     0.074 A 
ATOM     56  C   UNL A   1      45.205  24.025  28.048  1.00  0.00     0.029 A 
ATOM     57  N   UNL A   1      44.668  26.051  28.791  1.00  0.00    -0.354 N 
ATOM     58  N   UNL A   1      45.214  28.708  29.840  1.00  0.00    -0.248 NA
ATOM     59  C   UNL A   1      46.711  30.333  30.596  1.00  0.00     0.031 C 
ATOM     60  C   UNL A   1      46.382  24.685  28.414  1.00  0.00     0.029 A 
ATOM     61  C   UNL A   1      46.049  25.957  28.852  1.00  0.00     0.049 A 
ATOM     62  H   UNL A   1      44.143  26.841  29.054  1.00  0.00     0.167 HD
ATOM     63  C   UNL A   1      46.510  28.221  29.731  1.00  0.00     0.074 A 
ATOM     64  C   UNL A   1      47.395  29.274  30.183  1.00  0.00     0.031 C 
ATOM     65  C   UNL A   1      46.925  27.008  29.294  1.00  0.00     0.031 A 
BRANCH  52  66
ATOM     66  C   UNL A   1      42.330  23.259  27.612  1.00  0.00    -0.014 A 
ATOM     67  C   UNL A   1      42.337  22.988  26.235  1.00  0.00     0.009 A 
ATOM     68  C   UNL A   1      41.865  22.274  28.498  1.00  0.00     0.009 A 
ATOM     69  C   UNL A   1      41.887  21.756  25.757  1.00  0.00     0.001 A 
ATOM     70  C   UNL A   1      41.440  21.034  28.019  1.00  0.00     0.001 A 
ATOM     71  C   UNL A   1      41.444  20.778  26.648  1.00  0.00     0.000 A 
ENDBRANCH  52  66
BRANCH  53  72
ATOM     72  C   UNL A   1      44.601  32.303  31.050  1.00  0.00    -0.014 A 
ATOM     73  C   UNL A   1      44.727  32.607  32.414  1.00  0.00     0.009 A 
ATOM     74  C   UNL A   1      44.794  33.323  30.105  1.00  0.00     0.009 A 
ATOM     75  C   UNL A   1      45.031  33.908  32.822  1.00  0.00     0.001 A 
ATOM     76  C   UNL A   1      45.120  34.617  30.516  1.00  0.00     0.001 A 
ATOM     77  C   UNL A   1      45.232  34.910  31.874  1.00  0.00     0.000 A 
ENDBRANCH  53  72
BRANCH  65  78
ATOM     78  C   UNL A   1      48.403  26.738  29.256  1.00  0.00    -0.014 A 
ATOM     79  C   UNL A   1      49.135  27.041  28.097  1.00  0.00     0.009 A 
ATOM     80  C   UNL A   1      49.050  26.094  30.321  1.00  0.00     0.009 A 
ATOM     81  C   UNL A   1      50.483  26.693  27.999  1.00  0.00     0.001 A 
ATOM     82  C   UNL A   1      50.404  25.769  30.231  1.00  0.00     0.001 A 
ATOM     83  C   UNL A   1      51.117  26.060  29.067  1.00  0.00     0.000 A 
ENDBRANCH  65  78
ENDBRANCH  39  40
ENDBRANCH  32  34
ENDBRANCH  31  32
ENDBRANCH  30  31
ENDBRANCH  29  30
ENDBRANCH   1  29
TORSDOF 16
ENDMDL
MODEL 2
REMARK VINA RESULT:     -10.9      5.734      8.857
REMARK SMILES Cc1cc(O[C@@H](C)C(=O)NCCC(=O)OCCOC(=O)c2ccc(-c3c4nc(c(-c5ccccc5)c5ccc([nH]5)c(-c5ccccc5)c5nc(c(-c6ccccc6)c6ccc3[nH]6)C=C5)C=C4)cc2)c2c3c(c(=O)oc2c1)CCCC3
REMARK SMILES IDX 15 1 13 2 14 3 12 4 11 5 10 6 8 7 9 8 6 10 7 11 5 12 4 13
REMARK SMILES IDX 1 14 2 15 3 16 76 17 75 18 69 19 74 20 70 21 72 22 71 23
REMARK SMILES IDX 80 24 73 25 77 26 79 27 78 28 16 29 17 30 18 31 19 32 20 33
REMARK SMILES IDX 21 34 22 35 68 36 23 37 67 38 24 39 25 40 26 41 61 42 27 43
REMARK SMILES IDX 66 44 60 45 62 46 28 47 65 48 59 49 58 50 29 52 51 53 36 54
REMARK SMILES IDX 50 55 37 56 40 57 49 58 63 59 38 60 39 61 48 63 64 64 41 65
REMARK SMILES IDX 30 66 31 67 35 68 32 69 34 70 33 71 52 72 53 73 57 74 54 75
REMARK SMILES IDX 56 76 55 77 42 78 43 79 47 80 44 81 46 82 45 83
REMARK H PARENT 10 9 62 51 40 62
REMARK Flexibility Score: inf
ROOT
ATOM      1  O   UNL A   1      33.231  35.147  30.889  1.00  0.00    -0.462 OA
ENDROOT
BRANCH   1   2
ATOM      2  C   UNL A   1      32.868  36.287  31.528  1.00  0.00     0.307 C 
ATOM      3  O   UNL A   1      31.749  36.788  31.481  1.00  0.00    -0.252 OA
BRANCH   2   4
ATOM      4  C   UNL A   1      34.004  36.905  32.302  1.00  0.00     0.144 C 
BRANCH   4   5
ATOM      5  C   UNL A   1      34.350  36.179  33.598  1.00  0.00     0.127 C 
BRANCH   5   6
ATOM      6  N   UNL A   1      33.795  34.841  33.626  1.00  0.00    -0.352 N 
ATOM      7  C   UNL A   1      34.363  33.617  33.484  1.00  0.00     0.260 C 
ATOM      8  O   UNL A   1      33.587  32.653  33.513  1.00  0.00    -0.271 OA
ATOM      9  H   UNL A   1      32.822  34.814  33.775  1.00  0.00     0.163 HD
BRANCH   7  10
ATOM     10  C   UNL A   1      35.893  33.374  33.372  1.00  0.00     0.258 C 
ATOM     11  C   UNL A   1      36.408  33.610  31.956  1.00  0.00     0.064 C 
BRANCH  10  12
ATOM     12  O   UNL A   1      36.510  32.372  34.167  1.00  0.00    -0.480 OA
BRANCH  12  13
ATOM     13  C   UNL A   1      37.550  32.471  35.033  1.00  0.00     0.132 A 
ATOM     14  C   UNL A   1      38.738  34.593  37.968  1.00  0.00     0.044 C 
ATOM     15  C   UNL A   1      38.731  33.544  36.895  1.00  0.00    -0.044 A 
ATOM     16  C   UNL A   1      37.582  33.359  36.115  1.00  0.00     0.050 A 
ATOM     17  C   UNL A   1      39.863  32.801  36.595  1.00  0.00     0.051 A 
ATOM     18  C   UNL A   1      39.808  31.850  35.576  1.00  0.00     0.142 A 
ATOM     19  C   UNL A   1      38.661  31.619  34.806  1.00  0.00     0.063 A 
ATOM     20  O   UNL A   1      41.010  31.155  35.357  1.00  0.00    -0.422 OA
ATOM     21  C   UNL A   1      38.715  30.474  33.856  1.00  0.00    -0.023 A 
ATOM     22  C   UNL A   1      41.121  30.183  34.384  1.00  0.00     0.339 A 
ATOM     23  C   UNL A   1      39.876  29.813  33.671  1.00  0.00     0.042 A 
ATOM     24  C   UNL A   1      37.445  29.994  33.183  1.00  0.00     0.037 C 
ATOM     25  O   UNL A   1      42.192  29.630  34.155  1.00  0.00    -0.246 OA
ATOM     26  C   UNL A   1      40.025  28.615  32.762  1.00  0.00     0.043 C 
ATOM     27  C   UNL A   1      37.528  28.574  32.617  1.00  0.00     0.005 C 
ATOM     28  C   UNL A   1      38.824  28.370  31.853  1.00  0.00     0.005 C 
ENDBRANCH  12  13
ENDBRANCH  10  12
ENDBRANCH   7  10
ENDBRANCH   5   6
ENDBRANCH   4   5
ENDBRANCH   2   4
ENDBRANCH   1   2
BRANCH   1  29
ATOM     29  C   UNL A   1      33.835  35.305  29.591  1.00  0.00     0.274 C 
BRANCH  29  30
ATOM     30  C   UNL A   1      33.123  34.442  28.544  1.00  0.00     0.275 C 
BRANCH  30  31
ATOM     31  O   UNL A   1      34.052  33.757  27.677  1.00  0.00    -0.458 OA
BRANCH  31  32
ATOM     32  C   UNL A   1      34.193  32.429  27.894  1.00  0.00     0.338 C 
ATOM     33  O   UNL A   1      33.415  31.541  27.591  1.00  0.00    -0.246 OA
BRANCH  32  34
ATOM     34  C   UNL A   1      35.513  32.155  28.483  1.00  0.00     0.060 A 
ATOM     35  C   UNL A   1      35.781  30.946  29.123  1.00  0.00     0.016 A 
ATOM     36  C   UNL A   1      36.531  33.091  28.287  1.00  0.00     0.016 A 
ATOM     37  C   UNL A   1      37.080  30.680  29.573  1.00  0.00     0.010 A 
ATOM     38  C   UNL A   1      37.833  32.804  28.699  1.00  0.00     0.010 A 
ATOM     39  C   UNL A   1      38.123  31.601  29.355  1.00  0.00    -0.014 A 
BRANCH  39  40
ATOM     40  C   UNL A   1      39.510  31.300  29.807  1.00  0.00     0.031 A 
ATOM     41  C   UNL A   1      40.295  30.167  29.200  1.00  0.00     0.074 A 
ATOM     42  C   UNL A   1      40.077  32.044  30.779  1.00  0.00     0.049 A 
ATOM     43  N   UNL A   1      41.556  29.852  29.379  1.00  0.00    -0.248 NA
ATOM     44  C   UNL A   1      39.575  29.258  28.293  1.00  0.00     0.031 C 
ATOM     45  C   UNL A   1      39.413  33.118  31.517  1.00  0.00     0.029 A 
ATOM     46  N   UNL A   1      41.351  32.025  31.294  1.00  0.00    -0.354 N 
ATOM     47  C   UNL A   1      41.777  28.719  28.606  1.00  0.00     0.074 A 
ATOM     48  C   UNL A   1      40.509  28.359  28.011  1.00  0.00     0.031 C 
ATOM     49  C   UNL A   1      40.303  33.702  32.337  1.00  0.00     0.029 A 
ATOM     50  C   UNL A   1      41.594  33.033  32.196  1.00  0.00     0.049 A 
ATOM     51  H   UNL A   1      42.025  31.354  31.041  1.00  0.00     0.167 HD
ATOM     52  C   UNL A   1      42.935  28.055  28.379  1.00  0.00     0.031 A 
ATOM     53  C   UNL A   1      42.733  33.408  32.812  1.00  0.00     0.031 A 
ATOM     54  C   UNL A   1      44.203  28.407  28.955  1.00  0.00     0.049 A 
ATOM     55  C   UNL A   1      44.015  32.676  32.525  1.00  0.00     0.074 A 
ATOM     56  C   UNL A   1      45.439  27.825  28.734  1.00  0.00     0.029 A 
ATOM     57  N   UNL A   1      44.400  29.433  29.863  1.00  0.00    -0.354 N 
ATOM     58  N   UNL A   1      44.226  31.671  31.712  1.00  0.00    -0.248 NA
ATOM     59  C   UNL A   1      45.221  33.146  33.226  1.00  0.00     0.031 C 
ATOM     60  C   UNL A   1      46.379  28.475  29.538  1.00  0.00     0.029 A 
ATOM     61  C   UNL A   1      45.736  29.493  30.221  1.00  0.00     0.049 A 
ATOM     62  H   UNL A   1      43.695  30.030  30.204  1.00  0.00     0.167 HD
ATOM     63  C   UNL A   1      45.588  31.405  31.783  1.00  0.00     0.074 A 
ATOM     64  C   UNL A   1      46.157  32.363  32.707  1.00  0.00     0.031 C 
ATOM     65  C   UNL A   1      46.299  30.452  31.135  1.00  0.00     0.031 A 
BRANCH  52  66
ATOM     66  C   UNL A   1      42.895  26.890  27.430  1.00  0.00    -0.014 A 
ATOM     67  C   UNL A   1      42.957  27.101  26.045  1.00  0.00     0.009 A 
ATOM     68  C   UNL A   1      42.717  25.582  27.912  1.00  0.00     0.009 A 
ATOM     69  C   UNL A   1      42.842  26.026  25.161  1.00  0.00     0.001 A 
ATOM     70  C   UNL A   1      42.629  24.507  27.027  1.00  0.00     0.001 A 
ATOM     71  C   UNL A   1      42.684  24.730  25.652  1.00  0.00     0.000 A 
ENDBRANCH  52  66
BRANCH  53  72
ATOM     72  C   UNL A   1      42.730  34.601  33.698  1.00  0.00    -0.014 A 
ATOM     73  C   UNL A   1      42.470  34.481  35.071  1.00  0.00     0.009 A 
ATOM     74  C   UNL A   1      42.971  35.875  33.159  1.00  0.00     0.009 A 
ATOM     75  C   UNL A   1      42.441  35.616  35.886  1.00  0.00     0.001 A 
ATOM     76  C   UNL A   1      42.965  37.004  33.981  1.00  0.00     0.001 A 
ATOM     77  C   UNL A   1      42.694  36.875  35.341  1.00  0.00     0.000 A 
ENDBRANCH  53  72
BRANCH  65  78
ATOM     78  C   UNL A   1      47.781  30.390  31.375  1.00  0.00    -0.014 A 
ATOM     79  C   UNL A   1      48.651  31.106  30.538  1.00  0.00     0.009 A 
ATOM     80  C   UNL A   1      48.322  29.549  32.359  1.00  0.00     0.009 A 
ATOM     81  C   UNL A   1      50.034  30.971  30.671  1.00  0.00     0.001 A 
ATOM     82  C   UNL A   1      49.705  29.435  32.507  1.00  0.00     0.001 A 
ATOM     83  C   UNL A   1      50.560  30.138  31.658  1.00  0.00     0.000 A 
ENDBRANCH  65  78
ENDBRANCH  39  40
ENDBRANCH  32  34
ENDBRANCH  31  32
ENDBRANCH  30  31
ENDBRANCH  29  30
ENDBRANCH   1  29
TORSDOF 16
ENDMDL
MODEL 3
REMARK VINA RESULT:     -10.8      3.100      8.396
REMARK SMILES Cc1cc(O[C@@H](C)C(=O)NCCC(=O)OCCOC(=O)c2ccc(-c3c4nc(c(-c5ccccc5)c5ccc([nH]5)c(-c5ccccc5)c5nc(c(-c6ccccc6)c6ccc3[nH]6)C=C5)C=C4)cc2)c2c3c(c(=O)oc2c1)CCCC3
REMARK SMILES IDX 15 1 13 2 14 3 12 4 11 5 10 6 8 7 9 8 6 10 7 11 5 12 4 13
REMARK SMILES IDX 1 14 2 15 3 16 76 17 75 18 69 19 74 20 70 21 72 22 71 23
REMARK SMILES IDX 80 24 73 25 77 26 79 27 78 28 16 29 17 30 18 31 19 32 20 33
REMARK SMILES IDX 21 34 22 35 68 36 23 37 67 38 24 39 25 40 26 41 61 42 27 43
REMARK SMILES IDX 66 44 60 45 62 46 28 47 65 48 59 49 58 50 29 52 51 53 36 54
REMARK SMILES IDX 50 55 37 56 40 57 49 58 63 59 38 60 39 61 48 63 64 64 41 65
REMARK SMILES IDX 30 66 31 67 35 68 32 69 34 70 33 71 52 72 53 73 57 74 54 75
REMARK SMILES IDX 56 76 55 77 42 78 43 79 47 80 44 81 46 82 45 83
REMARK H PARENT 10 9 62 51 40 62
REMARK Flexibility Score: inf
ROOT
ATOM      1  O   UNL A   1      39.979  21.474  27.027  1.00  0.00    -0.462 OA
ENDROOT
BRANCH   1   2
ATOM      2  C   UNL A   1      39.069  21.949  26.140  1.00  0.00     0.307 C 
ATOM      3  O   UNL A   1      38.522  21.278  25.272  1.00  0.00    -0.252 OA
BRANCH   2   4
ATOM      4  C   UNL A   1      38.802  23.422  26.317  1.00  0.00     0.144 C 
BRANCH   4   5
ATOM      5  C   UNL A   1      37.340  23.822  26.140  1.00  0.00     0.127 C 
BRANCH   5   6
ATOM      6  N   UNL A   1      36.443  22.745  26.507  1.00  0.00    -0.352 N 
ATOM      7  C   UNL A   1      35.184  22.435  26.109  1.00  0.00     0.260 C 
ATOM      8  O   UNL A   1      34.668  21.453  26.660  1.00  0.00    -0.271 OA
ATOM      9  H   UNL A   1      36.817  22.121  27.171  1.00  0.00     0.163 HD
BRANCH   7  10
ATOM     10  C   UNL A   1      34.419  23.176  24.978  1.00  0.00     0.258 C 
ATOM     11  C   UNL A   1      35.146  23.082  23.641  1.00  0.00     0.064 C 
BRANCH  10  12
ATOM     12  O   UNL A   1      33.682  24.352  25.277  1.00  0.00    -0.480 OA
BRANCH  12  13
ATOM     13  C   UNL A   1      32.369  24.496  25.589  1.00  0.00     0.132 A 
ATOM     14  C   UNL A   1      29.575  22.684  27.443  1.00  0.00     0.044 C 
ATOM     15  C   UNL A   1      30.283  23.715  26.613  1.00  0.00    -0.044 A 
ATOM     16  C   UNL A   1      31.669  23.627  26.435  1.00  0.00     0.050 A 
ATOM     17  C   UNL A   1      29.590  24.714  25.946  1.00  0.00     0.051 A 
ATOM     18  C   UNL A   1      30.295  25.638  25.174  1.00  0.00     0.142 A 
ATOM     19  C   UNL A   1      31.685  25.595  25.009  1.00  0.00     0.063 A 
ATOM     20  O   UNL A   1      29.495  26.606  24.543  1.00  0.00    -0.422 OA
ATOM     21  C   UNL A   1      32.306  26.732  24.275  1.00  0.00    -0.023 A 
ATOM     22  C   UNL A   1      30.039  27.590  23.742  1.00  0.00     0.339 A 
ATOM     23  C   UNL A   1      31.519  27.657  23.688  1.00  0.00     0.042 A 
ATOM     24  C   UNL A   1      33.811  26.900  24.280  1.00  0.00     0.037 C 
ATOM     25  O   UNL A   1      29.328  28.389  23.142  1.00  0.00    -0.246 OA
ATOM     26  C   UNL A   1      32.049  28.868  22.955  1.00  0.00     0.043 C 
ATOM     27  C   UNL A   1      34.292  28.306  23.910  1.00  0.00     0.005 C 
ATOM     28  C   UNL A   1      33.551  28.827  22.692  1.00  0.00     0.005 C 
ENDBRANCH  12  13
ENDBRANCH  10  12
ENDBRANCH   7  10
ENDBRANCH   5   6
ENDBRANCH   4   5
ENDBRANCH   2   4
ENDBRANCH   1   2
BRANCH   1  29
ATOM     29  C   UNL A   1      40.628  20.237  26.676  1.00  0.00     0.274 C 
BRANCH  29  30
ATOM     30  C   UNL A   1      41.938  20.497  25.922  1.00  0.00     0.275 C 
BRANCH  30  31
ATOM     31  O   UNL A   1      42.707  21.564  26.514  1.00  0.00    -0.458 OA
BRANCH  31  32
ATOM     32  C   UNL A   1      42.820  22.691  25.775  1.00  0.00     0.338 C 
ATOM     33  O   UNL A   1      43.073  22.777  24.586  1.00  0.00    -0.246 OA
BRANCH  32  34
ATOM     34  C   UNL A   1      42.486  23.866  26.596  1.00  0.00     0.060 A 
ATOM     35  C   UNL A   1      42.100  23.729  27.928  1.00  0.00     0.016 A 
ATOM     36  C   UNL A   1      42.675  25.133  26.042  1.00  0.00     0.016 A 
ATOM     37  C   UNL A   1      41.897  24.876  28.705  1.00  0.00     0.010 A 
ATOM     38  C   UNL A   1      42.513  26.273  26.831  1.00  0.00     0.010 A 
ATOM     39  C   UNL A   1      42.113  26.160  28.169  1.00  0.00    -0.014 A 
BRANCH  39  40
ATOM     40  C   UNL A   1      41.928  27.376  29.009  1.00  0.00     0.031 A 
ATOM     41  C   UNL A   1      40.679  28.212  28.901  1.00  0.00     0.074 A 
ATOM     42  C   UNL A   1      42.892  27.746  29.878  1.00  0.00     0.049 A 
ATOM     43  N   UNL A   1      40.298  29.219  29.649  1.00  0.00    -0.248 NA
ATOM     44  C   UNL A   1      39.748  27.893  27.807  1.00  0.00     0.031 C 
ATOM     45  C   UNL A   1      44.188  27.086  30.034  1.00  0.00     0.029 A 
ATOM     46  N   UNL A   1      42.918  28.754  30.811  1.00  0.00    -0.354 N 
ATOM     47  C   UNL A   1      39.087  29.647  29.119  1.00  0.00     0.074 A 
ATOM     48  C   UNL A   1      38.828  28.838  27.949  1.00  0.00     0.031 C 
ATOM     49  C   UNL A   1      44.852  27.660  31.051  1.00  0.00     0.029 A 
ATOM     50  C   UNL A   1      44.038  28.737  31.607  1.00  0.00     0.049 A 
ATOM     51  H   UNL A   1      42.202  29.424  30.902  1.00  0.00     0.167 HD
ATOM     52  C   UNL A   1      38.244  30.600  29.581  1.00  0.00     0.031 A 
ATOM     53  C   UNL A   1      44.361  29.475  32.688  1.00  0.00     0.031 A 
ATOM     54  C   UNL A   1      38.483  31.404  30.748  1.00  0.00     0.049 A 
ATOM     55  C   UNL A   1      43.399  30.510  33.204  1.00  0.00     0.074 A 
ATOM     56  C   UNL A   1      37.655  32.354  31.322  1.00  0.00     0.029 A 
ATOM     57  N   UNL A   1      39.631  31.353  31.520  1.00  0.00    -0.354 N 
ATOM     58  N   UNL A   1      42.212  30.829  32.752  1.00  0.00    -0.248 NA
ATOM     59  C   UNL A   1      43.814  31.270  34.394  1.00  0.00     0.031 C 
ATOM     60  C   UNL A   1      38.319  32.905  32.421  1.00  0.00     0.029 A 
ATOM     61  C   UNL A   1      39.538  32.263  32.560  1.00  0.00     0.049 A 
ATOM     62  H   UNL A   1      40.398  30.759  31.355  1.00  0.00     0.167 HD
ATOM     63  C   UNL A   1      41.728  31.806  33.613  1.00  0.00     0.074 A 
ATOM     64  C   UNL A   1      42.743  32.018  34.623  1.00  0.00     0.031 C 
ATOM     65  C   UNL A   1      40.546  32.465  33.566  1.00  0.00     0.031 A 
BRANCH  52  66
ATOM     66  C   UNL A   1      36.952  30.807  28.840  1.00  0.00    -0.014 A 
ATOM     67  C   UNL A   1      36.604  32.080  28.365  1.00  0.00     0.009 A 
ATOM     68  C   UNL A   1      36.043  29.748  28.680  1.00  0.00     0.009 A 
ATOM     69  C   UNL A   1      35.370  32.288  27.745  1.00  0.00     0.001 A 
ATOM     70  C   UNL A   1      34.823  29.953  28.036  1.00  0.00     0.001 A 
ATOM     71  C   UNL A   1      34.483  31.225  27.576  1.00  0.00     0.000 A 
ENDBRANCH  52  66
BRANCH  53  72
ATOM     72  C   UNL A   1      45.625  29.193  33.418  1.00  0.00    -0.014 A 
ATOM     73  C   UNL A   1      45.642  28.334  34.528  1.00  0.00     0.009 A 
ATOM     74  C   UNL A   1      46.821  29.805  33.012  1.00  0.00     0.009 A 
ATOM     75  C   UNL A   1      46.831  28.102  35.222  1.00  0.00     0.001 A 
ATOM     76  C   UNL A   1      48.013  29.551  33.695  1.00  0.00     0.001 A 
ATOM     77  C   UNL A   1      48.016  28.706  34.803  1.00  0.00     0.000 A 
ENDBRANCH  53  72
BRANCH  65  78
ATOM     78  C   UNL A   1      40.255  33.471  34.643  1.00  0.00    -0.014 A 
ATOM     79  C   UNL A   1      39.552  33.077  35.793  1.00  0.00     0.009 A 
ATOM     80  C   UNL A   1      40.584  34.825  34.478  1.00  0.00     0.009 A 
ATOM     81  C   UNL A   1      39.172  34.018  36.750  1.00  0.00     0.001 A 
ATOM     82  C   UNL A   1      40.224  35.762  35.449  1.00  0.00     0.001 A 
ATOM     83  C   UNL A   1      39.511  35.359  36.579  1.00  0.00     0.000 A 
ENDBRANCH  65  78
ENDBRANCH  39  40
ENDBRANCH  32  34
ENDBRANCH  31  32
ENDBRANCH  30  31
ENDBRANCH  29  30
ENDBRANCH   1  29
TORSDOF 16
ENDMDL
