MODEL 1
REMARK VINA RESULT:     -10.4      0.000      0.000
REMARK SMILES CC(C)(C[NH2+]Cc1ccc2c(c1)OCO2)C(=O)OCCOC(=O)c1ccc(-c2c3nc(c(-c4ccccc4)c4ccc([nH]4)c(-c4ccccc4)c4nc(c(-c5ccccc5)c5ccc2[nH]5)C=C4)C=C3)cc1
REMARK SMILES IDX 19 1 18 2 16 3 17 4 2 5 1 6 3 7 4 8 5 9 6 12 7 13 8 14 12 15
REMARK SMILES IDX 9 16 11 17 10 18 13 19 15 20 14 21 20 22 21 23 22 24 23 25
REMARK SMILES IDX 24 26 25 27 71 28 26 29 70 30 27 31 28 32 29 33 64 34 30 35
REMARK SMILES IDX 69 36 63 37 65 38 31 39 68 40 62 41 61 42 32 44 54 45 39 46
REMARK SMILES IDX 53 47 40 48 43 49 52 50 66 51 41 52 42 53 51 55 67 56 44 57
REMARK SMILES IDX 33 58 34 59 38 60 35 61 37 62 36 63 55 64 56 65 60 66 57 67
REMARK SMILES IDX 59 68 58 69 45 70 46 71 50 72 47 73 49 74 48 75
REMARK H PARENT 5 10 5 11 65 43 43 54
REMARK Flexibility Score: inf
ROOT
ATOM      1  C   UNL A   1      31.952  28.150  25.844  1.00  0.00     0.274 C 
ENDROOT
BRANCH   1   2
ATOM      2  O   UNL A   1      32.778  27.820  24.708  1.00  0.00    -0.461 OA
BRANCH   2   3
ATOM      3  C   UNL A   1      32.835  26.503  24.369  1.00  0.00     0.317 C 
ATOM      4  O   UNL A   1      33.144  25.605  25.147  1.00  0.00    -0.251 OA
BRANCH   3   5
ATOM      5  C   UNL A   1      32.595  26.258  22.880  1.00  0.00     0.111 C 
ATOM      6  C   UNL A   1      33.019  24.829  22.489  1.00  0.00     0.029 C 
ATOM      7  C   UNL A   1      33.532  27.245  22.156  1.00  0.00     0.029 C 
BRANCH   5   8
ATOM      8  C   UNL A   1      31.146  26.538  22.412  1.00  0.00     0.279 C 
BRANCH   8   9
ATOM      9  N   UNL A   1      30.775  27.946  22.213  1.00  0.00    -0.342 N 
ATOM     10  H   UNL A   1      30.612  28.104  21.218  1.00  0.00     0.346 HD
ATOM     11  H   UNL A   1      31.541  28.521  22.564  1.00  0.00     0.346 HD
BRANCH   9  12
ATOM     12  C   UNL A   1      29.558  28.319  22.956  1.00  0.00     0.297 C 
BRANCH  12  13
ATOM     13  C   UNL A   1      29.066  29.723  22.652  1.00  0.00     0.010 A 
ATOM     14  C   UNL A   1      29.137  30.742  23.633  1.00  0.00     0.013 A 
ATOM     15  C   UNL A   1      28.548  30.038  21.383  1.00  0.00     0.060 A 
ATOM     16  C   UNL A   1      28.775  32.061  23.348  1.00  0.00     0.051 A 
ATOM     17  C   UNL A   1      28.152  31.341  21.144  1.00  0.00     0.166 A 
ATOM     18  C   UNL A   1      28.280  32.326  22.094  1.00  0.00     0.165 A 
ATOM     19  O   UNL A   1      27.609  31.810  19.988  1.00  0.00    -0.454 OA
ATOM     20  O   UNL A   1      27.857  33.539  21.650  1.00  0.00    -0.454 OA
ATOM     21  C   UNL A   1      27.369  33.189  20.340  1.00  0.00     0.468 C 
ENDBRANCH  12  13
ENDBRANCH   9  12
ENDBRANCH   8   9
ENDBRANCH   5   8
ENDBRANCH   3   5
ENDBRANCH   2   3
ENDBRANCH   1   2
BRANCH   1  22
ATOM     22  C   UNL A   1      31.630  29.642  25.851  1.00  0.00     0.275 C 
BRANCH  22  23
ATOM     23  O   UNL A   1      32.862  30.381  25.863  1.00  0.00    -0.458 OA
BRANCH  23  24
ATOM     24  C   UNL A   1      33.009  31.273  26.868  1.00  0.00     0.338 C 
ATOM     25  O   UNL A   1      32.244  32.172  27.173  1.00  0.00    -0.246 OA
BRANCH  24  26
ATOM     26  C   UNL A   1      34.297  31.022  27.553  1.00  0.00     0.060 A 
ATOM     27  C   UNL A   1      34.665  29.736  27.949  1.00  0.00     0.016 A 
ATOM     28  C   UNL A   1      35.132  32.097  27.849  1.00  0.00     0.016 A 
ATOM     29  C   UNL A   1      35.830  29.521  28.684  1.00  0.00     0.010 A 
ATOM     30  C   UNL A   1      36.345  31.871  28.508  1.00  0.00     0.010 A 
ATOM     31  C   UNL A   1      36.699  30.584  28.952  1.00  0.00    -0.014 A 
BRANCH  31  32
ATOM     32  C   UNL A   1      37.965  30.379  29.708  1.00  0.00     0.031 A 
ATOM     33  C   UNL A   1      39.075  29.569  29.095  1.00  0.00     0.074 A 
ATOM     34  C   UNL A   1      38.116  30.875  30.952  1.00  0.00     0.049 A 
ATOM     35  N   UNL A   1      40.131  29.046  29.665  1.00  0.00    -0.248 NA
ATOM     36  C   UNL A   1      38.972  29.297  27.653  1.00  0.00     0.031 C 
ATOM     37  C   UNL A   1      37.159  31.729  31.657  1.00  0.00     0.029 A 
ATOM     38  N   UNL A   1      39.142  30.716  31.853  1.00  0.00    -0.354 N 
ATOM     39  C   UNL A   1      40.780  28.328  28.668  1.00  0.00     0.074 A 
ATOM     40  C   UNL A   1      40.004  28.488  27.457  1.00  0.00     0.031 C 
ATOM     41  C   UNL A   1      37.648  32.033  32.869  1.00  0.00     0.029 A 
ATOM     42  C   UNL A   1      38.907  31.324  33.063  1.00  0.00     0.049 A 
ATOM     43  H   UNL A   1      39.965  30.215  31.652  1.00  0.00     0.167 HD
ATOM     44  C   UNL A   1      41.914  27.592  28.757  1.00  0.00     0.031 A 
ATOM     45  C   UNL A   1      39.594  31.274  34.220  1.00  0.00     0.031 A 
ATOM     46  C   UNL A   1      42.707  27.469  29.952  1.00  0.00     0.049 A 
ATOM     47  C   UNL A   1      40.823  30.417  34.311  1.00  0.00     0.074 A 
ATOM     48  C   UNL A   1      43.879  26.757  30.139  1.00  0.00     0.029 A 
ATOM     49  N   UNL A   1      42.417  28.087  31.157  1.00  0.00    -0.354 N 
ATOM     50  N   UNL A   1      41.393  29.689  33.381  1.00  0.00    -0.248 NA
ATOM     51  C   UNL A   1      41.495  30.360  35.617  1.00  0.00     0.031 C 
ATOM     52  C   UNL A   1      44.280  26.916  31.470  1.00  0.00     0.029 A 
ATOM     53  C   UNL A   1      43.382  27.763  32.097  1.00  0.00     0.049 A 
ATOM     54  H   UNL A   1      41.640  28.669  31.322  1.00  0.00     0.167 HD
ATOM     55  C   UNL A   1      42.493  29.098  33.986  1.00  0.00     0.074 A 
ATOM     56  C   UNL A   1      42.523  29.566  35.356  1.00  0.00     0.031 C 
ATOM     57  C   UNL A   1      43.396  28.239  33.455  1.00  0.00     0.031 A 
BRANCH  44  58
ATOM     58  C   UNL A   1      42.340  26.824  27.539  1.00  0.00    -0.014 A 
ATOM     59  C   UNL A   1      42.060  25.457  27.395  1.00  0.00     0.009 A 
ATOM     60  C   UNL A   1      43.008  27.495  26.501  1.00  0.00     0.009 A 
ATOM     61  C   UNL A   1      42.468  24.771  26.248  1.00  0.00     0.001 A 
ATOM     62  C   UNL A   1      43.390  26.814  25.346  1.00  0.00     0.001 A 
ATOM     63  C   UNL A   1      43.128  25.450  25.223  1.00  0.00     0.000 A 
ENDBRANCH  44  58
BRANCH  45  64
ATOM     64  C   UNL A   1      39.096  32.013  35.410  1.00  0.00    -0.014 A 
ATOM     65  C   UNL A   1      39.462  33.350  35.623  1.00  0.00     0.009 A 
ATOM     66  C   UNL A   1      38.248  31.384  36.337  1.00  0.00     0.009 A 
ATOM     67  C   UNL A   1      39.000  34.037  36.748  1.00  0.00     0.001 A 
ATOM     68  C   UNL A   1      37.765  32.083  37.444  1.00  0.00     0.001 A 
ATOM     69  C   UNL A   1      38.147  33.407  37.653  1.00  0.00     0.000 A 
ENDBRANCH  45  64
BRANCH  57  70
ATOM     70  C   UNL A   1      44.511  27.781  34.348  1.00  0.00    -0.014 A 
ATOM     71  C   UNL A   1      45.700  28.517  34.463  1.00  0.00     0.009 A 
ATOM     72  C   UNL A   1      44.353  26.615  35.113  1.00  0.00     0.009 A 
ATOM     73  C   UNL A   1      46.722  28.077  35.305  1.00  0.00     0.001 A 
ATOM     74  C   UNL A   1      45.368  26.190  35.972  1.00  0.00     0.001 A 
ATOM     75  C   UNL A   1      46.553  26.917  36.061  1.00  0.00     0.000 A 
ENDBRANCH  57  70
ENDBRANCH  31  32
ENDBRANCH  24  26
ENDBRANCH  23  24
ENDBRANCH  22  23
ENDBRANCH   1  22
TORSDOF 15
ENDMDL
MODEL 2
REMARK VINA RESULT:     -10.3      6.618     10.664
REMARK SMILES CC(C)(C[NH2+]Cc1ccc2c(c1)OCO2)C(=O)OCCOC(=O)c1ccc(-c2c3nc(c(-c4ccccc4)c4ccc([nH]4)c(-c4ccccc4)c4nc(c(-c5ccccc5)c5ccc2[nH]5)C=C4)C=C3)cc1
REMARK SMILES IDX 19 1 18 2 16 3 17 4 2 5 1 6 3 7 4 8 5 9 6 12 7 13 8 14 12 15
REMARK SMILES IDX 9 16 11 17 10 18 13 19 15 20 14 21 20 22 21 23 22 24 23 25
REMARK SMILES IDX 24 26 25 27 71 28 26 29 70 30 27 31 28 32 29 33 64 34 30 35
REMARK SMILES IDX 69 36 63 37 65 38 31 39 68 40 62 41 61 42 32 44 54 45 39 46
REMARK SMILES IDX 53 47 40 48 43 49 52 50 66 51 41 52 42 53 51 55 67 56 44 57
REMARK SMILES IDX 33 58 34 59 38 60 35 61 37 62 36 63 55 64 56 65 60 66 57 67
REMARK SMILES IDX 59 68 58 69 45 70 46 71 50 72 47 73 49 74 48 75
REMARK H PARENT 5 10 5 11 65 43 43 54
REMARK Flexibility Score: inf
ROOT
ATOM      1  C   UNL A   1      42.761  18.704  26.583  1.00  0.00     0.274 C 
ENDROOT
BRANCH   1   2
ATOM      2  O   UNL A   1      41.690  19.624  26.283  1.00  0.00    -0.461 OA
BRANCH   2   3
ATOM      3  C   UNL A   1      41.190  20.326  27.336  1.00  0.00     0.317 C 
ATOM      4  O   UNL A   1      40.730  19.810  28.351  1.00  0.00    -0.251 OA
BRANCH   3   5
ATOM      5  C   UNL A   1      41.139  21.832  27.080  1.00  0.00     0.111 C 
ATOM      6  C   UNL A   1      41.911  22.192  25.796  1.00  0.00     0.029 C 
ATOM      7  C   UNL A   1      41.882  22.466  28.273  1.00  0.00     0.029 C 
BRANCH   5   8
ATOM      8  C   UNL A   1      39.709  22.424  27.033  1.00  0.00     0.279 C 
BRANCH   8   9
ATOM      9  N   UNL A   1      39.098  22.574  25.705  1.00  0.00    -0.342 N 
ATOM     10  H   UNL A   1      39.840  22.692  25.015  1.00  0.00     0.346 HD
ATOM     11  H   UNL A   1      38.483  23.388  25.738  1.00  0.00     0.346 HD
BRANCH   9  12
ATOM     12  C   UNL A   1      38.280  21.409  25.325  1.00  0.00     0.297 C 
BRANCH  12  13
ATOM     13  C   UNL A   1      36.904  21.777  24.797  1.00  0.00     0.010 A 
ATOM     14  C   UNL A   1      36.742  22.856  23.894  1.00  0.00     0.013 A 
ATOM     15  C   UNL A   1      35.772  21.039  25.183  1.00  0.00     0.060 A 
ATOM     16  C   UNL A   1      35.501  23.155  23.326  1.00  0.00     0.051 A 
ATOM     17  C   UNL A   1      34.549  21.387  24.642  1.00  0.00     0.166 A 
ATOM     18  C   UNL A   1      34.422  22.404  23.726  1.00  0.00     0.165 A 
ATOM     19  O   UNL A   1      33.355  20.799  24.925  1.00  0.00    -0.454 OA
ATOM     20  O   UNL A   1      33.141  22.568  23.301  1.00  0.00    -0.454 OA
ATOM     21  C   UNL A   1      32.461  21.594  24.116  1.00  0.00     0.468 C 
ENDBRANCH  12  13
ENDBRANCH   9  12
ENDBRANCH   8   9
ENDBRANCH   5   8
ENDBRANCH   3   5
ENDBRANCH   2   3
ENDBRANCH   1   2
BRANCH   1  22
ATOM     22  C   UNL A   1      43.470  18.280  25.300  1.00  0.00     0.275 C 
BRANCH  22  23
ATOM     23  O   UNL A   1      44.838  18.713  25.363  1.00  0.00    -0.458 OA
BRANCH  23  24
ATOM     24  C   UNL A   1      45.286  19.422  24.303  1.00  0.00     0.338 C 
ATOM     25  O   UNL A   1      45.674  18.983  23.234  1.00  0.00    -0.246 OA
BRANCH  24  26
ATOM     26  C   UNL A   1      45.277  20.862  24.644  1.00  0.00     0.060 A 
ATOM     27  C   UNL A   1      44.931  21.825  23.696  1.00  0.00     0.016 A 
ATOM     28  C   UNL A   1      45.667  21.262  25.920  1.00  0.00     0.016 A 
ATOM     29  C   UNL A   1      45.024  23.184  23.993  1.00  0.00     0.010 A 
ATOM     30  C   UNL A   1      45.674  22.622  26.247  1.00  0.00     0.010 A 
ATOM     31  C   UNL A   1      45.373  23.601  25.281  1.00  0.00    -0.014 A 
BRANCH  31  32
ATOM     32  C   UNL A   1      45.450  25.044  25.636  1.00  0.00     0.031 A 
ATOM     33  C   UNL A   1      46.774  25.757  25.573  1.00  0.00     0.074 A 
ATOM     34  C   UNL A   1      44.357  25.715  26.052  1.00  0.00     0.049 A 
ATOM     35  N   UNL A   1      47.118  26.912  26.085  1.00  0.00    -0.248 NA
ATOM     36  C   UNL A   1      47.858  25.068  24.856  1.00  0.00     0.031 C 
ATOM     37  C   UNL A   1      42.995  25.182  26.108  1.00  0.00     0.029 A 
ATOM     38  N   UNL A   1      44.228  27.000  26.522  1.00  0.00    -0.354 N 
ATOM     39  C   UNL A   1      48.473  27.056  25.809  1.00  0.00     0.074 A 
ATOM     40  C   UNL A   1      48.886  25.875  25.081  1.00  0.00     0.031 C 
ATOM     41  C   UNL A   1      42.167  26.134  26.566  1.00  0.00     0.029 A 
ATOM     42  C   UNL A   1      42.950  27.311  26.921  1.00  0.00     0.049 A 
ATOM     43  H   UNL A   1      44.978  27.636  26.568  1.00  0.00     0.167 HD
ATOM     44  C   UNL A   1      49.300  28.075  26.145  1.00  0.00     0.031 A 
ATOM     45  C   UNL A   1      42.468  28.397  27.556  1.00  0.00     0.031 A 
ATOM     46  C   UNL A   1      48.880  29.267  26.832  1.00  0.00     0.049 A 
ATOM     47  C   UNL A   1      43.409  29.495  27.957  1.00  0.00     0.074 A 
ATOM     48  C   UNL A   1      49.640  30.362  27.205  1.00  0.00     0.029 A 
ATOM     49  N   UNL A   1      47.580  29.527  27.234  1.00  0.00    -0.354 N 
ATOM     50  N   UNL A   1      44.700  29.593  27.751  1.00  0.00    -0.248 NA
ATOM     51  C   UNL A   1      42.830  30.625  28.698  1.00  0.00     0.031 C 
ATOM     52  C   UNL A   1      48.806  31.270  27.866  1.00  0.00     0.029 A 
ATOM     53  C   UNL A   1      47.518  30.759  27.862  1.00  0.00     0.049 A 
ATOM     54  H   UNL A   1      46.813  28.924  27.095  1.00  0.00     0.167 HD
ATOM     55  C   UNL A   1      45.084  30.797  28.325  1.00  0.00     0.074 A 
ATOM     56  C   UNL A   1      43.888  31.404  28.871  1.00  0.00     0.031 C 
ATOM     57  C   UNL A   1      46.320  31.349  28.398  1.00  0.00     0.031 A 
BRANCH  44  58
ATOM     58  C   UNL A   1      50.757  27.923  25.812  1.00  0.00    -0.014 A 
ATOM     59  C   UNL A   1      51.284  28.362  24.588  1.00  0.00     0.009 A 
ATOM     60  C   UNL A   1      51.624  27.357  26.762  1.00  0.00     0.009 A 
ATOM     61  C   UNL A   1      52.644  28.209  24.310  1.00  0.00     0.001 A 
ATOM     62  C   UNL A   1      52.987  27.229  26.492  1.00  0.00     0.001 A 
ATOM     63  C   UNL A   1      53.495  27.648  25.263  1.00  0.00     0.000 A 
ENDBRANCH  44  58
BRANCH  45  64
ATOM     64  C   UNL A   1      41.025  28.469  27.907  1.00  0.00    -0.014 A 
ATOM     65  C   UNL A   1      40.150  29.273  27.162  1.00  0.00     0.009 A 
ATOM     66  C   UNL A   1      40.516  27.730  28.987  1.00  0.00     0.009 A 
ATOM     67  C   UNL A   1      38.797  29.346  27.502  1.00  0.00     0.001 A 
ATOM     68  C   UNL A   1      39.158  27.783  29.306  1.00  0.00     0.001 A 
ATOM     69  C   UNL A   1      38.301  28.597  28.568  1.00  0.00     0.000 A 
ENDBRANCH  45  64
BRANCH  57  70
ATOM     70  C   UNL A   1      46.430  32.690  29.059  1.00  0.00    -0.014 A 
ATOM     71  C   UNL A   1      46.264  33.877  28.329  1.00  0.00     0.009 A 
ATOM     72  C   UNL A   1      46.668  32.766  30.440  1.00  0.00     0.009 A 
ATOM     73  C   UNL A   1      46.364  35.115  28.965  1.00  0.00     0.001 A 
ATOM     74  C   UNL A   1      46.746  34.005  31.077  1.00  0.00     0.001 A 
ATOM     75  C   UNL A   1      46.600  35.178  30.338  1.00  0.00     0.000 A 
ENDBRANCH  57  70
ENDBRANCH  31  32
ENDBRANCH  24  26
ENDBRANCH  23  24
ENDBRANCH  22  23
ENDBRANCH   1  22
TORSDOF 15
ENDMDL
MODEL 3
REMARK VINA RESULT:     -10.3      4.418      8.356
REMARK SMILES CC(C)(C[NH2+]Cc1ccc2c(c1)OCO2)C(=O)OCCOC(=O)c1ccc(-c2c3nc(c(-c4ccccc4)c4ccc([nH]4)c(-c4ccccc4)c4nc(c(-c5ccccc5)c5ccc2[nH]5)C=C4)C=C3)cc1
REMARK SMILES IDX 19 1 18 2 16 3 17 4 2 5 1 6 3 7 4 8 5 9 6 12 7 13 8 14 12 15
REMARK SMILES IDX 9 16 11 17 10 18 13 19 15 20 14 21 20 22 21 23 22 24 23 25
REMARK SMILES IDX 24 26 25 27 71 28 26 29 70 30 27 31 28 32 29 33 64 34 30 35
REMARK SMILES IDX 69 36 63 37 65 38 31 39 68 40 62 41 61 42 32 44 54 45 39 46
REMARK SMILES IDX 53 47 40 48 43 49 52 50 66 51 41 52 42 53 51 55 67 56 44 57
REMARK SMILES IDX 33 58 34 59 38 60 35 61 37 62 36 63 55 64 56 65 60 66 57 67
REMARK SMILES IDX 59 68 58 69 45 70 46 71 50 72 47 73 49 74 48 75
REMARK H PARENT 5 10 5 11 65 43 43 54
REMARK Flexibility Score: inf
ROOT
ATOM      1  C   UNL A   1      34.087  33.390  29.350  1.00  0.00     0.274 C 
ENDROOT
BRANCH   1   2
ATOM      2  O   UNL A   1      34.438  31.995  29.238  1.00  0.00    -0.461 OA
BRANCH   2   3
ATOM      3  C   UNL A   1      35.341  31.679  28.271  1.00  0.00     0.317 C 
ATOM      4  O   UNL A   1      35.733  32.464  27.413  1.00  0.00    -0.251 OA
BRANCH   3   5
ATOM      5  C   UNL A   1      35.732  30.201  28.278  1.00  0.00     0.111 C 
ATOM      6  C   UNL A   1      35.973  29.710  29.719  1.00  0.00     0.029 C 
ATOM      7  C   UNL A   1      37.077  30.140  27.526  1.00  0.00     0.029 C 
BRANCH   5   8
ATOM      8  C   UNL A   1      34.730  29.271  27.552  1.00  0.00     0.279 C 
BRANCH   8   9
ATOM      9  N   UNL A   1      34.122  29.788  26.318  1.00  0.00    -0.342 N 
ATOM     10  H   UNL A   1      34.713  30.533  25.949  1.00  0.00     0.346 HD
ATOM     11  H   UNL A   1      33.190  30.130  26.552  1.00  0.00     0.346 HD
BRANCH   9  12
ATOM     12  C   UNL A   1      33.972  28.749  25.285  1.00  0.00     0.297 C 
BRANCH  12  13
ATOM     13  C   UNL A   1      33.123  27.570  25.725  1.00  0.00     0.010 A 
ATOM     14  C   UNL A   1      31.768  27.753  26.094  1.00  0.00     0.013 A 
ATOM     15  C   UNL A   1      33.665  26.272  25.753  1.00  0.00     0.060 A 
ATOM     16  C   UNL A   1      30.944  26.671  26.415  1.00  0.00     0.051 A 
ATOM     17  C   UNL A   1      32.839  25.227  26.121  1.00  0.00     0.166 A 
ATOM     18  C   UNL A   1      31.512  25.420  26.424  1.00  0.00     0.165 A 
ATOM     19  O   UNL A   1      33.205  23.920  26.227  1.00  0.00    -0.454 OA
ATOM     20  O   UNL A   1      30.873  24.262  26.736  1.00  0.00    -0.454 OA
ATOM     21  C   UNL A   1      31.968  23.327  26.676  1.00  0.00     0.468 C 
ENDBRANCH  12  13
ENDBRANCH   9  12
ENDBRANCH   8   9
ENDBRANCH   5   8
ENDBRANCH   3   5
ENDBRANCH   2   3
ENDBRANCH   1   2
BRANCH   1  22
ATOM     22  C   UNL A   1      34.398  33.905  30.753  1.00  0.00     0.275 C 
BRANCH  22  23
ATOM     23  O   UNL A   1      34.890  32.814  31.548  1.00  0.00    -0.458 OA
BRANCH  23  24
ATOM     24  C   UNL A   1      35.943  33.090  32.349  1.00  0.00     0.338 C 
ATOM     25  O   UNL A   1      35.934  33.738  33.381  1.00  0.00    -0.246 OA
BRANCH  24  26
ATOM     26  C   UNL A   1      37.168  32.507  31.756  1.00  0.00     0.060 A 
ATOM     27  C   UNL A   1      37.642  32.934  30.515  1.00  0.00     0.016 A 
ATOM     28  C   UNL A   1      37.828  31.481  32.428  1.00  0.00     0.016 A 
ATOM     29  C   UNL A   1      38.735  32.310  29.915  1.00  0.00     0.010 A 
ATOM     30  C   UNL A   1      38.978  30.915  31.868  1.00  0.00     0.010 A 
ATOM     31  C   UNL A   1      39.433  31.308  30.596  1.00  0.00    -0.014 A 
BRANCH  31  32
ATOM     32  C   UNL A   1      40.623  30.646  29.994  1.00  0.00     0.031 A 
ATOM     33  C   UNL A   1      41.913  31.409  29.861  1.00  0.00     0.074 A 
ATOM     34  C   UNL A   1      40.550  29.383  29.527  1.00  0.00     0.049 A 
ATOM     35  N   UNL A   1      42.969  31.131  29.139  1.00  0.00    -0.248 NA
ATOM     36  C   UNL A   1      42.019  32.660  30.628  1.00  0.00     0.031 C 
ATOM     37  C   UNL A   1      39.392  28.494  29.637  1.00  0.00     0.029 A 
ATOM     38  N   UNL A   1      41.479  28.631  28.849  1.00  0.00    -0.354 N 
ATOM     39  C   UNL A   1      43.835  32.204  29.313  1.00  0.00     0.074 A 
ATOM     40  C   UNL A   1      43.185  33.134  30.211  1.00  0.00     0.031 C 
ATOM     41  C   UNL A   1      39.685  27.315  29.066  1.00  0.00     0.029 A 
ATOM     42  C   UNL A   1      41.013  27.395  28.471  1.00  0.00     0.049 A 
ATOM     43  H   UNL A   1      42.391  28.947  28.653  1.00  0.00     0.167 HD
ATOM     44  C   UNL A   1      45.057  32.402  28.762  1.00  0.00     0.031 A 
ATOM     45  C   UNL A   1      41.564  26.450  27.685  1.00  0.00     0.031 A 
ATOM     46  C   UNL A   1      45.720  31.458  27.902  1.00  0.00     0.049 A 
ATOM     47  C   UNL A   1      42.900  26.708  27.049  1.00  0.00     0.074 A 
ATOM     48  C   UNL A   1      46.965  31.561  27.305  1.00  0.00     0.029 A 
ATOM     49  N   UNL A   1      45.199  30.229  27.531  1.00  0.00    -0.354 N 
ATOM     50  N   UNL A   1      43.682  27.753  27.166  1.00  0.00    -0.248 NA
ATOM     51  C   UNL A   1      43.420  25.662  26.157  1.00  0.00     0.031 C 
ATOM     52  C   UNL A   1      47.182  30.408  26.543  1.00  0.00     0.029 A 
ATOM     53  C   UNL A   1      46.092  29.569  26.703  1.00  0.00     0.049 A 
ATOM     54  H   UNL A   1      44.324  29.877  27.814  1.00  0.00     0.167 HD
ATOM     55  C   UNL A   1      44.789  27.486  26.373  1.00  0.00     0.074 A 
ATOM     56  C   UNL A   1      44.588  26.174  25.795  1.00  0.00     0.031 C 
ATOM     57  C   UNL A   1      45.875  28.263  26.139  1.00  0.00     0.031 A 
BRANCH  44  58
ATOM     58  C   UNL A   1      45.738  33.712  29.037  1.00  0.00    -0.014 A 
ATOM     59  C   UNL A   1      45.592  34.813  28.179  1.00  0.00     0.009 A 
ATOM     60  C   UNL A   1      46.516  33.853  30.198  1.00  0.00     0.009 A 
ATOM     61  C   UNL A   1      46.236  36.019  28.464  1.00  0.00     0.001 A 
ATOM     62  C   UNL A   1      47.137  35.067  30.494  1.00  0.00     0.001 A 
ATOM     63  C   UNL A   1      47.003  36.147  29.622  1.00  0.00     0.000 A 
ENDBRANCH  44  58
BRANCH  45  64
ATOM     64  C   UNL A   1      40.821  25.194  27.404  1.00  0.00    -0.014 A 
ATOM     65  C   UNL A   1      41.219  23.984  27.992  1.00  0.00     0.009 A 
ATOM     66  C   UNL A   1      39.707  25.200  26.550  1.00  0.00     0.009 A 
ATOM     67  C   UNL A   1      40.524  22.804  27.718  1.00  0.00     0.001 A 
ATOM     68  C   UNL A   1      38.997  24.024  26.300  1.00  0.00     0.001 A 
ATOM     69  C   UNL A   1      39.411  22.826  26.879  1.00  0.00     0.000 A 
ENDBRANCH  45  64
BRANCH  57  70
ATOM     70  C   UNL A   1      46.942  27.695  25.250  1.00  0.00    -0.014 A 
ATOM     71  C   UNL A   1      47.929  26.836  25.757  1.00  0.00     0.009 A 
ATOM     72  C   UNL A   1      46.937  27.997  23.880  1.00  0.00     0.009 A 
ATOM     73  C   UNL A   1      48.908  26.313  24.911  1.00  0.00     0.001 A 
ATOM     74  C   UNL A   1      47.905  27.454  23.033  1.00  0.00     0.001 A 
ATOM     75  C   UNL A   1      48.893  26.619  23.551  1.00  0.00     0.000 A 
ENDBRANCH  57  70
ENDBRANCH  31  32
ENDBRANCH  24  26
ENDBRANCH  23  24
ENDBRANCH  22  23
ENDBRANCH   1  22
TORSDOF 15
ENDMDL
