MODEL 1
REMARK VINA RESULT:     -10.0      0.000      0.000
REMARK SMILES O=C(CCn1ccnc1)N[C@H]1C=C[C@@H](C(=O)OCCOC(=O)c2ccc(-c3c4nc(c(-c5ccccc5)c5ccc([nH]5)c(-c5ccccc5)c5nc(c(-c6ccccc6)c6ccc3[nH]6)C=C5)C=C4)cc2)C1
REMARK SMILES IDX 18 1 17 2 15 3 16 4 14 5 11 6 12 7 71 8 13 9 10 10 1 11 2 12
REMARK SMILES IDX 3 14 4 15 5 16 6 17 9 18 7 19 8 20 19 21 20 22 21 23 22 24
REMARK SMILES IDX 23 25 24 26 70 27 25 28 69 29 26 30 27 31 28 32 63 33 29 34
REMARK SMILES IDX 68 35 62 36 64 37 30 38 67 39 61 40 60 41 31 43 53 44 38 45
REMARK SMILES IDX 52 46 39 47 42 48 51 49 65 50 40 51 41 52 50 54 66 55 43 56
REMARK SMILES IDX 32 57 33 58 37 59 34 60 36 61 35 62 54 63 55 64 59 65 56 66
REMARK SMILES IDX 58 67 57 68 44 69 45 70 49 71 46 72 48 73 47 74
REMARK H PARENT 10 13 64 42 42 53
REMARK Flexibility Score: inf
ROOT
ATOM      1  C   UNL A   1      34.217  34.507  28.025  1.00  0.00     0.274 C 
ENDROOT
BRANCH   1   2
ATOM      2  O   UNL A   1      33.013  34.768  28.770  1.00  0.00    -0.462 OA
BRANCH   2   3
ATOM      3  C   UNL A   1      32.905  36.009  29.320  1.00  0.00     0.312 C 
ATOM      4  O   UNL A   1      32.924  37.056  28.679  1.00  0.00    -0.252 OA
BRANCH   3   5
ATOM      5  C   UNL A   1      32.796  35.989  30.839  1.00  0.00     0.124 C 
ATOM      6  C   UNL A   1      34.187  35.615  32.826  1.00  0.00     0.106 C 
ATOM      7  C   UNL A   1      34.029  37.068  32.515  1.00  0.00    -0.006 C 
ATOM      8  C   UNL A   1      33.628  34.932  31.576  1.00  0.00     0.048 C 
ATOM      9  C   UNL A   1      33.274  37.277  31.432  1.00  0.00    -0.014 C 
BRANCH   6  10
ATOM     10  N   UNL A   1      35.597  35.355  32.986  1.00  0.00    -0.350 N 
ATOM     11  O   UNL A   1      35.368  33.537  34.360  1.00  0.00    -0.275 OA
ATOM     12  C   UNL A   1      36.082  34.353  33.784  1.00  0.00     0.222 C 
ATOM     13  H   UNL A   1      36.239  35.923  32.502  1.00  0.00     0.164 HD
BRANCH  12  14
ATOM     14  C   UNL A   1      37.583  34.352  33.968  1.00  0.00     0.122 C 
BRANCH  14  15
ATOM     15  C   UNL A   1      38.241  33.024  33.607  1.00  0.00     0.133 C 
BRANCH  15  16
ATOM     16  N   UNL A   1      38.636  32.174  34.715  1.00  0.00    -0.337 N 
ATOM     17  C   UNL A   1      38.217  30.886  34.903  1.00  0.00     0.107 A 
ATOM     18  C   UNL A   1      39.441  32.496  35.772  1.00  0.00     0.199 A 
ATOM     19  C   UNL A   1      38.872  30.456  36.033  1.00  0.00     0.130 A 
ATOM     20  N   UNL A   1      39.639  31.463  36.558  1.00  0.00    -0.245 NA
ENDBRANCH  15  16
ENDBRANCH  14  15
ENDBRANCH  12  14
ENDBRANCH   6  10
ENDBRANCH   3   5
ENDBRANCH   2   3
ENDBRANCH   1   2
BRANCH   1  21
ATOM     21  C   UNL A   1      34.789  33.127  28.337  1.00  0.00     0.275 C 
BRANCH  21  22
ATOM     22  O   UNL A   1      35.713  33.167  29.427  1.00  0.00    -0.458 OA
BRANCH  22  23
ATOM     23  C   UNL A   1      35.845  31.990  30.077  1.00  0.00     0.338 C 
ATOM     24  O   UNL A   1      35.289  31.654  31.107  1.00  0.00    -0.246 OA
BRANCH  23  25
ATOM     25  C   UNL A   1      36.930  31.194  29.507  1.00  0.00     0.060 A 
ATOM     26  C   UNL A   1      36.700  29.816  29.387  1.00  0.00     0.016 A 
ATOM     27  C   UNL A   1      38.213  31.744  29.443  1.00  0.00     0.016 A 
ATOM     28  C   UNL A   1      37.783  28.964  29.394  1.00  0.00     0.010 A 
ATOM     29  C   UNL A   1      39.291  30.892  29.470  1.00  0.00     0.010 A 
ATOM     30  C   UNL A   1      39.059  29.515  29.524  1.00  0.00    -0.014 A 
BRANCH  30  31
ATOM     31  C   UNL A   1      40.173  28.613  29.714  1.00  0.00     0.031 A 
ATOM     32  C   UNL A   1      40.653  28.494  31.107  1.00  0.00     0.074 A 
ATOM     33  C   UNL A   1      40.613  27.823  28.717  1.00  0.00     0.049 A 
ATOM     34  N   UNL A   1      41.844  28.688  31.564  1.00  0.00    -0.248 NA
ATOM     35  C   UNL A   1      39.644  28.197  32.136  1.00  0.00     0.031 C 
ATOM     36  C   UNL A   1      40.006  27.621  27.397  1.00  0.00     0.029 A 
ATOM     37  N   UNL A   1      41.629  26.919  28.738  1.00  0.00    -0.354 N 
ATOM     38  C   UNL A   1      41.775  28.390  32.921  1.00  0.00     0.074 A 
ATOM     39  C   UNL A   1      40.381  28.231  33.243  1.00  0.00     0.031 C 
ATOM     40  C   UNL A   1      40.519  26.501  26.845  1.00  0.00     0.029 A 
ATOM     41  C   UNL A   1      41.566  25.987  27.714  1.00  0.00     0.049 A 
ATOM     42  H   UNL A   1      42.342  26.927  29.416  1.00  0.00     0.167 HD
ATOM     43  C   UNL A   1      42.876  28.072  33.651  1.00  0.00     0.031 A 
ATOM     44  C   UNL A   1      42.266  24.832  27.637  1.00  0.00     0.031 A 
ATOM     45  C   UNL A   1      44.095  28.493  33.020  1.00  0.00     0.049 A 
ATOM     46  C   UNL A   1      43.402  24.919  28.582  1.00  0.00     0.074 A 
ATOM     47  C   UNL A   1      44.629  29.710  32.648  1.00  0.00     0.029 A 
ATOM     48  N   UNL A   1      44.826  27.539  32.355  1.00  0.00    -0.354 N 
ATOM     49  N   UNL A   1      44.419  25.715  28.421  1.00  0.00    -0.248 NA
ATOM     50  C   UNL A   1      43.229  24.400  29.931  1.00  0.00     0.031 C 
ATOM     51  C   UNL A   1      45.350  29.450  31.447  1.00  0.00     0.029 A 
ATOM     52  C   UNL A   1      45.233  28.088  31.166  1.00  0.00     0.049 A 
ATOM     53  H   UNL A   1      45.022  26.629  32.674  1.00  0.00     0.167 HD
ATOM     54  C   UNL A   1      44.757  26.129  29.702  1.00  0.00     0.074 A 
ATOM     55  C   UNL A   1      44.082  25.188  30.590  1.00  0.00     0.031 C 
ATOM     56  C   UNL A   1      45.314  27.357  29.920  1.00  0.00     0.031 A 
BRANCH  43  57
ATOM     57  C   UNL A   1      42.845  27.051  34.758  1.00  0.00    -0.014 A 
ATOM     58  C   UNL A   1      43.006  25.694  34.440  1.00  0.00     0.009 A 
ATOM     59  C   UNL A   1      42.401  27.349  36.063  1.00  0.00     0.009 A 
ATOM     60  C   UNL A   1      42.695  24.690  35.366  1.00  0.00     0.001 A 
ATOM     61  C   UNL A   1      42.136  26.354  37.004  1.00  0.00     0.001 A 
ATOM     62  C   UNL A   1      42.259  25.020  36.646  1.00  0.00     0.000 A 
ENDBRANCH  43  57
BRANCH  44  63
ATOM     63  C   UNL A   1      41.866  23.566  26.991  1.00  0.00    -0.014 A 
ATOM     64  C   UNL A   1      42.758  22.867  26.167  1.00  0.00     0.009 A 
ATOM     65  C   UNL A   1      40.678  22.917  27.374  1.00  0.00     0.009 A 
ATOM     66  C   UNL A   1      42.481  21.553  25.763  1.00  0.00     0.001 A 
ATOM     67  C   UNL A   1      40.397  21.611  26.966  1.00  0.00     0.001 A 
ATOM     68  C   UNL A   1      41.308  20.923  26.171  1.00  0.00     0.000 A 
ENDBRANCH  44  63
BRANCH  56  69
ATOM     69  C   UNL A   1      45.773  28.137  28.711  1.00  0.00    -0.014 A 
ATOM     70  C   UNL A   1      44.902  28.949  27.961  1.00  0.00     0.009 A 
ATOM     71  C   UNL A   1      47.142  28.176  28.409  1.00  0.00     0.009 A 
ATOM     72  C   UNL A   1      45.382  29.745  26.918  1.00  0.00     0.001 A 
ATOM     73  C   UNL A   1      47.625  28.989  27.380  1.00  0.00     0.001 A 
ATOM     74  C   UNL A   1      46.744  29.769  26.631  1.00  0.00     0.000 A 
ENDBRANCH  56  69
ENDBRANCH  30  31
ENDBRANCH  23  25
ENDBRANCH  22  23
ENDBRANCH  21  22
ENDBRANCH   1  21
TORSDOF 15
ENDMDL
MODEL 2
REMARK VINA RESULT:      -9.9      4.465      6.994
REMARK SMILES O=C(CCn1ccnc1)N[C@H]1C=C[C@@H](C(=O)OCCOC(=O)c2ccc(-c3c4nc(c(-c5ccccc5)c5ccc([nH]5)c(-c5ccccc5)c5nc(c(-c6ccccc6)c6ccc3[nH]6)C=C5)C=C4)cc2)C1
REMARK SMILES IDX 18 1 17 2 15 3 16 4 14 5 11 6 12 7 71 8 13 9 10 10 1 11 2 12
REMARK SMILES IDX 3 14 4 15 5 16 6 17 9 18 7 19 8 20 19 21 20 22 21 23 22 24
REMARK SMILES IDX 23 25 24 26 70 27 25 28 69 29 26 30 27 31 28 32 63 33 29 34
REMARK SMILES IDX 68 35 62 36 64 37 30 38 67 39 61 40 60 41 31 43 53 44 38 45
REMARK SMILES IDX 52 46 39 47 42 48 51 49 65 50 40 51 41 52 50 54 66 55 43 56
REMARK SMILES IDX 32 57 33 58 37 59 34 60 36 61 35 62 54 63 55 64 59 65 56 66
REMARK SMILES IDX 58 67 57 68 44 69 45 70 49 71 46 72 48 73 47 74
REMARK H PARENT 10 13 64 42 42 53
REMARK Flexibility Score: inf
ROOT
ATOM      1  C   UNL A   1      33.500  30.063  26.826  1.00  0.00     0.274 C 
ENDROOT
BRANCH   1   2
ATOM      2  O   UNL A   1      33.546  28.752  27.421  1.00  0.00    -0.462 OA
BRANCH   2   3
ATOM      3  C   UNL A   1      32.391  28.034  27.380  1.00  0.00     0.312 C 
ATOM      4  O   UNL A   1      31.429  28.225  28.120  1.00  0.00    -0.252 OA
BRANCH   3   5
ATOM      5  C   UNL A   1      32.406  26.922  26.339  1.00  0.00     0.124 C 
ATOM      6  C   UNL A   1      31.867  26.545  23.975  1.00  0.00     0.106 C 
ATOM      7  C   UNL A   1      33.324  26.801  24.186  1.00  0.00    -0.006 C 
ATOM      8  C   UNL A   1      31.253  26.911  25.327  1.00  0.00     0.048 C 
ATOM      9  C   UNL A   1      33.623  27.010  25.472  1.00  0.00    -0.014 C 
BRANCH   6  10
ATOM     10  N   UNL A   1      31.416  27.432  22.931  1.00  0.00    -0.350 N 
ATOM     11  O   UNL A   1      31.431  29.343  24.192  1.00  0.00    -0.275 OA
ATOM     12  C   UNL A   1      31.189  28.767  23.135  1.00  0.00     0.222 C 
ATOM     13  H   UNL A   1      31.265  27.062  22.031  1.00  0.00     0.164 HD
BRANCH  12  14
ATOM     14  C   UNL A   1      30.549  29.493  21.973  1.00  0.00     0.122 C 
BRANCH  14  15
ATOM     15  C   UNL A   1      29.065  29.779  22.176  1.00  0.00     0.133 C 
BRANCH  15  16
ATOM     16  N   UNL A   1      28.604  31.106  21.814  1.00  0.00    -0.337 N 
ATOM     17  C   UNL A   1      28.025  31.436  20.619  1.00  0.00     0.107 A 
ATOM     18  C   UNL A   1      28.695  32.254  22.550  1.00  0.00     0.199 A 
ATOM     19  C   UNL A   1      27.706  32.769  20.731  1.00  0.00     0.130 A 
ATOM     20  N   UNL A   1      28.118  33.264  21.941  1.00  0.00    -0.245 NA
ENDBRANCH  15  16
ENDBRANCH  14  15
ENDBRANCH  12  14
ENDBRANCH   6  10
ENDBRANCH   3   5
ENDBRANCH   2   3
ENDBRANCH   1   2
BRANCH   1  21
ATOM     21  C   UNL A   1      33.833  31.157  27.837  1.00  0.00     0.275 C 
BRANCH  21  22
ATOM     22  O   UNL A   1      35.209  31.541  27.770  1.00  0.00    -0.458 OA
BRANCH  22  23
ATOM     23  C   UNL A   1      35.903  31.288  28.902  1.00  0.00     0.338 C 
ATOM     24  O   UNL A   1      35.625  31.649  30.031  1.00  0.00    -0.246 OA
BRANCH  23  25
ATOM     25  C   UNL A   1      37.197  30.680  28.599  1.00  0.00     0.060 A 
ATOM     26  C   UNL A   1      37.174  29.361  28.122  1.00  0.00     0.016 A 
ATOM     27  C   UNL A   1      38.359  31.268  29.106  1.00  0.00     0.016 A 
ATOM     28  C   UNL A   1      38.278  28.564  28.333  1.00  0.00     0.010 A 
ATOM     29  C   UNL A   1      39.451  30.467  29.334  1.00  0.00     0.010 A 
ATOM     30  C   UNL A   1      39.368  29.109  29.015  1.00  0.00    -0.014 A 
BRANCH  30  31
ATOM     31  C   UNL A   1      40.445  28.221  29.394  1.00  0.00     0.031 A 
ATOM     32  C   UNL A   1      40.756  28.195  30.839  1.00  0.00     0.074 A 
ATOM     33  C   UNL A   1      40.994  27.368  28.511  1.00  0.00     0.049 A 
ATOM     34  N   UNL A   1      41.887  28.419  31.420  1.00  0.00    -0.248 NA
ATOM     35  C   UNL A   1      39.631  27.966  31.759  1.00  0.00     0.031 C 
ATOM     36  C   UNL A   1      40.545  27.080  27.144  1.00  0.00     0.029 A 
ATOM     37  N   UNL A   1      41.993  26.468  28.710  1.00  0.00    -0.354 N 
ATOM     38  C   UNL A   1      41.657  28.211  32.775  1.00  0.00     0.074 A 
ATOM     39  C   UNL A   1      40.233  28.073  32.941  1.00  0.00     0.031 C 
ATOM     40  C   UNL A   1      41.111  25.925  26.731  1.00  0.00     0.029 A 
ATOM     41  C   UNL A   1      42.045  25.471  27.749  1.00  0.00     0.049 A 
ATOM     42  H   UNL A   1      42.622  26.520  29.466  1.00  0.00     0.167 HD
ATOM     43  C   UNL A   1      42.661  27.943  33.650  1.00  0.00     0.031 A 
ATOM     44  C   UNL A   1      42.741  24.313  27.831  1.00  0.00     0.031 A 
ATOM     45  C   UNL A   1      43.949  28.322  33.141  1.00  0.00     0.049 A 
ATOM     46  C   UNL A   1      43.758  24.463  28.896  1.00  0.00     0.074 A 
ATOM     47  C   UNL A   1      44.532  29.511  32.756  1.00  0.00     0.029 A 
ATOM     48  N   UNL A   1      44.747  27.326  32.631  1.00  0.00    -0.354 N 
ATOM     49  N   UNL A   1      44.793  25.246  28.804  1.00  0.00    -0.248 NA
ATOM     50  C   UNL A   1      43.424  24.034  30.245  1.00  0.00     0.031 C 
ATOM     51  C   UNL A   1      45.388  29.174  31.668  1.00  0.00     0.029 A 
ATOM     52  C   UNL A   1      45.295  27.795  31.464  1.00  0.00     0.049 A 
ATOM     53  H   UNL A   1      44.897  26.439  33.030  1.00  0.00     0.167 HD
ATOM     54  C   UNL A   1      44.980  25.744  30.086  1.00  0.00     0.074 A 
ATOM     55  C   UNL A   1      44.199  24.864  30.948  1.00  0.00     0.031 C 
ATOM     56  C   UNL A   1      45.517  26.984  30.287  1.00  0.00     0.031 A 
BRANCH  43  57
ATOM     57  C   UNL A   1      42.493  26.996  34.810  1.00  0.00    -0.014 A 
ATOM     58  C   UNL A   1      42.596  25.615  34.586  1.00  0.00     0.009 A 
ATOM     59  C   UNL A   1      41.976  27.400  36.059  1.00  0.00     0.009 A 
ATOM     60  C   UNL A   1      42.163  24.690  35.543  1.00  0.00     0.001 A 
ATOM     61  C   UNL A   1      41.588  26.482  37.035  1.00  0.00     0.001 A 
ATOM     62  C   UNL A   1      41.657  25.123  36.766  1.00  0.00     0.000 A 
ENDBRANCH  43  57
BRANCH  44  63
ATOM     63  C   UNL A   1      42.410  23.007  27.226  1.00  0.00    -0.014 A 
ATOM     64  C   UNL A   1      43.235  22.440  26.245  1.00  0.00     0.009 A 
ATOM     65  C   UNL A   1      41.402  22.200  27.786  1.00  0.00     0.009 A 
ATOM     66  C   UNL A   1      43.073  21.103  25.857  1.00  0.00     0.001 A 
ATOM     67  C   UNL A   1      41.235  20.869  27.394  1.00  0.00     0.001 A 
ATOM     68  C   UNL A   1      42.081  20.316  26.439  1.00  0.00     0.000 A 
ENDBRANCH  44  63
BRANCH  56  69
ATOM     69  C   UNL A   1      46.121  27.684  29.093  1.00  0.00    -0.014 A 
ATOM     70  C   UNL A   1      47.489  27.595  28.778  1.00  0.00     0.009 A 
ATOM     71  C   UNL A   1      45.270  28.322  28.179  1.00  0.00     0.009 A 
ATOM     72  C   UNL A   1      47.995  28.160  27.605  1.00  0.00     0.001 A 
ATOM     73  C   UNL A   1      45.771  28.867  26.995  1.00  0.00     0.001 A 
ATOM     74  C   UNL A   1      47.135  28.791  26.710  1.00  0.00     0.000 A 
ENDBRANCH  56  69
ENDBRANCH  30  31
ENDBRANCH  23  25
ENDBRANCH  22  23
ENDBRANCH  21  22
ENDBRANCH   1  21
TORSDOF 15
ENDMDL
MODEL 3
REMARK VINA RESULT:      -9.7      5.362     10.262
REMARK SMILES O=C(CCn1ccnc1)N[C@H]1C=C[C@@H](C(=O)OCCOC(=O)c2ccc(-c3c4nc(c(-c5ccccc5)c5ccc([nH]5)c(-c5ccccc5)c5nc(c(-c6ccccc6)c6ccc3[nH]6)C=C5)C=C4)cc2)C1
REMARK SMILES IDX 18 1 17 2 15 3 16 4 14 5 11 6 12 7 71 8 13 9 10 10 1 11 2 12
REMARK SMILES IDX 3 14 4 15 5 16 6 17 9 18 7 19 8 20 19 21 20 22 21 23 22 24
REMARK SMILES IDX 23 25 24 26 70 27 25 28 69 29 26 30 27 31 28 32 63 33 29 34
REMARK SMILES IDX 68 35 62 36 64 37 30 38 67 39 61 40 60 41 31 43 53 44 38 45
REMARK SMILES IDX 52 46 39 47 42 48 51 49 65 50 40 51 41 52 50 54 66 55 43 56
REMARK SMILES IDX 32 57 33 58 37 59 34 60 36 61 35 62 54 63 55 64 59 65 56 66
REMARK SMILES IDX 58 67 57 68 44 69 45 70 49 71 46 72 48 73 47 74
REMARK H PARENT 10 13 64 42 42 53
REMARK Flexibility Score: inf
ROOT
ATOM      1  C   UNL A   1      37.410  19.881  24.831  1.00  0.00     0.274 C 
ENDROOT
BRANCH   1   2
ATOM      2  O   UNL A   1      37.154  21.201  25.349  1.00  0.00    -0.462 OA
BRANCH   2   3
ATOM      3  C   UNL A   1      36.086  21.856  24.818  1.00  0.00     0.312 C 
ATOM      4  O   UNL A   1      36.165  22.733  23.962  1.00  0.00    -0.252 OA
BRANCH   3   5
ATOM      5  C   UNL A   1      34.754  21.425  25.418  1.00  0.00     0.124 C 
ATOM      6  C   UNL A   1      32.468  22.262  25.730  1.00  0.00     0.106 C 
ATOM      7  C   UNL A   1      32.582  21.368  24.538  1.00  0.00    -0.006 C 
ATOM      8  C   UNL A   1      33.927  22.515  26.112  1.00  0.00     0.048 C 
ATOM      9  C   UNL A   1      33.827  20.912  24.362  1.00  0.00    -0.014 C 
BRANCH   6  10
ATOM     10  N   UNL A   1      31.813  23.474  25.303  1.00  0.00    -0.350 N 
ATOM     11  O   UNL A   1      31.068  24.106  27.375  1.00  0.00    -0.275 OA
ATOM     12  C   UNL A   1      31.120  24.287  26.161  1.00  0.00     0.222 C 
ATOM     13  H   UNL A   1      31.866  23.729  24.354  1.00  0.00     0.164 HD
BRANCH  12  14
ATOM     14  C   UNL A   1      30.353  25.410  25.500  1.00  0.00     0.122 C 
BRANCH  14  15
ATOM     15  C   UNL A   1      31.171  26.684  25.319  1.00  0.00     0.133 C 
BRANCH  15  16
ATOM     16  N   UNL A   1      30.835  27.515  24.178  1.00  0.00    -0.337 N 
ATOM     17  C   UNL A   1      30.922  28.880  24.149  1.00  0.00     0.107 A 
ATOM     18  C   UNL A   1      30.341  27.115  22.968  1.00  0.00     0.199 A 
ATOM     19  C   UNL A   1      30.558  29.236  22.872  1.00  0.00     0.130 A 
ATOM     20  N   UNL A   1      30.210  28.129  22.143  1.00  0.00    -0.245 NA
ENDBRANCH  15  16
ENDBRANCH  14  15
ENDBRANCH  12  14
ENDBRANCH   6  10
ENDBRANCH   3   5
ENDBRANCH   2   3
ENDBRANCH   1   2
BRANCH   1  21
ATOM     21  C   UNL A   1      38.691  19.285  25.407  1.00  0.00     0.275 C 
BRANCH  21  22
ATOM     22  O   UNL A   1      39.630  20.297  25.779  1.00  0.00    -0.458 OA
BRANCH  22  23
ATOM     23  C   UNL A   1      40.901  19.853  25.889  1.00  0.00     0.338 C 
ATOM     24  O   UNL A   1      41.310  18.732  25.646  1.00  0.00    -0.246 OA
BRANCH  23  25
ATOM     25  C   UNL A   1      41.747  20.841  26.554  1.00  0.00     0.060 A 
ATOM     26  C   UNL A   1      41.726  20.842  27.956  1.00  0.00     0.016 A 
ATOM     27  C   UNL A   1      42.238  21.922  25.816  1.00  0.00     0.016 A 
ATOM     28  C   UNL A   1      42.021  22.014  28.619  1.00  0.00     0.010 A 
ATOM     29  C   UNL A   1      42.513  23.094  26.477  1.00  0.00     0.010 A 
ATOM     30  C   UNL A   1      42.326  23.145  27.861  1.00  0.00    -0.014 A 
BRANCH  30  31
ATOM     31  C   UNL A   1      42.456  24.411  28.549  1.00  0.00     0.031 A 
ATOM     32  C   UNL A   1      41.421  25.413  28.219  1.00  0.00     0.074 A 
ATOM     33  C   UNL A   1      43.353  24.582  29.537  1.00  0.00     0.049 A 
ATOM     34  N   UNL A   1      41.581  26.616  27.779  1.00  0.00    -0.248 NA
ATOM     35  C   UNL A   1      40.018  24.981  28.319  1.00  0.00     0.031 C 
ATOM     36  C   UNL A   1      44.201  23.563  30.166  1.00  0.00     0.029 A 
ATOM     37  N   UNL A   1      43.588  25.693  30.286  1.00  0.00    -0.354 N 
ATOM     38  C   UNL A   1      40.301  27.152  27.688  1.00  0.00     0.074 A 
ATOM     39  C   UNL A   1      39.378  26.068  27.896  1.00  0.00     0.031 C 
ATOM     40  C   UNL A   1      44.672  24.047  31.336  1.00  0.00     0.029 A 
ATOM     41  C   UNL A   1      44.260  25.435  31.470  1.00  0.00     0.049 A 
ATOM     42  H   UNL A   1      43.307  26.596  30.011  1.00  0.00     0.167 HD
ATOM     43  C   UNL A   1      40.075  28.492  27.668  1.00  0.00     0.031 A 
ATOM     44  C   UNL A   1      44.390  26.280  32.519  1.00  0.00     0.031 A 
ATOM     45  C   UNL A   1      41.248  29.242  27.315  1.00  0.00     0.049 A 
ATOM     46  C   UNL A   1      44.077  27.647  32.049  1.00  0.00     0.074 A 
ATOM     47  C   UNL A   1      42.062  29.311  26.204  1.00  0.00     0.029 A 
ATOM     48  N   UNL A   1      41.948  29.840  28.335  1.00  0.00    -0.354 N 
ATOM     49  N   UNL A   1      44.829  28.321  31.228  1.00  0.00    -0.248 NA
ATOM     50  C   UNL A   1      42.712  28.136  32.181  1.00  0.00     0.031 C 
ATOM     51  C   UNL A   1      43.373  29.538  26.714  1.00  0.00     0.029 A 
ATOM     52  C   UNL A   1      43.281  29.617  28.105  1.00  0.00     0.049 A 
ATOM     53  H   UNL A   1      41.563  30.337  29.093  1.00  0.00     0.167 HD
ATOM     54  C   UNL A   1      43.942  29.038  30.436  1.00  0.00     0.074 A 
ATOM     55  C   UNL A   1      42.672  28.988  31.154  1.00  0.00     0.031 C 
ATOM     56  C   UNL A   1      44.253  29.357  29.145  1.00  0.00     0.031 A 
BRANCH  43  57
ATOM     57  C   UNL A   1      38.879  29.120  28.333  1.00  0.00    -0.014 A 
ATOM     58  C   UNL A   1      38.680  28.925  29.708  1.00  0.00     0.009 A 
ATOM     59  C   UNL A   1      37.803  29.674  27.608  1.00  0.00     0.009 A 
ATOM     60  C   UNL A   1      37.454  29.226  30.314  1.00  0.00     0.001 A 
ATOM     61  C   UNL A   1      36.596  30.020  28.217  1.00  0.00     0.001 A 
ATOM     62  C   UNL A   1      36.413  29.772  29.569  1.00  0.00     0.000 A 
ENDBRANCH  43  57
BRANCH  44  63
ATOM     63  C   UNL A   1      44.514  25.941  33.951  1.00  0.00    -0.014 A 
ATOM     64  C   UNL A   1      45.555  26.470  34.726  1.00  0.00     0.009 A 
ATOM     65  C   UNL A   1      43.467  25.278  34.618  1.00  0.00     0.009 A 
ATOM     66  C   UNL A   1      45.533  26.362  36.124  1.00  0.00     0.001 A 
ATOM     67  C   UNL A   1      43.448  25.164  36.010  1.00  0.00     0.001 A 
ATOM     68  C   UNL A   1      44.476  25.720  36.765  1.00  0.00     0.000 A 
ENDBRANCH  44  63
BRANCH  56  69
ATOM     69  C   UNL A   1      45.675  29.123  28.693  1.00  0.00    -0.014 A 
ATOM     70  C   UNL A   1      46.122  27.875  28.223  1.00  0.00     0.009 A 
ATOM     71  C   UNL A   1      46.544  30.219  28.596  1.00  0.00     0.009 A 
ATOM     72  C   UNL A   1      47.412  27.720  27.707  1.00  0.00     0.001 A 
ATOM     73  C   UNL A   1      47.826  30.070  28.059  1.00  0.00     0.001 A 
ATOM     74  C   UNL A   1      48.261  28.820  27.620  1.00  0.00     0.000 A 
ENDBRANCH  56  69
ENDBRANCH  30  31
ENDBRANCH  23  25
ENDBRANCH  22  23
ENDBRANCH  21  22
ENDBRANCH   1  21
TORSDOF 15
ENDMDL
