MODEL 1
REMARK VINA RESULT:     -12.1      0.000      0.000
REMARK SMILES Cc1noc2c1-c1c(c(C(=O)OCCOC(=O)c3ccc(-c4c5nc(c(-c6ccccc6)c6ccc([nH]6)c(-c6ccccc6)c6nc(c(-c7ccccc7)c7ccc4[nH]7)C=C6)C=C5)cc3)nn1C)CC2
REMARK SMILES IDX 14 1 13 2 12 3 10 4 11 5 9 6 1 7 2 8 3 9 6 10 4 11 5 12 7 13
REMARK SMILES IDX 70 14 8 15 67 16 69 17 66 18 68 19 15 20 16 21 17 22 18 23
REMARK SMILES IDX 19 24 65 25 20 26 64 27 21 28 22 29 23 30 58 31 24 32 63 33
REMARK SMILES IDX 57 34 59 35 25 36 62 37 56 38 55 39 26 41 48 42 33 43 47 44
REMARK SMILES IDX 34 45 37 46 46 47 60 48 35 49 36 50 45 52 61 53 38 54 27 55
REMARK SMILES IDX 28 56 32 57 29 58 31 59 30 60 49 61 50 62 54 63 51 64 53 65
REMARK SMILES IDX 52 66 39 67 40 68 44 69 41 70 43 71 42 72
REMARK H PARENT 59 40 37 51
REMARK Flexibility Score: inf
ROOT
ATOM      1  C   UNL A   1      39.679  34.513  33.347  1.00  0.00     0.275 C 
ENDROOT
BRANCH   1   2
ATOM      2  C   UNL A   1      38.979  34.343  34.686  1.00  0.00     0.275 C 
BRANCH   2   3
ATOM      3  O   UNL A   1      37.655  34.894  34.641  1.00  0.00    -0.457 OA
BRANCH   3   4
ATOM      4  C   UNL A   1      36.624  33.984  34.612  1.00  0.00     0.359 C 
ATOM      5  O   UNL A   1      36.299  33.306  35.568  1.00  0.00    -0.244 OA
BRANCH   4   6
ATOM      6  C   UNL A   1      35.932  33.975  33.304  1.00  0.00     0.174 A 
ATOM      7  C   UNL A   1      33.196  34.180  28.333  1.00  0.00     0.071 C 
ATOM      8  C   UNL A   1      33.173  35.209  29.393  1.00  0.00     0.090 A 
ATOM      9  N   UNL A   1      32.470  36.336  29.168  1.00  0.00    -0.084 NA
ATOM     10  C   UNL A   1      33.766  35.240  30.670  1.00  0.00     0.066 A 
ATOM     11  O   UNL A   1      32.621  37.125  30.297  1.00  0.00    -0.360 OA
ATOM     12  C   UNL A   1      33.388  36.459  31.183  1.00  0.00     0.146 A 
ATOM     13  C   UNL A   1      34.657  34.426  31.526  1.00  0.00     0.077 A 
ATOM     14  C   UNL A   1      33.785  37.094  32.462  1.00  0.00     0.084 C 
ATOM     15  C   UNL A   1      34.921  34.853  32.821  1.00  0.00     0.014 A 
ATOM     16  N   UNL A   1      35.366  33.281  31.356  1.00  0.00    -0.267 N 
ATOM     17  C   UNL A   1      34.214  36.011  33.476  1.00  0.00     0.048 C 
ATOM     18  N   UNL A   1      36.212  33.033  32.377  1.00  0.00    -0.165 NA
ATOM     19  C   UNL A   1      35.352  32.360  30.248  1.00  0.00     0.174 C 
ENDBRANCH   4   6
ENDBRANCH   3   4
ENDBRANCH   2   3
ENDBRANCH   1   2
BRANCH   1  20
ATOM     20  O   UNL A   1      39.625  33.314  32.575  1.00  0.00    -0.458 OA
BRANCH  20  21
ATOM     21  C   UNL A   1      39.692  33.489  31.235  1.00  0.00     0.338 C 
ATOM     22  O   UNL A   1      39.255  34.432  30.593  1.00  0.00    -0.246 OA
BRANCH  21  23
ATOM     23  C   UNL A   1      40.131  32.232  30.621  1.00  0.00     0.060 A 
ATOM     24  C   UNL A   1      39.277  31.128  30.697  1.00  0.00     0.016 A 
ATOM     25  C   UNL A   1      41.473  32.099  30.232  1.00  0.00     0.016 A 
ATOM     26  C   UNL A   1      39.809  29.866  30.506  1.00  0.00     0.010 A 
ATOM     27  C   UNL A   1      42.006  30.842  30.073  1.00  0.00     0.010 A 
ATOM     28  C   UNL A   1      41.182  29.737  30.261  1.00  0.00    -0.014 A 
BRANCH  28  29
ATOM     29  C   UNL A   1      41.724  28.415  30.020  1.00  0.00     0.031 A 
ATOM     30  C   UNL A   1      42.534  27.916  31.154  1.00  0.00     0.074 A 
ATOM     31  C   UNL A   1      41.385  27.659  28.960  1.00  0.00     0.049 A 
ATOM     32  N   UNL A   1      43.801  27.666  31.164  1.00  0.00    -0.248 NA
ATOM     33  C   UNL A   1      41.891  27.834  32.476  1.00  0.00     0.031 C 
ATOM     34  C   UNL A   1      40.360  27.937  27.951  1.00  0.00     0.029 A 
ATOM     35  N   UNL A   1      41.809  26.408  28.632  1.00  0.00    -0.354 N 
ATOM     36  C   UNL A   1      44.075  27.198  32.444  1.00  0.00     0.074 A 
ATOM     37  C   UNL A   1      42.925  27.512  33.251  1.00  0.00     0.031 C 
ATOM     38  C   UNL A   1      40.084  26.798  27.273  1.00  0.00     0.029 A 
ATOM     39  C   UNL A   1      40.995  25.753  27.716  1.00  0.00     0.049 A 
ATOM     40  H   UNL A   1      42.621  26.002  29.012  1.00  0.00     0.167 HD
ATOM     41  C   UNL A   1      45.090  26.320  32.661  1.00  0.00     0.031 A 
ATOM     42  C   UNL A   1      41.027  24.434  27.402  1.00  0.00     0.031 A 
ATOM     43  C   UNL A   1      46.031  26.319  31.568  1.00  0.00     0.049 A 
ATOM     44  C   UNL A   1      42.328  23.893  27.855  1.00  0.00     0.074 A 
ATOM     45  C   UNL A   1      46.818  27.273  30.955  1.00  0.00     0.029 A 
ATOM     46  N   UNL A   1      45.960  25.264  30.690  1.00  0.00    -0.354 N 
ATOM     47  N   UNL A   1      43.465  24.179  27.292  1.00  0.00    -0.248 NA
ATOM     48  C   UNL A   1      42.419  23.351  29.202  1.00  0.00     0.031 C 
ATOM     49  C   UNL A   1      46.800  26.935  29.570  1.00  0.00     0.029 A 
ATOM     50  C   UNL A   1      46.065  25.759  29.419  1.00  0.00     0.049 A 
ATOM     51  H   UNL A   1      45.852  24.317  30.933  1.00  0.00     0.167 HD
ATOM     52  C   UNL A   1      44.354  24.304  28.348  1.00  0.00     0.074 A 
ATOM     53  C   UNL A   1      43.688  23.661  29.480  1.00  0.00     0.031 C 
ATOM     54  C   UNL A   1      45.409  25.170  28.274  1.00  0.00     0.031 A 
BRANCH  41  55
ATOM     55  C   UNL A   1      44.950  25.141  33.600  1.00  0.00    -0.014 A 
ATOM     56  C   UNL A   1      44.191  24.037  33.173  1.00  0.00     0.009 A 
ATOM     57  C   UNL A   1      45.258  25.196  34.974  1.00  0.00     0.009 A 
ATOM     58  C   UNL A   1      43.680  23.107  34.086  1.00  0.00     0.001 A 
ATOM     59  C   UNL A   1      44.790  24.244  35.882  1.00  0.00     0.001 A 
ATOM     60  C   UNL A   1      43.968  23.220  35.441  1.00  0.00     0.000 A 
ENDBRANCH  41  55
BRANCH  42  61
ATOM     61  C   UNL A   1      39.938  23.536  26.960  1.00  0.00    -0.014 A 
ATOM     62  C   UNL A   1      38.691  24.063  26.581  1.00  0.00     0.009 A 
ATOM     63  C   UNL A   1      40.204  22.194  26.639  1.00  0.00     0.009 A 
ATOM     64  C   UNL A   1      37.769  23.291  25.863  1.00  0.00     0.001 A 
ATOM     65  C   UNL A   1      39.280  21.421  25.927  1.00  0.00     0.001 A 
ATOM     66  C   UNL A   1      38.070  21.975  25.522  1.00  0.00     0.000 A 
ENDBRANCH  42  61
BRANCH  54  67
ATOM     67  C   UNL A   1      45.762  25.737  26.921  1.00  0.00    -0.014 A 
ATOM     68  C   UNL A   1      45.148  26.875  26.368  1.00  0.00     0.009 A 
ATOM     69  C   UNL A   1      46.838  25.160  26.228  1.00  0.00     0.009 A 
ATOM     70  C   UNL A   1      45.570  27.389  25.136  1.00  0.00     0.001 A 
ATOM     71  C   UNL A   1      47.274  25.688  25.012  1.00  0.00     0.001 A 
ATOM     72  C   UNL A   1      46.634  26.795  24.461  1.00  0.00     0.000 A 
ENDBRANCH  54  67
ENDBRANCH  28  29
ENDBRANCH  21  23
ENDBRANCH  20  21
ENDBRANCH   1  20
TORSDOF 11
ENDMDL
MODEL 2
REMARK VINA RESULT:     -11.8      4.746     12.431
REMARK SMILES Cc1noc2c1-c1c(c(C(=O)OCCOC(=O)c3ccc(-c4c5nc(c(-c6ccccc6)c6ccc([nH]6)c(-c6ccccc6)c6nc(c(-c7ccccc7)c7ccc4[nH]7)C=C6)C=C5)cc3)nn1C)CC2
REMARK SMILES IDX 14 1 13 2 12 3 10 4 11 5 9 6 1 7 2 8 3 9 6 10 4 11 5 12 7 13
REMARK SMILES IDX 70 14 8 15 67 16 69 17 66 18 68 19 15 20 16 21 17 22 18 23
REMARK SMILES IDX 19 24 65 25 20 26 64 27 21 28 22 29 23 30 58 31 24 32 63 33
REMARK SMILES IDX 57 34 59 35 25 36 62 37 56 38 55 39 26 41 48 42 33 43 47 44
REMARK SMILES IDX 34 45 37 46 46 47 60 48 35 49 36 50 45 52 61 53 38 54 27 55
REMARK SMILES IDX 28 56 32 57 29 58 31 59 30 60 49 61 50 62 54 63 51 64 53 65
REMARK SMILES IDX 52 66 39 67 40 68 44 69 41 70 43 71 42 72
REMARK H PARENT 59 40 37 51
REMARK Flexibility Score: inf
ROOT
ATOM      1  C   UNL A   1      47.335  25.166  28.465  1.00  0.00     0.275 C 
ENDROOT
BRANCH   1   2
ATOM      2  C   UNL A   1      47.880  25.203  27.046  1.00  0.00     0.275 C 
BRANCH   2   3
ATOM      3  O   UNL A   1      47.391  24.089  26.286  1.00  0.00    -0.457 OA
BRANCH   3   4
ATOM      4  C   UNL A   1      46.370  24.362  25.404  1.00  0.00     0.359 C 
ATOM      5  O   UNL A   1      46.414  25.255  24.581  1.00  0.00    -0.244 OA
BRANCH   4   6
ATOM      6  C   UNL A   1      45.250  23.407  25.547  1.00  0.00     0.174 A 
ATOM      7  C   UNL A   1      41.116  19.547  26.067  1.00  0.00     0.071 C 
ATOM      8  C   UNL A   1      42.540  19.279  25.772  1.00  0.00     0.090 A 
ATOM      9  N   UNL A   1      42.929  17.995  25.647  1.00  0.00    -0.084 NA
ATOM     10  C   UNL A   1      43.627  20.151  25.574  1.00  0.00     0.066 A 
ATOM     11  O   UNL A   1      44.291  18.023  25.388  1.00  0.00    -0.360 OA
ATOM     12  C   UNL A   1      44.690  19.309  25.342  1.00  0.00     0.146 A 
ATOM     13  C   UNL A   1      43.941  21.596  25.601  1.00  0.00     0.077 A 
ATOM     14  C   UNL A   1      46.122  19.647  25.155  1.00  0.00     0.084 C 
ATOM     15  C   UNL A   1      45.216  22.016  25.242  1.00  0.00     0.014 A 
ATOM     16  N   UNL A   1      43.256  22.720  25.938  1.00  0.00    -0.267 N 
ATOM     17  C   UNL A   1      46.258  21.101  24.653  1.00  0.00     0.048 C 
ATOM     18  N   UNL A   1      44.044  23.813  26.000  1.00  0.00    -0.165 NA
ATOM     19  C   UNL A   1      41.860  22.871  26.258  1.00  0.00     0.174 C 
ENDBRANCH   4   6
ENDBRANCH   3   4
ENDBRANCH   2   3
ENDBRANCH   1   2
BRANCH   1  20
ATOM     20  O   UNL A   1      46.100  25.873  28.569  1.00  0.00    -0.458 OA
BRANCH  20  21
ATOM     21  C   UNL A   1      45.102  25.201  29.186  1.00  0.00     0.338 C 
ATOM     22  O   UNL A   1      45.005  23.991  29.326  1.00  0.00    -0.246 OA
BRANCH  21  23
ATOM     23  C   UNL A   1      43.994  26.130  29.432  1.00  0.00     0.060 A 
ATOM     24  C   UNL A   1      43.177  26.479  28.353  1.00  0.00     0.016 A 
ATOM     25  C   UNL A   1      43.957  26.838  30.642  1.00  0.00     0.016 A 
ATOM     26  C   UNL A   1      42.412  27.627  28.448  1.00  0.00     0.010 A 
ATOM     27  C   UNL A   1      43.220  27.995  30.724  1.00  0.00     0.010 A 
ATOM     28  C   UNL A   1      42.495  28.405  29.609  1.00  0.00    -0.014 A 
BRANCH  28  29
ATOM     29  C   UNL A   1      41.658  29.583  29.718  1.00  0.00     0.031 A 
ATOM     30  C   UNL A   1      42.419  30.841  29.543  1.00  0.00     0.074 A 
ATOM     31  C   UNL A   1      40.315  29.532  29.796  1.00  0.00     0.049 A 
ATOM     32  N   UNL A   1      42.622  31.764  30.422  1.00  0.00    -0.248 NA
ATOM     33  C   UNL A   1      43.176  31.019  28.292  1.00  0.00     0.031 C 
ATOM     34  C   UNL A   1      39.454  28.355  29.664  1.00  0.00     0.029 A 
ATOM     35  N   UNL A   1      39.425  30.558  29.886  1.00  0.00    -0.354 N 
ATOM     36  C   UNL A   1      43.363  32.741  29.766  1.00  0.00     0.074 A 
ATOM     37  C   UNL A   1      43.839  32.145  28.546  1.00  0.00     0.031 C 
ATOM     38  C   UNL A   1      38.180  28.760  29.452  1.00  0.00     0.029 A 
ATOM     39  C   UNL A   1      38.121  30.210  29.555  1.00  0.00     0.049 A 
ATOM     40  H   UNL A   1      39.683  31.467  30.161  1.00  0.00     0.167 HD
ATOM     41  C   UNL A   1      43.268  34.048  30.130  1.00  0.00     0.031 A 
ATOM     42  C   UNL A   1      37.092  31.061  29.317  1.00  0.00     0.031 A 
ATOM     43  C   UNL A   1      42.713  34.190  31.454  1.00  0.00     0.049 A 
ATOM     44  C   UNL A   1      37.456  32.380  29.879  1.00  0.00     0.074 A 
ATOM     45  C   UNL A   1      43.055  33.733  32.710  1.00  0.00     0.029 A 
ATOM     46  N   UNL A   1      41.397  34.578  31.536  1.00  0.00    -0.354 N 
ATOM     47  N   UNL A   1      37.525  32.627  31.154  1.00  0.00    -0.248 NA
ATOM     48  C   UNL A   1      38.152  33.327  29.023  1.00  0.00     0.031 C 
ATOM     49  C   UNL A   1      41.814  33.447  33.353  1.00  0.00     0.029 A 
ATOM     50  C   UNL A   1      40.783  33.807  32.485  1.00  0.00     0.049 A 
ATOM     51  H   UNL A   1      40.971  35.288  31.005  1.00  0.00     0.167 HD
ATOM     52  C   UNL A   1      38.630  33.453  31.289  1.00  0.00     0.074 A 
ATOM     53  C   UNL A   1      38.896  33.950  29.941  1.00  0.00     0.031 C 
ATOM     54  C   UNL A   1      39.392  33.419  32.423  1.00  0.00     0.031 A 
BRANCH  41  55
ATOM     55  C   UNL A   1      43.208  35.166  29.112  1.00  0.00    -0.014 A 
ATOM     56  C   UNL A   1      42.002  35.371  28.419  1.00  0.00     0.009 A 
ATOM     57  C   UNL A   1      44.348  35.808  28.588  1.00  0.00     0.009 A 
ATOM     58  C   UNL A   1      41.965  36.084  27.214  1.00  0.00     0.001 A 
ATOM     59  C   UNL A   1      44.308  36.558  27.411  1.00  0.00     0.001 A 
ATOM     60  C   UNL A   1      43.122  36.664  26.705  1.00  0.00     0.000 A 
ENDBRANCH  41  55
BRANCH  42  61
ATOM     61  C   UNL A   1      35.917  30.904  28.432  1.00  0.00    -0.014 A 
ATOM     62  C   UNL A   1      35.625  29.658  27.850  1.00  0.00     0.009 A 
ATOM     63  C   UNL A   1      34.924  31.897  28.381  1.00  0.00     0.009 A 
ATOM     64  C   UNL A   1      34.368  29.401  27.287  1.00  0.00     0.001 A 
ATOM     65  C   UNL A   1      33.671  31.642  27.813  1.00  0.00     0.001 A 
ATOM     66  C   UNL A   1      33.386  30.388  27.283  1.00  0.00     0.000 A 
ENDBRANCH  42  61
BRANCH  54  67
ATOM     67  C   UNL A   1      38.829  32.710  33.630  1.00  0.00    -0.014 A 
ATOM     68  C   UNL A   1      38.956  31.327  33.852  1.00  0.00     0.009 A 
ATOM     69  C   UNL A   1      38.245  33.493  34.638  1.00  0.00     0.009 A 
ATOM     70  C   UNL A   1      38.468  30.743  35.027  1.00  0.00     0.001 A 
ATOM     71  C   UNL A   1      37.782  32.914  35.820  1.00  0.00     0.001 A 
ATOM     72  C   UNL A   1      37.884  31.538  36.010  1.00  0.00     0.000 A 
ENDBRANCH  54  67
ENDBRANCH  28  29
ENDBRANCH  21  23
ENDBRANCH  20  21
ENDBRANCH   1  20
TORSDOF 11
ENDMDL
MODEL 3
REMARK VINA RESULT:     -11.5      0.946      1.489
REMARK SMILES Cc1noc2c1-c1c(c(C(=O)OCCOC(=O)c3ccc(-c4c5nc(c(-c6ccccc6)c6ccc([nH]6)c(-c6ccccc6)c6nc(c(-c7ccccc7)c7ccc4[nH]7)C=C6)C=C5)cc3)nn1C)CC2
REMARK SMILES IDX 14 1 13 2 12 3 10 4 11 5 9 6 1 7 2 8 3 9 6 10 4 11 5 12 7 13
REMARK SMILES IDX 70 14 8 15 67 16 69 17 66 18 68 19 15 20 16 21 17 22 18 23
REMARK SMILES IDX 19 24 65 25 20 26 64 27 21 28 22 29 23 30 58 31 24 32 63 33
REMARK SMILES IDX 57 34 59 35 25 36 62 37 56 38 55 39 26 41 48 42 33 43 47 44
REMARK SMILES IDX 34 45 37 46 46 47 60 48 35 49 36 50 45 52 61 53 38 54 27 55
REMARK SMILES IDX 28 56 32 57 29 58 31 59 30 60 49 61 50 62 54 63 51 64 53 65
REMARK SMILES IDX 52 66 39 67 40 68 44 69 41 70 43 71 42 72
REMARK H PARENT 59 40 37 51
REMARK Flexibility Score: inf
ROOT
ATOM      1  C   UNL A   1      39.951  34.428  33.745  1.00  0.00     0.275 C 
ENDROOT
BRANCH   1   2
ATOM      2  C   UNL A   1      38.660  34.735  34.486  1.00  0.00     0.275 C 
BRANCH   2   3
ATOM      3  O   UNL A   1      37.873  33.546  34.650  1.00  0.00    -0.457 OA
BRANCH   3   4
ATOM      4  C   UNL A   1      36.546  33.738  34.953  1.00  0.00     0.359 C 
ATOM      5  O   UNL A   1      36.068  33.519  36.050  1.00  0.00    -0.244 OA
BRANCH   4   6
ATOM      6  C   UNL A   1      35.792  34.291  33.806  1.00  0.00     0.174 A 
ATOM      7  C   UNL A   1      32.922  36.183  29.286  1.00  0.00     0.071 C 
ATOM      8  C   UNL A   1      33.563  34.859  29.431  1.00  0.00     0.090 A 
ATOM      9  N   UNL A   1      33.436  33.979  28.419  1.00  0.00    -0.084 NA
ATOM     10  C   UNL A   1      34.333  34.309  30.474  1.00  0.00     0.066 A 
ATOM     11  O   UNL A   1      34.109  32.832  28.809  1.00  0.00    -0.360 OA
ATOM     12  C   UNL A   1      34.641  33.045  30.029  1.00  0.00     0.146 A 
ATOM     13  C   UNL A   1      34.817  34.653  31.829  1.00  0.00     0.077 A 
ATOM     14  C   UNL A   1      35.358  31.957  30.737  1.00  0.00     0.084 C 
ATOM     15  C   UNL A   1      35.663  33.771  32.487  1.00  0.00     0.014 A 
ATOM     16  N   UNL A   1      34.613  35.688  32.685  1.00  0.00    -0.267 N 
ATOM     17  C   UNL A   1      36.267  32.554  31.834  1.00  0.00     0.048 C 
ATOM     18  N   UNL A   1      35.116  35.455  33.915  1.00  0.00    -0.165 NA
ATOM     19  C   UNL A   1      33.925  36.933  32.459  1.00  0.00     0.174 C 
ENDBRANCH   4   6
ENDBRANCH   3   4
ENDBRANCH   2   3
ENDBRANCH   1   2
BRANCH   1  20
ATOM     20  O   UNL A   1      39.837  33.236  32.969  1.00  0.00    -0.458 OA
BRANCH  20  21
ATOM     21  C   UNL A   1      39.773  33.424  31.632  1.00  0.00     0.338 C 
ATOM     22  O   UNL A   1      39.235  34.349  31.042  1.00  0.00    -0.246 OA
BRANCH  21  23
ATOM     23  C   UNL A   1      40.216  32.195  30.965  1.00  0.00     0.060 A 
ATOM     24  C   UNL A   1      39.353  31.095  30.971  1.00  0.00     0.016 A 
ATOM     25  C   UNL A   1      41.564  32.069  30.596  1.00  0.00     0.016 A 
ATOM     26  C   UNL A   1      39.879  29.840  30.728  1.00  0.00     0.010 A 
ATOM     27  C   UNL A   1      42.092  30.818  30.387  1.00  0.00     0.010 A 
ATOM     28  C   UNL A   1      41.255  29.712  30.504  1.00  0.00    -0.014 A 
BRANCH  28  29
ATOM     29  C   UNL A   1      41.793  28.399  30.209  1.00  0.00     0.031 A 
ATOM     30  C   UNL A   1      42.629  27.865  31.308  1.00  0.00     0.074 A 
ATOM     31  C   UNL A   1      41.430  27.676  29.134  1.00  0.00     0.049 A 
ATOM     32  N   UNL A   1      43.895  27.617  31.282  1.00  0.00    -0.248 NA
ATOM     33  C   UNL A   1      42.015  27.741  32.642  1.00  0.00     0.031 C 
ATOM     34  C   UNL A   1      40.382  27.984  28.158  1.00  0.00     0.029 A 
ATOM     35  N   UNL A   1      41.847  26.436  28.757  1.00  0.00    -0.354 N 
ATOM     36  C   UNL A   1      44.199  27.109  32.540  1.00  0.00     0.074 A 
ATOM     37  C   UNL A   1      43.068  27.396  33.382  1.00  0.00     0.031 C 
ATOM     38  C   UNL A   1      40.092  26.867  27.451  1.00  0.00     0.029 A 
ATOM     39  C   UNL A   1      41.013  25.810  27.840  1.00  0.00     0.049 A 
ATOM     40  H   UNL A   1      42.668  26.019  29.106  1.00  0.00     0.167 HD
ATOM     41  C   UNL A   1      45.219  26.226  32.706  1.00  0.00     0.031 A 
ATOM     42  C   UNL A   1      41.039  24.501  27.483  1.00  0.00     0.031 A 
ATOM     43  C   UNL A   1      46.135  26.260  31.592  1.00  0.00     0.049 A 
ATOM     44  C   UNL A   1      42.350  23.947  27.890  1.00  0.00     0.074 A 
ATOM     45  C   UNL A   1      46.907  27.234  30.992  1.00  0.00     0.029 A 
ATOM     46  N   UNL A   1      46.045  25.233  30.684  1.00  0.00    -0.354 N 
ATOM     47  N   UNL A   1      43.473  24.253  27.311  1.00  0.00    -0.248 NA
ATOM     48  C   UNL A   1      42.472  23.364  29.217  1.00  0.00     0.031 C 
ATOM     49  C   UNL A   1      46.858  26.940  29.597  1.00  0.00     0.029 A 
ATOM     50  C   UNL A   1      46.120  25.769  29.427  1.00  0.00     0.049 A 
ATOM     51  H   UNL A   1      45.943  24.279  30.899  1.00  0.00     0.167 HD
ATOM     52  C   UNL A   1      44.386  24.345  28.350  1.00  0.00     0.074 A 
ATOM     53  C   UNL A   1      43.747  23.667  29.475  1.00  0.00     0.031 C 
ATOM     54  C   UNL A   1      45.439  25.214  28.278  1.00  0.00     0.031 A 
BRANCH  41  55
ATOM     55  C   UNL A   1      45.101  25.018  33.610  1.00  0.00    -0.014 A 
ATOM     56  C   UNL A   1      44.079  24.088  33.348  1.00  0.00     0.009 A 
ATOM     57  C   UNL A   1      45.733  24.917  34.866  1.00  0.00     0.009 A 
ATOM     58  C   UNL A   1      43.645  23.187  34.328  1.00  0.00     0.001 A 
ATOM     59  C   UNL A   1      45.334  23.989  35.829  1.00  0.00     0.001 A 
ATOM     60  C   UNL A   1      44.264  23.148  35.572  1.00  0.00     0.000 A 
ENDBRANCH  41  55
BRANCH  42  61
ATOM     61  C   UNL A   1      39.940  23.616  27.039  1.00  0.00    -0.014 A 
ATOM     62  C   UNL A   1      38.715  24.161  26.615  1.00  0.00     0.009 A 
ATOM     63  C   UNL A   1      40.184  22.260  26.760  1.00  0.00     0.009 A 
ATOM     64  C   UNL A   1      37.793  23.390  25.895  1.00  0.00     0.001 A 
ATOM     65  C   UNL A   1      39.259  21.489  26.046  1.00  0.00     0.001 A 
ATOM     66  C   UNL A   1      38.073  22.059  25.596  1.00  0.00     0.000 A 
ENDBRANCH  42  61
BRANCH  54  67
ATOM     67  C   UNL A   1      45.761  25.825  26.936  1.00  0.00    -0.014 A 
ATOM     68  C   UNL A   1      45.129  26.975  26.431  1.00  0.00     0.009 A 
ATOM     69  C   UNL A   1      46.826  25.276  26.205  1.00  0.00     0.009 A 
ATOM     70  C   UNL A   1      45.522  27.528  25.207  1.00  0.00     0.001 A 
ATOM     71  C   UNL A   1      47.234  25.843  24.997  1.00  0.00     0.001 A 
ATOM     72  C   UNL A   1      46.576  26.962  24.493  1.00  0.00     0.000 A 
ENDBRANCH  54  67
ENDBRANCH  28  29
ENDBRANCH  21  23
ENDBRANCH  20  21
ENDBRANCH   1  20
TORSDOF 11
ENDMDL
