MODEL 1
REMARK VINA RESULT:     -10.5      0.000      0.000
REMARK SMILES O=C(CN(CC(=O)OCCOC(=O)c1ccc(-c2c3nc(c(-c4ccccc4)c4ccc([nH]4)c(-c4ccccc4)c4nc(c(-c5ccccc5)c5ccc2[nH]5)C=C4)C=C3)cc1)c1ccccc1)NCc1ccccc1
REMARK SMILES IDX 8 1 6 2 7 3 5 4 4 5 3 6 2 7 1 8 68 9 69 11 70 12 71 13 75 14
REMARK SMILES IDX 72 15 74 16 73 17 62 18 63 19 67 20 64 21 66 22 65 23 9 24
REMARK SMILES IDX 10 25 11 26 12 27 13 28 14 29 15 30 61 31 16 32 60 33 17 34
REMARK SMILES IDX 18 35 19 36 54 37 20 38 59 39 53 40 55 41 21 42 58 43 52 44
REMARK SMILES IDX 51 45 22 47 44 48 29 49 43 50 30 51 33 52 42 53 56 54 31 55
REMARK SMILES IDX 32 56 41 58 57 59 34 60 23 61 24 62 28 63 25 64 27 65 26 66
REMARK SMILES IDX 45 67 46 68 50 69 47 70 49 71 48 72 35 73 36 74 40 75 37 76
REMARK SMILES IDX 39 77 38 78
REMARK H PARENT 68 10 55 46 33 57
REMARK Flexibility Score: inf
ROOT
ATOM      1  O   UNL A   1      31.489  27.179  25.700  1.00  0.00    -0.461 OA
ENDROOT
BRANCH   1   2
ATOM      2  C   UNL A   1      32.144  26.061  26.109  1.00  0.00     0.325 C 
ATOM      3  O   UNL A   1      31.667  25.223  26.872  1.00  0.00    -0.250 OA
BRANCH   2   4
ATOM      4  C   UNL A   1      33.530  25.861  25.505  1.00  0.00     0.239 C 
BRANCH   4   5
ATOM      5  N   UNL A   1      33.698  24.781  24.529  1.00  0.00    -0.351 N 
BRANCH   5   6
ATOM      6  C   UNL A   1      32.841  24.739  23.330  1.00  0.00     0.217 C 
BRANCH   6   7
ATOM      7  C   UNL A   1      32.796  26.056  22.530  1.00  0.00     0.239 C 
ATOM      8  O   UNL A   1      33.681  26.357  21.732  1.00  0.00    -0.273 OA
ATOM      9  N   UNL A   1      31.678  26.842  22.725  1.00  0.00    -0.350 N 
ATOM     10  H   UNL A   1      30.900  26.458  23.190  1.00  0.00     0.163 HD
BRANCH   9  11
ATOM     11  C   UNL A   1      31.612  28.212  22.264  1.00  0.00     0.151 C 
BRANCH  11  12
ATOM     12  C   UNL A   1      30.247  28.829  22.400  1.00  0.00    -0.029 A 
ATOM     13  C   UNL A   1      29.948  30.035  21.749  1.00  0.00     0.005 A 
ATOM     14  C   UNL A   1      29.224  28.160  23.086  1.00  0.00     0.005 A 
ATOM     15  C   UNL A   1      28.655  30.563  21.789  1.00  0.00     0.000 A 
ATOM     16  C   UNL A   1      27.934  28.690  23.128  1.00  0.00     0.000 A 
ATOM     17  C   UNL A   1      27.649  29.890  22.477  1.00  0.00     0.000 A 
ENDBRANCH  11  12
ENDBRANCH   9  11
ENDBRANCH   6   7
ENDBRANCH   5   6
BRANCH   5  18
ATOM     18  C   UNL A   1      34.867  24.034  24.566  1.00  0.00     0.038 A 
ATOM     19  C   UNL A   1      35.659  24.003  25.717  1.00  0.00     0.026 A 
ATOM     20  C   UNL A   1      35.326  23.317  23.452  1.00  0.00     0.026 A 
ATOM     21  C   UNL A   1      36.866  23.293  25.752  1.00  0.00     0.002 A 
ATOM     22  C   UNL A   1      36.520  22.591  23.483  1.00  0.00     0.002 A 
ATOM     23  C   UNL A   1      37.295  22.584  24.635  1.00  0.00     0.000 A 
ENDBRANCH   5  18
ENDBRANCH   4   5
ENDBRANCH   2   4
ENDBRANCH   1   2
BRANCH   1  24
ATOM     24  C   UNL A   1      31.587  28.316  26.582  1.00  0.00     0.274 C 
BRANCH  24  25
ATOM     25  C   UNL A   1      31.693  29.610  25.778  1.00  0.00     0.275 C 
BRANCH  25  26
ATOM     26  O   UNL A   1      33.016  30.159  25.915  1.00  0.00    -0.458 OA
BRANCH  26  27
ATOM     27  C   UNL A   1      33.156  31.094  26.881  1.00  0.00     0.338 C 
ATOM     28  O   UNL A   1      32.409  32.034  27.115  1.00  0.00    -0.246 OA
BRANCH  27  29
ATOM     29  C   UNL A   1      34.419  30.884  27.610  1.00  0.00     0.060 A 
ATOM     30  C   UNL A   1      35.305  31.934  27.862  1.00  0.00     0.016 A 
ATOM     31  C   UNL A   1      34.743  29.582  27.994  1.00  0.00     0.016 A 
ATOM     32  C   UNL A   1      36.541  31.673  28.456  1.00  0.00     0.010 A 
ATOM     33  C   UNL A   1      35.949  29.332  28.647  1.00  0.00     0.010 A 
ATOM     34  C   UNL A   1      36.863  30.372  28.871  1.00  0.00    -0.014 A 
BRANCH  34  35
ATOM     35  C   UNL A   1      38.114  30.093  29.615  1.00  0.00     0.031 A 
ATOM     36  C   UNL A   1      39.183  29.219  29.027  1.00  0.00     0.074 A 
ATOM     37  C   UNL A   1      38.245  30.581  30.863  1.00  0.00     0.049 A 
ATOM     38  N   UNL A   1      40.263  28.745  29.596  1.00  0.00    -0.248 NA
ATOM     39  C   UNL A   1      39.017  28.821  27.621  1.00  0.00     0.031 C 
ATOM     40  C   UNL A   1      37.276  31.450  31.535  1.00  0.00     0.029 A 
ATOM     41  N   UNL A   1      39.234  30.401  31.793  1.00  0.00    -0.354 N 
ATOM     42  C   UNL A   1      40.894  27.975  28.628  1.00  0.00     0.074 A 
ATOM     43  C   UNL A   1      40.075  28.041  27.435  1.00  0.00     0.031 C 
ATOM     44  C   UNL A   1      37.722  31.733  32.767  1.00  0.00     0.029 A 
ATOM     45  C   UNL A   1      38.972  31.016  32.992  1.00  0.00     0.049 A 
ATOM     46  H   UNL A   1      40.053  29.883  31.619  1.00  0.00     0.167 HD
ATOM     47  C   UNL A   1      42.050  27.275  28.730  1.00  0.00     0.031 A 
ATOM     48  C   UNL A   1      39.637  30.977  34.159  1.00  0.00     0.031 A 
ATOM     49  C   UNL A   1      42.855  27.207  29.922  1.00  0.00     0.049 A 
ATOM     50  C   UNL A   1      40.878  30.145  34.265  1.00  0.00     0.074 A 
ATOM     51  C   UNL A   1      44.054  26.544  30.118  1.00  0.00     0.029 A 
ATOM     52  N   UNL A   1      42.536  27.820  31.124  1.00  0.00    -0.354 N 
ATOM     53  N   UNL A   1      41.462  29.421  33.342  1.00  0.00    -0.248 NA
ATOM     54  C   UNL A   1      41.540  30.112  35.575  1.00  0.00     0.031 C 
ATOM     55  C   UNL A   1      44.440  26.722  31.452  1.00  0.00     0.029 A 
ATOM     56  C   UNL A   1      43.502  27.529  32.074  1.00  0.00     0.049 A 
ATOM     57  H   UNL A   1      41.741  28.380  31.280  1.00  0.00     0.167 HD
ATOM     58  C   UNL A   1      42.563  28.845  33.957  1.00  0.00     0.074 A 
ATOM     59  C   UNL A   1      42.577  29.322  35.326  1.00  0.00     0.031 C 
ATOM     60  C   UNL A   1      43.480  27.994  33.436  1.00  0.00     0.031 A 
BRANCH  47  61
ATOM     61  C   UNL A   1      42.500  26.496  27.527  1.00  0.00    -0.014 A 
ATOM     62  C   UNL A   1      43.358  27.062  26.571  1.00  0.00     0.009 A 
ATOM     63  C   UNL A   1      42.104  25.157  27.377  1.00  0.00     0.009 A 
ATOM     64  C   UNL A   1      43.792  26.309  25.478  1.00  0.00     0.001 A 
ATOM     65  C   UNL A   1      42.555  24.401  26.293  1.00  0.00     0.001 A 
ATOM     66  C   UNL A   1      43.394  24.979  25.342  1.00  0.00     0.000 A 
ENDBRANCH  47  61
BRANCH  48  67
ATOM     67  C   UNL A   1      39.107  31.724  35.326  1.00  0.00    -0.014 A 
ATOM     68  C   UNL A   1      38.184  31.125  36.193  1.00  0.00     0.009 A 
ATOM     69  C   UNL A   1      39.564  33.023  35.604  1.00  0.00     0.009 A 
ATOM     70  C   UNL A   1      37.726  31.813  37.319  1.00  0.00     0.001 A 
ATOM     71  C   UNL A   1      39.122  33.699  36.743  1.00  0.00     0.001 A 
ATOM     72  C   UNL A   1      38.202  33.095  37.597  1.00  0.00     0.000 A 
ENDBRANCH  48  67
BRANCH  60  73
ATOM     73  C   UNL A   1      44.567  27.532  34.360  1.00  0.00    -0.014 A 
ATOM     74  C   UNL A   1      44.403  26.378  35.141  1.00  0.00     0.009 A 
ATOM     75  C   UNL A   1      45.765  28.256  34.449  1.00  0.00     0.009 A 
ATOM     76  C   UNL A   1      45.410  25.974  36.018  1.00  0.00     0.001 A 
ATOM     77  C   UNL A   1      46.778  27.837  35.312  1.00  0.00     0.001 A 
ATOM     78  C   UNL A   1      46.596  26.703  36.103  1.00  0.00     0.000 A 
ENDBRANCH  60  73
ENDBRANCH  34  35
ENDBRANCH  27  29
ENDBRANCH  26  27
ENDBRANCH  25  26
ENDBRANCH  24  25
ENDBRANCH   1  24
TORSDOF 17
ENDMDL
MODEL 2
REMARK VINA RESULT:     -10.5      3.717      7.342
REMARK SMILES O=C(CN(CC(=O)OCCOC(=O)c1ccc(-c2c3nc(c(-c4ccccc4)c4ccc([nH]4)c(-c4ccccc4)c4nc(c(-c5ccccc5)c5ccc2[nH]5)C=C4)C=C3)cc1)c1ccccc1)NCc1ccccc1
REMARK SMILES IDX 8 1 6 2 7 3 5 4 4 5 3 6 2 7 1 8 68 9 69 11 70 12 71 13 75 14
REMARK SMILES IDX 72 15 74 16 73 17 62 18 63 19 67 20 64 21 66 22 65 23 9 24
REMARK SMILES IDX 10 25 11 26 12 27 13 28 14 29 15 30 61 31 16 32 60 33 17 34
REMARK SMILES IDX 18 35 19 36 54 37 20 38 59 39 53 40 55 41 21 42 58 43 52 44
REMARK SMILES IDX 51 45 22 47 44 48 29 49 43 50 30 51 33 52 42 53 56 54 31 55
REMARK SMILES IDX 32 56 41 58 57 59 34 60 23 61 24 62 28 63 25 64 27 65 26 66
REMARK SMILES IDX 45 67 46 68 50 69 47 70 49 71 48 72 35 73 36 74 40 75 37 76
REMARK SMILES IDX 39 77 38 78
REMARK H PARENT 68 10 55 46 33 57
REMARK Flexibility Score: inf
ROOT
ATOM      1  O   UNL A   1      32.511  29.478  24.914  1.00  0.00    -0.461 OA
ENDROOT
BRANCH   1   2
ATOM      2  C   UNL A   1      31.548  28.989  24.089  1.00  0.00     0.325 C 
ATOM      3  O   UNL A   1      30.447  29.513  23.928  1.00  0.00    -0.250 OA
BRANCH   2   4
ATOM      4  C   UNL A   1      31.937  27.744  23.299  1.00  0.00     0.239 C 
BRANCH   4   5
ATOM      5  N   UNL A   1      31.825  26.448  23.973  1.00  0.00    -0.351 N 
BRANCH   5   6
ATOM      6  C   UNL A   1      30.543  26.049  24.582  1.00  0.00     0.217 C 
BRANCH   6   7
ATOM      7  C   UNL A   1      30.666  24.995  25.698  1.00  0.00     0.239 C 
ATOM      8  O   UNL A   1      30.986  25.303  26.846  1.00  0.00    -0.273 OA
ATOM      9  N   UNL A   1      30.342  23.700  25.345  1.00  0.00    -0.350 N 
ATOM     10  H   UNL A   1      29.877  23.541  24.491  1.00  0.00     0.163 HD
BRANCH   9  11
ATOM     11  C   UNL A   1      30.660  22.570  26.190  1.00  0.00     0.151 C 
BRANCH  11  12
ATOM     12  C   UNL A   1      31.988  21.937  25.875  1.00  0.00    -0.029 A 
ATOM     13  C   UNL A   1      33.094  22.162  26.709  1.00  0.00     0.005 A 
ATOM     14  C   UNL A   1      32.116  21.033  24.812  1.00  0.00     0.005 A 
ATOM     15  C   UNL A   1      34.302  21.500  26.480  1.00  0.00     0.000 A 
ATOM     16  C   UNL A   1      33.326  20.375  24.583  1.00  0.00     0.000 A 
ATOM     17  C   UNL A   1      34.417  20.606  25.418  1.00  0.00     0.000 A 
ENDBRANCH  11  12
ENDBRANCH   9  11
ENDBRANCH   6   7
ENDBRANCH   5   6
BRANCH   5  18
ATOM     18  C   UNL A   1      32.797  25.489  23.724  1.00  0.00     0.038 A 
ATOM     19  C   UNL A   1      32.633  24.555  22.698  1.00  0.00     0.026 A 
ATOM     20  C   UNL A   1      33.957  25.387  24.505  1.00  0.00     0.026 A 
ATOM     21  C   UNL A   1      33.583  23.552  22.467  1.00  0.00     0.002 A 
ATOM     22  C   UNL A   1      34.920  24.401  24.272  1.00  0.00     0.002 A 
ATOM     23  C   UNL A   1      34.729  23.476  23.253  1.00  0.00     0.000 A 
ENDBRANCH   5  18
ENDBRANCH   4   5
ENDBRANCH   2   4
ENDBRANCH   1   2
BRANCH   1  24
ATOM     24  C   UNL A   1      32.169  29.521  26.314  1.00  0.00     0.274 C 
BRANCH  24  25
ATOM     25  C   UNL A   1      33.023  30.554  27.044  1.00  0.00     0.275 C 
BRANCH  25  26
ATOM     26  O   UNL A   1      34.099  29.893  27.735  1.00  0.00    -0.458 OA
BRANCH  26  27
ATOM     27  C   UNL A   1      34.795  30.668  28.595  1.00  0.00     0.338 C 
ATOM     28  O   UNL A   1      34.410  31.689  29.149  1.00  0.00    -0.246 OA
BRANCH  27  29
ATOM     29  C   UNL A   1      36.170  30.158  28.738  1.00  0.00     0.060 A 
ATOM     30  C   UNL A   1      36.669  29.728  29.970  1.00  0.00     0.016 A 
ATOM     31  C   UNL A   1      36.993  30.173  27.612  1.00  0.00     0.016 A 
ATOM     32  C   UNL A   1      38.010  29.359  30.086  1.00  0.00     0.010 A 
ATOM     33  C   UNL A   1      38.315  29.741  27.713  1.00  0.00     0.010 A 
ATOM     34  C   UNL A   1      38.838  29.344  28.952  1.00  0.00    -0.014 A 
BRANCH  34  35
ATOM     35  C   UNL A   1      40.228  28.836  29.026  1.00  0.00     0.031 A 
ATOM     36  C   UNL A   1      41.371  29.760  29.330  1.00  0.00     0.074 A 
ATOM     37  C   UNL A   1      40.458  27.540  28.744  1.00  0.00     0.049 A 
ATOM     38  N   UNL A   1      42.657  29.521  29.281  1.00  0.00    -0.248 NA
ATOM     39  C   UNL A   1      41.027  31.131  29.739  1.00  0.00     0.031 C 
ATOM     40  C   UNL A   1      39.425  26.546  28.444  1.00  0.00     0.029 A 
ATOM     41  N   UNL A   1      41.633  26.842  28.645  1.00  0.00    -0.354 N 
ATOM     42  C   UNL A   1      43.278  30.713  29.628  1.00  0.00     0.074 A 
ATOM     43  C   UNL A   1      42.228  31.678  29.882  1.00  0.00     0.031 C 
ATOM     44  C   UNL A   1      40.011  25.365  28.201  1.00  0.00     0.029 A 
ATOM     45  C   UNL A   1      41.458  25.534  28.266  1.00  0.00     0.049 A 
ATOM     46  H   UNL A   1      42.515  27.239  28.829  1.00  0.00     0.167 HD
ATOM     47  C   UNL A   1      44.604  30.977  29.720  1.00  0.00     0.031 A 
ATOM     48  C   UNL A   1      42.358  24.584  27.962  1.00  0.00     0.031 A 
ATOM     49  C   UNL A   1      45.643  30.015  29.457  1.00  0.00     0.049 A 
ATOM     50  C   UNL A   1      43.818  24.919  28.010  1.00  0.00     0.074 A 
ATOM     51  C   UNL A   1      47.015  30.179  29.546  1.00  0.00     0.029 A 
ATOM     52  N   UNL A   1      45.422  28.710  29.045  1.00  0.00    -0.354 N 
ATOM     53  N   UNL A   1      44.390  26.051  28.338  1.00  0.00    -0.248 NA
ATOM     54  C   UNL A   1      44.752  23.852  27.631  1.00  0.00     0.031 C 
ATOM     55  C   UNL A   1      47.626  28.984  29.147  1.00  0.00     0.029 A 
ATOM     56  C   UNL A   1      46.633  28.065  28.849  1.00  0.00     0.049 A 
ATOM     57  H   UNL A   1      44.537  28.301  28.911  1.00  0.00     0.167 HD
ATOM     58  C   UNL A   1      45.753  25.835  28.208  1.00  0.00     0.074 A 
ATOM     59  C   UNL A   1      45.922  24.456  27.791  1.00  0.00     0.031 C 
ATOM     60  C   UNL A   1      46.776  26.702  28.410  1.00  0.00     0.031 A 
BRANCH  47  61
ATOM     61  C   UNL A   1      45.011  32.375  30.092  1.00  0.00    -0.014 A 
ATOM     62  C   UNL A   1      45.235  32.736  31.430  1.00  0.00     0.009 A 
ATOM     63  C   UNL A   1      45.228  33.328  29.084  1.00  0.00     0.009 A 
ATOM     64  C   UNL A   1      45.647  34.032  31.752  1.00  0.00     0.001 A 
ATOM     65  C   UNL A   1      45.658  34.617  29.408  1.00  0.00     0.001 A 
ATOM     66  C   UNL A   1      45.861  34.969  30.741  1.00  0.00     0.000 A 
ENDBRANCH  47  61
BRANCH  48  67
ATOM     67  C   UNL A   1      41.888  23.240  27.546  1.00  0.00    -0.014 A 
ATOM     68  C   UNL A   1      41.703  22.227  28.495  1.00  0.00     0.009 A 
ATOM     69  C   UNL A   1      41.572  22.985  26.201  1.00  0.00     0.009 A 
ATOM     70  C   UNL A   1      41.211  20.979  28.106  1.00  0.00     0.001 A 
ATOM     71  C   UNL A   1      41.059  21.744  25.819  1.00  0.00     0.001 A 
ATOM     72  C   UNL A   1      40.882  20.742  26.771  1.00  0.00     0.000 A 
ENDBRANCH  48  67
BRANCH  60  73
ATOM     73  C   UNL A   1      48.159  26.171  28.181  1.00  0.00    -0.014 A 
ATOM     74  C   UNL A   1      48.902  25.622  29.236  1.00  0.00     0.009 A 
ATOM     75  C   UNL A   1      48.723  26.220  26.897  1.00  0.00     0.009 A 
ATOM     76  C   UNL A   1      50.198  25.156  29.016  1.00  0.00     0.001 A 
ATOM     77  C   UNL A   1      50.013  25.736  26.677  1.00  0.00     0.001 A 
ATOM     78  C   UNL A   1      50.752  25.213  27.737  1.00  0.00     0.000 A 
ENDBRANCH  60  73
ENDBRANCH  34  35
ENDBRANCH  27  29
ENDBRANCH  26  27
ENDBRANCH  25  26
ENDBRANCH  24  25
ENDBRANCH   1  24
TORSDOF 17
ENDMDL
MODEL 3
REMARK VINA RESULT:     -10.4      3.077      7.522
REMARK SMILES O=C(CN(CC(=O)OCCOC(=O)c1ccc(-c2c3nc(c(-c4ccccc4)c4ccc([nH]4)c(-c4ccccc4)c4nc(c(-c5ccccc5)c5ccc2[nH]5)C=C4)C=C3)cc1)c1ccccc1)NCc1ccccc1
REMARK SMILES IDX 8 1 6 2 7 3 5 4 4 5 3 6 2 7 1 8 68 9 69 11 70 12 71 13 75 14
REMARK SMILES IDX 72 15 74 16 73 17 62 18 63 19 67 20 64 21 66 22 65 23 9 24
REMARK SMILES IDX 10 25 11 26 12 27 13 28 14 29 15 30 61 31 16 32 60 33 17 34
REMARK SMILES IDX 18 35 19 36 54 37 20 38 59 39 53 40 55 41 21 42 58 43 52 44
REMARK SMILES IDX 51 45 22 47 44 48 29 49 43 50 30 51 33 52 42 53 56 54 31 55
REMARK SMILES IDX 32 56 41 58 57 59 34 60 23 61 24 62 28 63 25 64 27 65 26 66
REMARK SMILES IDX 45 67 46 68 50 69 47 70 49 71 48 72 35 73 36 74 40 75 37 76
REMARK SMILES IDX 39 77 38 78
REMARK H PARENT 68 10 55 46 33 57
REMARK Flexibility Score: inf
ROOT
ATOM      1  O   UNL A   1      31.273  27.386  27.250  1.00  0.00    -0.461 OA
ENDROOT
BRANCH   1   2
ATOM      2  C   UNL A   1      31.477  26.547  26.202  1.00  0.00     0.325 C 
ATOM      3  O   UNL A   1      32.302  25.635  26.199  1.00  0.00    -0.250 OA
BRANCH   2   4
ATOM      4  C   UNL A   1      30.558  26.764  25.004  1.00  0.00     0.239 C 
BRANCH   4   5
ATOM      5  N   UNL A   1      30.893  27.848  24.077  1.00  0.00    -0.351 N 
BRANCH   5   6
ATOM      6  C   UNL A   1      32.134  27.774  23.284  1.00  0.00     0.217 C 
BRANCH   6   7
ATOM      7  C   UNL A   1      32.463  26.371  22.739  1.00  0.00     0.239 C 
ATOM      8  O   UNL A   1      31.768  25.832  21.879  1.00  0.00    -0.273 OA
ATOM      9  N   UNL A   1      33.610  25.785  23.235  1.00  0.00    -0.350 N 
ATOM     10  H   UNL A   1      34.249  26.339  23.740  1.00  0.00     0.163 HD
BRANCH   9  11
ATOM     11  C   UNL A   1      33.908  24.383  23.033  1.00  0.00     0.151 C 
BRANCH  11  12
ATOM     12  C   UNL A   1      35.088  23.896  23.827  1.00  0.00    -0.029 A 
ATOM     13  C   UNL A   1      35.260  24.303  25.159  1.00  0.00     0.005 A 
ATOM     14  C   UNL A   1      35.972  22.952  23.290  1.00  0.00     0.005 A 
ATOM     15  C   UNL A   1      36.297  23.779  25.934  1.00  0.00     0.000 A 
ATOM     16  C   UNL A   1      37.011  22.431  24.064  1.00  0.00     0.000 A 
ATOM     17  C   UNL A   1      37.171  22.842  25.386  1.00  0.00     0.000 A 
ENDBRANCH  11  12
ENDBRANCH   9  11
ENDBRANCH   6   7
ENDBRANCH   5   6
BRANCH   5  18
ATOM     18  C   UNL A   1      29.889  28.731  23.705  1.00  0.00     0.038 A 
ATOM     19  C   UNL A   1      28.716  28.268  23.103  1.00  0.00     0.026 A 
ATOM     20  C   UNL A   1      30.019  30.116  23.876  1.00  0.00     0.026 A 
ATOM     21  C   UNL A   1      27.716  29.152  22.679  1.00  0.00     0.002 A 
ATOM     22  C   UNL A   1      29.019  31.006  23.472  1.00  0.00     0.002 A 
ATOM     23  C   UNL A   1      27.867  30.522  22.866  1.00  0.00     0.000 A 
ENDBRANCH   5  18
ENDBRANCH   4   5
ENDBRANCH   2   4
ENDBRANCH   1   2
BRANCH   1  24
ATOM     24  C   UNL A   1      31.907  28.677  27.148  1.00  0.00     0.274 C 
BRANCH  24  25
ATOM     25  C   UNL A   1      33.422  28.543  27.290  1.00  0.00     0.275 C 
BRANCH  25  26
ATOM     26  O   UNL A   1      34.054  29.783  26.924  1.00  0.00    -0.458 OA
BRANCH  26  27
ATOM     27  C   UNL A   1      34.548  30.505  27.953  1.00  0.00     0.338 C 
ATOM     28  O   UNL A   1      34.026  31.466  28.501  1.00  0.00    -0.246 OA
BRANCH  27  29
ATOM     29  C   UNL A   1      35.894  30.024  28.310  1.00  0.00     0.060 A 
ATOM     30  C   UNL A   1      36.198  29.580  29.600  1.00  0.00     0.016 A 
ATOM     31  C   UNL A   1      36.889  30.081  27.333  1.00  0.00     0.016 A 
ATOM     32  C   UNL A   1      37.512  29.240  29.926  1.00  0.00     0.010 A 
ATOM     33  C   UNL A   1      38.187  29.676  27.641  1.00  0.00     0.010 A 
ATOM     34  C   UNL A   1      38.512  29.267  28.942  1.00  0.00    -0.014 A 
BRANCH  34  35
ATOM     35  C   UNL A   1      39.885  28.790  29.233  1.00  0.00     0.031 A 
ATOM     36  C   UNL A   1      40.916  29.715  29.811  1.00  0.00     0.074 A 
ATOM     37  C   UNL A   1      40.213  27.527  28.902  1.00  0.00     0.049 A 
ATOM     38  N   UNL A   1      42.199  29.513  29.982  1.00  0.00    -0.248 NA
ATOM     39  C   UNL A   1      40.450  31.039  30.251  1.00  0.00     0.031 C 
ATOM     40  C   UNL A   1      39.292  26.535  28.342  1.00  0.00     0.029 A 
ATOM     41  N   UNL A   1      41.414  26.869  28.969  1.00  0.00    -0.354 N 
ATOM     42  C   UNL A   1      42.698  30.688  30.526  1.00  0.00     0.074 A 
ATOM     43  C   UNL A   1      41.582  31.602  30.654  1.00  0.00     0.031 C 
ATOM     44  C   UNL A   1      39.960  25.393  28.124  1.00  0.00     0.029 A 
ATOM     45  C   UNL A   1      41.362  25.592  28.467  1.00  0.00     0.049 A 
ATOM     46  H   UNL A   1      42.231  27.272  29.341  1.00  0.00     0.167 HD
ATOM     47  C   UNL A   1      43.974  30.977  30.881  1.00  0.00     0.031 A 
ATOM     48  C   UNL A   1      42.340  24.693  28.264  1.00  0.00     0.031 A 
ATOM     49  C   UNL A   1      45.081  30.066  30.742  1.00  0.00     0.049 A 
ATOM     50  C   UNL A   1      43.752  25.060  28.605  1.00  0.00     0.074 A 
ATOM     51  C   UNL A   1      46.406  30.257  31.095  1.00  0.00     0.029 A 
ATOM     52  N   UNL A   1      44.990  28.794  30.200  1.00  0.00    -0.354 N 
ATOM     53  N   UNL A   1      44.210  26.175  29.118  1.00  0.00    -0.248 NA
ATOM     54  C   UNL A   1      44.781  24.050  28.327  1.00  0.00     0.031 C 
ATOM     55  C   UNL A   1      47.125  29.113  30.727  1.00  0.00     0.029 A 
ATOM     56  C   UNL A   1      46.241  28.196  30.183  1.00  0.00     0.049 A 
ATOM     57  H   UNL A   1      44.160  28.375  29.875  1.00  0.00     0.167 HD
ATOM     58  C   UNL A   1      45.582  26.005  29.225  1.00  0.00     0.074 A 
ATOM     59  C   UNL A   1      45.878  24.669  28.744  1.00  0.00     0.031 C 
ATOM     60  C   UNL A   1      46.515  26.878  29.677  1.00  0.00     0.031 A 
BRANCH  47  61
ATOM     61  C   UNL A   1      44.251  32.349  31.425  1.00  0.00    -0.014 A 
ATOM     62  C   UNL A   1      44.204  32.609  32.804  1.00  0.00     0.009 A 
ATOM     63  C   UNL A   1      44.619  33.384  30.550  1.00  0.00     0.009 A 
ATOM     64  C   UNL A   1      44.498  33.884  33.293  1.00  0.00     0.001 A 
ATOM     65  C   UNL A   1      44.931  34.653  31.044  1.00  0.00     0.001 A 
ATOM     66  C   UNL A   1      44.865  34.903  32.413  1.00  0.00     0.000 A 
ENDBRANCH  47  61
BRANCH  48  67
ATOM     67  C   UNL A   1      42.007  23.376  27.668  1.00  0.00    -0.014 A 
ATOM     68  C   UNL A   1      41.521  22.336  28.471  1.00  0.00     0.009 A 
ATOM     69  C   UNL A   1      42.125  23.173  26.283  1.00  0.00     0.009 A 
ATOM     70  C   UNL A   1      41.160  21.114  27.899  1.00  0.00     0.001 A 
ATOM     71  C   UNL A   1      41.742  21.959  25.711  1.00  0.00     0.001 A 
ATOM     72  C   UNL A   1      41.262  20.930  26.520  1.00  0.00     0.000 A 
ENDBRANCH  48  67
BRANCH  60  73
ATOM     73  C   UNL A   1      47.936  26.403  29.667  1.00  0.00    -0.014 A 
ATOM     74  C   UNL A   1      48.723  26.516  28.511  1.00  0.00     0.009 A 
ATOM     75  C   UNL A   1      48.495  25.839  30.825  1.00  0.00     0.009 A 
ATOM     76  C   UNL A   1      50.037  26.045  28.506  1.00  0.00     0.001 A 
ATOM     77  C   UNL A   1      49.814  25.388  30.821  1.00  0.00     0.001 A 
ATOM     78  C   UNL A   1      50.581  25.483  29.660  1.00  0.00     0.000 A 
ENDBRANCH  60  73
ENDBRANCH  34  35
ENDBRANCH  27  29
ENDBRANCH  26  27
ENDBRANCH  25  26
ENDBRANCH  24  25
ENDBRANCH   1  24
TORSDOF 17
ENDMDL
