MODEL 1
REMARK VINA RESULT:     -11.5      0.000      0.000
REMARK SMILES C[C@H]1[C@H](C(=O)OCCOC(=O)c2ccc(-c3c4nc(c(-c5ccccc5)c5ccc([nH]5)c(-c5ccccc5)c5nc(c(-c6ccccc6)c6ccc3[nH]6)C=C5)C=C4)cc2)CCN1C(=O)Nc1ccc(F)c(Cl)c1
REMARK SMILES IDX 7 1 6 2 4 3 5 4 3 5 1 6 2 7 62 8 60 9 61 10 63 11 64 12
REMARK SMILES IDX 65 13 66 15 67 16 73 17 68 18 71 19 69 20 72 21 70 22 8 23
REMARK SMILES IDX 9 24 10 25 11 26 12 27 13 28 59 29 14 30 58 31 15 32 16 33
REMARK SMILES IDX 17 34 52 35 18 36 57 37 51 38 53 39 19 40 56 41 50 42 49 43
REMARK SMILES IDX 20 45 42 46 27 47 41 48 28 49 31 50 40 51 54 52 29 53 30 54
REMARK SMILES IDX 39 56 55 57 32 58 21 59 22 60 26 61 23 62 25 63 24 64 43 65
REMARK SMILES IDX 44 66 48 67 45 68 47 69 46 70 33 71 34 72 38 73 35 74 37 75
REMARK SMILES IDX 36 76
REMARK H PARENT 65 14 53 44 31 55
REMARK Flexibility Score: inf
ROOT
ATOM      1  C   UNL A   1      36.649  23.064  23.738  1.00  0.00     0.274 C 
ENDROOT
BRANCH   1   2
ATOM      2  O   UNL A   1      35.603  22.961  22.752  1.00  0.00    -0.462 OA
BRANCH   2   3
ATOM      3  C   UNL A   1      34.397  23.471  23.104  1.00  0.00     0.311 C 
ATOM      4  O   UNL A   1      33.873  24.451  22.584  1.00  0.00    -0.252 OA
BRANCH   3   5
ATOM      5  C   UNL A   1      33.759  22.753  24.273  1.00  0.00     0.123 C 
ATOM      6  C   UNL A   1      34.242  23.341  26.682  1.00  0.00     0.032 C 
ATOM      7  C   UNL A   1      33.356  23.649  25.467  1.00  0.00     0.098 C 
ATOM      8  N   UNL A   1      31.947  23.325  25.728  1.00  0.00    -0.321 N 
ATOM      9  C   UNL A   1      32.478  22.063  23.816  1.00  0.00     0.039 C 
ATOM     10  C   UNL A   1      31.588  22.101  25.035  1.00  0.00     0.122 C 
BRANCH   8  11
ATOM     11  C   UNL A   1      31.057  23.833  26.633  1.00  0.00     0.322 C 
ATOM     12  O   UNL A   1      30.554  23.110  27.501  1.00  0.00    -0.248 OA
ATOM     13  N   UNL A   1      30.816  25.159  26.751  1.00  0.00    -0.308 N 
ATOM     14  H   UNL A   1      30.587  25.420  27.672  1.00  0.00     0.171 HD
BRANCH  13  15
ATOM     15  C   UNL A   1      30.815  26.248  25.873  1.00  0.00     0.044 A 
ATOM     16  C   UNL A   1      29.994  26.142  24.742  1.00  0.00     0.029 A 
ATOM     17  C   UNL A   1      31.636  27.365  26.029  1.00  0.00     0.049 A 
ATOM     18  C   UNL A   1      29.908  27.191  23.829  1.00  0.00     0.043 A 
ATOM     19  C   UNL A   1      31.578  28.400  25.089  1.00  0.00     0.078 A 
ATOM     20  C   UNL A   1      30.697  28.321  24.012  1.00  0.00     0.141 A 
ATOM     21  Cl  UNL A   1      32.634  29.753  25.245  1.00  0.00    -0.081 Cl
ATOM     22  F   UNL A   1      30.606  29.317  23.119  1.00  0.00    -0.205 F 
ENDBRANCH  13  15
ENDBRANCH   8  11
ENDBRANCH   3   5
ENDBRANCH   2   3
ENDBRANCH   1   2
BRANCH   1  23
ATOM     23  C   UNL A   1      37.012  21.706  24.344  1.00  0.00     0.275 C 
BRANCH  23  24
ATOM     24  O   UNL A   1      37.360  21.804  25.736  1.00  0.00    -0.458 OA
BRANCH  24  25
ATOM     25  C   UNL A   1      38.644  21.496  26.028  1.00  0.00     0.338 C 
ATOM     26  O   UNL A   1      39.233  20.452  25.820  1.00  0.00    -0.246 OA
BRANCH  25  27
ATOM     27  C   UNL A   1      39.323  22.687  26.547  1.00  0.00     0.060 A 
ATOM     28  C   UNL A   1      38.871  23.943  26.132  1.00  0.00     0.016 A 
ATOM     29  C   UNL A   1      40.449  22.560  27.356  1.00  0.00     0.016 A 
ATOM     30  C   UNL A   1      39.559  25.088  26.510  1.00  0.00     0.010 A 
ATOM     31  C   UNL A   1      41.126  23.713  27.755  1.00  0.00     0.010 A 
ATOM     32  C   UNL A   1      40.689  24.978  27.328  1.00  0.00    -0.014 A 
BRANCH  32  33
ATOM     33  C   UNL A   1      41.425  26.190  27.743  1.00  0.00     0.031 A 
ATOM     34  C   UNL A   1      40.763  27.193  28.637  1.00  0.00     0.074 A 
ATOM     35  C   UNL A   1      42.672  26.393  27.285  1.00  0.00     0.049 A 
ATOM     36  N   UNL A   1      41.159  28.396  28.960  1.00  0.00    -0.248 NA
ATOM     37  C   UNL A   1      39.485  26.790  29.245  1.00  0.00     0.031 C 
ATOM     38  C   UNL A   1      43.435  25.455  26.460  1.00  0.00     0.029 A 
ATOM     39  N   UNL A   1      43.509  27.469  27.434  1.00  0.00    -0.354 N 
ATOM     40  C   UNL A   1      40.165  28.909  29.782  1.00  0.00     0.074 A 
ATOM     41  C   UNL A   1      39.148  27.887  29.911  1.00  0.00     0.031 C 
ATOM     42  C   UNL A   1      44.624  26.002  26.165  1.00  0.00     0.029 A 
ATOM     43  C   UNL A   1      44.678  27.347  26.726  1.00  0.00     0.049 A 
ATOM     44  H   UNL A   1      43.293  28.249  27.994  1.00  0.00     0.167 HD
ATOM     45  C   UNL A   1      40.107  30.130  30.364  1.00  0.00     0.031 A 
ATOM     46  C   UNL A   1      45.661  28.241  26.512  1.00  0.00     0.031 A 
ATOM     47  C   UNL A   1      41.124  31.137  30.225  1.00  0.00     0.049 A 
ATOM     48  C   UNL A   1      45.538  29.614  27.108  1.00  0.00     0.074 A 
ATOM     49  C   UNL A   1      41.161  32.408  30.770  1.00  0.00     0.029 A 
ATOM     50  N   UNL A   1      42.286  30.983  29.484  1.00  0.00    -0.354 N 
ATOM     51  N   UNL A   1      44.582  30.102  27.860  1.00  0.00    -0.248 NA
ATOM     52  C   UNL A   1      46.622  30.562  26.815  1.00  0.00     0.031 C 
ATOM     53  C   UNL A   1      42.330  33.036  30.329  1.00  0.00     0.029 A 
ATOM     54  C   UNL A   1      43.040  32.141  29.544  1.00  0.00     0.049 A 
ATOM     55  H   UNL A   1      42.538  30.170  28.989  1.00  0.00     0.167 HD
ATOM     56  C   UNL A   1      44.959  31.406  28.151  1.00  0.00     0.074 A 
ATOM     57  C   UNL A   1      46.232  31.631  27.497  1.00  0.00     0.031 C 
ATOM     58  C   UNL A   1      44.309  32.334  28.893  1.00  0.00     0.031 A 
BRANCH  45  59
ATOM     59  C   UNL A   1      38.880  30.455  31.163  1.00  0.00    -0.014 A 
ATOM     60  C   UNL A   1      38.824  30.223  32.545  1.00  0.00     0.009 A 
ATOM     61  C   UNL A   1      37.770  31.031  30.523  1.00  0.00     0.009 A 
ATOM     62  C   UNL A   1      37.670  30.536  33.268  1.00  0.00     0.001 A 
ATOM     63  C   UNL A   1      36.627  31.363  31.251  1.00  0.00     0.001 A 
ATOM     64  C   UNL A   1      36.575  31.108  32.621  1.00  0.00     0.000 A 
ENDBRANCH  45  59
BRANCH  46  65
ATOM     65  C   UNL A   1      46.817  27.875  25.658  1.00  0.00    -0.014 A 
ATOM     66  C   UNL A   1      48.010  27.411  26.231  1.00  0.00     0.009 A 
ATOM     67  C   UNL A   1      46.726  27.969  24.260  1.00  0.00     0.009 A 
ATOM     68  C   UNL A   1      49.093  27.062  25.422  1.00  0.00     0.001 A 
ATOM     69  C   UNL A   1      47.802  27.597  23.452  1.00  0.00     0.001 A 
ATOM     70  C   UNL A   1      48.986  27.149  24.034  1.00  0.00     0.000 A 
ENDBRANCH  46  65
BRANCH  58  71
ATOM     71  C   UNL A   1      44.986  33.660  29.076  1.00  0.00    -0.014 A 
ATOM     72  C   UNL A   1      45.933  33.856  30.092  1.00  0.00     0.009 A 
ATOM     73  C   UNL A   1      44.713  34.704  28.181  1.00  0.00     0.009 A 
ATOM     74  C   UNL A   1      46.582  35.085  30.217  1.00  0.00     0.001 A 
ATOM     75  C   UNL A   1      45.379  35.925  28.297  1.00  0.00     0.001 A 
ATOM     76  C   UNL A   1      46.309  36.115  29.317  1.00  0.00     0.000 A 
ENDBRANCH  58  71
ENDBRANCH  32  33
ENDBRANCH  25  27
ENDBRANCH  24  25
ENDBRANCH  23  24
ENDBRANCH   1  23
TORSDOF 13
ENDMDL
MODEL 2
REMARK VINA RESULT:     -11.4      4.303      8.600
REMARK SMILES C[C@H]1[C@H](C(=O)OCCOC(=O)c2ccc(-c3c4nc(c(-c5ccccc5)c5ccc([nH]5)c(-c5ccccc5)c5nc(c(-c6ccccc6)c6ccc3[nH]6)C=C5)C=C4)cc2)CCN1C(=O)Nc1ccc(F)c(Cl)c1
REMARK SMILES IDX 7 1 6 2 4 3 5 4 3 5 1 6 2 7 62 8 60 9 61 10 63 11 64 12
REMARK SMILES IDX 65 13 66 15 67 16 73 17 68 18 71 19 69 20 72 21 70 22 8 23
REMARK SMILES IDX 9 24 10 25 11 26 12 27 13 28 59 29 14 30 58 31 15 32 16 33
REMARK SMILES IDX 17 34 52 35 18 36 57 37 51 38 53 39 19 40 56 41 50 42 49 43
REMARK SMILES IDX 20 45 42 46 27 47 41 48 28 49 31 50 40 51 54 52 29 53 30 54
REMARK SMILES IDX 39 56 55 57 32 58 21 59 22 60 26 61 23 62 25 63 24 64 43 65
REMARK SMILES IDX 44 66 48 67 45 68 47 69 46 70 33 71 34 72 38 73 35 74 37 75
REMARK SMILES IDX 36 76
REMARK H PARENT 65 14 53 44 31 55
REMARK Flexibility Score: inf
ROOT
ATOM      1  C   UNL A   1      31.570  30.850  26.508  1.00  0.00     0.274 C 
ENDROOT
BRANCH   1   2
ATOM      2  O   UNL A   1      32.384  29.939  27.273  1.00  0.00    -0.462 OA
BRANCH   2   3
ATOM      3  C   UNL A   1      31.978  28.645  27.292  1.00  0.00     0.311 C 
ATOM      4  O   UNL A   1      31.107  28.197  28.032  1.00  0.00    -0.252 OA
BRANCH   3   5
ATOM      5  C   UNL A   1      32.755  27.756  26.347  1.00  0.00     0.123 C 
ATOM      6  C   UNL A   1      31.770  25.695  25.270  1.00  0.00     0.032 C 
ATOM      7  C   UNL A   1      31.961  27.211  25.138  1.00  0.00     0.098 C 
ATOM      8  N   UNL A   1      32.774  27.555  23.963  1.00  0.00    -0.321 N 
ATOM      9  C   UNL A   1      33.932  28.531  25.763  1.00  0.00     0.039 C 
ATOM     10  C   UNL A   1      34.109  27.940  24.384  1.00  0.00     0.122 C 
BRANCH   8  11
ATOM     11  C   UNL A   1      32.554  27.365  22.627  1.00  0.00     0.322 C 
ATOM     12  O   UNL A   1      33.428  26.869  21.906  1.00  0.00    -0.248 OA
ATOM     13  N   UNL A   1      31.338  27.532  22.058  1.00  0.00    -0.308 N 
ATOM     14  H   UNL A   1      31.195  26.931  21.292  1.00  0.00     0.171 HD
BRANCH  13  15
ATOM     15  C   UNL A   1      30.234  28.355  22.303  1.00  0.00     0.044 A 
ATOM     16  C   UNL A   1      30.418  29.729  22.099  1.00  0.00     0.029 A 
ATOM     17  C   UNL A   1      29.019  27.888  22.805  1.00  0.00     0.049 A 
ATOM     18  C   UNL A   1      29.365  30.621  22.289  1.00  0.00     0.043 A 
ATOM     19  C   UNL A   1      27.975  28.791  23.034  1.00  0.00     0.078 A 
ATOM     20  C   UNL A   1      28.143  30.145  22.750  1.00  0.00     0.141 A 
ATOM     21  Cl  UNL A   1      26.495  28.228  23.712  1.00  0.00    -0.081 Cl
ATOM     22  F   UNL A   1      27.143  31.019  22.933  1.00  0.00    -0.205 F 
ENDBRANCH  13  15
ENDBRANCH   8  11
ENDBRANCH   3   5
ENDBRANCH   2   3
ENDBRANCH   1   2
BRANCH   1  23
ATOM     23  C   UNL A   1      31.530  32.250  27.125  1.00  0.00     0.275 C 
BRANCH  23  24
ATOM     24  O   UNL A   1      32.784  32.943  26.990  1.00  0.00    -0.458 OA
BRANCH  24  25
ATOM     25  C   UNL A   1      33.085  33.783  28.006  1.00  0.00     0.338 C 
ATOM     26  O   UNL A   1      32.403  34.678  28.469  1.00  0.00    -0.246 OA
BRANCH  25  27
ATOM     27  C   UNL A   1      34.363  33.385  28.603  1.00  0.00     0.060 A 
ATOM     28  C   UNL A   1      35.537  33.948  28.095  1.00  0.00     0.016 A 
ATOM     29  C   UNL A   1      34.406  32.397  29.584  1.00  0.00     0.016 A 
ATOM     30  C   UNL A   1      36.772  33.512  28.554  1.00  0.00     0.010 A 
ATOM     31  C   UNL A   1      35.647  31.976  30.063  1.00  0.00     0.010 A 
ATOM     32  C   UNL A   1      36.833  32.525  29.544  1.00  0.00    -0.014 A 
BRANCH  32  33
ATOM     33  C   UNL A   1      38.141  32.058  30.047  1.00  0.00     0.031 A 
ATOM     34  C   UNL A   1      38.749  30.808  29.491  1.00  0.00     0.074 A 
ATOM     35  C   UNL A   1      38.755  32.747  31.025  1.00  0.00     0.049 A 
ATOM     36  N   UNL A   1      39.783  30.133  29.921  1.00  0.00    -0.248 NA
ATOM     37  C   UNL A   1      38.108  30.240  28.294  1.00  0.00     0.031 C 
ATOM     38  C   UNL A   1      38.285  34.009  31.596  1.00  0.00     0.029 A 
ATOM     39  N   UNL A   1      39.902  32.466  31.723  1.00  0.00    -0.354 N 
ATOM     40  C   UNL A   1      39.898  29.042  29.070  1.00  0.00     0.074 A 
ATOM     41  C   UNL A   1      38.831  29.146  28.097  1.00  0.00     0.031 C 
ATOM     42  C   UNL A   1      39.128  34.389  32.569  1.00  0.00     0.029 A 
ATOM     43  C   UNL A   1      40.158  33.367  32.727  1.00  0.00     0.049 A 
ATOM     44  H   UNL A   1      40.482  31.697  31.524  1.00  0.00     0.167 HD
ATOM     45  C   UNL A   1      40.807  28.041  29.110  1.00  0.00     0.031 A 
ATOM     46  C   UNL A   1      41.089  33.344  33.697  1.00  0.00     0.031 A 
ATOM     47  C   UNL A   1      41.860  27.949  30.084  1.00  0.00     0.049 A 
ATOM     48  C   UNL A   1      42.041  32.184  33.765  1.00  0.00     0.074 A 
ATOM     49  C   UNL A   1      42.833  26.974  30.216  1.00  0.00     0.029 A 
ATOM     50  N   UNL A   1      42.077  28.872  31.097  1.00  0.00    -0.354 N 
ATOM     51  N   UNL A   1      42.126  31.142  32.975  1.00  0.00    -0.248 NA
ATOM     52  C   UNL A   1      43.015  32.192  34.865  1.00  0.00     0.031 C 
ATOM     53  C   UNL A   1      43.616  27.288  31.331  1.00  0.00     0.029 A 
ATOM     54  C   UNL A   1      43.157  28.481  31.867  1.00  0.00     0.049 A 
ATOM     55  H   UNL A   1      41.541  29.685  31.245  1.00  0.00     0.167 HD
ATOM     56  C   UNL A   1      43.177  30.380  33.466  1.00  0.00     0.074 A 
ATOM     57  C   UNL A   1      43.701  31.082  34.620  1.00  0.00     0.031 C 
ATOM     58  C   UNL A   1      43.664  29.204  33.003  1.00  0.00     0.031 A 
BRANCH  45  59
ATOM     59  C   UNL A   1      40.669  26.942  28.098  1.00  0.00    -0.014 A 
ATOM     60  C   UNL A   1      41.305  27.013  26.850  1.00  0.00     0.009 A 
ATOM     61  C   UNL A   1      39.909  25.803  28.412  1.00  0.00     0.009 A 
ATOM     62  C   UNL A   1      41.163  25.975  25.925  1.00  0.00     0.001 A 
ATOM     63  C   UNL A   1      39.786  24.759  27.495  1.00  0.00     0.001 A 
ATOM     64  C   UNL A   1      40.406  24.850  26.249  1.00  0.00     0.000 A 
ENDBRANCH  45  59
BRANCH  46  65
ATOM     65  C   UNL A   1      41.130  34.431  34.706  1.00  0.00    -0.014 A 
ATOM     66  C   UNL A   1      41.918  35.571  34.495  1.00  0.00     0.009 A 
ATOM     67  C   UNL A   1      40.362  34.342  35.878  1.00  0.00     0.009 A 
ATOM     68  C   UNL A   1      41.948  36.595  35.445  1.00  0.00     0.001 A 
ATOM     69  C   UNL A   1      40.375  35.377  36.815  1.00  0.00     0.001 A 
ATOM     70  C   UNL A   1      41.172  36.499  36.600  1.00  0.00     0.000 A 
ENDBRANCH  46  65
BRANCH  58  71
ATOM     71  C   UNL A   1      44.852  28.628  33.716  1.00  0.00    -0.014 A 
ATOM     72  C   UNL A   1      44.693  27.710  34.764  1.00  0.00     0.009 A 
ATOM     73  C   UNL A   1      46.144  28.966  33.289  1.00  0.00     0.009 A 
ATOM     74  C   UNL A   1      45.813  27.154  35.384  1.00  0.00     0.001 A 
ATOM     75  C   UNL A   1      47.260  28.393  33.899  1.00  0.00     0.001 A 
ATOM     76  C   UNL A   1      47.094  27.491  34.948  1.00  0.00     0.000 A 
ENDBRANCH  58  71
ENDBRANCH  32  33
ENDBRANCH  25  27
ENDBRANCH  24  25
ENDBRANCH  23  24
ENDBRANCH   1  23
TORSDOF 13
ENDMDL
MODEL 3
REMARK VINA RESULT:     -11.4      3.389      6.972
REMARK SMILES C[C@H]1[C@H](C(=O)OCCOC(=O)c2ccc(-c3c4nc(c(-c5ccccc5)c5ccc([nH]5)c(-c5ccccc5)c5nc(c(-c6ccccc6)c6ccc3[nH]6)C=C5)C=C4)cc2)CCN1C(=O)Nc1ccc(F)c(Cl)c1
REMARK SMILES IDX 7 1 6 2 4 3 5 4 3 5 1 6 2 7 62 8 60 9 61 10 63 11 64 12
REMARK SMILES IDX 65 13 66 15 67 16 73 17 68 18 71 19 69 20 72 21 70 22 8 23
REMARK SMILES IDX 9 24 10 25 11 26 12 27 13 28 59 29 14 30 58 31 15 32 16 33
REMARK SMILES IDX 17 34 52 35 18 36 57 37 51 38 53 39 19 40 56 41 50 42 49 43
REMARK SMILES IDX 20 45 42 46 27 47 41 48 28 49 31 50 40 51 54 52 29 53 30 54
REMARK SMILES IDX 39 56 55 57 32 58 21 59 22 60 26 61 23 62 25 63 24 64 43 65
REMARK SMILES IDX 44 66 48 67 45 68 47 69 46 70 33 71 34 72 38 73 35 74 37 75
REMARK SMILES IDX 36 76
REMARK H PARENT 65 14 53 44 31 55
REMARK Flexibility Score: inf
ROOT
ATOM      1  C   UNL A   1      31.794  29.660  27.179  1.00  0.00     0.274 C 
ENDROOT
BRANCH   1   2
ATOM      2  O   UNL A   1      32.222  28.285  27.109  1.00  0.00    -0.462 OA
BRANCH   2   3
ATOM      3  C   UNL A   1      31.397  27.435  26.449  1.00  0.00     0.311 C 
ATOM      4  O   UNL A   1      30.652  26.623  26.989  1.00  0.00    -0.252 OA
BRANCH   3   5
ATOM      5  C   UNL A   1      31.521  27.522  24.944  1.00  0.00     0.123 C 
ATOM      6  C   UNL A   1      33.601  28.355  23.778  1.00  0.00     0.032 C 
ATOM      7  C   UNL A   1      32.897  27.124  24.363  1.00  0.00     0.098 C 
ATOM      8  N   UNL A   1      32.599  26.127  23.326  1.00  0.00    -0.321 N 
ATOM      9  C   UNL A   1      30.504  26.594  24.289  1.00  0.00     0.039 C 
ATOM     10  C   UNL A   1      31.182  26.153  23.013  1.00  0.00     0.122 C 
BRANCH   8  11
ATOM     11  C   UNL A   1      33.421  25.396  22.513  1.00  0.00     0.322 C 
ATOM     12  O   UNL A   1      33.524  25.665  21.310  1.00  0.00    -0.248 OA
ATOM     13  N   UNL A   1      34.289  24.477  22.993  1.00  0.00    -0.308 N 
ATOM     14  H   UNL A   1      35.101  24.402  22.443  1.00  0.00     0.171 HD
BRANCH  13  15
ATOM     15  C   UNL A   1      34.306  23.607  24.088  1.00  0.00     0.044 A 
ATOM     16  C   UNL A   1      34.731  24.145  25.311  1.00  0.00     0.029 A 
ATOM     17  C   UNL A   1      34.006  22.248  23.999  1.00  0.00     0.049 A 
ATOM     18  C   UNL A   1      34.752  23.359  26.461  1.00  0.00     0.043 A 
ATOM     19  C   UNL A   1      34.067  21.451  25.148  1.00  0.00     0.078 A 
ATOM     20  C   UNL A   1      34.411  22.014  26.375  1.00  0.00     0.141 A 
ATOM     21  Cl  UNL A   1      33.756  19.760  25.030  1.00  0.00    -0.081 Cl
ATOM     22  F   UNL A   1      34.444  21.272  27.491  1.00  0.00    -0.205 F 
ENDBRANCH  13  15
ENDBRANCH   8  11
ENDBRANCH   3   5
ENDBRANCH   2   3
ENDBRANCH   1   2
BRANCH   1  23
ATOM     23  C   UNL A   1      32.921  30.637  26.833  1.00  0.00     0.275 C 
BRANCH  23  24
ATOM     24  O   UNL A   1      34.217  30.123  27.184  1.00  0.00    -0.458 OA
BRANCH  24  25
ATOM     25  C   UNL A   1      34.829  30.765  28.205  1.00  0.00     0.338 C 
ATOM     26  O   UNL A   1      34.378  31.638  28.923  1.00  0.00    -0.246 OA
BRANCH  25  27
ATOM     27  C   UNL A   1      36.145  30.163  28.439  1.00  0.00     0.060 A 
ATOM     28  C   UNL A   1      36.419  29.638  29.705  1.00  0.00     0.016 A 
ATOM     29  C   UNL A   1      37.125  30.204  27.450  1.00  0.00     0.016 A 
ATOM     30  C   UNL A   1      37.691  29.164  29.999  1.00  0.00     0.010 A 
ATOM     31  C   UNL A   1      38.396  29.706  27.739  1.00  0.00     0.010 A 
ATOM     32  C   UNL A   1      38.685  29.193  29.015  1.00  0.00    -0.014 A 
BRANCH  32  33
ATOM     33  C   UNL A   1      40.039  28.684  29.314  1.00  0.00     0.031 A 
ATOM     34  C   UNL A   1      41.048  29.586  29.955  1.00  0.00     0.074 A 
ATOM     35  C   UNL A   1      40.359  27.424  28.975  1.00  0.00     0.049 A 
ATOM     36  N   UNL A   1      42.330  29.398  30.126  1.00  0.00    -0.248 NA
ATOM     37  C   UNL A   1      40.549  30.871  30.470  1.00  0.00     0.031 C 
ATOM     38  C   UNL A   1      39.439  26.440  28.403  1.00  0.00     0.029 A 
ATOM     39  N   UNL A   1      41.559  26.762  29.046  1.00  0.00    -0.354 N 
ATOM     40  C   UNL A   1      42.800  30.552  30.737  1.00  0.00     0.074 A 
ATOM     41  C   UNL A   1      41.666  31.435  30.910  1.00  0.00     0.031 C 
ATOM     42  C   UNL A   1      40.110  25.303  28.161  1.00  0.00     0.029 A 
ATOM     43  C   UNL A   1      41.515  25.502  28.504  1.00  0.00     0.049 A 
ATOM     44  H   UNL A   1      42.369  27.152  29.446  1.00  0.00     0.167 HD
ATOM     45  C   UNL A   1      44.068  30.847  31.107  1.00  0.00     0.031 A 
ATOM     46  C   UNL A   1      42.506  24.625  28.265  1.00  0.00     0.031 A 
ATOM     47  C   UNL A   1      45.186  29.962  30.927  1.00  0.00     0.049 A 
ATOM     48  C   UNL A   1      43.916  25.005  28.616  1.00  0.00     0.074 A 
ATOM     49  C   UNL A   1      46.512  30.165  31.263  1.00  0.00     0.029 A 
ATOM     50  N   UNL A   1      45.104  28.700  30.358  1.00  0.00    -0.354 N 
ATOM     51  N   UNL A   1      44.357  26.109  29.167  1.00  0.00    -0.248 NA
ATOM     52  C   UNL A   1      44.963  24.024  28.302  1.00  0.00     0.031 C 
ATOM     53  C   UNL A   1      47.240  29.039  30.864  1.00  0.00     0.029 A 
ATOM     54  C   UNL A   1      46.359  28.119  30.319  1.00  0.00     0.049 A 
ATOM     55  H   UNL A   1      44.276  28.279  30.031  1.00  0.00     0.167 HD
ATOM     56  C   UNL A   1      45.730  25.949  29.288  1.00  0.00     0.074 A 
ATOM     57  C   UNL A   1      46.048  24.639  28.756  1.00  0.00     0.031 C 
ATOM     58  C   UNL A   1      46.646  26.809  29.794  1.00  0.00     0.031 A 
BRANCH  45  59
ATOM     59  C   UNL A   1      44.316  32.203  31.699  1.00  0.00    -0.014 A 
ATOM     60  C   UNL A   1      44.618  33.310  30.892  1.00  0.00     0.009 A 
ATOM     61  C   UNL A   1      44.216  32.380  33.089  1.00  0.00     0.009 A 
ATOM     62  C   UNL A   1      44.842  34.563  31.468  1.00  0.00     0.001 A 
ATOM     63  C   UNL A   1      44.420  33.637  33.659  1.00  0.00     0.001 A 
ATOM     64  C   UNL A   1      44.740  34.726  32.849  1.00  0.00     0.000 A 
ENDBRANCH  45  59
BRANCH  46  65
ATOM     65  C   UNL A   1      42.199  23.325  27.617  1.00  0.00    -0.014 A 
ATOM     66  C   UNL A   1      41.729  22.244  28.375  1.00  0.00     0.009 A 
ATOM     67  C   UNL A   1      42.359  23.167  26.231  1.00  0.00     0.009 A 
ATOM     68  C   UNL A   1      41.436  21.025  27.759  1.00  0.00     0.001 A 
ATOM     69  C   UNL A   1      42.043  21.955  25.614  1.00  0.00     0.001 A 
ATOM     70  C   UNL A   1      41.588  20.884  26.380  1.00  0.00     0.000 A 
ENDBRANCH  46  65
BRANCH  58  71
ATOM     71  C   UNL A   1      48.070  26.342  29.840  1.00  0.00    -0.014 A 
ATOM     72  C   UNL A   1      48.922  26.504  28.738  1.00  0.00     0.009 A 
ATOM     73  C   UNL A   1      48.577  25.788  31.024  1.00  0.00     0.009 A 
ATOM     74  C   UNL A   1      50.256  26.102  28.818  1.00  0.00     0.001 A 
ATOM     75  C   UNL A   1      49.916  25.406  31.107  1.00  0.00     0.001 A 
ATOM     76  C   UNL A   1      50.753  25.558  30.003  1.00  0.00     0.000 A 
ENDBRANCH  58  71
ENDBRANCH  32  33
ENDBRANCH  25  27
ENDBRANCH  24  25
ENDBRANCH  23  24
ENDBRANCH   1  23
TORSDOF 13
ENDMDL
