MODEL 1
REMARK VINA RESULT:     -11.5      0.000      0.000
REMARK SMILES CN(CC(=O)OCCOC(=O)c1ccc(-c2c3nc(c(-c4ccccc4)c4ccc([nH]4)c(-c4ccccc4)c4nc(c(-c5ccccc5)c5ccc2[nH]5)C=C4)C=C3)cc1)c1ncc(-c2nnnn2-c2ccccc2)c(-c2ccc(Cl)cc2)n1
REMARK SMILES IDX 7 1 6 2 4 3 5 4 3 5 2 6 1 7 60 8 61 9 83 10 62 11 75 12
REMARK SMILES IDX 63 13 76 14 77 15 82 16 78 17 81 18 79 19 80 20 64 21 65 22
REMARK SMILES IDX 68 23 66 24 67 25 69 26 70 27 74 28 71 29 73 30 72 31 8 32
REMARK SMILES IDX 9 33 10 34 11 35 12 36 13 37 59 38 14 39 58 40 15 41 16 42
REMARK SMILES IDX 17 43 52 44 18 45 57 46 51 47 53 48 19 49 56 50 50 51 49 52
REMARK SMILES IDX 20 54 42 55 27 56 41 57 28 58 31 59 40 60 54 61 29 62 30 63
REMARK SMILES IDX 39 65 55 66 32 67 21 68 22 69 26 70 23 71 25 72 24 73 43 74
REMARK SMILES IDX 44 75 48 76 45 77 47 78 46 79 33 80 34 81 38 82 35 83 37 84
REMARK SMILES IDX 36 85
REMARK H PARENT 53 53 31 64
REMARK Flexibility Score: inf
ROOT
ATOM      1  C   UNL A   1      37.296  21.062  24.635  1.00  0.00     0.274 C 
ENDROOT
BRANCH   1   2
ATOM      2  O   UNL A   1      36.057  20.656  25.250  1.00  0.00    -0.461 OA
BRANCH   2   3
ATOM      3  C   UNL A   1      34.952  21.306  24.807  1.00  0.00     0.325 C 
ATOM      4  O   UNL A   1      34.966  22.174  23.934  1.00  0.00    -0.250 OA
BRANCH   3   5
ATOM      5  C   UNL A   1      33.646  20.925  25.491  1.00  0.00     0.241 C 
BRANCH   5   6
ATOM      6  N   UNL A   1      33.052  21.873  26.439  1.00  0.00    -0.333 N 
ATOM      7  C   UNL A   1      33.830  22.200  27.618  1.00  0.00     0.147 C 
BRANCH   6   8
ATOM      8  C   UNL A   1      32.386  22.931  25.842  1.00  0.00     0.226 A 
ATOM      9  N   UNL A   1      31.544  22.658  24.846  1.00  0.00    -0.221 NA
ATOM     10  N   UNL A   1      32.603  24.184  26.278  1.00  0.00    -0.212 NA
ATOM     11  C   UNL A   1      30.817  23.677  24.349  1.00  0.00     0.129 A 
ATOM     12  C   UNL A   1      31.910  25.208  25.713  1.00  0.00     0.087 A 
ATOM     13  C   UNL A   1      30.935  24.990  24.757  1.00  0.00     0.066 A 
BRANCH  12  14
ATOM     14  C   UNL A   1      32.301  26.540  26.204  1.00  0.00     0.001 A 
ATOM     15  C   UNL A   1      33.633  26.975  26.066  1.00  0.00     0.012 A 
ATOM     16  C   UNL A   1      31.382  27.413  26.812  1.00  0.00     0.012 A 
ATOM     17  C   UNL A   1      34.029  28.244  26.500  1.00  0.00     0.021 A 
ATOM     18  C   UNL A   1      31.776  28.683  27.249  1.00  0.00     0.021 A 
ATOM     19  C   UNL A   1      33.097  29.094  27.088  1.00  0.00     0.041 A 
ATOM     20  Cl  UNL A   1      33.578  30.657  27.622  1.00  0.00    -0.084 Cl
ENDBRANCH  12  14
BRANCH  13  21
ATOM     21  C   UNL A   1      30.077  26.013  24.181  1.00  0.00     0.190 A 
ATOM     22  N   UNL A   1      28.768  26.101  24.312  1.00  0.00    -0.108 NA
ATOM     23  N   UNL A   1      30.523  27.171  23.553  1.00  0.00    -0.193 N 
ATOM     24  N   UNL A   1      28.420  27.351  23.875  1.00  0.00    -0.023 NA
ATOM     25  N   UNL A   1      29.485  28.033  23.480  1.00  0.00    -0.040 NA
BRANCH  23  26
ATOM     26  C   UNL A   1      31.816  27.504  23.084  1.00  0.00     0.069 A 
ATOM     27  C   UNL A   1      32.538  26.567  22.338  1.00  0.00     0.028 A 
ATOM     28  C   UNL A   1      32.362  28.772  23.330  1.00  0.00     0.028 A 
ATOM     29  C   UNL A   1      33.766  26.929  21.777  1.00  0.00     0.002 A 
ATOM     30  C   UNL A   1      33.601  29.116  22.792  1.00  0.00     0.002 A 
ATOM     31  C   UNL A   1      34.293  28.202  22.000  1.00  0.00     0.000 A 
ENDBRANCH  23  26
ENDBRANCH  13  21
ENDBRANCH   6   8
ENDBRANCH   5   6
ENDBRANCH   3   5
ENDBRANCH   2   3
ENDBRANCH   1   2
BRANCH   1  32
ATOM     32  C   UNL A   1      38.356  21.376  25.692  1.00  0.00     0.275 C 
BRANCH  32  33
ATOM     33  O   UNL A   1      38.578  22.796  25.765  1.00  0.00    -0.458 OA
BRANCH  33  34
ATOM     34  C   UNL A   1      39.808  23.157  26.191  1.00  0.00     0.338 C 
ATOM     35  O   UNL A   1      40.832  22.495  26.125  1.00  0.00    -0.246 OA
BRANCH  34  36
ATOM     36  C   UNL A   1      39.776  24.500  26.809  1.00  0.00     0.060 A 
ATOM     37  C   UNL A   1      40.406  25.603  26.224  1.00  0.00     0.016 A 
ATOM     38  C   UNL A   1      39.194  24.615  28.074  1.00  0.00     0.016 A 
ATOM     39  C   UNL A   1      40.518  26.801  26.939  1.00  0.00     0.010 A 
ATOM     40  C   UNL A   1      39.265  25.823  28.766  1.00  0.00     0.010 A 
ATOM     41  C   UNL A   1      39.967  26.910  28.224  1.00  0.00    -0.014 A 
BRANCH  41  42
ATOM     42  C   UNL A   1      40.174  28.121  29.056  1.00  0.00     0.031 A 
ATOM     43  C   UNL A   1      41.399  28.226  29.926  1.00  0.00     0.074 A 
ATOM     44  C   UNL A   1      39.258  29.105  29.064  1.00  0.00     0.049 A 
ATOM     45  N   UNL A   1      41.705  29.133  30.819  1.00  0.00    -0.248 NA
ATOM     46  C   UNL A   1      42.407  27.163  29.776  1.00  0.00     0.031 C 
ATOM     47  C   UNL A   1      38.046  29.140  28.246  1.00  0.00     0.029 A 
ATOM     48  N   UNL A   1      39.206  30.264  29.795  1.00  0.00    -0.354 N 
ATOM     49  C   UNL A   1      42.925  28.737  31.356  1.00  0.00     0.074 A 
ATOM     50  C   UNL A   1      43.296  27.502  30.698  1.00  0.00     0.031 C 
ATOM     51  C   UNL A   1      37.377  30.275  28.508  1.00  0.00     0.029 A 
ATOM     52  C   UNL A   1      38.087  31.019  29.545  1.00  0.00     0.049 A 
ATOM     53  H   UNL A   1      39.904  30.531  30.436  1.00  0.00     0.167 HD
ATOM     54  C   UNL A   1      43.668  29.345  32.313  1.00  0.00     0.031 A 
ATOM     55  C   UNL A   1      37.669  32.170  30.101  1.00  0.00     0.031 A 
ATOM     56  C   UNL A   1      43.300  30.572  32.969  1.00  0.00     0.049 A 
ATOM     57  C   UNL A   1      38.487  32.804  31.189  1.00  0.00     0.074 A 
ATOM     58  C   UNL A   1      43.984  31.265  33.953  1.00  0.00     0.029 A 
ATOM     59  N   UNL A   1      42.146  31.291  32.700  1.00  0.00    -0.354 N 
ATOM     60  N   UNL A   1      39.624  32.405  31.705  1.00  0.00    -0.248 NA
ATOM     61  C   UNL A   1      37.960  34.046  31.772  1.00  0.00     0.031 C 
ATOM     62  C   UNL A   1      43.226  32.391  34.301  1.00  0.00     0.029 A 
ATOM     63  C   UNL A   1      42.094  32.418  33.505  1.00  0.00     0.049 A 
ATOM     64  H   UNL A   1      41.465  31.040  32.036  1.00  0.00     0.167 HD
ATOM     65  C   UNL A   1      39.960  33.356  32.660  1.00  0.00     0.074 A 
ATOM     66  C   UNL A   1      38.911  34.356  32.643  1.00  0.00     0.031 C 
ATOM     67  C   UNL A   1      41.040  33.398  33.476  1.00  0.00     0.031 A 
BRANCH  54  68
ATOM     68  C   UNL A   1      44.942  28.666  32.728  1.00  0.00    -0.014 A 
ATOM     69  C   UNL A   1      46.166  28.980  32.117  1.00  0.00     0.009 A 
ATOM     70  C   UNL A   1      44.921  27.713  33.758  1.00  0.00     0.009 A 
ATOM     71  C   UNL A   1      47.338  28.329  32.509  1.00  0.00     0.001 A 
ATOM     72  C   UNL A   1      46.098  27.080  34.162  1.00  0.00     0.001 A 
ATOM     73  C   UNL A   1      47.304  27.383  33.533  1.00  0.00     0.000 A 
ENDBRANCH  54  68
BRANCH  55  74
ATOM     74  C   UNL A   1      36.410  32.798  29.631  1.00  0.00    -0.014 A 
ATOM     75  C   UNL A   1      35.248  32.720  30.413  1.00  0.00     0.009 A 
ATOM     76  C   UNL A   1      36.369  33.500  28.417  1.00  0.00     0.009 A 
ATOM     77  C   UNL A   1      34.067  33.329  29.985  1.00  0.00     0.001 A 
ATOM     78  C   UNL A   1      35.192  34.126  28.002  1.00  0.00     0.001 A 
ATOM     79  C   UNL A   1      34.042  34.037  28.785  1.00  0.00     0.000 A 
ENDBRANCH  55  74
BRANCH  67  80
ATOM     80  C   UNL A   1      41.153  34.584  34.389  1.00  0.00    -0.014 A 
ATOM     81  C   UNL A   1      41.916  35.705  34.029  1.00  0.00     0.009 A 
ATOM     82  C   UNL A   1      40.477  34.581  35.618  1.00  0.00     0.009 A 
ATOM     83  C   UNL A   1      42.026  36.789  34.902  1.00  0.00     0.001 A 
ATOM     84  C   UNL A   1      40.574  35.674  36.480  1.00  0.00     0.001 A 
ATOM     85  C   UNL A   1      41.355  36.773  36.125  1.00  0.00     0.000 A 
ENDBRANCH  67  80
ENDBRANCH  41  42
ENDBRANCH  34  36
ENDBRANCH  33  34
ENDBRANCH  32  33
ENDBRANCH   1  32
TORSDOF 16
ENDMDL
MODEL 2
REMARK VINA RESULT:     -11.4      2.473      4.041
REMARK SMILES CN(CC(=O)OCCOC(=O)c1ccc(-c2c3nc(c(-c4ccccc4)c4ccc([nH]4)c(-c4ccccc4)c4nc(c(-c5ccccc5)c5ccc2[nH]5)C=C4)C=C3)cc1)c1ncc(-c2nnnn2-c2ccccc2)c(-c2ccc(Cl)cc2)n1
REMARK SMILES IDX 7 1 6 2 4 3 5 4 3 5 2 6 1 7 60 8 61 9 83 10 62 11 75 12
REMARK SMILES IDX 63 13 76 14 77 15 82 16 78 17 81 18 79 19 80 20 64 21 65 22
REMARK SMILES IDX 68 23 66 24 67 25 69 26 70 27 74 28 71 29 73 30 72 31 8 32
REMARK SMILES IDX 9 33 10 34 11 35 12 36 13 37 59 38 14 39 58 40 15 41 16 42
REMARK SMILES IDX 17 43 52 44 18 45 57 46 51 47 53 48 19 49 56 50 50 51 49 52
REMARK SMILES IDX 20 54 42 55 27 56 41 57 28 58 31 59 40 60 54 61 29 62 30 63
REMARK SMILES IDX 39 65 55 66 32 67 21 68 22 69 26 70 23 71 25 72 24 73 43 74
REMARK SMILES IDX 44 75 48 76 45 77 47 78 46 79 33 80 34 81 38 82 35 83 37 84
REMARK SMILES IDX 36 85
REMARK H PARENT 53 53 31 64
REMARK Flexibility Score: inf
ROOT
ATOM      1  C   UNL A   1      42.348  20.973  26.050  1.00  0.00     0.274 C 
ENDROOT
BRANCH   1   2
ATOM      2  O   UNL A   1      41.161  21.751  25.798  1.00  0.00    -0.461 OA
BRANCH   2   3
ATOM      3  C   UNL A   1      39.993  21.152  26.140  1.00  0.00     0.325 C 
ATOM      4  O   UNL A   1      39.916  20.138  26.833  1.00  0.00    -0.250 OA
BRANCH   3   5
ATOM      5  C   UNL A   1      38.734  21.793  25.574  1.00  0.00     0.241 C 
BRANCH   5   6
ATOM      6  N   UNL A   1      38.137  22.920  26.298  1.00  0.00    -0.333 N 
ATOM      7  C   UNL A   1      38.804  24.203  26.185  1.00  0.00     0.147 C 
BRANCH   6   8
ATOM      8  C   UNL A   1      36.753  22.953  26.257  1.00  0.00     0.226 A 
ATOM      9  N   UNL A   1      36.089  21.878  26.682  1.00  0.00    -0.221 NA
ATOM     10  N   UNL A   1      36.127  24.050  25.798  1.00  0.00    -0.212 NA
ATOM     11  C   UNL A   1      34.747  21.961  26.746  1.00  0.00     0.129 A 
ATOM     12  C   UNL A   1      34.768  24.085  25.804  1.00  0.00     0.087 A 
ATOM     13  C   UNL A   1      34.014  23.057  26.338  1.00  0.00     0.066 A 
BRANCH  12  14
ATOM     14  C   UNL A   1      34.197  25.295  25.191  1.00  0.00     0.001 A 
ATOM     15  C   UNL A   1      33.846  25.292  23.827  1.00  0.00     0.012 A 
ATOM     16  C   UNL A   1      33.978  26.475  25.924  1.00  0.00     0.012 A 
ATOM     17  C   UNL A   1      33.279  26.417  23.222  1.00  0.00     0.021 A 
ATOM     18  C   UNL A   1      33.412  27.603  25.321  1.00  0.00     0.021 A 
ATOM     19  C   UNL A   1      33.061  27.568  23.973  1.00  0.00     0.041 A 
ATOM     20  Cl  UNL A   1      32.362  28.955  23.234  1.00  0.00    -0.084 Cl
ENDBRANCH  12  14
BRANCH  13  21
ATOM     21  C   UNL A   1      32.567  23.060  26.481  1.00  0.00     0.190 A 
ATOM     22  N   UNL A   1      31.871  23.710  27.394  1.00  0.00    -0.108 NA
ATOM     23  N   UNL A   1      31.670  22.529  25.560  1.00  0.00    -0.193 N 
ATOM     24  N   UNL A   1      30.567  23.679  26.980  1.00  0.00    -0.023 NA
ATOM     25  N   UNL A   1      30.445  23.028  25.833  1.00  0.00    -0.040 NA
BRANCH  23  26
ATOM     26  C   UNL A   1      31.906  21.658  24.470  1.00  0.00     0.069 A 
ATOM     27  C   UNL A   1      32.212  20.315  24.717  1.00  0.00     0.028 A 
ATOM     28  C   UNL A   1      31.801  22.119  23.149  1.00  0.00     0.028 A 
ATOM     29  C   UNL A   1      32.334  19.426  23.645  1.00  0.00     0.002 A 
ATOM     30  C   UNL A   1      31.953  21.232  22.085  1.00  0.00     0.002 A 
ATOM     31  C   UNL A   1      32.200  19.883  22.333  1.00  0.00     0.000 A 
ENDBRANCH  23  26
ENDBRANCH  13  21
ENDBRANCH   6   8
ENDBRANCH   5   6
ENDBRANCH   3   5
ENDBRANCH   2   3
ENDBRANCH   1   2
BRANCH   1  32
ATOM     32  C   UNL A   1      43.562  21.581  25.347  1.00  0.00     0.275 C 
BRANCH  32  33
ATOM     33  O   UNL A   1      43.216  22.852  24.768  1.00  0.00    -0.458 OA
BRANCH  33  34
ATOM     34  C   UNL A   1      44.044  23.869  25.093  1.00  0.00     0.338 C 
ATOM     35  O   UNL A   1      45.215  23.994  24.770  1.00  0.00    -0.246 OA
BRANCH  34  36
ATOM     36  C   UNL A   1      43.355  24.852  25.956  1.00  0.00     0.060 A 
ATOM     37  C   UNL A   1      43.611  26.224  25.872  1.00  0.00     0.016 A 
ATOM     38  C   UNL A   1      42.516  24.356  26.957  1.00  0.00     0.016 A 
ATOM     39  C   UNL A   1      43.086  27.091  26.836  1.00  0.00     0.010 A 
ATOM     40  C   UNL A   1      41.956  25.227  27.890  1.00  0.00     0.010 A 
ATOM     41  C   UNL A   1      42.273  26.593  27.865  1.00  0.00    -0.014 A 
BRANCH  41  42
ATOM     42  C   UNL A   1      41.803  27.463  28.971  1.00  0.00     0.031 A 
ATOM     43  C   UNL A   1      42.576  27.507  30.264  1.00  0.00     0.074 A 
ATOM     44  C   UNL A   1      40.675  28.182  28.838  1.00  0.00     0.049 A 
ATOM     45  N   UNL A   1      42.269  28.096  31.392  1.00  0.00    -0.248 NA
ATOM     46  C   UNL A   1      43.857  26.783  30.290  1.00  0.00     0.031 C 
ATOM     47  C   UNL A   1      39.852  28.251  27.631  1.00  0.00     0.029 A 
ATOM     48  N   UNL A   1      40.023  28.987  29.737  1.00  0.00    -0.354 N 
ATOM     49  C   UNL A   1      43.304  27.793  32.270  1.00  0.00     0.074 A 
ATOM     50  C   UNL A   1      44.239  26.957  31.547  1.00  0.00     0.031 C 
ATOM     51  C   UNL A   1      38.813  29.071  27.858  1.00  0.00     0.029 A 
ATOM     52  C   UNL A   1      38.871  29.542  29.240  1.00  0.00     0.049 A 
ATOM     53  H   UNL A   1      40.350  29.152  30.651  1.00  0.00     0.167 HD
ATOM     54  C   UNL A   1      43.460  28.173  33.561  1.00  0.00     0.031 A 
ATOM     55  C   UNL A   1      37.953  30.326  29.834  1.00  0.00     0.031 A 
ATOM     56  C   UNL A   1      42.531  29.003  34.281  1.00  0.00     0.049 A 
ATOM     57  C   UNL A   1      38.125  30.701  31.278  1.00  0.00     0.074 A 
ATOM     58  C   UNL A   1      42.598  29.440  35.593  1.00  0.00     0.029 A 
ATOM     59  N   UNL A   1      41.365  29.525  33.744  1.00  0.00    -0.354 N 
ATOM     60  N   UNL A   1      39.094  30.385  32.101  1.00  0.00    -0.248 NA
ATOM     61  C   UNL A   1      37.073  31.537  31.872  1.00  0.00     0.031 C 
ATOM     62  C   UNL A   1      41.455  30.205  35.858  1.00  0.00     0.029 A 
ATOM     63  C   UNL A   1      40.699  30.275  34.700  1.00  0.00     0.049 A 
ATOM     64  H   UNL A   1      41.055  29.385  32.820  1.00  0.00     0.167 HD
ATOM     65  C   UNL A   1      38.780  30.999  33.307  1.00  0.00     0.074 A 
ATOM     66  C   UNL A   1      37.536  31.715  33.102  1.00  0.00     0.031 C 
ATOM     67  C   UNL A   1      39.461  30.975  34.478  1.00  0.00     0.031 A 
BRANCH  54  68
ATOM     68  C   UNL A   1      44.673  27.662  34.286  1.00  0.00    -0.014 A 
ATOM     69  C   UNL A   1      44.639  26.454  34.998  1.00  0.00     0.009 A 
ATOM     70  C   UNL A   1      45.872  28.390  34.238  1.00  0.00     0.009 A 
ATOM     71  C   UNL A   1      45.774  26.001  35.676  1.00  0.00     0.001 A 
ATOM     72  C   UNL A   1      47.010  27.924  34.898  1.00  0.00     0.001 A 
ATOM     73  C   UNL A   1      46.959  26.735  35.622  1.00  0.00     0.000 A 
ENDBRANCH  54  68
BRANCH  55  74
ATOM     74  C   UNL A   1      36.788  30.812  29.055  1.00  0.00    -0.014 A 
ATOM     75  C   UNL A   1      36.699  32.164  28.688  1.00  0.00     0.009 A 
ATOM     76  C   UNL A   1      35.777  29.928  28.651  1.00  0.00     0.009 A 
ATOM     77  C   UNL A   1      35.617  32.621  27.934  1.00  0.00     0.001 A 
ATOM     78  C   UNL A   1      34.706  30.384  27.879  1.00  0.00     0.001 A 
ATOM     79  C   UNL A   1      34.625  31.730  27.525  1.00  0.00     0.000 A 
ENDBRANCH  55  74
BRANCH  67  80
ATOM     80  C   UNL A   1      38.889  31.775  35.610  1.00  0.00    -0.014 A 
ATOM     81  C   UNL A   1      38.155  31.158  36.636  1.00  0.00     0.009 A 
ATOM     82  C   UNL A   1      39.097  33.161  35.656  1.00  0.00     0.009 A 
ATOM     83  C   UNL A   1      37.613  31.925  37.669  1.00  0.00     0.001 A 
ATOM     84  C   UNL A   1      38.569  33.921  36.700  1.00  0.00     0.001 A 
ATOM     85  C   UNL A   1      37.820  33.304  37.701  1.00  0.00     0.000 A 
ENDBRANCH  67  80
ENDBRANCH  41  42
ENDBRANCH  34  36
ENDBRANCH  33  34
ENDBRANCH  32  33
ENDBRANCH   1  32
TORSDOF 16
ENDMDL
MODEL 3
REMARK VINA RESULT:     -11.3      2.684      6.675
REMARK SMILES CN(CC(=O)OCCOC(=O)c1ccc(-c2c3nc(c(-c4ccccc4)c4ccc([nH]4)c(-c4ccccc4)c4nc(c(-c5ccccc5)c5ccc2[nH]5)C=C4)C=C3)cc1)c1ncc(-c2nnnn2-c2ccccc2)c(-c2ccc(Cl)cc2)n1
REMARK SMILES IDX 7 1 6 2 4 3 5 4 3 5 2 6 1 7 60 8 61 9 83 10 62 11 75 12
REMARK SMILES IDX 63 13 76 14 77 15 82 16 78 17 81 18 79 19 80 20 64 21 65 22
REMARK SMILES IDX 68 23 66 24 67 25 69 26 70 27 74 28 71 29 73 30 72 31 8 32
REMARK SMILES IDX 9 33 10 34 11 35 12 36 13 37 59 38 14 39 58 40 15 41 16 42
REMARK SMILES IDX 17 43 52 44 18 45 57 46 51 47 53 48 19 49 56 50 50 51 49 52
REMARK SMILES IDX 20 54 42 55 27 56 41 57 28 58 31 59 40 60 54 61 29 62 30 63
REMARK SMILES IDX 39 65 55 66 32 67 21 68 22 69 26 70 23 71 25 72 24 73 43 74
REMARK SMILES IDX 44 75 48 76 45 77 47 78 46 79 33 80 34 81 38 82 35 83 37 84
REMARK SMILES IDX 36 85
REMARK H PARENT 53 53 31 64
REMARK Flexibility Score: inf
ROOT
ATOM      1  C   UNL A   1      37.650  21.077  24.979  1.00  0.00     0.274 C 
ENDROOT
BRANCH   1   2
ATOM      2  O   UNL A   1      36.524  21.531  25.755  1.00  0.00    -0.461 OA
BRANCH   2   3
ATOM      3  C   UNL A   1      35.427  21.876  25.036  1.00  0.00     0.325 C 
ATOM      4  O   UNL A   1      35.439  22.681  24.104  1.00  0.00    -0.250 OA
BRANCH   3   5
ATOM      5  C   UNL A   1      34.121  21.229  25.475  1.00  0.00     0.241 C 
BRANCH   5   6
ATOM      6  N   UNL A   1      33.253  21.965  26.399  1.00  0.00    -0.333 N 
ATOM      7  C   UNL A   1      33.789  22.260  27.714  1.00  0.00     0.147 C 
BRANCH   6   8
ATOM      8  C   UNL A   1      32.521  22.980  25.805  1.00  0.00     0.226 A 
ATOM      9  N   UNL A   1      31.682  22.652  24.822  1.00  0.00    -0.221 NA
ATOM     10  N   UNL A   1      32.672  24.246  26.229  1.00  0.00    -0.212 NA
ATOM     11  C   UNL A   1      30.892  23.624  24.328  1.00  0.00     0.129 A 
ATOM     12  C   UNL A   1      31.915  25.224  25.667  1.00  0.00     0.087 A 
ATOM     13  C   UNL A   1      30.941  24.945  24.726  1.00  0.00     0.066 A 
BRANCH  12  14
ATOM     14  C   UNL A   1      32.236  26.580  26.143  1.00  0.00     0.001 A 
ATOM     15  C   UNL A   1      33.539  27.089  25.984  1.00  0.00     0.012 A 
ATOM     16  C   UNL A   1      31.277  27.404  26.759  1.00  0.00     0.012 A 
ATOM     17  C   UNL A   1      33.868  28.381  26.404  1.00  0.00     0.021 A 
ATOM     18  C   UNL A   1      31.605  28.698  27.181  1.00  0.00     0.021 A 
ATOM     19  C   UNL A   1      32.897  29.182  26.999  1.00  0.00     0.041 A 
ATOM     20  Cl  UNL A   1      33.297  30.773  27.516  1.00  0.00    -0.084 Cl
ENDBRANCH  12  14
BRANCH  13  21
ATOM     21  C   UNL A   1      30.019  25.913  24.154  1.00  0.00     0.190 A 
ATOM     22  N   UNL A   1      28.712  25.948  24.330  1.00  0.00    -0.108 NA
ATOM     23  N   UNL A   1      30.391  27.072  23.480  1.00  0.00    -0.193 N 
ATOM     24  N   UNL A   1      28.295  27.169  23.873  1.00  0.00    -0.023 NA
ATOM     25  N   UNL A   1      29.314  27.886  23.423  1.00  0.00    -0.040 NA
BRANCH  23  26
ATOM     26  C   UNL A   1      31.651  27.447  22.957  1.00  0.00     0.069 A 
ATOM     27  C   UNL A   1      32.143  28.732  23.206  1.00  0.00     0.028 A 
ATOM     28  C   UNL A   1      32.422  26.533  22.223  1.00  0.00     0.028 A 
ATOM     29  C   UNL A   1      33.434  29.070  22.789  1.00  0.00     0.002 A 
ATOM     30  C   UNL A   1      33.696  26.888  21.785  1.00  0.00     0.002 A 
ATOM     31  C   UNL A   1      34.210  28.148  22.084  1.00  0.00     0.000 A 
ENDBRANCH  23  26
ENDBRANCH  13  21
ENDBRANCH   6   8
ENDBRANCH   5   6
ENDBRANCH   3   5
ENDBRANCH   2   3
ENDBRANCH   1   2
BRANCH   1  32
ATOM     32  C   UNL A   1      38.966  21.349  25.709  1.00  0.00     0.275 C 
BRANCH  32  33
ATOM     33  O   UNL A   1      39.559  20.110  26.140  1.00  0.00    -0.458 OA
BRANCH  33  34
ATOM     34  C   UNL A   1      40.897  20.032  25.972  1.00  0.00     0.338 C 
ATOM     35  O   UNL A   1      41.515  19.146  25.404  1.00  0.00    -0.246 OA
BRANCH  34  36
ATOM     36  C   UNL A   1      41.574  21.181  26.611  1.00  0.00     0.060 A 
ATOM     37  C   UNL A   1      41.634  21.330  28.000  1.00  0.00     0.016 A 
ATOM     38  C   UNL A   1      42.056  22.192  25.776  1.00  0.00     0.016 A 
ATOM     39  C   UNL A   1      42.108  22.524  28.552  1.00  0.00     0.010 A 
ATOM     40  C   UNL A   1      42.571  23.364  26.328  1.00  0.00     0.010 A 
ATOM     41  C   UNL A   1      42.559  23.558  27.718  1.00  0.00    -0.014 A 
BRANCH  41  42
ATOM     42  C   UNL A   1      42.950  24.881  28.264  1.00  0.00     0.031 A 
ATOM     43  C   UNL A   1      41.895  25.926  28.512  1.00  0.00     0.074 A 
ATOM     44  C   UNL A   1      44.244  25.161  28.504  1.00  0.00     0.049 A 
ATOM     45  N   UNL A   1      42.037  27.180  28.862  1.00  0.00    -0.248 NA
ATOM     46  C   UNL A   1      40.496  25.505  28.334  1.00  0.00     0.031 C 
ATOM     47  C   UNL A   1      45.358  24.228  28.335  1.00  0.00     0.029 A 
ATOM     48  N   UNL A   1      44.836  26.320  28.935  1.00  0.00    -0.354 N 
ATOM     49  C   UNL A   1      40.751  27.704  28.919  1.00  0.00     0.074 A 
ATOM     50  C   UNL A   1      39.843  26.637  28.556  1.00  0.00     0.031 C 
ATOM     51  C   UNL A   1      46.499  24.848  28.677  1.00  0.00     0.029 A 
ATOM     52  C   UNL A   1      46.202  26.231  29.039  1.00  0.00     0.049 A 
ATOM     53  H   UNL A   1      44.331  27.138  29.150  1.00  0.00     0.167 HD
ATOM     54  C   UNL A   1      40.361  28.961  29.241  1.00  0.00     0.031 A 
ATOM     55  C   UNL A   1      47.114  27.163  29.370  1.00  0.00     0.031 A 
ATOM     56  C   UNL A   1      41.262  30.023  29.602  1.00  0.00     0.049 A 
ATOM     57  C   UNL A   1      46.662  28.560  29.684  1.00  0.00     0.074 A 
ATOM     58  C   UNL A   1      40.964  31.332  29.941  1.00  0.00     0.029 A 
ATOM     59  N   UNL A   1      42.640  29.895  29.673  1.00  0.00    -0.354 N 
ATOM     60  N   UNL A   1      45.446  29.048  29.707  1.00  0.00    -0.248 NA
ATOM     61  C   UNL A   1      47.712  29.535  30.011  1.00  0.00     0.031 C 
ATOM     62  C   UNL A   1      42.168  32.004  30.190  1.00  0.00     0.029 A 
ATOM     63  C   UNL A   1      43.209  31.102  30.044  1.00  0.00     0.049 A 
ATOM     64  H   UNL A   1      43.141  29.068  29.488  1.00  0.00     0.167 HD
ATOM     65  C   UNL A   1      45.581  30.381  30.072  1.00  0.00     0.074 A 
ATOM     66  C   UNL A   1      46.997  30.621  30.269  1.00  0.00     0.031 C 
ATOM     67  C   UNL A   1      44.619  31.322  30.230  1.00  0.00     0.031 A 
BRANCH  54  68
ATOM     68  C   UNL A   1      38.889  29.259  29.186  1.00  0.00    -0.014 A 
ATOM     69  C   UNL A   1      38.279  29.692  27.999  1.00  0.00     0.009 A 
ATOM     70  C   UNL A   1      38.099  29.085  30.332  1.00  0.00     0.009 A 
ATOM     71  C   UNL A   1      36.912  29.976  27.970  1.00  0.00     0.001 A 
ATOM     72  C   UNL A   1      36.728  29.349  30.294  1.00  0.00     0.001 A 
ATOM     73  C   UNL A   1      36.137  29.801  29.116  1.00  0.00     0.000 A 
ENDBRANCH  54  68
BRANCH  55  74
ATOM     74  C   UNL A   1      48.550  26.797  29.425  1.00  0.00    -0.014 A 
ATOM     75  C   UNL A   1      49.362  26.952  28.292  1.00  0.00     0.009 A 
ATOM     76  C   UNL A   1      49.123  26.318  30.613  1.00  0.00     0.009 A 
ATOM     77  C   UNL A   1      50.719  26.631  28.345  1.00  0.00     0.001 A 
ATOM     78  C   UNL A   1      50.485  26.017  30.670  1.00  0.00     0.001 A 
ATOM     79  C   UNL A   1      51.281  26.171  29.536  1.00  0.00     0.000 A 
ENDBRANCH  55  74
BRANCH  67  80
ATOM     80  C   UNL A   1      45.070  32.683  30.672  1.00  0.00    -0.014 A 
ATOM     81  C   UNL A   1      45.395  33.677  29.737  1.00  0.00     0.009 A 
ATOM     82  C   UNL A   1      45.158  32.975  32.041  1.00  0.00     0.009 A 
ATOM     83  C   UNL A   1      45.834  34.930  30.169  1.00  0.00     0.001 A 
ATOM     84  C   UNL A   1      45.578  34.235  32.469  1.00  0.00     0.001 A 
ATOM     85  C   UNL A   1      45.924  35.208  31.533  1.00  0.00     0.000 A 
ENDBRANCH  67  80
ENDBRANCH  41  42
ENDBRANCH  34  36
ENDBRANCH  33  34
ENDBRANCH  32  33
ENDBRANCH   1  32
TORSDOF 16
ENDMDL
