MODEL 1
REMARK VINA RESULT:     -12.4      0.000      0.000
REMARK SMILES O=C(OCCOC(=O)[C@H]1Cc2c([nH]c3ccccc23)[C@H](c2c[nH]c3ccccc23)[NH2+]1)c1ccc(-c2c3nc(c(-c4ccccc4)c4ccc([nH]4)c(-c4ccccc4)c4nc(c(-c5ccccc5)c5ccc2[nH]5)C=C4)C=C3)cc1
REMARK SMILES IDX 4 1 3 2 2 3 1 4 31 5 32 6 78 7 33 8 77 9 34 10 35 11 36 12
REMARK SMILES IDX 71 13 37 14 76 15 70 16 72 17 38 18 75 19 69 20 68 21 39 23
REMARK SMILES IDX 61 24 46 25 60 26 47 27 50 28 59 29 73 30 48 31 49 32 58 34
REMARK SMILES IDX 74 35 51 36 40 37 41 38 45 39 42 40 44 41 43 42 62 43 63 44
REMARK SMILES IDX 67 45 64 46 66 47 65 48 52 49 53 50 57 51 54 52 56 53 55 54
REMARK SMILES IDX 5 55 6 56 7 57 8 58 9 59 10 60 30 61 11 62 20 63 12 66 19 67
REMARK SMILES IDX 13 68 14 69 18 70 15 72 17 73 16 74 21 75 22 76 29 77 23 78
REMARK SMILES IDX 24 79 28 80 25 82 27 83 26 84
REMARK H PARENT 72 22 50 33 30 64 30 65 13 71 23 81
REMARK Flexibility Score: inf
ROOT
ATOM      1  C   UNL A   1      45.072  19.751  24.522  1.00  0.00     0.275 C 
ENDROOT
BRANCH   1   2
ATOM      2  O   UNL A   1      45.496  20.784  25.428  1.00  0.00    -0.458 OA
BRANCH   2   3
ATOM      3  C   UNL A   1      45.025  22.049  25.557  1.00  0.00     0.338 C 
ATOM      4  O   UNL A   1      43.817  22.258  25.469  1.00  0.00    -0.246 OA
BRANCH   3   5
ATOM      5  C   UNL A   1      45.938  23.227  25.616  1.00  0.00     0.060 A 
ATOM      6  C   UNL A   1      46.614  23.806  24.538  1.00  0.00     0.016 A 
ATOM      7  C   UNL A   1      46.098  23.805  26.875  1.00  0.00     0.016 A 
ATOM      8  C   UNL A   1      47.196  25.083  24.651  1.00  0.00     0.010 A 
ATOM      9  C   UNL A   1      46.656  25.077  26.989  1.00  0.00     0.010 A 
ATOM     10  C   UNL A   1      47.074  25.806  25.848  1.00  0.00    -0.014 A 
BRANCH  10  11
ATOM     11  C   UNL A   1      47.266  27.533  26.030  1.00  0.00     0.031 A 
ATOM     12  C   UNL A   1      49.128  27.368  25.982  1.00  0.00     0.074 A 
ATOM     13  C   UNL A   1      46.148  29.001  26.389  1.00  0.00     0.049 A 
ATOM     14  N   UNL A   1      50.033  28.321  26.158  1.00  0.00    -0.248 NA
ATOM     15  C   UNL A   1      49.838  26.076  25.788  1.00  0.00     0.031 C 
ATOM     16  C   UNL A   1      44.501  29.372  26.500  1.00  0.00     0.029 A 
ATOM     17  N   UNL A   1      46.415  30.474  26.785  1.00  0.00    -0.354 N 
ATOM     18  C   UNL A   1      51.287  27.836  26.015  1.00  0.00     0.074 A 
ATOM     19  C   UNL A   1      51.125  26.409  25.929  1.00  0.00     0.031 C 
ATOM     20  C   UNL A   1      44.241  30.676  26.730  1.00  0.00     0.029 A 
ATOM     21  C   UNL A   1      45.459  31.414  26.798  1.00  0.00     0.049 A 
ATOM     22  H   UNL A   1      47.330  30.733  27.039  1.00  0.00     0.167 HD
ATOM     23  C   UNL A   1      52.402  28.599  25.903  1.00  0.00     0.031 A 
ATOM     24  C   UNL A   1      45.709  32.734  26.853  1.00  0.00     0.031 A 
ATOM     25  C   UNL A   1      52.382  30.062  25.875  1.00  0.00     0.049 A 
ATOM     26  C   UNL A   1      47.152  33.227  26.614  1.00  0.00     0.074 A 
ATOM     27  C   UNL A   1      53.408  30.929  25.550  1.00  0.00     0.029 A 
ATOM     28  N   UNL A   1      51.278  30.881  26.173  1.00  0.00    -0.354 N 
ATOM     29  N   UNL A   1      48.301  32.567  26.552  1.00  0.00    -0.248 NA
ATOM     30  C   UNL A   1      47.286  34.660  26.354  1.00  0.00     0.031 C 
ATOM     31  C   UNL A   1      52.909  32.241  25.608  1.00  0.00     0.029 A 
ATOM     32  C   UNL A   1      51.545  32.222  25.915  1.00  0.00     0.049 A 
ATOM     33  H   UNL A   1      50.421  30.545  26.520  1.00  0.00     0.167 HD
ATOM     34  C   UNL A   1      49.292  33.488  26.188  1.00  0.00     0.074 A 
ATOM     35  C   UNL A   1      48.575  34.760  26.061  1.00  0.00     0.031 C 
ATOM     36  C   UNL A   1      50.639  33.381  25.942  1.00  0.00     0.031 A 
BRANCH  23  37
ATOM     37  C   UNL A   1      53.686  27.845  25.727  1.00  0.00    -0.014 A 
ATOM     38  C   UNL A   1      54.201  27.566  24.448  1.00  0.00     0.009 A 
ATOM     39  C   UNL A   1      54.368  27.354  26.848  1.00  0.00     0.009 A 
ATOM     40  C   UNL A   1      55.317  26.742  24.293  1.00  0.00     0.001 A 
ATOM     41  C   UNL A   1      55.505  26.556  26.692  1.00  0.00     0.001 A 
ATOM     42  C   UNL A   1      55.964  26.233  25.415  1.00  0.00     0.000 A 
ENDBRANCH  23  37
BRANCH  24  43
ATOM     43  C   UNL A   1      44.548  33.637  26.992  1.00  0.00    -0.014 A 
ATOM     44  C   UNL A   1      44.123  34.101  28.244  1.00  0.00     0.009 A 
ATOM     45  C   UNL A   1      43.938  34.148  25.833  1.00  0.00     0.009 A 
ATOM     46  C   UNL A   1      43.104  35.055  28.333  1.00  0.00     0.001 A 
ATOM     47  C   UNL A   1      42.936  35.114  25.924  1.00  0.00     0.001 A 
ATOM     48  C   UNL A   1      42.521  35.567  27.173  1.00  0.00     0.000 A 
ENDBRANCH  24  43
BRANCH  36  49
ATOM     49  C   UNL A   1      51.306  34.709  25.591  1.00  0.00    -0.014 A 
ATOM     50  C   UNL A   1      51.824  35.543  26.597  1.00  0.00     0.009 A 
ATOM     51  C   UNL A   1      51.427  35.114  24.250  1.00  0.00     0.009 A 
ATOM     52  C   UNL A   1      52.407  36.771  26.271  1.00  0.00     0.001 A 
ATOM     53  C   UNL A   1      52.046  36.324  23.925  1.00  0.00     0.001 A 
ATOM     54  C   UNL A   1      52.523  37.157  24.937  1.00  0.00     0.000 A 
ENDBRANCH  36  49
ENDBRANCH  10  11
ENDBRANCH   3   5
ENDBRANCH   2   3
ENDBRANCH   1   2
BRANCH   1  55
ATOM     55  C   UNL A   1      44.338  18.568  25.151  1.00  0.00     0.274 C 
BRANCH  55  56
ATOM     56  O   UNL A   1      42.927  18.772  25.313  1.00  0.00    -0.458 OA
BRANCH  56  57
ATOM     57  C   UNL A   1      42.510  19.143  26.564  1.00  0.00     0.365 C 
ATOM     58  O   UNL A   1      42.612  18.427  27.555  1.00  0.00    -0.245 OA
BRANCH  57  59
ATOM     59  C   UNL A   1      41.760  20.492  26.536  1.00  0.00     0.298 C 
ATOM     60  C   UNL A   1      40.317  20.238  26.060  1.00  0.00     0.115 C 
ATOM     61  N   UNL A   1      41.794  21.157  27.864  1.00  0.00    -0.323 N 
ATOM     62  C   UNL A   1      39.529  21.490  26.200  1.00  0.00    -0.006 A 
ATOM     63  C   UNL A   1      41.106  22.465  27.972  1.00  0.00     0.264 C 
ATOM     64  H   UNL A   1      42.772  21.301  28.113  1.00  0.00     0.347 HD
ATOM     65  H   UNL A   1      41.283  20.533  28.490  1.00  0.00     0.347 HD
ATOM     66  C   UNL A   1      39.926  22.492  27.065  1.00  0.00     0.083 A 
ATOM     67  C   UNL A   1      38.311  21.881  25.599  1.00  0.00     0.003 A 
ATOM     68  N   UNL A   1      38.967  23.465  27.037  1.00  0.00    -0.353 N 
ATOM     69  C   UNL A   1      37.974  23.120  26.147  1.00  0.00     0.046 A 
ATOM     70  C   UNL A   1      37.449  21.293  24.656  1.00  0.00     0.010 A 
ATOM     71  H   UNL A   1      38.984  24.290  27.574  1.00  0.00     0.166 HD
ATOM     72  C   UNL A   1      36.804  23.803  25.799  1.00  0.00     0.026 A 
ATOM     73  C   UNL A   1      36.284  21.971  24.286  1.00  0.00     0.001 A 
ATOM     74  C   UNL A   1      35.968  23.205  24.852  1.00  0.00     0.002 A 
BRANCH  63  75
ATOM     75  C   UNL A   1      42.039  23.686  27.923  1.00  0.00     0.041 A 
ATOM     76  C   UNL A   1      41.941  24.762  27.021  1.00  0.00     0.093 A 
ATOM     77  C   UNL A   1      42.997  24.099  28.899  1.00  0.00     0.009 A 
ATOM     78  N   UNL A   1      42.731  25.896  27.264  1.00  0.00    -0.361 N 
ATOM     79  C   UNL A   1      43.396  25.819  28.458  1.00  0.00     0.046 A 
ATOM     80  C   UNL A   1      43.662  23.408  30.487  1.00  0.00     0.011 A 
ATOM     81  H   UNL A   1      42.798  26.660  26.646  1.00  0.00     0.166 HD
ATOM     82  C   UNL A   1      44.516  26.847  29.597  1.00  0.00     0.026 A 
ATOM     83  C   UNL A   1      44.737  24.426  31.601  1.00  0.00     0.001 A 
ATOM     84  C   UNL A   1      45.152  26.131  31.165  1.00  0.00     0.002 A 
ENDBRANCH  63  75
ENDBRANCH  57  59
ENDBRANCH  56  57
ENDBRANCH  55  56
ENDBRANCH   1  55
TORSDOF 12
ENDMDL
MODEL 2
REMARK VINA RESULT:     -12.3      2.923      5.522
REMARK SMILES O=C(OCCOC(=O)[C@H]1Cc2c([nH]c3ccccc23)[C@H](c2c[nH]c3ccccc23)[NH2+]1)c1ccc(-c2c3nc(c(-c4ccccc4)c4ccc([nH]4)c(-c4ccccc4)c4nc(c(-c5ccccc5)c5ccc2[nH]5)C=C4)C=C3)cc1
REMARK SMILES IDX 4 1 3 2 2 3 1 4 31 5 32 6 78 7 33 8 77 9 34 10 35 11 36 12
REMARK SMILES IDX 71 13 37 14 76 15 70 16 72 17 38 18 75 19 69 20 68 21 39 23
REMARK SMILES IDX 61 24 46 25 60 26 47 27 50 28 59 29 73 30 48 31 49 32 58 34
REMARK SMILES IDX 74 35 51 36 40 37 41 38 45 39 42 40 44 41 43 42 62 43 63 44
REMARK SMILES IDX 67 45 64 46 66 47 65 48 52 49 53 50 57 51 54 52 56 53 55 54
REMARK SMILES IDX 5 55 6 56 7 57 8 58 9 59 10 60 30 61 11 62 20 63 12 66 19 67
REMARK SMILES IDX 13 68 14 69 18 70 15 72 17 73 16 74 21 75 22 76 29 77 23 78
REMARK SMILES IDX 24 79 28 80 25 82 27 83 26 84
REMARK H PARENT 72 22 50 33 30 64 30 65 13 71 23 81
REMARK Flexibility Score: inf
ROOT
ATOM      1  C   UNL A   1      40.654  21.467  26.148  1.00  0.00     0.275 C 
ENDROOT
BRANCH   1   2
ATOM      2  O   UNL A   1      41.884  22.155  26.434  1.00  0.00    -0.458 OA
BRANCH   2   3
ATOM      3  C   UNL A   1      43.116  21.952  25.905  1.00  0.00     0.338 C 
ATOM      4  O   UNL A   1      43.428  20.831  25.511  1.00  0.00    -0.246 OA
BRANCH   3   5
ATOM      5  C   UNL A   1      44.176  23.000  25.953  1.00  0.00     0.060 A 
ATOM      6  C   UNL A   1      44.899  23.497  24.865  1.00  0.00     0.016 A 
ATOM      7  C   UNL A   1      44.436  23.539  27.213  1.00  0.00     0.016 A 
ATOM      8  C   UNL A   1      45.645  24.686  24.976  1.00  0.00     0.010 A 
ATOM      9  C   UNL A   1      45.157  24.727  27.325  1.00  0.00     0.010 A 
ATOM     10  C   UNL A   1      45.643  25.406  26.180  1.00  0.00    -0.014 A 
BRANCH  10  11
ATOM     11  C   UNL A   1      46.063  27.091  26.372  1.00  0.00     0.031 A 
ATOM     12  C   UNL A   1      47.883  26.669  26.436  1.00  0.00     0.074 A 
ATOM     13  C   UNL A   1      45.141  28.704  26.660  1.00  0.00     0.049 A 
ATOM     14  N   UNL A   1      48.900  27.489  26.665  1.00  0.00    -0.248 NA
ATOM     15  C   UNL A   1      48.416  25.290  26.287  1.00  0.00     0.031 C 
ATOM     16  C   UNL A   1      43.558  29.301  26.671  1.00  0.00     0.029 A 
ATOM     17  N   UNL A   1      45.587  30.129  27.070  1.00  0.00    -0.354 N 
ATOM     18  C   UNL A   1      50.081  26.833  26.598  1.00  0.00     0.074 A 
ATOM     19  C   UNL A   1      49.727  25.441  26.504  1.00  0.00     0.031 C 
ATOM     20  C   UNL A   1      43.468  30.631  26.883  1.00  0.00     0.029 A 
ATOM     21  C   UNL A   1      44.771  31.193  27.024  1.00  0.00     0.049 A 
ATOM     22  H   UNL A   1      46.512  30.261  27.378  1.00  0.00     0.167 HD
ATOM     23  C   UNL A   1      51.295  27.433  26.552  1.00  0.00     0.031 A 
ATOM     24  C   UNL A   1      45.200  32.467  27.091  1.00  0.00     0.031 A 
ATOM     25  C   UNL A   1      51.482  28.884  26.522  1.00  0.00     0.049 A 
ATOM     26  C   UNL A   1      46.708  32.752  26.940  1.00  0.00     0.074 A 
ATOM     27  C   UNL A   1      52.636  29.596  26.258  1.00  0.00     0.029 A 
ATOM     28  N   UNL A   1      50.486  29.851  26.751  1.00  0.00    -0.354 N 
ATOM     29  N   UNL A   1      47.756  31.938  26.948  1.00  0.00    -0.248 NA
ATOM     30  C   UNL A   1      47.056  34.150  26.686  1.00  0.00     0.031 C 
ATOM     31  C   UNL A   1      52.321  30.965  26.284  1.00  0.00     0.029 A 
ATOM     32  C   UNL A   1      50.953  31.139  26.508  1.00  0.00     0.049 A 
ATOM     33  H   UNL A   1      49.571  29.641  27.046  1.00  0.00     0.167 HD
ATOM     34  C   UNL A   1      48.885  32.709  26.643  1.00  0.00     0.074 A 
ATOM     35  C   UNL A   1      48.362  34.066  26.471  1.00  0.00     0.031 C 
ATOM     36  C   UNL A   1      50.217  32.413  26.479  1.00  0.00     0.031 A 
BRANCH  23  37
ATOM     37  C   UNL A   1      52.470  26.506  26.455  1.00  0.00    -0.014 A 
ATOM     38  C   UNL A   1      53.334  26.302  27.546  1.00  0.00     0.009 A 
ATOM     39  C   UNL A   1      52.758  25.867  25.241  1.00  0.00     0.009 A 
ATOM     40  C   UNL A   1      54.502  25.553  27.400  1.00  0.00     0.001 A 
ATOM     41  C   UNL A   1      53.911  25.089  25.106  1.00  0.00     0.001 A 
ATOM     42  C   UNL A   1      54.793  24.952  26.178  1.00  0.00     0.000 A 
ENDBRANCH  23  37
BRANCH  24  43
ATOM     43  C   UNL A   1      44.169  33.523  27.160  1.00  0.00    -0.014 A 
ATOM     44  C   UNL A   1      43.663  33.981  28.383  1.00  0.00     0.009 A 
ATOM     45  C   UNL A   1      43.784  34.177  25.976  1.00  0.00     0.009 A 
ATOM     46  C   UNL A   1      42.787  35.069  28.421  1.00  0.00     0.001 A 
ATOM     47  C   UNL A   1      42.925  35.276  26.018  1.00  0.00     0.001 A 
ATOM     48  C   UNL A   1      42.428  35.721  27.241  1.00  0.00     0.000 A 
ENDBRANCH  24  43
BRANCH  36  49
ATOM     49  C   UNL A   1      51.082  33.632  26.167  1.00  0.00    -0.014 A 
ATOM     50  C   UNL A   1      51.689  34.368  27.199  1.00  0.00     0.009 A 
ATOM     51  C   UNL A   1      51.298  34.032  24.836  1.00  0.00     0.009 A 
ATOM     52  C   UNL A   1      52.455  35.500  26.909  1.00  0.00     0.001 A 
ATOM     53  C   UNL A   1      52.098  35.140  24.547  1.00  0.00     0.001 A 
ATOM     54  C   UNL A   1      52.665  35.881  25.584  1.00  0.00     0.000 A 
ENDBRANCH  36  49
ENDBRANCH  10  11
ENDBRANCH   3   5
ENDBRANCH   2   3
ENDBRANCH   1   2
BRANCH   1  55
ATOM     55  C   UNL A   1      39.369  22.232  26.465  1.00  0.00     0.274 C 
BRANCH  55  56
ATOM     56  O   UNL A   1      38.276  21.930  25.587  1.00  0.00    -0.458 OA
BRANCH  56  57
ATOM     57  C   UNL A   1      37.293  22.881  25.499  1.00  0.00     0.365 C 
ATOM     58  O   UNL A   1      37.493  24.082  25.641  1.00  0.00    -0.245 OA
BRANCH  57  59
ATOM     59  C   UNL A   1      35.894  22.239  25.364  1.00  0.00     0.298 C 
ATOM     60  C   UNL A   1      36.070  20.720  25.179  1.00  0.00     0.115 C 
ATOM     61  N   UNL A   1      35.039  22.558  26.536  1.00  0.00    -0.323 N 
ATOM     62  C   UNL A   1      34.737  20.065  25.231  1.00  0.00    -0.006 A 
ATOM     63  C   UNL A   1      33.667  22.000  26.530  1.00  0.00     0.264 C 
ATOM     64  H   UNL A   1      34.960  23.573  26.594  1.00  0.00     0.347 HD
ATOM     65  H   UNL A   1      35.502  22.122  27.333  1.00  0.00     0.347 HD
ATOM     66  C   UNL A   1      33.660  20.683  25.836  1.00  0.00     0.083 A 
ATOM     67  C   UNL A   1      34.321  18.792  24.778  1.00  0.00     0.003 A 
ATOM     68  N   UNL A   1      32.609  19.809  25.799  1.00  0.00    -0.353 N 
ATOM     69  C   UNL A   1      32.984  18.652  25.155  1.00  0.00     0.046 A 
ATOM     70  C   UNL A   1      34.956  17.736  24.103  1.00  0.00     0.010 A 
ATOM     71  H   UNL A   1      31.717  19.983  26.178  1.00  0.00     0.166 HD
ATOM     72  C   UNL A   1      32.247  17.493  24.890  1.00  0.00     0.026 A 
ATOM     73  C   UNL A   1      34.228  16.577  23.817  1.00  0.00     0.001 A 
ATOM     74  C   UNL A   1      32.895  16.459  24.208  1.00  0.00     0.002 A 
BRANCH  63  75
ATOM     75  C   UNL A   1      32.570  22.998  26.123  1.00  0.00     0.041 A 
ATOM     76  C   UNL A   1      31.676  23.643  26.999  1.00  0.00     0.093 A 
ATOM     77  C   UNL A   1      32.400  23.651  24.864  1.00  0.00     0.009 A 
ATOM     78  N   UNL A   1      30.896  24.689  26.486  1.00  0.00    -0.361 N 
ATOM     79  C   UNL A   1      31.238  25.011  25.201  1.00  0.00     0.046 A 
ATOM     80  C   UNL A   1      33.213  23.564  23.199  1.00  0.00     0.011 A 
ATOM     81  H   UNL A   1      30.183  25.141  26.994  1.00  0.00     0.166 HD
ATOM     82  C   UNL A   1      30.846  26.273  23.836  1.00  0.00     0.026 A 
ATOM     83  C   UNL A   1      32.839  24.812  21.882  1.00  0.00     0.001 A 
ATOM     84  C   UNL A   1      31.675  26.158  22.200  1.00  0.00     0.002 A 
ENDBRANCH  63  75
ENDBRANCH  57  59
ENDBRANCH  56  57
ENDBRANCH  55  56
ENDBRANCH   1  55
TORSDOF 12
ENDMDL
MODEL 3
REMARK VINA RESULT:     -12.3      4.356      8.177
REMARK SMILES O=C(OCCOC(=O)[C@H]1Cc2c([nH]c3ccccc23)[C@H](c2c[nH]c3ccccc23)[NH2+]1)c1ccc(-c2c3nc(c(-c4ccccc4)c4ccc([nH]4)c(-c4ccccc4)c4nc(c(-c5ccccc5)c5ccc2[nH]5)C=C4)C=C3)cc1
REMARK SMILES IDX 4 1 3 2 2 3 1 4 31 5 32 6 78 7 33 8 77 9 34 10 35 11 36 12
REMARK SMILES IDX 71 13 37 14 76 15 70 16 72 17 38 18 75 19 69 20 68 21 39 23
REMARK SMILES IDX 61 24 46 25 60 26 47 27 50 28 59 29 73 30 48 31 49 32 58 34
REMARK SMILES IDX 74 35 51 36 40 37 41 38 45 39 42 40 44 41 43 42 62 43 63 44
REMARK SMILES IDX 67 45 64 46 66 47 65 48 52 49 53 50 57 51 54 52 56 53 55 54
REMARK SMILES IDX 5 55 6 56 7 57 8 58 9 59 10 60 30 61 11 62 20 63 12 66 19 67
REMARK SMILES IDX 13 68 14 69 18 70 15 72 17 73 16 74 21 75 22 76 29 77 23 78
REMARK SMILES IDX 24 79 28 80 25 82 27 83 26 84
REMARK H PARENT 72 22 50 33 30 64 30 65 13 71 23 81
REMARK Flexibility Score: inf
ROOT
ATOM      1  C   UNL A   1      40.880  21.019  26.044  1.00  0.00     0.275 C 
ENDROOT
BRANCH   1   2
ATOM      2  O   UNL A   1      41.931  21.856  25.532  1.00  0.00    -0.458 OA
BRANCH   2   3
ATOM      3  C   UNL A   1      42.475  22.971  26.080  1.00  0.00     0.338 C 
ATOM      4  O   UNL A   1      43.692  23.035  26.241  1.00  0.00    -0.246 OA
BRANCH   3   5
ATOM      5  C   UNL A   1      41.632  24.052  26.668  1.00  0.00     0.060 A 
ATOM      6  C   UNL A   1      41.235  24.158  28.004  1.00  0.00     0.016 A 
ATOM      7  C   UNL A   1      41.234  25.055  25.785  1.00  0.00     0.016 A 
ATOM      8  C   UNL A   1      40.708  25.363  28.507  1.00  0.00     0.010 A 
ATOM      9  C   UNL A   1      40.730  26.257  26.280  1.00  0.00     0.010 A 
ATOM     10  C   UNL A   1      40.605  26.487  27.672  1.00  0.00    -0.014 A 
BRANCH  10  11
ATOM     11  C   UNL A   1      40.467  28.148  28.197  1.00  0.00     0.031 A 
ATOM     12  C   UNL A   1      42.328  28.327  28.243  1.00  0.00     0.074 A 
ATOM     13  C   UNL A   1      39.085  29.293  28.756  1.00  0.00     0.049 A 
ATOM     14  N   UNL A   1      43.033  29.369  28.660  1.00  0.00    -0.248 NA
ATOM     15  C   UNL A   1      43.271  27.247  27.851  1.00  0.00     0.031 C 
ATOM     16  C   UNL A   1      37.395  29.338  28.826  1.00  0.00     0.029 A 
ATOM     17  N   UNL A   1      39.062  30.679  29.446  1.00  0.00    -0.354 N 
ATOM     18  C   UNL A   1      44.360  29.152  28.510  1.00  0.00     0.074 A 
ATOM     19  C   UNL A   1      44.470  27.765  28.139  1.00  0.00     0.031 C 
ATOM     20  C   UNL A   1      36.890  30.502  29.286  1.00  0.00     0.029 A 
ATOM     21  C   UNL A   1      37.947  31.414  29.576  1.00  0.00     0.049 A 
ATOM     22  H   UNL A   1      39.904  31.038  29.806  1.00  0.00     0.167 HD
ATOM     23  C   UNL A   1      45.316  30.105  28.622  1.00  0.00     0.031 A 
ATOM     24  C   UNL A   1      37.946  32.719  29.901  1.00  0.00     0.031 A 
ATOM     25  C   UNL A   1      45.026  31.517  28.876  1.00  0.00     0.049 A 
ATOM     26  C   UNL A   1      39.278  33.496  29.860  1.00  0.00     0.074 A 
ATOM     27  C   UNL A   1      45.882  32.599  28.793  1.00  0.00     0.029 A 
ATOM     28  N   UNL A   1      43.780  32.051  29.251  1.00  0.00    -0.354 N 
ATOM     29  N   UNL A   1      40.531  33.075  29.748  1.00  0.00    -0.248 NA
ATOM     30  C   UNL A   1      39.151  34.953  29.890  1.00  0.00     0.031 C 
ATOM     31  C   UNL A   1      45.146  33.763  29.070  1.00  0.00     0.029 A 
ATOM     32  C   UNL A   1      43.801  33.443  29.276  1.00  0.00     0.049 A 
ATOM     33  H   UNL A   1      42.990  31.507  29.469  1.00  0.00     0.167 HD
ATOM     34  C   UNL A   1      41.344  34.210  29.636  1.00  0.00     0.074 A 
ATOM     35  C   UNL A   1      40.408  35.335  29.709  1.00  0.00     0.031 C 
ATOM     36  C   UNL A   1      42.695  34.394  29.465  1.00  0.00     0.031 A 
BRANCH  23  37
ATOM     37  C   UNL A   1      46.723  29.641  28.390  1.00  0.00    -0.014 A 
ATOM     38  C   UNL A   1      47.269  29.581  27.095  1.00  0.00     0.009 A 
ATOM     39  C   UNL A   1      47.502  29.202  29.469  1.00  0.00     0.009 A 
ATOM     40  C   UNL A   1      48.526  29.012  26.878  1.00  0.00     0.001 A 
ATOM     41  C   UNL A   1      48.773  28.663  29.253  1.00  0.00     0.001 A 
ATOM     42  C   UNL A   1      49.273  28.548  27.956  1.00  0.00     0.000 A 
ENDBRANCH  23  37
BRANCH  24  43
ATOM     43  C   UNL A   1      36.633  33.356  30.134  1.00  0.00    -0.014 A 
ATOM     44  C   UNL A   1      35.839  33.815  29.075  1.00  0.00     0.009 A 
ATOM     45  C   UNL A   1      36.110  33.380  31.439  1.00  0.00     0.009 A 
ATOM     46  C   UNL A   1      34.549  34.294  29.319  1.00  0.00     0.001 A 
ATOM     47  C   UNL A   1      34.814  33.839  31.676  1.00  0.00     0.001 A 
ATOM     48  C   UNL A   1      34.035  34.295  30.616  1.00  0.00     0.000 A 
ENDBRANCH  24  43
BRANCH  36  49
ATOM     49  C   UNL A   1      43.114  35.862  29.422  1.00  0.00    -0.014 A 
ATOM     50  C   UNL A   1      43.615  36.502  30.569  1.00  0.00     0.009 A 
ATOM     51  C   UNL A   1      43.019  36.597  28.227  1.00  0.00     0.009 A 
ATOM     52  C   UNL A   1      43.969  37.853  30.531  1.00  0.00     0.001 A 
ATOM     53  C   UNL A   1      43.411  37.937  28.183  1.00  0.00     0.001 A 
ATOM     54  C   UNL A   1      43.873  38.567  29.338  1.00  0.00     0.000 A 
ENDBRANCH  36  49
ENDBRANCH  10  11
ENDBRANCH   3   5
ENDBRANCH   2   3
ENDBRANCH   1   2
BRANCH   1  55
ATOM     55  C   UNL A   1      39.582  21.730  26.423  1.00  0.00     0.274 C 
BRANCH  55  56
ATOM     56  O   UNL A   1      38.524  21.570  25.467  1.00  0.00    -0.458 OA
BRANCH  56  57
ATOM     57  C   UNL A   1      37.610  22.589  25.402  1.00  0.00     0.365 C 
ATOM     58  O   UNL A   1      37.901  23.773  25.529  1.00  0.00    -0.245 OA
BRANCH  57  59
ATOM     59  C   UNL A   1      36.166  22.049  25.315  1.00  0.00     0.298 C 
ATOM     60  C   UNL A   1      36.226  20.536  25.033  1.00  0.00     0.115 C 
ATOM     61  N   UNL A   1      35.401  22.351  26.553  1.00  0.00    -0.323 N 
ATOM     62  C   UNL A   1      34.856  19.968  25.127  1.00  0.00    -0.006 A 
ATOM     63  C   UNL A   1      33.996  21.885  26.597  1.00  0.00     0.264 C 
ATOM     64  H   UNL A   1      35.395  23.364  26.674  1.00  0.00     0.347 HD
ATOM     65  H   UNL A   1      35.878  21.837  27.294  1.00  0.00     0.347 HD
ATOM     66  C   UNL A   1      33.859  20.616  25.831  1.00  0.00     0.083 A 
ATOM     67  C   UNL A   1      34.328  18.755  24.628  1.00  0.00     0.003 A 
ATOM     68  N   UNL A   1      32.751  19.817  25.807  1.00  0.00    -0.353 N 
ATOM     69  C   UNL A   1      33.008  18.679  25.076  1.00  0.00     0.046 A 
ATOM     70  C   UNL A   1      34.850  17.702  23.856  1.00  0.00     0.010 A 
ATOM     71  H   UNL A   1      31.895  20.025  26.248  1.00  0.00     0.166 HD
ATOM     72  C   UNL A   1      32.180  17.589  24.790  1.00  0.00     0.026 A 
ATOM     73  C   UNL A   1      34.030  16.613  23.548  1.00  0.00     0.001 A 
ATOM     74  C   UNL A   1      32.716  16.559  24.011  1.00  0.00     0.002 A 
BRANCH  63  75
ATOM     75  C   UNL A   1      32.949  22.975  26.315  1.00  0.00     0.041 A 
ATOM     76  C   UNL A   1      31.975  23.437  27.221  1.00  0.00     0.093 A 
ATOM     77  C   UNL A   1      32.909  23.891  25.220  1.00  0.00     0.009 A 
ATOM     78  N   UNL A   1      31.254  24.590  26.877  1.00  0.00    -0.361 N 
ATOM     79  C   UNL A   1      31.723  25.174  25.732  1.00  0.00     0.046 A 
ATOM     80  C   UNL A   1      33.883  24.147  23.662  1.00  0.00     0.011 A 
ATOM     81  H   UNL A   1      30.496  24.939  27.400  1.00  0.00     0.166 HD
ATOM     82  C   UNL A   1      31.475  26.712  24.645  1.00  0.00     0.026 A 
ATOM     83  C   UNL A   1      33.647  25.661  22.620  1.00  0.00     0.001 A 
ATOM     84  C   UNL A   1      32.462  26.935  23.112  1.00  0.00     0.002 A 
ENDBRANCH  63  75
ENDBRANCH  57  59
ENDBRANCH  56  57
ENDBRANCH  55  56
ENDBRANCH   1  55
TORSDOF 12
ENDMDL
