MODEL 1
REMARK VINA RESULT:     -10.6      0.000      0.000
REMARK SMILES O=C(OCCOC(=O)[C@@H]1C[N@@H+](CCOc2ccc(F)cc2)C[C@H]1C1CC1)c1ccc(-c2c3nc(c(-c4ccccc4)c4ccc([nH]4)c(-c4ccccc4)c4nc(c(-c5ccccc5)c5ccc2[nH]5)C=C4)C=C3)cc1
REMARK SMILES IDX 5 1 4 2 3 3 2 4 1 5 27 6 28 7 74 8 29 9 73 10 30 11 31 12
REMARK SMILES IDX 32 13 67 14 33 15 72 16 66 17 68 18 34 19 71 20 65 21 64 22
REMARK SMILES IDX 35 24 57 25 42 26 56 27 43 28 46 29 55 30 69 31 44 32 45 33
REMARK SMILES IDX 54 35 70 36 47 37 36 38 37 39 41 40 38 41 40 42 39 43 58 44
REMARK SMILES IDX 59 45 63 46 60 47 62 48 61 49 48 50 49 51 53 52 50 53 52 54
REMARK SMILES IDX 51 55 6 56 7 57 8 58 9 59 10 60 23 61 11 62 22 63 24 65
REMARK SMILES IDX 25 66 26 67 12 68 13 69 14 70 15 71 16 72 21 73 17 74 20 75
REMARK SMILES IDX 18 76 19 77
REMARK H PARENT 68 23 46 34 11 64
REMARK Flexibility Score: inf
ROOT
ATOM      1  C   UNL A   1      37.600  20.636  25.411  1.00  0.00     0.274 C 
ENDROOT
BRANCH   1   2
ATOM      2  C   UNL A   1      38.491  19.496  24.916  1.00  0.00     0.275 C 
BRANCH   2   3
ATOM      3  O   UNL A   1      39.538  19.085  25.811  1.00  0.00    -0.458 OA
BRANCH   3   4
ATOM      4  C   UNL A   1      40.753  19.615  26.074  1.00  0.00     0.338 C 
ATOM      5  O   UNL A   1      41.746  18.904  25.915  1.00  0.00    -0.246 OA
BRANCH   4   6
ATOM      6  C   UNL A   1      40.975  20.984  26.658  1.00  0.00     0.060 A 
ATOM      7  C   UNL A   1      41.232  21.306  27.997  1.00  0.00     0.016 A 
ATOM      8  C   UNL A   1      41.011  22.036  25.732  1.00  0.00     0.016 A 
ATOM      9  C   UNL A   1      41.635  22.596  28.387  1.00  0.00     0.010 A 
ATOM     10  C   UNL A   1      41.422  23.317  26.112  1.00  0.00     0.010 A 
ATOM     11  C   UNL A   1      41.759  23.614  27.445  1.00  0.00    -0.014 A 
BRANCH  11  12
ATOM     12  C   UNL A   1      42.097  25.012  27.839  1.00  0.00     0.031 A 
ATOM     13  C   UNL A   1      43.517  25.454  27.610  1.00  0.00     0.074 A 
ATOM     14  C   UNL A   1      41.217  25.865  28.411  1.00  0.00     0.049 A 
ATOM     15  N   UNL A   1      44.086  26.599  27.882  1.00  0.00    -0.248 NA
ATOM     16  C   UNL A   1      44.434  24.450  27.036  1.00  0.00     0.031 C 
ATOM     17  C   UNL A   1      39.822  25.577  28.753  1.00  0.00     0.029 A 
ATOM     18  N   UNL A   1      41.380  27.170  28.828  1.00  0.00    -0.354 N 
ATOM     19  C   UNL A   1      45.405  26.437  27.487  1.00  0.00     0.074 A 
ATOM     20  C   UNL A   1      45.602  25.044  27.176  1.00  0.00     0.031 C 
ATOM     21  C   UNL A   1      39.268  26.656  29.340  1.00  0.00     0.029 A 
ATOM     22  C   UNL A   1      40.254  27.730  29.394  1.00  0.00     0.049 A 
ATOM     23  H   UNL A   1      42.227  27.660  28.729  1.00  0.00     0.167 HD
ATOM     24  C   UNL A   1      46.343  27.378  27.243  1.00  0.00     0.031 A 
ATOM     25  C   UNL A   1      40.044  28.977  29.870  1.00  0.00     0.031 A 
ATOM     26  C   UNL A   1      46.154  28.767  27.504  1.00  0.00     0.049 A 
ATOM     27  C   UNL A   1      41.146  30.002  29.719  1.00  0.00     0.074 A 
ATOM     28  C   UNL A   1      47.019  29.817  27.277  1.00  0.00     0.029 A 
ATOM     29  N   UNL A   1      45.000  29.295  28.060  1.00  0.00    -0.354 N 
ATOM     30  N   UNL A   1      42.340  29.864  29.192  1.00  0.00    -0.248 NA
ATOM     31  C   UNL A   1      40.851  31.370  30.175  1.00  0.00     0.031 C 
ATOM     32  C   UNL A   1      46.400  30.984  27.737  1.00  0.00     0.029 A 
ATOM     33  C   UNL A   1      45.133  30.660  28.198  1.00  0.00     0.049 A 
ATOM     34  H   UNL A   1      44.205  28.774  28.316  1.00  0.00     0.167 HD
ATOM     35  C   UNL A   1      42.906  31.135  29.191  1.00  0.00     0.074 A 
ATOM     36  C   UNL A   1      41.927  32.029  29.770  1.00  0.00     0.031 C 
ATOM     37  C   UNL A   1      44.122  31.531  28.740  1.00  0.00     0.031 A 
BRANCH  24  38
ATOM     38  C   UNL A   1      47.595  26.884  26.580  1.00  0.00    -0.014 A 
ATOM     39  C   UNL A   1      48.723  26.562  27.360  1.00  0.00     0.009 A 
ATOM     40  C   UNL A   1      47.700  26.861  25.185  1.00  0.00     0.009 A 
ATOM     41  C   UNL A   1      49.953  26.308  26.757  1.00  0.00     0.001 A 
ATOM     42  C   UNL A   1      48.926  26.566  24.584  1.00  0.00     0.001 A 
ATOM     43  C   UNL A   1      50.053  26.313  25.369  1.00  0.00     0.000 A 
ENDBRANCH  24  38
BRANCH  25  44
ATOM     44  C   UNL A   1      38.742  29.384  30.483  1.00  0.00    -0.014 A 
ATOM     45  C   UNL A   1      37.734  29.977  29.702  1.00  0.00     0.009 A 
ATOM     46  C   UNL A   1      38.546  29.296  31.870  1.00  0.00     0.009 A 
ATOM     47  C   UNL A   1      36.594  30.527  30.301  1.00  0.00     0.001 A 
ATOM     48  C   UNL A   1      37.391  29.823  32.463  1.00  0.00     0.001 A 
ATOM     49  C   UNL A   1      36.425  30.454  31.681  1.00  0.00     0.000 A 
ENDBRANCH  25  44
BRANCH  37  50
ATOM     50  C   UNL A   1      44.437  32.998  28.777  1.00  0.00    -0.014 A 
ATOM     51  C   UNL A   1      44.083  33.852  27.724  1.00  0.00     0.009 A 
ATOM     52  C   UNL A   1      45.017  33.543  29.935  1.00  0.00     0.009 A 
ATOM     53  C   UNL A   1      44.324  35.223  27.821  1.00  0.00     0.001 A 
ATOM     54  C   UNL A   1      45.223  34.917  30.044  1.00  0.00     0.001 A 
ATOM     55  C   UNL A   1      44.883  35.756  28.984  1.00  0.00     0.000 A 
ENDBRANCH  37  50
ENDBRANCH  11  12
ENDBRANCH   4   6
ENDBRANCH   3   4
ENDBRANCH   2   3
ENDBRANCH   1   2
BRANCH   1  56
ATOM     56  O   UNL A   1      37.593  21.804  24.581  1.00  0.00    -0.462 OA
BRANCH  56  57
ATOM     57  C   UNL A   1      36.843  22.848  25.047  1.00  0.00     0.315 C 
ATOM     58  O   UNL A   1      37.300  23.886  25.492  1.00  0.00    -0.252 OA
BRANCH  57  59
ATOM     59  C   UNL A   1      35.389  22.459  25.090  1.00  0.00     0.163 C 
ATOM     60  C   UNL A   1      34.584  22.534  23.800  1.00  0.00     0.278 C 
ATOM     61  C   UNL A   1      34.751  23.476  26.009  1.00  0.00     0.067 C 
ATOM     62  N   UNL A   1      33.300  23.165  24.102  1.00  0.00    -0.331 N 
ATOM     63  C   UNL A   1      33.669  24.103  25.137  1.00  0.00     0.267 C 
ATOM     64  H   UNL A   1      32.871  23.638  23.306  1.00  0.00     0.348 HD
BRANCH  61  65
ATOM     65  C   UNL A   1      34.334  22.935  27.342  1.00  0.00    -0.001 C 
ATOM     66  C   UNL A   1      32.954  22.483  27.773  1.00  0.00     0.004 C 
ATOM     67  C   UNL A   1      34.016  21.466  27.478  1.00  0.00     0.004 C 
ENDBRANCH  61  65
BRANCH  62  68
ATOM     68  C   UNL A   1      32.142  22.270  24.313  1.00  0.00     0.304 C 
BRANCH  68  69
ATOM     69  C   UNL A   1      32.126  20.770  23.893  1.00  0.00     0.290 C 
BRANCH  69  70
ATOM     70  O   UNL A   1      32.173  19.825  24.987  1.00  0.00    -0.488 OA
BRANCH  70  71
ATOM     71  C   UNL A   1      32.977  18.737  24.765  1.00  0.00     0.119 A 
ATOM     72  C   UNL A   1      32.389  17.481  24.964  1.00  0.00     0.049 A 
ATOM     73  C   UNL A   1      34.346  18.835  24.503  1.00  0.00     0.049 A 
ATOM     74  C   UNL A   1      33.205  16.360  25.152  1.00  0.00     0.043 A 
ATOM     75  C   UNL A   1      35.153  17.696  24.627  1.00  0.00     0.043 A 
ATOM     76  C   UNL A   1      34.583  16.489  25.020  1.00  0.00     0.123 A 
ATOM     77  F   UNL A   1      35.378  15.463  25.356  1.00  0.00    -0.207 F 
ENDBRANCH  70  71
ENDBRANCH  69  70
ENDBRANCH  68  69
ENDBRANCH  62  68
ENDBRANCH  57  59
ENDBRANCH  56  57
ENDBRANCH   1  56
TORSDOF 16
ENDMDL
MODEL 2
REMARK VINA RESULT:     -10.4      1.317      5.969
REMARK SMILES O=C(OCCOC(=O)[C@@H]1C[N@@H+](CCOc2ccc(F)cc2)C[C@H]1C1CC1)c1ccc(-c2c3nc(c(-c4ccccc4)c4ccc([nH]4)c(-c4ccccc4)c4nc(c(-c5ccccc5)c5ccc2[nH]5)C=C4)C=C3)cc1
REMARK SMILES IDX 5 1 4 2 3 3 2 4 1 5 27 6 28 7 74 8 29 9 73 10 30 11 31 12
REMARK SMILES IDX 32 13 67 14 33 15 72 16 66 17 68 18 34 19 71 20 65 21 64 22
REMARK SMILES IDX 35 24 57 25 42 26 56 27 43 28 46 29 55 30 69 31 44 32 45 33
REMARK SMILES IDX 54 35 70 36 47 37 36 38 37 39 41 40 38 41 40 42 39 43 58 44
REMARK SMILES IDX 59 45 63 46 60 47 62 48 61 49 48 50 49 51 53 52 50 53 52 54
REMARK SMILES IDX 51 55 6 56 7 57 8 58 9 59 10 60 23 61 11 62 22 63 24 65
REMARK SMILES IDX 25 66 26 67 12 68 13 69 14 70 15 71 16 72 21 73 17 74 20 75
REMARK SMILES IDX 18 76 19 77
REMARK H PARENT 68 23 46 34 11 64
REMARK Flexibility Score: inf
ROOT
ATOM      1  C   UNL A   1      37.642  20.738  25.328  1.00  0.00     0.274 C 
ENDROOT
BRANCH   1   2
ATOM      2  C   UNL A   1      38.655  19.702  24.837  1.00  0.00     0.275 C 
BRANCH   2   3
ATOM      3  O   UNL A   1      39.607  19.246  25.812  1.00  0.00    -0.458 OA
BRANCH   3   4
ATOM      4  C   UNL A   1      40.878  19.625  26.071  1.00  0.00     0.338 C 
ATOM      5  O   UNL A   1      41.775  18.793  25.930  1.00  0.00    -0.246 OA
BRANCH   4   6
ATOM      6  C   UNL A   1      41.267  20.966  26.632  1.00  0.00     0.060 A 
ATOM      7  C   UNL A   1      41.371  21.326  27.982  1.00  0.00     0.016 A 
ATOM      8  C   UNL A   1      41.648  21.928  25.686  1.00  0.00     0.016 A 
ATOM      9  C   UNL A   1      41.950  22.543  28.384  1.00  0.00     0.010 A 
ATOM     10  C   UNL A   1      42.235  23.133  26.079  1.00  0.00     0.010 A 
ATOM     11  C   UNL A   1      42.413  23.454  27.437  1.00  0.00    -0.014 A 
BRANCH  11  12
ATOM     12  C   UNL A   1      42.949  24.789  27.829  1.00  0.00     0.031 A 
ATOM     13  C   UNL A   1      41.947  25.900  27.989  1.00  0.00     0.074 A 
ATOM     14  C   UNL A   1      44.266  25.048  28.007  1.00  0.00     0.049 A 
ATOM     15  N   UNL A   1      42.139  27.155  28.296  1.00  0.00    -0.248 NA
ATOM     16  C   UNL A   1      40.536  25.557  27.723  1.00  0.00     0.031 C 
ATOM     17  C   UNL A   1      45.369  24.100  27.835  1.00  0.00     0.029 A 
ATOM     18  N   UNL A   1      44.906  26.215  28.362  1.00  0.00    -0.354 N 
ATOM     19  C   UNL A   1      40.872  27.719  28.276  1.00  0.00     0.074 A 
ATOM     20  C   UNL A   1      39.969  26.746  27.717  1.00  0.00     0.031 C 
ATOM     21  C   UNL A   1      46.541  24.725  28.065  1.00  0.00     0.029 A 
ATOM     22  C   UNL A   1      46.280  26.113  28.429  1.00  0.00     0.049 A 
ATOM     23  H   UNL A   1      44.423  27.052  28.553  1.00  0.00     0.167 HD
ATOM     24  C   UNL A   1      40.448  28.881  28.816  1.00  0.00     0.031 A 
ATOM     25  C   UNL A   1      47.209  27.031  28.775  1.00  0.00     0.031 A 
ATOM     26  C   UNL A   1      41.319  29.840  29.412  1.00  0.00     0.049 A 
ATOM     27  C   UNL A   1      46.740  28.386  29.257  1.00  0.00     0.074 A 
ATOM     28  C   UNL A   1      41.006  31.041  30.014  1.00  0.00     0.029 A 
ATOM     29  N   UNL A   1      42.696  29.693  29.475  1.00  0.00    -0.354 N 
ATOM     30  N   UNL A   1      45.516  28.844  29.379  1.00  0.00    -0.248 NA
ATOM     31  C   UNL A   1      47.776  29.331  29.703  1.00  0.00     0.031 C 
ATOM     32  C   UNL A   1      42.205  31.644  30.407  1.00  0.00     0.029 A 
ATOM     33  C   UNL A   1      43.253  30.791  30.095  1.00  0.00     0.049 A 
ATOM     34  H   UNL A   1      43.199  28.921  29.129  1.00  0.00     0.167 HD
ATOM     35  C   UNL A   1      45.634  30.094  29.978  1.00  0.00     0.074 A 
ATOM     36  C   UNL A   1      47.047  30.323  30.191  1.00  0.00     0.031 C 
ATOM     37  C   UNL A   1      44.662  30.971  30.331  1.00  0.00     0.031 A 
BRANCH  24  38
ATOM     38  C   UNL A   1      38.960  29.076  28.842  1.00  0.00    -0.014 A 
ATOM     39  C   UNL A   1      38.314  29.686  27.749  1.00  0.00     0.009 A 
ATOM     40  C   UNL A   1      38.222  28.776  29.992  1.00  0.00     0.009 A 
ATOM     41  C   UNL A   1      36.976  30.067  27.839  1.00  0.00     0.001 A 
ATOM     42  C   UNL A   1      36.871  29.124  30.063  1.00  0.00     0.001 A 
ATOM     43  C   UNL A   1      36.257  29.787  28.997  1.00  0.00     0.000 A 
ENDBRANCH  24  38
BRANCH  25  44
ATOM     44  C   UNL A   1      48.672  26.727  28.752  1.00  0.00    -0.014 A 
ATOM     45  C   UNL A   1      49.405  26.803  27.554  1.00  0.00     0.009 A 
ATOM     46  C   UNL A   1      49.319  26.240  29.899  1.00  0.00     0.009 A 
ATOM     47  C   UNL A   1      50.725  26.342  27.490  1.00  0.00     0.001 A 
ATOM     48  C   UNL A   1      50.650  25.806  29.838  1.00  0.00     0.001 A 
ATOM     49  C   UNL A   1      51.346  25.840  28.630  1.00  0.00     0.000 A 
ENDBRANCH  25  44
BRANCH  37  50
ATOM     50  C   UNL A   1      45.076  32.219  31.056  1.00  0.00    -0.014 A 
ATOM     51  C   UNL A   1      45.215  32.247  32.450  1.00  0.00     0.009 A 
ATOM     52  C   UNL A   1      45.421  33.358  30.310  1.00  0.00     0.009 A 
ATOM     53  C   UNL A   1      45.673  33.402  33.086  1.00  0.00     0.001 A 
ATOM     54  C   UNL A   1      45.912  34.498  30.945  1.00  0.00     0.001 A 
ATOM     55  C   UNL A   1      46.031  34.521  32.333  1.00  0.00     0.000 A 
ENDBRANCH  37  50
ENDBRANCH  11  12
ENDBRANCH   4   6
ENDBRANCH   3   4
ENDBRANCH   2   3
ENDBRANCH   1   2
BRANCH   1  56
ATOM     56  O   UNL A   1      37.563  21.930  24.537  1.00  0.00    -0.462 OA
BRANCH  56  57
ATOM     57  C   UNL A   1      36.785  22.927  25.058  1.00  0.00     0.315 C 
ATOM     58  O   UNL A   1      37.212  23.968  25.523  1.00  0.00    -0.252 OA
BRANCH  57  59
ATOM     59  C   UNL A   1      35.350  22.476  25.129  1.00  0.00     0.163 C 
ATOM     60  C   UNL A   1      34.509  22.542  23.862  1.00  0.00     0.278 C 
ATOM     61  C   UNL A   1      34.694  23.447  26.085  1.00  0.00     0.067 C 
ATOM     62  N   UNL A   1      33.208  23.112  24.209  1.00  0.00    -0.331 N 
ATOM     63  C   UNL A   1      33.564  24.044  25.253  1.00  0.00     0.267 C 
ATOM     64  H   UNL A   1      32.740  23.581  23.434  1.00  0.00     0.348 HD
BRANCH  61  65
ATOM     65  C   UNL A   1      34.335  22.863  27.416  1.00  0.00    -0.001 C 
ATOM     66  C   UNL A   1      32.989  22.334  27.869  1.00  0.00     0.004 C 
ATOM     67  C   UNL A   1      34.095  21.377  27.532  1.00  0.00     0.004 C 
ENDBRANCH  61  65
BRANCH  62  68
ATOM     68  C   UNL A   1      32.095  22.164  24.430  1.00  0.00     0.304 C 
BRANCH  68  69
ATOM     69  C   UNL A   1      32.143  20.666  24.008  1.00  0.00     0.290 C 
BRANCH  69  70
ATOM     70  O   UNL A   1      32.231  19.722  25.100  1.00  0.00    -0.488 OA
BRANCH  70  71
ATOM     71  C   UNL A   1      33.007  18.622  24.840  1.00  0.00     0.119 A 
ATOM     72  C   UNL A   1      32.422  17.376  25.100  1.00  0.00     0.049 A 
ATOM     73  C   UNL A   1      34.355  18.702  24.480  1.00  0.00     0.049 A 
ATOM     74  C   UNL A   1      33.239  16.250  25.249  1.00  0.00     0.043 A 
ATOM     75  C   UNL A   1      35.158  17.557  24.566  1.00  0.00     0.043 A 
ATOM     76  C   UNL A   1      34.606  16.362  25.018  1.00  0.00     0.123 A 
ATOM     77  F   UNL A   1      35.413  15.334  25.315  1.00  0.00    -0.207 F 
ENDBRANCH  70  71
ENDBRANCH  69  70
ENDBRANCH  68  69
ENDBRANCH  62  68
ENDBRANCH  57  59
ENDBRANCH  56  57
ENDBRANCH   1  56
TORSDOF 16
ENDMDL
MODEL 3
REMARK VINA RESULT:     -10.4      5.937     10.576
REMARK SMILES O=C(OCCOC(=O)[C@@H]1C[N@@H+](CCOc2ccc(F)cc2)C[C@H]1C1CC1)c1ccc(-c2c3nc(c(-c4ccccc4)c4ccc([nH]4)c(-c4ccccc4)c4nc(c(-c5ccccc5)c5ccc2[nH]5)C=C4)C=C3)cc1
REMARK SMILES IDX 5 1 4 2 3 3 2 4 1 5 27 6 28 7 74 8 29 9 73 10 30 11 31 12
REMARK SMILES IDX 32 13 67 14 33 15 72 16 66 17 68 18 34 19 71 20 65 21 64 22
REMARK SMILES IDX 35 24 57 25 42 26 56 27 43 28 46 29 55 30 69 31 44 32 45 33
REMARK SMILES IDX 54 35 70 36 47 37 36 38 37 39 41 40 38 41 40 42 39 43 58 44
REMARK SMILES IDX 59 45 63 46 60 47 62 48 61 49 48 50 49 51 53 52 50 53 52 54
REMARK SMILES IDX 51 55 6 56 7 57 8 58 9 59 10 60 23 61 11 62 22 63 24 65
REMARK SMILES IDX 25 66 26 67 12 68 13 69 14 70 15 71 16 72 21 73 17 74 20 75
REMARK SMILES IDX 18 76 19 77
REMARK H PARENT 68 23 46 34 11 64
REMARK Flexibility Score: inf
ROOT
ATOM      1  C   UNL A   1      31.630  31.864  27.165  1.00  0.00     0.274 C 
ENDROOT
BRANCH   1   2
ATOM      2  C   UNL A   1      32.445  33.141  26.956  1.00  0.00     0.275 C 
BRANCH   2   3
ATOM      3  O   UNL A   1      32.319  34.140  27.982  1.00  0.00    -0.458 OA
BRANCH   3   4
ATOM      4  C   UNL A   1      33.234  34.706  28.800  1.00  0.00     0.338 C 
ATOM      5  O   UNL A   1      33.194  35.926  28.963  1.00  0.00    -0.246 OA
BRANCH   4   6
ATOM      6  C   UNL A   1      34.375  33.964  29.441  1.00  0.00     0.060 A 
ATOM      7  C   UNL A   1      34.296  32.902  30.350  1.00  0.00     0.016 A 
ATOM      8  C   UNL A   1      35.656  34.333  29.004  1.00  0.00     0.016 A 
ATOM      9  C   UNL A   1      35.427  32.149  30.715  1.00  0.00     0.010 A 
ATOM     10  C   UNL A   1      36.781  33.581  29.353  1.00  0.00     0.010 A 
ATOM     11  C   UNL A   1      36.683  32.464  30.202  1.00  0.00    -0.014 A 
BRANCH  11  12
ATOM     12  C   UNL A   1      37.912  31.742  30.638  1.00  0.00     0.031 A 
ATOM     13  C   UNL A   1      38.478  32.120  31.980  1.00  0.00     0.074 A 
ATOM     14  C   UNL A   1      38.546  30.813  29.885  1.00  0.00     0.049 A 
ATOM     15  N   UNL A   1      39.544  31.673  32.589  1.00  0.00    -0.248 NA
ATOM     16  C   UNL A   1      37.766  33.181  32.719  1.00  0.00     0.031 C 
ATOM     17  C   UNL A   1      38.162  30.375  28.541  1.00  0.00     0.029 A 
ATOM     18  N   UNL A   1      39.678  30.072  30.147  1.00  0.00    -0.354 N 
ATOM     19  C   UNL A   1      39.596  32.389  33.776  1.00  0.00     0.074 A 
ATOM     20  C   UNL A   1      38.608  33.434  33.700  1.00  0.00     0.031 C 
ATOM     21  C   UNL A   1      39.048  29.463  28.093  1.00  0.00     0.029 A 
ATOM     22  C   UNL A   1      40.052  29.224  29.125  1.00  0.00     0.049 A 
ATOM     23  H   UNL A   1      40.177  30.141  30.993  1.00  0.00     0.167 HD
ATOM     24  C   UNL A   1      40.286  32.118  34.904  1.00  0.00     0.031 A 
ATOM     25  C   UNL A   1      41.070  28.340  29.052  1.00  0.00     0.031 A 
ATOM     26  C   UNL A   1      41.238  31.062  35.014  1.00  0.00     0.049 A 
ATOM     27  C   UNL A   1      41.932  28.129  30.278  1.00  0.00     0.074 A 
ATOM     28  C   UNL A   1      41.981  30.674  36.110  1.00  0.00     0.029 A 
ATOM     29  N   UNL A   1      41.575  30.219  33.967  1.00  0.00    -0.354 N 
ATOM     30  N   UNL A   1      41.860  28.711  31.451  1.00  0.00    -0.248 NA
ATOM     31  C   UNL A   1      42.980  27.099  30.187  1.00  0.00     0.031 C 
ATOM     32  C   UNL A   1      42.804  29.616  35.712  1.00  0.00     0.029 A 
ATOM     33  C   UNL A   1      42.530  29.316  34.386  1.00  0.00     0.049 A 
ATOM     34  H   UNL A   1      41.191  30.259  33.062  1.00  0.00     0.167 HD
ATOM     35  C   UNL A   1      42.800  28.072  32.253  1.00  0.00     0.074 A 
ATOM     36  C   UNL A   1      43.430  27.059  31.433  1.00  0.00     0.031 C 
ATOM     37  C   UNL A   1      43.108  28.291  33.555  1.00  0.00     0.031 A 
BRANCH  24  38
ATOM     38  C   UNL A   1      39.922  32.951  36.098  1.00  0.00    -0.014 A 
ATOM     39  C   UNL A   1      38.822  32.586  36.899  1.00  0.00     0.009 A 
ATOM     40  C   UNL A   1      40.582  34.158  36.352  1.00  0.00     0.009 A 
ATOM     41  C   UNL A   1      38.339  33.453  37.878  1.00  0.00     0.001 A 
ATOM     42  C   UNL A   1      40.119  35.006  37.361  1.00  0.00     0.001 A 
ATOM     43  C   UNL A   1      38.988  34.664  38.106  1.00  0.00     0.000 A 
ENDBRANCH  24  38
BRANCH  25  44
ATOM     44  C   UNL A   1      41.329  27.526  27.825  1.00  0.00    -0.014 A 
ATOM     45  C   UNL A   1      42.127  28.030  26.783  1.00  0.00     0.009 A 
ATOM     46  C   UNL A   1      40.681  26.295  27.633  1.00  0.00     0.009 A 
ATOM     47  C   UNL A   1      42.220  27.354  25.560  1.00  0.00     0.001 A 
ATOM     48  C   UNL A   1      40.799  25.608  26.418  1.00  0.00     0.001 A 
ATOM     49  C   UNL A   1      41.552  26.146  25.376  1.00  0.00     0.000 A 
ENDBRANCH  25  44
BRANCH  37  50
ATOM     50  C   UNL A   1      44.109  27.378  34.202  1.00  0.00    -0.014 A 
ATOM     51  C   UNL A   1      43.727  26.155  34.770  1.00  0.00     0.009 A 
ATOM     52  C   UNL A   1      45.472  27.714  34.151  1.00  0.00     0.009 A 
ATOM     53  C   UNL A   1      44.691  25.295  35.296  1.00  0.00     0.001 A 
ATOM     54  C   UNL A   1      46.436  26.837  34.645  1.00  0.00     0.001 A 
ATOM     55  C   UNL A   1      46.044  25.631  35.224  1.00  0.00     0.000 A 
ENDBRANCH  37  50
ENDBRANCH  11  12
ENDBRANCH   4   6
ENDBRANCH   3   4
ENDBRANCH   2   3
ENDBRANCH   1   2
BRANCH   1  56
ATOM     56  O   UNL A   1      31.707  30.914  26.096  1.00  0.00    -0.462 OA
BRANCH  56  57
ATOM     57  C   UNL A   1      32.358  29.749  26.393  1.00  0.00     0.315 C 
ATOM     58  O   UNL A   1      33.323  29.662  27.131  1.00  0.00    -0.252 OA
BRANCH  57  59
ATOM     59  C   UNL A   1      31.819  28.627  25.546  1.00  0.00     0.163 C 
ATOM     60  C   UNL A   1      31.202  27.424  26.247  1.00  0.00     0.278 C 
ATOM     61  C   UNL A   1      33.030  28.080  24.824  1.00  0.00     0.067 C 
ATOM     62  N   UNL A   1      31.707  26.214  25.600  1.00  0.00    -0.331 N 
ATOM     63  C   UNL A   1      33.046  26.612  25.232  1.00  0.00     0.267 C 
ATOM     64  H   UNL A   1      31.715  25.392  26.204  1.00  0.00     0.348 HD
BRANCH  61  65
ATOM     65  C   UNL A   1      33.072  28.388  23.359  1.00  0.00    -0.001 C 
ATOM     66  C   UNL A   1      34.292  28.600  22.486  1.00  0.00     0.004 C 
ATOM     67  C   UNL A   1      33.517  27.319  22.390  1.00  0.00     0.004 C 
ENDBRANCH  61  65
BRANCH  62  68
ATOM     68  C   UNL A   1      30.835  25.578  24.589  1.00  0.00     0.304 C 
BRANCH  68  69
ATOM     69  C   UNL A   1      29.654  26.311  23.887  1.00  0.00     0.290 C 
BRANCH  69  70
ATOM     70  O   UNL A   1      30.041  27.286  22.891  1.00  0.00    -0.488 OA
BRANCH  70  71
ATOM     71  C   UNL A   1      29.188  28.353  22.778  1.00  0.00     0.119 A 
ATOM     72  C   UNL A   1      29.769  29.575  22.418  1.00  0.00     0.049 A 
ATOM     73  C   UNL A   1      27.838  28.297  23.137  1.00  0.00     0.049 A 
ATOM     74  C   UNL A   1      29.075  30.766  22.662  1.00  0.00     0.043 A 
ATOM     75  C   UNL A   1      27.126  29.491  23.318  1.00  0.00     0.043 A 
ATOM     76  C   UNL A   1      27.773  30.711  23.147  1.00  0.00     0.123 A 
ATOM     77  F   UNL A   1      27.164  31.840  23.535  1.00  0.00    -0.207 F 
ENDBRANCH  70  71
ENDBRANCH  69  70
ENDBRANCH  68  69
ENDBRANCH  62  68
ENDBRANCH  57  59
ENDBRANCH  56  57
ENDBRANCH   1  56
TORSDOF 16
ENDMDL
