MODEL 1
REMARK VINA RESULT:     -10.8      0.000      0.000
REMARK SMILES CC(C)[C@H](NC(=O)Cc1csc(-c2c(Cl)cccc2Cl)n1)C(=O)OCCOC(=O)c1ccc(-c2c3nc(c(-c4ccccc4)c4ccc([nH]4)c(-c4ccccc4)c4nc(c(-c5ccccc5)c5ccc2[nH]5)C=C4)C=C3)cc1
REMARK SMILES IDX 25 1 24 2 22 3 23 4 4 5 2 6 1 7 3 8 5 9 6 10 7 12 8 13 9 14
REMARK SMILES IDX 10 15 21 16 11 17 12 18 13 19 14 20 19 21 15 22 16 23 18 24
REMARK SMILES IDX 20 25 17 26 26 27 27 28 28 29 29 30 30 31 31 32 77 33 32 34
REMARK SMILES IDX 76 35 33 36 34 37 35 38 70 39 36 40 75 41 69 42 71 43 37 44
REMARK SMILES IDX 74 45 68 46 67 47 38 49 60 50 45 51 59 52 46 53 49 54 58 55
REMARK SMILES IDX 72 56 47 57 48 58 57 60 73 61 50 62 39 63 40 64 44 65 41 66
REMARK SMILES IDX 43 67 42 68 61 69 62 70 66 71 63 72 65 73 64 74 51 75 52 76
REMARK SMILES IDX 56 77 53 78 55 79 54 80
REMARK H PARENT 5 11 71 48 49 59
REMARK Flexibility Score: inf
ROOT
ATOM      1  C   UNL A   1      36.372  19.276  24.910  1.00  0.00     0.274 C 
ENDROOT
BRANCH   1   2
ATOM      2  O   UNL A   1      35.582  20.387  25.381  1.00  0.00    -0.461 OA
BRANCH   2   3
ATOM      3  C   UNL A   1      34.269  20.352  25.022  1.00  0.00     0.329 C 
ATOM      4  O   UNL A   1      33.739  19.411  24.439  1.00  0.00    -0.250 OA
BRANCH   3   5
ATOM      5  C   UNL A   1      33.524  21.670  25.305  1.00  0.00     0.194 C 
BRANCH   5   6
ATOM      6  C   UNL A   1      34.324  22.530  26.326  1.00  0.00     0.017 C 
ATOM      7  C   UNL A   1      34.558  23.973  25.863  1.00  0.00     0.010 C 
ATOM      8  C   UNL A   1      33.673  22.540  27.711  1.00  0.00     0.010 C 
ENDBRANCH   5   6
BRANCH   5   9
ATOM      9  N   UNL A   1      32.135  21.521  25.766  1.00  0.00    -0.342 N 
ATOM     10  C   UNL A   1      31.051  22.326  25.543  1.00  0.00     0.226 C 
ATOM     11  H   UNL A   1      31.960  20.724  26.316  1.00  0.00     0.164 HD
ATOM     12  O   UNL A   1      30.066  22.173  26.272  1.00  0.00    -0.275 OA
BRANCH  10  13
ATOM     13  C   UNL A   1      30.991  23.283  24.363  1.00  0.00     0.157 C 
BRANCH  13  14
ATOM     14  C   UNL A   1      30.923  24.738  24.683  1.00  0.00     0.061 A 
ATOM     15  C   UNL A   1      31.336  25.344  25.857  1.00  0.00     0.091 A 
ATOM     16  N   UNL A   1      30.295  25.597  23.806  1.00  0.00    -0.240 NA
ATOM     17  S   UNL A   1      30.969  27.023  25.830  1.00  0.00    -0.122 S 
ATOM     18  C   UNL A   1      30.279  26.825  24.276  1.00  0.00     0.126 A 
BRANCH  18  19
ATOM     19  C   UNL A   1      29.730  27.951  23.527  1.00  0.00     0.048 A 
ATOM     20  C   UNL A   1      28.347  28.075  23.311  1.00  0.00     0.052 A 
ATOM     21  C   UNL A   1      30.590  28.847  22.871  1.00  0.00     0.052 A 
ATOM     22  Cl  UNL A   1      27.197  27.011  24.052  1.00  0.00    -0.084 Cl
ATOM     23  C   UNL A   1      27.844  29.053  22.444  1.00  0.00     0.021 A 
ATOM     24  C   UNL A   1      30.084  29.826  22.009  1.00  0.00     0.021 A 
ATOM     25  Cl  UNL A   1      32.311  28.783  23.063  1.00  0.00    -0.084 Cl
ATOM     26  C   UNL A   1      28.712  29.922  21.786  1.00  0.00     0.003 A 
ENDBRANCH  18  19
ENDBRANCH  13  14
ENDBRANCH  10  13
ENDBRANCH   5   9
ENDBRANCH   3   5
ENDBRANCH   2   3
ENDBRANCH   1   2
BRANCH   1  27
ATOM     27  C   UNL A   1      37.868  19.597  24.856  1.00  0.00     0.275 C 
BRANCH  27  28
ATOM     28  O   UNL A   1      38.222  20.684  25.730  1.00  0.00    -0.458 OA
BRANCH  28  29
ATOM     29  C   UNL A   1      39.502  20.652  26.159  1.00  0.00     0.338 C 
ATOM     30  O   UNL A   1      40.313  19.751  26.008  1.00  0.00    -0.246 OA
BRANCH  29  31
ATOM     31  C   UNL A   1      39.889  21.942  26.742  1.00  0.00     0.060 A 
ATOM     32  C   UNL A   1      39.316  23.082  26.182  1.00  0.00     0.016 A 
ATOM     33  C   UNL A   1      40.922  22.055  27.670  1.00  0.00     0.016 A 
ATOM     34  C   UNL A   1      39.824  24.342  26.471  1.00  0.00     0.010 A 
ATOM     35  C   UNL A   1      41.407  23.329  27.997  1.00  0.00     0.010 A 
ATOM     36  C   UNL A   1      40.892  24.476  27.366  1.00  0.00    -0.014 A 
BRANCH  36  37
ATOM     37  C   UNL A   1      41.502  25.817  27.559  1.00  0.00     0.031 A 
ATOM     38  C   UNL A   1      40.836  26.830  28.450  1.00  0.00     0.074 A 
ATOM     39  C   UNL A   1      42.697  26.099  27.005  1.00  0.00     0.049 A 
ATOM     40  N   UNL A   1      41.211  28.052  28.736  1.00  0.00    -0.248 NA
ATOM     41  C   UNL A   1      39.588  26.415  29.110  1.00  0.00     0.031 C 
ATOM     42  C   UNL A   1      43.480  25.187  26.170  1.00  0.00     0.029 A 
ATOM     43  N   UNL A   1      43.471  27.229  27.086  1.00  0.00    -0.354 N 
ATOM     44  C   UNL A   1      40.232  28.561  29.581  1.00  0.00     0.074 A 
ATOM     45  C   UNL A   1      39.242  27.520  29.757  1.00  0.00     0.031 C 
ATOM     46  C   UNL A   1      44.639  25.780  25.844  1.00  0.00     0.029 A 
ATOM     47  C   UNL A   1      44.658  27.128  26.404  1.00  0.00     0.049 A 
ATOM     48  H   UNL A   1      43.202  28.033  27.584  1.00  0.00     0.167 HD
ATOM     49  C   UNL A   1      40.161  29.784  30.159  1.00  0.00     0.031 A 
ATOM     50  C   UNL A   1      45.649  28.024  26.238  1.00  0.00     0.031 A 
ATOM     51  C   UNL A   1      41.148  30.819  30.008  1.00  0.00     0.049 A 
ATOM     52  C   UNL A   1      45.531  29.384  26.864  1.00  0.00     0.074 A 
ATOM     53  C   UNL A   1      41.154  32.094  30.549  1.00  0.00     0.029 A 
ATOM     54  N   UNL A   1      42.313  30.693  29.269  1.00  0.00    -0.354 N 
ATOM     55  N   UNL A   1      44.579  29.861  27.627  1.00  0.00    -0.248 NA
ATOM     56  C   UNL A   1      46.626  30.328  26.599  1.00  0.00     0.031 C 
ATOM     57  C   UNL A   1      42.311  32.750  30.113  1.00  0.00     0.029 A 
ATOM     58  C   UNL A   1      43.042  31.869  29.332  1.00  0.00     0.049 A 
ATOM     59  H   UNL A   1      42.583  29.886  28.773  1.00  0.00     0.167 HD
ATOM     60  C   UNL A   1      44.963  31.158  27.942  1.00  0.00     0.074 A 
ATOM     61  C   UNL A   1      46.244  31.385  27.304  1.00  0.00     0.031 C 
ATOM     62  C   UNL A   1      44.310  32.081  28.687  1.00  0.00     0.031 A 
BRANCH  49  63
ATOM     63  C   UNL A   1      38.943  30.082  30.986  1.00  0.00    -0.014 A 
ATOM     64  C   UNL A   1      38.924  29.844  32.368  1.00  0.00     0.009 A 
ATOM     65  C   UNL A   1      37.808  30.634  30.372  1.00  0.00     0.009 A 
ATOM     66  C   UNL A   1      37.779  30.127  33.116  1.00  0.00     0.001 A 
ATOM     67  C   UNL A   1      36.672  30.935  31.125  1.00  0.00     0.001 A 
ATOM     68  C   UNL A   1      36.656  30.675  32.494  1.00  0.00     0.000 A 
ENDBRANCH  49  63
BRANCH  50  69
ATOM     69  C   UNL A   1      46.836  27.669  25.423  1.00  0.00    -0.014 A 
ATOM     70  C   UNL A   1      46.851  27.911  24.042  1.00  0.00     0.009 A 
ATOM     71  C   UNL A   1      47.962  27.085  26.026  1.00  0.00     0.009 A 
ATOM     72  C   UNL A   1      47.967  27.560  23.276  1.00  0.00     0.001 A 
ATOM     73  C   UNL A   1      49.082  26.757  25.262  1.00  0.00     0.001 A 
ATOM     74  C   UNL A   1      49.081  26.987  23.888  1.00  0.00     0.000 A 
ENDBRANCH  50  69
BRANCH  62  75
ATOM     75  C   UNL A   1      44.982  33.410  28.863  1.00  0.00    -0.014 A 
ATOM     76  C   UNL A   1      45.857  33.640  29.935  1.00  0.00     0.009 A 
ATOM     77  C   UNL A   1      44.751  34.437  27.936  1.00  0.00     0.009 A 
ATOM     78  C   UNL A   1      46.464  34.887  30.094  1.00  0.00     0.001 A 
ATOM     79  C   UNL A   1      45.374  35.677  28.087  1.00  0.00     0.001 A 
ATOM     80  C   UNL A   1      46.223  35.903  29.170  1.00  0.00     0.000 A 
ENDBRANCH  62  75
ENDBRANCH  36  37
ENDBRANCH  29  31
ENDBRANCH  28  29
ENDBRANCH  27  28
ENDBRANCH   1  27
TORSDOF 16
ENDMDL
MODEL 2
REMARK VINA RESULT:     -10.8      2.612      3.438
REMARK SMILES CC(C)[C@H](NC(=O)Cc1csc(-c2c(Cl)cccc2Cl)n1)C(=O)OCCOC(=O)c1ccc(-c2c3nc(c(-c4ccccc4)c4ccc([nH]4)c(-c4ccccc4)c4nc(c(-c5ccccc5)c5ccc2[nH]5)C=C4)C=C3)cc1
REMARK SMILES IDX 25 1 24 2 22 3 23 4 4 5 2 6 1 7 3 8 5 9 6 10 7 12 8 13 9 14
REMARK SMILES IDX 10 15 21 16 11 17 12 18 13 19 14 20 19 21 15 22 16 23 18 24
REMARK SMILES IDX 20 25 17 26 26 27 27 28 28 29 29 30 30 31 31 32 77 33 32 34
REMARK SMILES IDX 76 35 33 36 34 37 35 38 70 39 36 40 75 41 69 42 71 43 37 44
REMARK SMILES IDX 74 45 68 46 67 47 38 49 60 50 45 51 59 52 46 53 49 54 58 55
REMARK SMILES IDX 72 56 47 57 48 58 57 60 73 61 50 62 39 63 40 64 44 65 41 66
REMARK SMILES IDX 43 67 42 68 61 69 62 70 66 71 63 72 65 73 64 74 51 75 52 76
REMARK SMILES IDX 56 77 53 78 55 79 54 80
REMARK H PARENT 5 11 71 48 49 59
REMARK Flexibility Score: inf
ROOT
ATOM      1  C   UNL A   1      38.142  21.420  25.235  1.00  0.00     0.274 C 
ENDROOT
BRANCH   1   2
ATOM      2  O   UNL A   1      36.714  21.238  25.145  1.00  0.00    -0.461 OA
BRANCH   2   3
ATOM      3  C   UNL A   1      36.083  22.064  24.264  1.00  0.00     0.329 C 
ATOM      4  O   UNL A   1      36.631  22.588  23.298  1.00  0.00    -0.250 OA
BRANCH   3   5
ATOM      5  C   UNL A   1      34.632  22.388  24.663  1.00  0.00     0.194 C 
BRANCH   5   6
ATOM      6  C   UNL A   1      34.403  22.060  26.167  1.00  0.00     0.017 C 
ATOM      7  C   UNL A   1      33.910  23.257  26.988  1.00  0.00     0.010 C 
ATOM      8  C   UNL A   1      33.449  20.880  26.364  1.00  0.00     0.010 C 
ENDBRANCH   5   6
BRANCH   5   9
ATOM      9  N   UNL A   1      33.595  21.734  23.852  1.00  0.00    -0.342 N 
ATOM     10  C   UNL A   1      32.827  22.244  22.841  1.00  0.00     0.226 C 
ATOM     11  H   UNL A   1      33.429  20.788  24.068  1.00  0.00     0.164 HD
ATOM     12  O   UNL A   1      31.819  21.610  22.512  1.00  0.00    -0.275 OA
BRANCH  10  13
ATOM     13  C   UNL A   1      33.255  23.469  22.048  1.00  0.00     0.157 C 
BRANCH  13  14
ATOM     14  C   UNL A   1      32.590  24.759  22.397  1.00  0.00     0.061 A 
ATOM     15  C   UNL A   1      31.726  25.484  21.594  1.00  0.00     0.091 A 
ATOM     16  N   UNL A   1      32.917  25.394  23.576  1.00  0.00    -0.240 NA
ATOM     17  S   UNL A   1      31.287  26.959  22.361  1.00  0.00    -0.122 S 
ATOM     18  C   UNL A   1      32.281  26.539  23.689  1.00  0.00     0.126 A 
BRANCH  18  19
ATOM     19  C   UNL A   1      32.393  27.392  24.868  1.00  0.00     0.048 A 
ATOM     20  C   UNL A   1      33.361  28.408  24.940  1.00  0.00     0.052 A 
ATOM     21  C   UNL A   1      31.639  27.107  26.019  1.00  0.00     0.052 A 
ATOM     22  Cl  UNL A   1      34.361  28.829  23.589  1.00  0.00    -0.084 Cl
ATOM     23  C   UNL A   1      33.582  29.101  26.137  1.00  0.00     0.021 A 
ATOM     24  C   UNL A   1      31.860  27.804  27.212  1.00  0.00     0.021 A 
ATOM     25  Cl  UNL A   1      30.423  25.873  26.042  1.00  0.00    -0.084 Cl
ATOM     26  C   UNL A   1      32.838  28.793  27.274  1.00  0.00     0.003 A 
ENDBRANCH  18  19
ENDBRANCH  13  14
ENDBRANCH  10  13
ENDBRANCH   5   9
ENDBRANCH   3   5
ENDBRANCH   2   3
ENDBRANCH   1   2
BRANCH   1  27
ATOM     27  C   UNL A   1      38.899  20.094  25.344  1.00  0.00     0.275 C 
BRANCH  27  28
ATOM     28  O   UNL A   1      39.728  20.038  26.519  1.00  0.00    -0.458 OA
BRANCH  28  29
ATOM     29  C   UNL A   1      41.045  19.888  26.258  1.00  0.00     0.338 C 
ATOM     30  O   UNL A   1      41.581  18.977  25.645  1.00  0.00    -0.246 OA
BRANCH  29  31
ATOM     31  C   UNL A   1      41.800  21.068  26.692  1.00  0.00     0.060 A 
ATOM     32  C   UNL A   1      41.743  21.388  28.047  1.00  0.00     0.016 A 
ATOM     33  C   UNL A   1      42.384  21.949  25.784  1.00  0.00     0.016 A 
ATOM     34  C   UNL A   1      42.184  22.625  28.499  1.00  0.00     0.010 A 
ATOM     35  C   UNL A   1      42.871  23.180  26.245  1.00  0.00     0.010 A 
ATOM     36  C   UNL A   1      42.733  23.545  27.597  1.00  0.00    -0.014 A 
BRANCH  36  37
ATOM     37  C   UNL A   1      43.077  24.906  28.080  1.00  0.00     0.031 A 
ATOM     38  C   UNL A   1      41.990  25.914  28.340  1.00  0.00     0.074 A 
ATOM     39  C   UNL A   1      44.355  25.215  28.370  1.00  0.00     0.049 A 
ATOM     40  N   UNL A   1      42.093  27.151  28.757  1.00  0.00    -0.248 NA
ATOM     41  C   UNL A   1      40.605  25.473  28.106  1.00  0.00     0.031 C 
ATOM     42  C   UNL A   1      45.498  24.313  28.223  1.00  0.00     0.029 A 
ATOM     43  N   UNL A   1      44.901  26.368  28.873  1.00  0.00    -0.354 N 
ATOM     44  C   UNL A   1      40.795  27.645  28.804  1.00  0.00     0.074 A 
ATOM     45  C   UNL A   1      39.920  26.578  28.367  1.00  0.00     0.031 C 
ATOM     46  C   UNL A   1      46.605  24.935  28.659  1.00  0.00     0.029 A 
ATOM     47  C   UNL A   1      46.257  26.292  29.070  1.00  0.00     0.049 A 
ATOM     48  H   UNL A   1      44.371  27.173  29.074  1.00  0.00     0.167 HD
ATOM     49  C   UNL A   1      40.367  28.875  29.177  1.00  0.00     0.031 A 
ATOM     50  C   UNL A   1      47.128  27.214  29.519  1.00  0.00     0.031 A 
ATOM     51  C   UNL A   1      41.225  29.937  29.631  1.00  0.00     0.049 A 
ATOM     52  C   UNL A   1      46.632  28.581  29.896  1.00  0.00     0.074 A 
ATOM     53  C   UNL A   1      40.879  31.220  30.020  1.00  0.00     0.029 A 
ATOM     54  N   UNL A   1      42.598  29.833  29.770  1.00  0.00    -0.354 N 
ATOM     55  N   UNL A   1      45.406  29.042  29.897  1.00  0.00    -0.248 NA
ATOM     56  C   UNL A   1      47.645  29.553  30.331  1.00  0.00     0.031 C 
ATOM     57  C   UNL A   1      42.051  31.903  30.368  1.00  0.00     0.029 A 
ATOM     58  C   UNL A   1      43.118  31.031  30.229  1.00  0.00     0.049 A 
ATOM     59  H   UNL A   1      43.127  29.027  29.571  1.00  0.00     0.167 HD
ATOM     60  C   UNL A   1      45.498  30.356  30.339  1.00  0.00     0.074 A 
ATOM     61  C   UNL A   1      46.896  30.609  30.617  1.00  0.00     0.031 C 
ATOM     62  C   UNL A   1      44.512  31.271  30.495  1.00  0.00     0.031 A 
BRANCH  49  63
ATOM     63  C   UNL A   1      38.894  29.150  29.070  1.00  0.00    -0.014 A 
ATOM     64  C   UNL A   1      38.040  28.985  30.169  1.00  0.00     0.009 A 
ATOM     65  C   UNL A   1      38.362  29.607  27.854  1.00  0.00     0.009 A 
ATOM     66  C   UNL A   1      36.673  29.245  30.045  1.00  0.00     0.001 A 
ATOM     67  C   UNL A   1      37.000  29.886  27.738  1.00  0.00     0.001 A 
ATOM     68  C   UNL A   1      36.155  29.698  28.831  1.00  0.00     0.000 A 
ENDBRANCH  49  63
BRANCH  50  69
ATOM     69  C   UNL A   1      48.570  26.881  29.619  1.00  0.00    -0.014 A 
ATOM     70  C   UNL A   1      49.094  26.323  30.793  1.00  0.00     0.009 A 
ATOM     71  C   UNL A   1      49.430  27.122  28.535  1.00  0.00     0.009 A 
ATOM     72  C   UNL A   1      50.456  26.026  30.887  1.00  0.00     0.001 A 
ATOM     73  C   UNL A   1      50.785  26.804  28.624  1.00  0.00     0.001 A 
ATOM     74  C   UNL A   1      51.298  26.264  29.802  1.00  0.00     0.000 A 
ENDBRANCH  50  69
BRANCH  62  75
ATOM     75  C   UNL A   1      44.915  32.622  31.004  1.00  0.00    -0.014 A 
ATOM     76  C   UNL A   1      45.257  33.655  30.119  1.00  0.00     0.009 A 
ATOM     77  C   UNL A   1      44.937  32.869  32.385  1.00  0.00     0.009 A 
ATOM     78  C   UNL A   1      45.645  34.904  30.609  1.00  0.00     0.001 A 
ATOM     79  C   UNL A   1      45.307  34.124  32.872  1.00  0.00     0.001 A 
ATOM     80  C   UNL A   1      45.668  35.137  31.984  1.00  0.00     0.000 A 
ENDBRANCH  62  75
ENDBRANCH  36  37
ENDBRANCH  29  31
ENDBRANCH  28  29
ENDBRANCH  27  28
ENDBRANCH   1  27
TORSDOF 16
ENDMDL
MODEL 3
REMARK VINA RESULT:     -10.7      2.694      6.103
REMARK SMILES CC(C)[C@H](NC(=O)Cc1csc(-c2c(Cl)cccc2Cl)n1)C(=O)OCCOC(=O)c1ccc(-c2c3nc(c(-c4ccccc4)c4ccc([nH]4)c(-c4ccccc4)c4nc(c(-c5ccccc5)c5ccc2[nH]5)C=C4)C=C3)cc1
REMARK SMILES IDX 25 1 24 2 22 3 23 4 4 5 2 6 1 7 3 8 5 9 6 10 7 12 8 13 9 14
REMARK SMILES IDX 10 15 21 16 11 17 12 18 13 19 14 20 19 21 15 22 16 23 18 24
REMARK SMILES IDX 20 25 17 26 26 27 27 28 28 29 29 30 30 31 31 32 77 33 32 34
REMARK SMILES IDX 76 35 33 36 34 37 35 38 70 39 36 40 75 41 69 42 71 43 37 44
REMARK SMILES IDX 74 45 68 46 67 47 38 49 60 50 45 51 59 52 46 53 49 54 58 55
REMARK SMILES IDX 72 56 47 57 48 58 57 60 73 61 50 62 39 63 40 64 44 65 41 66
REMARK SMILES IDX 43 67 42 68 61 69 62 70 66 71 63 72 65 73 64 74 51 75 52 76
REMARK SMILES IDX 56 77 53 78 55 79 54 80
REMARK H PARENT 5 11 71 48 49 59
REMARK Flexibility Score: inf
ROOT
ATOM      1  C   UNL A   1      38.040  20.615  25.058  1.00  0.00     0.274 C 
ENDROOT
BRANCH   1   2
ATOM      2  O   UNL A   1      36.828  21.265  25.493  1.00  0.00    -0.461 OA
BRANCH   2   3
ATOM      3  C   UNL A   1      36.149  21.929  24.517  1.00  0.00     0.329 C 
ATOM      4  O   UNL A   1      36.663  22.345  23.482  1.00  0.00    -0.250 OA
BRANCH   3   5
ATOM      5  C   UNL A   1      34.685  22.229  24.888  1.00  0.00     0.194 C 
BRANCH   5   6
ATOM      6  C   UNL A   1      34.387  21.739  26.335  1.00  0.00     0.017 C 
ATOM      7  C   UNL A   1      34.002  22.868  27.299  1.00  0.00     0.010 C 
ATOM      8  C   UNL A   1      33.310  20.652  26.369  1.00  0.00     0.010 C 
ENDBRANCH   5   6
BRANCH   5   9
ATOM      9  N   UNL A   1      33.678  21.685  23.966  1.00  0.00    -0.342 N 
ATOM     10  C   UNL A   1      32.975  22.311  22.972  1.00  0.00     0.226 C 
ATOM     11  H   UNL A   1      33.480  20.727  24.080  1.00  0.00     0.164 HD
ATOM     12  O   UNL A   1      31.973  21.740  22.533  1.00  0.00    -0.275 OA
BRANCH  10  13
ATOM     13  C   UNL A   1      33.471  23.596  22.326  1.00  0.00     0.157 C 
BRANCH  13  14
ATOM     14  C   UNL A   1      32.723  24.844  22.657  1.00  0.00     0.061 A 
ATOM     15  C   UNL A   1      31.773  25.468  21.867  1.00  0.00     0.091 A 
ATOM     16  N   UNL A   1      33.048  25.548  23.796  1.00  0.00    -0.240 NA
ATOM     17  S   UNL A   1      31.253  26.935  22.598  1.00  0.00    -0.122 S 
ATOM     18  C   UNL A   1      32.331  26.645  23.895  1.00  0.00     0.126 A 
BRANCH  18  19
ATOM     19  C   UNL A   1      32.425  27.551  25.036  1.00  0.00     0.048 A 
ATOM     20  C   UNL A   1      31.664  27.339  26.198  1.00  0.00     0.052 A 
ATOM     21  C   UNL A   1      33.161  28.743  24.930  1.00  0.00     0.052 A 
ATOM     22  Cl  UNL A   1      30.703  25.915  26.425  1.00  0.00    -0.084 Cl
ATOM     23  C   UNL A   1      31.623  28.304  27.211  1.00  0.00     0.021 A 
ATOM     24  C   UNL A   1      33.122  29.703  25.947  1.00  0.00     0.021 A 
ATOM     25  Cl  UNL A   1      34.130  29.108  23.541  1.00  0.00    -0.084 Cl
ATOM     26  C   UNL A   1      32.344  29.489  27.082  1.00  0.00     0.003 A 
ENDBRANCH  18  19
ENDBRANCH  13  14
ENDBRANCH  10  13
ENDBRANCH   5   9
ENDBRANCH   3   5
ENDBRANCH   2   3
ENDBRANCH   1   2
BRANCH   1  27
ATOM     27  C   UNL A   1      39.265  21.048  25.868  1.00  0.00     0.275 C 
BRANCH  27  28
ATOM     28  O   UNL A   1      40.013  19.923  26.363  1.00  0.00    -0.458 OA
BRANCH  28  29
ATOM     29  C   UNL A   1      41.325  19.948  26.040  1.00  0.00     0.338 C 
ATOM     30  O   UNL A   1      41.929  19.160  25.329  1.00  0.00    -0.246 OA
BRANCH  29  31
ATOM     31  C   UNL A   1      41.964  21.166  26.550  1.00  0.00     0.060 A 
ATOM     32  C   UNL A   1      41.922  21.370  27.927  1.00  0.00     0.016 A 
ATOM     33  C   UNL A   1      42.416  22.175  25.701  1.00  0.00     0.016 A 
ATOM     34  C   UNL A   1      42.244  22.608  28.468  1.00  0.00     0.010 A 
ATOM     35  C   UNL A   1      42.785  23.411  26.249  1.00  0.00     0.010 A 
ATOM     36  C   UNL A   1      42.657  23.651  27.629  1.00  0.00    -0.014 A 
BRANCH  36  37
ATOM     37  C   UNL A   1      42.870  24.999  28.214  1.00  0.00     0.031 A 
ATOM     38  C   UNL A   1      44.258  25.461  28.568  1.00  0.00     0.074 A 
ATOM     39  C   UNL A   1      41.832  25.847  28.348  1.00  0.00     0.049 A 
ATOM     40  N   UNL A   1      44.642  26.597  29.093  1.00  0.00    -0.248 NA
ATOM     41  C   UNL A   1      45.359  24.523  28.293  1.00  0.00     0.031 C 
ATOM     42  C   UNL A   1      40.445  25.551  27.986  1.00  0.00     0.029 A 
ATOM     43  N   UNL A   1      41.791  27.140  28.803  1.00  0.00    -0.354 N 
ATOM     44  C   UNL A   1      46.021  26.500  29.240  1.00  0.00     0.074 A 
ATOM     45  C   UNL A   1      46.407  25.192  28.756  1.00  0.00     0.031 C 
ATOM     46  C   UNL A   1      39.694  26.643  28.201  1.00  0.00     0.029 A 
ATOM     47  C   UNL A   1      40.536  27.696  28.759  1.00  0.00     0.049 A 
ATOM     48  H   UNL A   1      42.584  27.623  29.128  1.00  0.00     0.167 HD
ATOM     49  C   UNL A   1      46.889  27.416  29.732  1.00  0.00     0.031 A 
ATOM     50  C   UNL A   1      40.107  28.915  29.136  1.00  0.00     0.031 A 
ATOM     51  C   UNL A   1      46.520  28.726  30.197  1.00  0.00     0.049 A 
ATOM     52  C   UNL A   1      41.085  29.901  29.709  1.00  0.00     0.074 A 
ATOM     53  C   UNL A   1      47.332  29.717  30.722  1.00  0.00     0.029 A 
ATOM     54  N   UNL A   1      45.231  29.233  30.180  1.00  0.00    -0.354 N 
ATOM     55  N   UNL A   1      42.379  29.777  29.876  1.00  0.00    -0.248 NA
ATOM     56  C   UNL A   1      40.538  31.193  30.146  1.00  0.00     0.031 C 
ATOM     57  C   UNL A   1      46.527  30.815  31.050  1.00  0.00     0.029 A 
ATOM     58  C   UNL A   1      45.222  30.518  30.694  1.00  0.00     0.049 A 
ATOM     59  H   UNL A   1      44.438  28.750  29.851  1.00  0.00     0.167 HD
ATOM     60  C   UNL A   1      42.803  30.977  30.432  1.00  0.00     0.074 A 
ATOM     61  C   UNL A   1      41.633  31.823  30.551  1.00  0.00     0.031 C 
ATOM     62  C   UNL A   1      44.050  31.344  30.813  1.00  0.00     0.031 A 
BRANCH  49  63
ATOM     63  C   UNL A   1      48.332  27.011  29.829  1.00  0.00    -0.014 A 
ATOM     64  C   UNL A   1      49.238  27.287  28.794  1.00  0.00     0.009 A 
ATOM     65  C   UNL A   1      48.794  26.365  30.986  1.00  0.00     0.009 A 
ATOM     66  C   UNL A   1      50.575  26.898  28.906  1.00  0.00     0.001 A 
ATOM     67  C   UNL A   1      50.134  25.996  31.104  1.00  0.00     0.001 A 
ATOM     68  C   UNL A   1      51.022  26.256  30.061  1.00  0.00     0.000 A 
ENDBRANCH  49  63
BRANCH  50  69
ATOM     69  C   UNL A   1      38.672  29.266  29.004  1.00  0.00    -0.014 A 
ATOM     70  C   UNL A   1      38.166  29.750  27.789  1.00  0.00     0.009 A 
ATOM     71  C   UNL A   1      37.802  29.117  30.095  1.00  0.00     0.009 A 
ATOM     72  C   UNL A   1      36.816  30.094  27.675  1.00  0.00     0.001 A 
ATOM     73  C   UNL A   1      36.451  29.441  29.971  1.00  0.00     0.001 A 
ATOM     74  C   UNL A   1      35.961  29.936  28.765  1.00  0.00     0.000 A 
ENDBRANCH  50  69
BRANCH  62  75
ATOM     75  C   UNL A   1      44.208  32.724  31.378  1.00  0.00    -0.014 A 
ATOM     76  C   UNL A   1      44.461  33.822  30.543  1.00  0.00     0.009 A 
ATOM     77  C   UNL A   1      44.084  32.930  32.761  1.00  0.00     0.009 A 
ATOM     78  C   UNL A   1      44.620  35.098  31.085  1.00  0.00     0.001 A 
ATOM     79  C   UNL A   1      44.225  34.209  33.298  1.00  0.00     0.001 A 
ATOM     80  C   UNL A   1      44.501  35.291  32.462  1.00  0.00     0.000 A 
ENDBRANCH  62  75
ENDBRANCH  36  37
ENDBRANCH  29  31
ENDBRANCH  28  29
ENDBRANCH  27  28
ENDBRANCH   1  27
TORSDOF 16
ENDMDL
