MODEL 1
REMARK VINA RESULT:     -10.0      0.000      0.000
REMARK SMILES CC[N@H+](CC(C)(C)C(=O)OCCOC(=O)c1ccc(-c2c3nc(c(-c4ccccc4)c4ccc([nH]4)c(-c4ccccc4)c4nc(c(-c5ccccc5)c5ccc2[nH]5)C=C4)C=C3)cc1)[C@H]1CCC[NH2+]C1
REMARK SMILES IDX 11 1 10 2 8 3 9 4 5 5 6 6 7 7 4 8 3 9 2 11 1 12 64 13 65 14
REMARK SMILES IDX 69 15 66 16 68 17 67 18 12 21 13 22 14 23 15 24 16 25 17 26
REMARK SMILES IDX 63 27 18 28 62 29 19 30 20 31 21 32 56 33 22 34 61 35 55 36
REMARK SMILES IDX 57 37 23 38 60 39 54 40 53 41 24 43 46 44 31 45 45 46 32 47
REMARK SMILES IDX 35 48 44 49 58 50 33 51 34 52 43 54 59 55 36 56 25 57 26 58
REMARK SMILES IDX 30 59 27 60 29 61 28 62 47 63 48 64 52 65 49 66 51 67 50 68
REMARK SMILES IDX 37 69 38 70 42 71 39 72 41 73 40 74
REMARK H PARENT 3 10 68 19 68 20 57 42 35 53
REMARK Flexibility Score: inf
ROOT
ATOM      1  C   UNL A   1      31.515  31.902  26.876  1.00  0.00     0.274 C 
ENDROOT
BRANCH   1   2
ATOM      2  O   UNL A   1      32.049  30.989  25.885  1.00  0.00    -0.461 OA
BRANCH   2   3
ATOM      3  C   UNL A   1      32.788  29.978  26.409  1.00  0.00     0.317 C 
ATOM      4  O   UNL A   1      33.876  30.186  26.926  1.00  0.00    -0.251 OA
BRANCH   3   5
ATOM      5  C   UNL A   1      32.151  28.587  26.319  1.00  0.00     0.111 C 
ATOM      6  C   UNL A   1      31.463  28.166  27.619  1.00  0.00     0.029 C 
ATOM      7  C   UNL A   1      33.326  27.620  26.035  1.00  0.00     0.029 C 
BRANCH   5   8
ATOM      8  C   UNL A   1      31.143  28.497  25.102  1.00  0.00     0.280 C 
BRANCH   8   9
ATOM      9  N   UNL A   1      31.183  29.390  23.875  1.00  0.00    -0.327 N 
ATOM     10  H   UNL A   1      31.645  30.278  24.073  1.00  0.00     0.348 HD
BRANCH   9  11
ATOM     11  C   UNL A   1      32.004  28.760  22.819  1.00  0.00     0.259 C 
ATOM     12  C   UNL A   1      33.504  28.980  22.665  1.00  0.00     0.071 C 
ENDBRANCH   9  11
BRANCH   9  13
ATOM     13  C   UNL A   1      29.768  29.750  23.466  1.00  0.00     0.239 C 
ATOM     14  C   UNL A   1      29.296  31.156  23.903  1.00  0.00     0.077 C 
ATOM     15  C   UNL A   1      29.443  29.563  21.955  1.00  0.00     0.326 C 
ATOM     16  C   UNL A   1      27.905  31.527  23.385  1.00  0.00     0.068 C 
ATOM     17  N   UNL A   1      28.082  29.930  21.549  1.00  0.00    -0.341 N 
ATOM     18  C   UNL A   1      27.815  31.325  21.878  1.00  0.00     0.260 C 
ATOM     19  H   UNL A   1      27.984  29.798  20.542  1.00  0.00     0.346 HD
ATOM     20  H   UNL A   1      27.416  29.339  22.045  1.00  0.00     0.346 HD
ENDBRANCH   9  13
ENDBRANCH   8   9
ENDBRANCH   5   8
ENDBRANCH   3   5
ENDBRANCH   2   3
ENDBRANCH   1   2
BRANCH   1  21
ATOM     21  C   UNL A   1      32.160  33.305  26.925  1.00  0.00     0.275 C 
BRANCH  21  22
ATOM     22  O   UNL A   1      32.163  33.908  28.242  1.00  0.00    -0.458 OA
BRANCH  22  23
ATOM     23  C   UNL A   1      33.192  34.766  28.490  1.00  0.00     0.338 C 
ATOM     24  O   UNL A   1      33.123  35.981  28.505  1.00  0.00    -0.246 OA
BRANCH  23  25
ATOM     25  C   UNL A   1      34.407  34.035  28.954  1.00  0.00     0.060 A 
ATOM     26  C   UNL A   1      34.189  32.852  29.665  1.00  0.00     0.016 A 
ATOM     27  C   UNL A   1      35.719  34.461  28.727  1.00  0.00     0.016 A 
ATOM     28  C   UNL A   1      35.265  32.083  30.113  1.00  0.00     0.010 A 
ATOM     29  C   UNL A   1      36.804  33.696  29.208  1.00  0.00     0.010 A 
ATOM     30  C   UNL A   1      36.588  32.489  29.895  1.00  0.00    -0.014 A 
BRANCH  30  31
ATOM     31  C   UNL A   1      37.699  31.689  30.494  1.00  0.00     0.031 A 
ATOM     32  C   UNL A   1      37.998  31.851  31.965  1.00  0.00     0.074 A 
ATOM     33  C   UNL A   1      38.378  30.759  29.791  1.00  0.00     0.049 A 
ATOM     34  N   UNL A   1      38.924  31.277  32.693  1.00  0.00    -0.248 NA
ATOM     35  C   UNL A   1      37.124  32.764  32.719  1.00  0.00     0.031 C 
ATOM     36  C   UNL A   1      38.107  30.376  28.407  1.00  0.00     0.029 A 
ATOM     37  N   UNL A   1      39.409  29.924  30.166  1.00  0.00    -0.354 N 
ATOM     38  C   UNL A   1      38.757  31.779  33.977  1.00  0.00     0.074 A 
ATOM     39  C   UNL A   1      37.611  32.658  33.945  1.00  0.00     0.031 C 
ATOM     40  C   UNL A   1      38.913  29.351  28.067  1.00  0.00     0.029 A 
ATOM     41  C   UNL A   1      39.811  29.045  29.182  1.00  0.00     0.049 A 
ATOM     42  H   UNL A   1      39.824  29.953  31.058  1.00  0.00     0.167 HD
ATOM     43  C   UNL A   1      39.522  31.584  35.078  1.00  0.00     0.031 A 
ATOM     44  C   UNL A   1      40.795  28.119  29.179  1.00  0.00     0.031 A 
ATOM     45  C   UNL A   1      40.719  30.792  35.102  1.00  0.00     0.049 A 
ATOM     46  C   UNL A   1      41.713  28.016  30.380  1.00  0.00     0.074 A 
ATOM     47  C   UNL A   1      41.645  30.661  36.121  1.00  0.00     0.029 A 
ATOM     48  N   UNL A   1      41.161  30.007  34.052  1.00  0.00    -0.354 N 
ATOM     49  N   UNL A   1      41.606  28.581  31.559  1.00  0.00    -0.248 NA
ATOM     50  C   UNL A   1      42.916  27.178  30.231  1.00  0.00     0.031 C 
ATOM     51  C   UNL A   1      42.681  29.842  35.666  1.00  0.00     0.029 A 
ATOM     52  C   UNL A   1      42.357  29.401  34.393  1.00  0.00     0.049 A 
ATOM     53  H   UNL A   1      40.695  29.895  33.192  1.00  0.00     0.167 HD
ATOM     54  C   UNL A   1      42.714  28.156  32.288  1.00  0.00     0.074 A 
ATOM     55  C   UNL A   1      43.465  27.261  31.435  1.00  0.00     0.031 C 
ATOM     56  C   UNL A   1      43.085  28.492  33.547  1.00  0.00     0.031 A 
BRANCH  43  57
ATOM     57  C   UNL A   1      39.154  32.370  36.302  1.00  0.00    -0.014 A 
ATOM     58  C   UNL A   1      38.238  31.885  37.246  1.00  0.00     0.009 A 
ATOM     59  C   UNL A   1      39.726  33.639  36.493  1.00  0.00     0.009 A 
ATOM     60  C   UNL A   1      37.872  32.673  38.339  1.00  0.00     0.001 A 
ATOM     61  C   UNL A   1      39.381  34.412  37.600  1.00  0.00     0.001 A 
ATOM     62  C   UNL A   1      38.445  33.934  38.516  1.00  0.00     0.000 A 
ENDBRANCH  43  57
BRANCH  44  63
ATOM     63  C   UNL A   1      41.052  27.242  27.994  1.00  0.00    -0.014 A 
ATOM     64  C   UNL A   1      41.839  27.702  26.922  1.00  0.00     0.009 A 
ATOM     65  C   UNL A   1      40.434  25.989  27.871  1.00  0.00     0.009 A 
ATOM     66  C   UNL A   1      41.964  26.950  25.748  1.00  0.00     0.001 A 
ATOM     67  C   UNL A   1      40.594  25.219  26.715  1.00  0.00     0.001 A 
ATOM     68  C   UNL A   1      41.345  25.706  25.648  1.00  0.00     0.000 A 
ENDBRANCH  44  63
BRANCH  56  69
ATOM     69  C   UNL A   1      44.331  27.869  34.117  1.00  0.00    -0.014 A 
ATOM     70  C   UNL A   1      45.577  28.506  34.026  1.00  0.00     0.009 A 
ATOM     71  C   UNL A   1      44.229  26.677  34.851  1.00  0.00     0.009 A 
ATOM     72  C   UNL A   1      46.700  27.951  34.647  1.00  0.00     0.001 A 
ATOM     73  C   UNL A   1      45.346  26.140  35.494  1.00  0.00     0.001 A 
ATOM     74  C   UNL A   1      46.581  26.775  35.388  1.00  0.00     0.000 A 
ENDBRANCH  56  69
ENDBRANCH  30  31
ENDBRANCH  23  25
ENDBRANCH  22  23
ENDBRANCH  21  22
ENDBRANCH   1  21
TORSDOF 15
ENDMDL
MODEL 2
REMARK VINA RESULT:      -9.6      1.084      6.208
REMARK SMILES CC[N@H+](CC(C)(C)C(=O)OCCOC(=O)c1ccc(-c2c3nc(c(-c4ccccc4)c4ccc([nH]4)c(-c4ccccc4)c4nc(c(-c5ccccc5)c5ccc2[nH]5)C=C4)C=C3)cc1)[C@H]1CCC[NH2+]C1
REMARK SMILES IDX 11 1 10 2 8 3 9 4 5 5 6 6 7 7 4 8 3 9 2 11 1 12 64 13 65 14
REMARK SMILES IDX 69 15 66 16 68 17 67 18 12 21 13 22 14 23 15 24 16 25 17 26
REMARK SMILES IDX 63 27 18 28 62 29 19 30 20 31 21 32 56 33 22 34 61 35 55 36
REMARK SMILES IDX 57 37 23 38 60 39 54 40 53 41 24 43 46 44 31 45 45 46 32 47
REMARK SMILES IDX 35 48 44 49 58 50 33 51 34 52 43 54 59 55 36 56 25 57 26 58
REMARK SMILES IDX 30 59 27 60 29 61 28 62 47 63 48 64 52 65 49 66 51 67 50 68
REMARK SMILES IDX 37 69 38 70 42 71 39 72 41 73 40 74
REMARK H PARENT 3 10 68 19 68 20 57 42 35 53
REMARK Flexibility Score: inf
ROOT
ATOM      1  C   UNL A   1      32.895  31.581  27.265  1.00  0.00     0.274 C 
ENDROOT
BRANCH   1   2
ATOM      2  O   UNL A   1      32.600  30.693  26.158  1.00  0.00    -0.461 OA
BRANCH   2   3
ATOM      3  C   UNL A   1      33.185  29.472  26.260  1.00  0.00     0.317 C 
ATOM      4  O   UNL A   1      34.399  29.351  26.333  1.00  0.00    -0.251 OA
BRANCH   3   5
ATOM      5  C   UNL A   1      32.217  28.285  26.294  1.00  0.00     0.111 C 
ATOM      6  C   UNL A   1      31.454  28.181  27.616  1.00  0.00     0.029 C 
ATOM      7  C   UNL A   1      33.108  27.030  26.127  1.00  0.00     0.029 C 
BRANCH   5   8
ATOM      8  C   UNL A   1      31.210  28.331  25.073  1.00  0.00     0.280 C 
BRANCH   8   9
ATOM      9  N   UNL A   1      31.300  29.305  23.912  1.00  0.00    -0.327 N 
ATOM     10  H   UNL A   1      31.785  30.162  24.179  1.00  0.00     0.348 HD
BRANCH   9  11
ATOM     11  C   UNL A   1      32.119  28.723  22.828  1.00  0.00     0.259 C 
ATOM     12  C   UNL A   1      33.638  28.818  22.768  1.00  0.00     0.071 C 
ENDBRANCH   9  11
BRANCH   9  13
ATOM     13  C   UNL A   1      29.903  29.737  23.508  1.00  0.00     0.239 C 
ATOM     14  C   UNL A   1      29.476  31.134  24.015  1.00  0.00     0.077 C 
ATOM     15  C   UNL A   1      29.592  29.644  21.986  1.00  0.00     0.326 C 
ATOM     16  C   UNL A   1      28.106  31.583  23.502  1.00  0.00     0.068 C 
ATOM     17  N   UNL A   1      28.250  30.082  21.585  1.00  0.00    -0.341 N 
ATOM     18  C   UNL A   1      28.029  31.466  21.986  1.00  0.00     0.260 C 
ATOM     19  H   UNL A   1      28.160  30.007  20.571  1.00  0.00     0.346 HD
ATOM     20  H   UNL A   1      27.557  29.489  22.040  1.00  0.00     0.346 HD
ENDBRANCH   9  13
ENDBRANCH   8   9
ENDBRANCH   5   8
ENDBRANCH   3   5
ENDBRANCH   2   3
ENDBRANCH   1   2
BRANCH   1  21
ATOM     21  C   UNL A   1      32.587  33.078  27.038  1.00  0.00     0.275 C 
BRANCH  21  22
ATOM     22  O   UNL A   1      32.136  33.776  28.223  1.00  0.00    -0.458 OA
BRANCH  22  23
ATOM     23  C   UNL A   1      32.957  34.770  28.665  1.00  0.00     0.338 C 
ATOM     24  O   UNL A   1      32.670  35.949  28.751  1.00  0.00    -0.246 OA
BRANCH  23  25
ATOM     25  C   UNL A   1      34.218  34.217  29.239  1.00  0.00     0.060 A 
ATOM     26  C   UNL A   1      34.080  33.348  30.326  1.00  0.00     0.016 A 
ATOM     27  C   UNL A   1      35.499  34.517  28.767  1.00  0.00     0.016 A 
ATOM     28  C   UNL A   1      35.201  32.756  30.910  1.00  0.00     0.010 A 
ATOM     29  C   UNL A   1      36.632  33.939  29.380  1.00  0.00     0.010 A 
ATOM     30  C   UNL A   1      36.493  33.040  30.451  1.00  0.00    -0.014 A 
BRANCH  30  31
ATOM     31  C   UNL A   1      37.664  32.470  31.185  1.00  0.00     0.031 A 
ATOM     32  C   UNL A   1      38.459  31.363  30.537  1.00  0.00     0.074 A 
ATOM     33  C   UNL A   1      38.093  32.976  32.361  1.00  0.00     0.049 A 
ATOM     34  N   UNL A   1      39.498  30.708  30.994  1.00  0.00    -0.248 NA
ATOM     35  C   UNL A   1      38.042  30.956  29.185  1.00  0.00     0.031 C 
ATOM     36  C   UNL A   1      37.527  34.140  33.040  1.00  0.00     0.029 A 
ATOM     37  N   UNL A   1      39.144  32.602  33.170  1.00  0.00    -0.354 N 
ATOM     38  C   UNL A   1      39.837  29.800  29.999  1.00  0.00     0.074 A 
ATOM     39  C   UNL A   1      38.934  30.024  28.893  1.00  0.00     0.031 C 
ATOM     40  C   UNL A   1      38.267  34.414  34.133  1.00  0.00     0.029 A 
ATOM     41  C   UNL A   1      39.319  33.407  34.277  1.00  0.00     0.049 A 
ATOM     42  H   UNL A   1      39.720  31.828  32.977  1.00  0.00     0.167 HD
ATOM     43  C   UNL A   1      40.771  28.820  30.018  1.00  0.00     0.031 A 
ATOM     44  C   UNL A   1      40.211  33.327  35.289  1.00  0.00     0.031 A 
ATOM     45  C   UNL A   1      41.609  28.521  31.145  1.00  0.00     0.049 A 
ATOM     46  C   UNL A   1      41.157  32.146  35.345  1.00  0.00     0.074 A 
ATOM     47  C   UNL A   1      42.471  27.453  31.319  1.00  0.00     0.029 A 
ATOM     48  N   UNL A   1      41.677  29.286  32.296  1.00  0.00    -0.354 N 
ATOM     49  N   UNL A   1      41.395  31.226  34.441  1.00  0.00    -0.248 NA
ATOM     50  C   UNL A   1      41.930  31.967  36.589  1.00  0.00     0.031 C 
ATOM     51  C   UNL A   1      43.018  27.540  32.601  1.00  0.00     0.029 A 
ATOM     52  C   UNL A   1      42.556  28.704  33.192  1.00  0.00     0.049 A 
ATOM     53  H   UNL A   1      41.177  30.119  32.453  1.00  0.00     0.167 HD
ATOM     54  C   UNL A   1      42.347  30.377  34.999  1.00  0.00     0.074 A 
ATOM     55  C   UNL A   1      42.670  30.904  36.306  1.00  0.00     0.031 C 
ATOM     56  C   UNL A   1      42.890  29.250  34.481  1.00  0.00     0.031 A 
BRANCH  43  57
ATOM     57  C   UNL A   1      40.817  27.909  28.826  1.00  0.00    -0.014 A 
ATOM     58  C   UNL A   1      40.033  26.749  28.750  1.00  0.00     0.009 A 
ATOM     59  C   UNL A   1      41.690  28.215  27.769  1.00  0.00     0.009 A 
ATOM     60  C   UNL A   1      40.151  25.892  27.654  1.00  0.00     0.001 A 
ATOM     61  C   UNL A   1      41.785  27.372  26.662  1.00  0.00     0.001 A 
ATOM     62  C   UNL A   1      41.024  26.206  26.611  1.00  0.00     0.000 A 
ENDBRANCH  43  57
BRANCH  44  63
ATOM     63  C   UNL A   1      40.240  34.333  36.397  1.00  0.00    -0.014 A 
ATOM     64  C   UNL A   1      39.357  34.222  37.487  1.00  0.00     0.009 A 
ATOM     65  C   UNL A   1      41.069  35.463  36.329  1.00  0.00     0.009 A 
ATOM     66  C   UNL A   1      39.276  35.233  38.451  1.00  0.00     0.001 A 
ATOM     67  C   UNL A   1      41.018  36.452  37.316  1.00  0.00     0.001 A 
ATOM     68  C   UNL A   1      40.110  36.346  38.367  1.00  0.00     0.000 A 
ENDBRANCH  44  63
BRANCH  56  69
ATOM     69  C   UNL A   1      43.927  28.517  35.289  1.00  0.00    -0.014 A 
ATOM     70  C   UNL A   1      45.287  28.855  35.219  1.00  0.00     0.009 A 
ATOM     71  C   UNL A   1      43.516  27.546  36.216  1.00  0.00     0.009 A 
ATOM     72  C   UNL A   1      46.215  28.222  36.050  1.00  0.00     0.001 A 
ATOM     73  C   UNL A   1      44.441  26.936  37.065  1.00  0.00     0.001 A 
ATOM     74  C   UNL A   1      45.790  27.272  36.979  1.00  0.00     0.000 A 
ENDBRANCH  56  69
ENDBRANCH  30  31
ENDBRANCH  23  25
ENDBRANCH  22  23
ENDBRANCH  21  22
ENDBRANCH   1  21
TORSDOF 15
ENDMDL
MODEL 3
REMARK VINA RESULT:      -9.5      6.164     10.682
REMARK SMILES CC[N@H+](CC(C)(C)C(=O)OCCOC(=O)c1ccc(-c2c3nc(c(-c4ccccc4)c4ccc([nH]4)c(-c4ccccc4)c4nc(c(-c5ccccc5)c5ccc2[nH]5)C=C4)C=C3)cc1)[C@H]1CCC[NH2+]C1
REMARK SMILES IDX 11 1 10 2 8 3 9 4 5 5 6 6 7 7 4 8 3 9 2 11 1 12 64 13 65 14
REMARK SMILES IDX 69 15 66 16 68 17 67 18 12 21 13 22 14 23 15 24 16 25 17 26
REMARK SMILES IDX 63 27 18 28 62 29 19 30 20 31 21 32 56 33 22 34 61 35 55 36
REMARK SMILES IDX 57 37 23 38 60 39 54 40 53 41 24 43 46 44 31 45 45 46 32 47
REMARK SMILES IDX 35 48 44 49 58 50 33 51 34 52 43 54 59 55 36 56 25 57 26 58
REMARK SMILES IDX 30 59 27 60 29 61 28 62 47 63 48 64 52 65 49 66 51 67 50 68
REMARK SMILES IDX 37 69 38 70 42 71 39 72 41 73 40 74
REMARK H PARENT 3 10 68 19 68 20 57 42 35 53
REMARK Flexibility Score: inf
ROOT
ATOM      1  C   UNL A   1      38.371  19.901  24.902  1.00  0.00     0.274 C 
ENDROOT
BRANCH   1   2
ATOM      2  O   UNL A   1      37.181  20.547  25.417  1.00  0.00    -0.461 OA
BRANCH   2   3
ATOM      3  C   UNL A   1      37.221  21.903  25.360  1.00  0.00     0.317 C 
ATOM      4  O   UNL A   1      38.111  22.538  25.909  1.00  0.00    -0.251 OA
BRANCH   3   5
ATOM      5  C   UNL A   1      36.094  22.558  24.554  1.00  0.00     0.111 C 
ATOM      6  C   UNL A   1      36.513  22.901  23.123  1.00  0.00     0.029 C 
ATOM      7  C   UNL A   1      35.762  23.867  25.310  1.00  0.00     0.029 C 
BRANCH   5   8
ATOM      8  C   UNL A   1      34.793  21.656  24.551  1.00  0.00     0.280 C 
BRANCH   8   9
ATOM      9  N   UNL A   1      34.438  20.643  25.625  1.00  0.00    -0.327 N 
ATOM     10  H   UNL A   1      35.273  20.242  26.052  1.00  0.00     0.348 HD
BRANCH   9  11
ATOM     11  C   UNL A   1      33.726  21.313  26.734  1.00  0.00     0.259 C 
ATOM     12  C   UNL A   1      32.524  22.230  26.540  1.00  0.00     0.071 C 
ENDBRANCH   9  11
BRANCH   9  13
ATOM     13  C   UNL A   1      33.702  19.477  24.994  1.00  0.00     0.239 C 
ATOM     14  C   UNL A   1      32.767  19.848  23.820  1.00  0.00     0.077 C 
ATOM     15  C   UNL A   1      34.600  18.282  24.557  1.00  0.00     0.326 C 
ATOM     16  C   UNL A   1      32.124  18.638  23.139  1.00  0.00     0.068 C 
ATOM     17  N   UNL A   1      33.898  17.160  23.925  1.00  0.00    -0.341 N 
ATOM     18  C   UNL A   1      33.179  17.615  22.741  1.00  0.00     0.260 C 
ATOM     19  H   UNL A   1      34.576  16.448  23.654  1.00  0.00     0.346 HD
ATOM     20  H   UNL A   1      33.230  16.768  24.589  1.00  0.00     0.346 HD
ENDBRANCH   9  13
ENDBRANCH   8   9
ENDBRANCH   5   8
ENDBRANCH   3   5
ENDBRANCH   2   3
ENDBRANCH   1   2
BRANCH   1  21
ATOM     21  C   UNL A   1      39.453  19.538  25.944  1.00  0.00     0.275 C 
BRANCH  21  22
ATOM     22  O   UNL A   1      40.672  19.006  25.370  1.00  0.00    -0.458 OA
BRANCH  22  23
ATOM     23  C   UNL A   1      41.774  19.080  26.166  1.00  0.00     0.338 C 
ATOM     24  O   UNL A   1      42.599  18.200  26.329  1.00  0.00    -0.246 OA
BRANCH  23  25
ATOM     25  C   UNL A   1      41.982  20.466  26.679  1.00  0.00     0.060 A 
ATOM     26  C   UNL A   1      42.256  21.449  25.724  1.00  0.00     0.016 A 
ATOM     27  C   UNL A   1      41.924  20.825  28.028  1.00  0.00     0.016 A 
ATOM     28  C   UNL A   1      42.433  22.780  26.104  1.00  0.00     0.010 A 
ATOM     29  C   UNL A   1      42.133  22.168  28.412  1.00  0.00     0.010 A 
ATOM     30  C   UNL A   1      42.377  23.163  27.450  1.00  0.00    -0.014 A 
BRANCH  30  31
ATOM     31  C   UNL A   1      42.688  24.579  27.814  1.00  0.00     0.031 A 
ATOM     32  C   UNL A   1      44.125  25.039  27.777  1.00  0.00     0.074 A 
ATOM     33  C   UNL A   1      41.723  25.485  28.078  1.00  0.00     0.049 A 
ATOM     34  N   UNL A   1      44.630  26.213  28.070  1.00  0.00    -0.248 NA
ATOM     35  C   UNL A   1      45.122  24.053  27.331  1.00  0.00     0.031 C 
ATOM     36  C   UNL A   1      40.284  25.236  28.004  1.00  0.00     0.029 A 
ATOM     37  N   UNL A   1      41.809  26.819  28.413  1.00  0.00    -0.354 N 
ATOM     38  C   UNL A   1      46.000  26.093  27.867  1.00  0.00     0.074 A 
ATOM     39  C   UNL A   1      46.242  24.757  27.374  1.00  0.00     0.031 C 
ATOM     40  C   UNL A   1      39.626  26.390  28.234  1.00  0.00     0.029 A 
ATOM     41  C   UNL A   1      40.588  27.448  28.544  1.00  0.00     0.049 A 
ATOM     42  H   UNL A   1      42.666  27.283  28.548  1.00  0.00     0.167 HD
ATOM     43  C   UNL A   1      46.983  26.987  28.126  1.00  0.00     0.031 A 
ATOM     44  C   UNL A   1      40.288  28.720  28.888  1.00  0.00     0.031 A 
ATOM     45  C   UNL A   1      46.769  28.282  28.707  1.00  0.00     0.049 A 
ATOM     46  C   UNL A   1      41.407  29.657  29.295  1.00  0.00     0.074 A 
ATOM     47  C   UNL A   1      47.709  29.194  29.152  1.00  0.00     0.029 A 
ATOM     48  N   UNL A   1      45.525  28.842  28.935  1.00  0.00    -0.354 N 
ATOM     49  N   UNL A   1      42.704  29.493  29.200  1.00  0.00    -0.248 NA
ATOM     50  C   UNL A   1      41.014  30.942  29.901  1.00  0.00     0.031 C 
ATOM     51  C   UNL A   1      47.032  30.283  29.705  1.00  0.00     0.029 A 
ATOM     52  C   UNL A   1      45.672  30.082  29.531  1.00  0.00     0.049 A 
ATOM     53  H   UNL A   1      44.664  28.423  28.708  1.00  0.00     0.167 HD
ATOM     54  C   UNL A   1      43.275  30.653  29.717  1.00  0.00     0.074 A 
ATOM     55  C   UNL A   1      42.188  31.528  30.096  1.00  0.00     0.031 C 
ATOM     56  C   UNL A   1      44.585  30.957  29.881  1.00  0.00     0.031 A 
BRANCH  43  57
ATOM     57  C   UNL A   1      48.393  26.517  27.917  1.00  0.00    -0.014 A 
ATOM     58  C   UNL A   1      49.073  26.732  26.710  1.00  0.00     0.009 A 
ATOM     59  C   UNL A   1      49.039  25.819  28.951  1.00  0.00     0.009 A 
ATOM     60  C   UNL A   1      50.361  26.223  26.530  1.00  0.00     0.001 A 
ATOM     61  C   UNL A   1      50.335  25.337  28.779  1.00  0.00     0.001 A 
ATOM     62  C   UNL A   1      50.991  25.529  27.564  1.00  0.00     0.000 A 
ENDBRANCH  43  57
BRANCH  44  63
ATOM     63  C   UNL A   1      38.874  29.209  28.951  1.00  0.00    -0.014 A 
ATOM     64  C   UNL A   1      38.112  29.043  30.121  1.00  0.00     0.009 A 
ATOM     65  C   UNL A   1      38.242  29.747  27.819  1.00  0.00     0.009 A 
ATOM     66  C   UNL A   1      36.749  29.362  30.142  1.00  0.00     0.001 A 
ATOM     67  C   UNL A   1      36.891  30.106  27.854  1.00  0.00     0.001 A 
ATOM     68  C   UNL A   1      36.141  29.898  29.009  1.00  0.00     0.000 A 
ENDBRANCH  44  63
BRANCH  56  69
ATOM     69  C   UNL A   1      44.942  32.303  30.453  1.00  0.00    -0.014 A 
ATOM     70  C   UNL A   1      45.085  33.433  29.634  1.00  0.00     0.009 A 
ATOM     71  C   UNL A   1      45.028  32.458  31.845  1.00  0.00     0.009 A 
ATOM     72  C   UNL A   1      45.324  34.689  30.200  1.00  0.00     0.001 A 
ATOM     73  C   UNL A   1      45.238  33.718  32.409  1.00  0.00     0.001 A 
ATOM     74  C   UNL A   1      45.389  34.831  31.586  1.00  0.00     0.000 A 
ENDBRANCH  56  69
ENDBRANCH  30  31
ENDBRANCH  23  25
ENDBRANCH  22  23
ENDBRANCH  21  22
ENDBRANCH   1  21
TORSDOF 15
ENDMDL
