MODEL 1
REMARK VINA RESULT:     -12.3      0.000      0.000
REMARK SMILES Cc1cc(C)n(CC(=O)N[C@@H]2C(=O)N3C(C(=O)OCCOC(=O)c4ccc(-c5c6nc(c(-c7ccccc7)c7ccc([nH]7)c(-c7ccccc7)c7nc(c(-c8ccccc8)c8ccc5[nH]8)C=C7)C=C6)cc4)=C(CSc4nnc(C)s4)CS[C@H]23)n1
REMARK SMILES IDX 19 1 18 2 16 3 17 4 15 5 11 6 12 7 83 8 13 9 14 10 82 11
REMARK SMILES IDX 81 12 72 13 10 14 8 15 9 16 7 18 6 19 1 20 2 21 3 22 84 23
REMARK SMILES IDX 4 24 5 25 73 26 74 27 75 28 76 29 80 30 77 31 78 32 79 33
REMARK SMILES IDX 20 34 21 35 22 36 23 37 24 38 25 39 71 40 26 41 70 42 27 43
REMARK SMILES IDX 28 44 29 45 64 46 30 47 69 48 63 49 65 50 31 51 68 52 62 53
REMARK SMILES IDX 61 54 32 56 54 57 39 58 53 59 40 60 43 61 52 62 66 63 41 64
REMARK SMILES IDX 42 65 51 67 67 68 44 69 33 70 34 71 38 72 35 73 37 74 36 75
REMARK SMILES IDX 55 76 56 77 60 78 57 79 59 80 58 81 45 82 46 83 50 84 47 85
REMARK SMILES IDX 49 86 48 87
REMARK H PARENT 10 17 65 55 43 66
REMARK Flexibility Score: inf
ROOT
ATOM      1  C   UNL A   1      36.751  21.571  24.961  1.00  0.00     0.275 C 
ENDROOT
BRANCH   1   2
ATOM      2  O   UNL A   1      35.448  21.067  25.323  1.00  0.00    -0.457 OA
BRANCH   2   3
ATOM      3  C   UNL A   1      34.671  21.860  26.092  1.00  0.00     0.355 C 
ATOM      4  O   UNL A   1      34.788  21.991  27.305  1.00  0.00    -0.244 OA
BRANCH   3   5
ATOM      5  C   UNL A   1      33.583  22.567  25.306  1.00  0.00     0.132 C 
ATOM      6  C   UNL A   1      33.884  25.958  24.979  1.00  0.00     0.205 C 
ATOM      7  C   UNL A   1      34.825  24.731  25.048  1.00  0.00     0.253 C 
ATOM      8  C   UNL A   1      32.741  24.932  25.230  1.00  0.00     0.181 C 
ATOM      9  O   UNL A   1      35.997  24.534  25.015  1.00  0.00    -0.272 OA
ATOM     10  N   UNL A   1      33.756  23.913  25.205  1.00  0.00    -0.289 N 
ATOM     11  S   UNL A   1      31.497  24.646  24.002  1.00  0.00    -0.129 SA
ATOM     12  C   UNL A   1      31.405  22.842  24.058  1.00  0.00     0.106 C 
ATOM     13  C   UNL A   1      32.496  22.004  24.718  1.00  0.00    -0.019 C 
BRANCH   6  14
ATOM     14  N   UNL A   1      34.014  26.989  23.907  1.00  0.00    -0.340 N 
ATOM     15  C   UNL A   1      33.261  27.878  23.205  1.00  0.00     0.242 C 
ATOM     16  O   UNL A   1      33.860  28.426  22.265  1.00  0.00    -0.273 OA
ATOM     17  H   UNL A   1      34.952  27.044  23.612  1.00  0.00     0.164 HD
BRANCH  15  18
ATOM     18  C   UNL A   1      31.846  28.293  23.479  1.00  0.00     0.244 C 
BRANCH  18  19
ATOM     19  N   UNL A   1      31.769  29.343  24.460  1.00  0.00    -0.260 N 
ATOM     20  C   UNL A   1      33.236  30.681  27.319  1.00  0.00     0.069 C 
ATOM     21  C   UNL A   1      32.395  30.395  26.166  1.00  0.00     0.060 A 
ATOM     22  C   UNL A   1      31.178  30.974  25.795  1.00  0.00     0.048 A 
ATOM     23  N   UNL A   1      32.774  29.433  25.330  1.00  0.00    -0.178 NA
ATOM     24  C   UNL A   1      30.808  30.302  24.652  1.00  0.00     0.036 A 
ATOM     25  C   UNL A   1      29.624  30.492  23.789  1.00  0.00     0.066 C 
ENDBRANCH  18  19
ENDBRANCH  15  18
ENDBRANCH   6  14
BRANCH  13  26
ATOM     26  C   UNL A   1      32.104  20.524  24.710  1.00  0.00     0.111 C 
BRANCH  26  27
ATOM     27  S   UNL A   1      32.160  19.507  23.215  1.00  0.00    -0.089 SA
BRANCH  27  28
ATOM     28  C   UNL A   1      33.054  18.029  23.500  1.00  0.00     0.174 A 
ATOM     29  N   UNL A   1      33.482  17.196  22.579  1.00  0.00    -0.132 NA
ATOM     30  S   UNL A   1      33.575  17.614  25.099  1.00  0.00    -0.091 S 
ATOM     31  N   UNL A   1      34.344  16.232  23.101  1.00  0.00    -0.143 NA
ATOM     32  C   UNL A   1      34.521  16.360  24.401  1.00  0.00     0.115 A 
ATOM     33  C   UNL A   1      35.440  15.537  25.242  1.00  0.00     0.081 C 
ENDBRANCH  27  28
ENDBRANCH  26  27
ENDBRANCH  13  26
ENDBRANCH   3   5
ENDBRANCH   2   3
ENDBRANCH   1   2
BRANCH   1  34
ATOM     34  C   UNL A   1      37.802  20.480  25.059  1.00  0.00     0.275 C 
BRANCH  34  35
ATOM     35  O   UNL A   1      38.957  20.970  25.747  1.00  0.00    -0.458 OA
BRANCH  35  36
ATOM     36  C   UNL A   1      39.968  20.085  25.752  1.00  0.00     0.338 C 
ATOM     37  O   UNL A   1      39.918  18.889  25.496  1.00  0.00    -0.246 OA
BRANCH  36  38
ATOM     38  C   UNL A   1      41.130  20.591  26.457  1.00  0.00     0.060 A 
ATOM     39  C   UNL A   1      40.973  20.710  27.838  1.00  0.00     0.016 A 
ATOM     40  C   UNL A   1      41.835  21.533  25.699  1.00  0.00     0.016 A 
ATOM     41  C   UNL A   1      41.309  21.895  28.433  1.00  0.00     0.010 A 
ATOM     42  C   UNL A   1      42.184  22.721  26.298  1.00  0.00     0.010 A 
ATOM     43  C   UNL A   1      41.841  22.914  27.637  1.00  0.00    -0.014 A 
BRANCH  43  44
ATOM     44  C   UNL A   1      42.194  24.133  28.332  1.00  0.00     0.031 A 
ATOM     45  C   UNL A   1      41.224  25.225  28.045  1.00  0.00     0.074 A 
ATOM     46  C   UNL A   1      43.217  24.190  29.202  1.00  0.00     0.049 A 
ATOM     47  N   UNL A   1      41.460  26.416  27.608  1.00  0.00    -0.248 NA
ATOM     48  C   UNL A   1      39.788  24.867  28.077  1.00  0.00     0.031 C 
ATOM     49  C   UNL A   1      44.051  23.089  29.695  1.00  0.00     0.029 A 
ATOM     50  N   UNL A   1      43.621  25.241  29.959  1.00  0.00    -0.354 N 
ATOM     51  C   UNL A   1      40.210  27.014  27.467  1.00  0.00     0.074 A 
ATOM     52  C   UNL A   1      39.227  25.974  27.601  1.00  0.00     0.031 C 
ATOM     53  C   UNL A   1      44.630  23.468  30.857  1.00  0.00     0.029 A 
ATOM     54  C   UNL A   1      44.311  24.864  31.103  1.00  0.00     0.049 A 
ATOM     55  H   UNL A   1      43.444  26.179  29.720  1.00  0.00     0.167 HD
ATOM     56  C   UNL A   1      40.058  28.362  27.532  1.00  0.00     0.031 A 
ATOM     57  C   UNL A   1      44.492  25.621  32.213  1.00  0.00     0.031 A 
ATOM     58  C   UNL A   1      41.275  29.052  27.206  1.00  0.00     0.049 A 
ATOM     59  C   UNL A   1      44.197  27.029  31.850  1.00  0.00     0.074 A 
ATOM     60  C   UNL A   1      42.070  29.122  26.080  1.00  0.00     0.029 A 
ATOM     61  N   UNL A   1      42.049  29.494  28.250  1.00  0.00    -0.354 N 
ATOM     62  N   UNL A   1      44.932  27.728  31.034  1.00  0.00    -0.248 NA
ATOM     63  C   UNL A   1      42.830  27.501  32.017  1.00  0.00     0.031 C 
ATOM     64  C   UNL A   1      43.405  29.148  26.577  1.00  0.00     0.029 A 
ATOM     65  C   UNL A   1      43.347  29.159  27.972  1.00  0.00     0.049 A 
ATOM     66  H   UNL A   1      41.728  29.966  29.053  1.00  0.00     0.167 HD
ATOM     67  C   UNL A   1      44.025  28.441  30.262  1.00  0.00     0.074 A 
ATOM     68  C   UNL A   1      42.752  28.334  30.973  1.00  0.00     0.031 C 
ATOM     69  C   UNL A   1      44.322  28.804  28.979  1.00  0.00     0.031 A 
BRANCH  56  70
ATOM     70  C   UNL A   1      38.961  28.983  28.363  1.00  0.00    -0.014 A 
ATOM     71  C   UNL A   1      38.911  28.690  29.734  1.00  0.00     0.009 A 
ATOM     72  C   UNL A   1      37.815  29.586  27.802  1.00  0.00     0.009 A 
ATOM     73  C   UNL A   1      37.742  28.897  30.477  1.00  0.00     0.001 A 
ATOM     74  C   UNL A   1      36.662  29.829  28.547  1.00  0.00     0.001 A 
ATOM     75  C   UNL A   1      36.615  29.453  29.879  1.00  0.00     0.000 A 
ENDBRANCH  56  70
BRANCH  57  76
ATOM     76  C   UNL A   1      44.561  25.163  33.619  1.00  0.00    -0.014 A 
ATOM     77  C   UNL A   1      43.442  24.599  34.250  1.00  0.00     0.009 A 
ATOM     78  C   UNL A   1      45.805  25.051  34.271  1.00  0.00     0.009 A 
ATOM     79  C   UNL A   1      43.569  23.932  35.478  1.00  0.00     0.001 A 
ATOM     80  C   UNL A   1      45.930  24.390  35.497  1.00  0.00     0.001 A 
ATOM     81  C   UNL A   1      44.812  23.820  36.095  1.00  0.00     0.000 A 
ENDBRANCH  57  76
BRANCH  69  82
ATOM     82  C   UNL A   1      45.731  28.579  28.489  1.00  0.00    -0.014 A 
ATOM     83  C   UNL A   1      46.753  29.536  28.626  1.00  0.00     0.009 A 
ATOM     84  C   UNL A   1      46.076  27.298  28.037  1.00  0.00     0.009 A 
ATOM     85  C   UNL A   1      48.077  29.223  28.297  1.00  0.00     0.001 A 
ATOM     86  C   UNL A   1      47.400  26.980  27.728  1.00  0.00     0.001 A 
ATOM     87  C   UNL A   1      48.400  27.942  27.854  1.00  0.00     0.000 A 
ENDBRANCH  69  82
ENDBRANCH  43  44
ENDBRANCH  36  38
ENDBRANCH  35  36
ENDBRANCH  34  35
ENDBRANCH   1  34
TORSDOF 17
ENDMDL
MODEL 2
REMARK VINA RESULT:     -11.8      1.286      2.142
REMARK SMILES Cc1cc(C)n(CC(=O)N[C@@H]2C(=O)N3C(C(=O)OCCOC(=O)c4ccc(-c5c6nc(c(-c7ccccc7)c7ccc([nH]7)c(-c7ccccc7)c7nc(c(-c8ccccc8)c8ccc5[nH]8)C=C7)C=C6)cc4)=C(CSc4nnc(C)s4)CS[C@H]23)n1
REMARK SMILES IDX 19 1 18 2 16 3 17 4 15 5 11 6 12 7 83 8 13 9 14 10 82 11
REMARK SMILES IDX 81 12 72 13 10 14 8 15 9 16 7 18 6 19 1 20 2 21 3 22 84 23
REMARK SMILES IDX 4 24 5 25 73 26 74 27 75 28 76 29 80 30 77 31 78 32 79 33
REMARK SMILES IDX 20 34 21 35 22 36 23 37 24 38 25 39 71 40 26 41 70 42 27 43
REMARK SMILES IDX 28 44 29 45 64 46 30 47 69 48 63 49 65 50 31 51 68 52 62 53
REMARK SMILES IDX 61 54 32 56 54 57 39 58 53 59 40 60 43 61 52 62 66 63 41 64
REMARK SMILES IDX 42 65 51 67 67 68 44 69 33 70 34 71 38 72 35 73 37 74 36 75
REMARK SMILES IDX 55 76 56 77 60 78 57 79 59 80 58 81 45 82 46 83 50 84 47 85
REMARK SMILES IDX 49 86 48 87
REMARK H PARENT 10 17 65 55 43 66
REMARK Flexibility Score: inf
ROOT
ATOM      1  C   UNL A   1      36.667  22.259  24.533  1.00  0.00     0.275 C 
ENDROOT
BRANCH   1   2
ATOM      2  O   UNL A   1      35.269  22.105  24.863  1.00  0.00    -0.457 OA
BRANCH   2   3
ATOM      3  C   UNL A   1      34.819  22.753  25.959  1.00  0.00     0.355 C 
ATOM      4  O   UNL A   1      35.507  23.053  26.928  1.00  0.00    -0.244 OA
BRANCH   3   5
ATOM      5  C   UNL A   1      33.333  23.052  25.902  1.00  0.00     0.132 C 
ATOM      6  C   UNL A   1      32.400  26.301  26.417  1.00  0.00     0.205 C 
ATOM      7  C   UNL A   1      33.582  25.544  25.765  1.00  0.00     0.253 C 
ATOM      8  C   UNL A   1      31.885  24.889  26.818  1.00  0.00     0.181 C 
ATOM      9  O   UNL A   1      34.594  25.828  25.210  1.00  0.00    -0.272 OA
ATOM     10  N   UNL A   1      33.020  24.360  26.110  1.00  0.00    -0.289 N 
ATOM     11  S   UNL A   1      30.361  24.264  26.168  1.00  0.00    -0.129 SA
ATOM     12  C   UNL A   1      30.857  22.574  25.764  1.00  0.00     0.106 C 
ATOM     13  C   UNL A   1      32.324  22.170  25.673  1.00  0.00    -0.019 C 
BRANCH   6  14
ATOM     14  N   UNL A   1      31.687  27.405  25.708  1.00  0.00    -0.340 N 
ATOM     15  C   UNL A   1      31.041  27.661  24.539  1.00  0.00     0.242 C 
ATOM     16  O   UNL A   1      30.743  28.855  24.369  1.00  0.00    -0.273 OA
ATOM     17  H   UNL A   1      31.683  28.213  26.272  1.00  0.00     0.164 HD
BRANCH  15  18
ATOM     18  C   UNL A   1      30.613  26.670  23.497  1.00  0.00     0.244 C 
BRANCH  18  19
ATOM     19  N   UNL A   1      31.735  26.022  22.872  1.00  0.00    -0.260 N 
ATOM     20  C   UNL A   1      33.199  22.953  22.126  1.00  0.00     0.069 C 
ATOM     21  C   UNL A   1      32.876  24.365  22.269  1.00  0.00     0.060 A 
ATOM     22  C   UNL A   1      33.660  25.484  21.977  1.00  0.00     0.048 A 
ATOM     23  N   UNL A   1      31.690  24.695  22.772  1.00  0.00    -0.178 NA
ATOM     24  C   UNL A   1      32.878  26.559  22.337  1.00  0.00     0.036 A 
ATOM     25  C   UNL A   1      33.161  28.006  22.236  1.00  0.00     0.066 C 
ENDBRANCH  18  19
ENDBRANCH  15  18
ENDBRANCH   6  14
BRANCH  13  26
ATOM     26  C   UNL A   1      32.445  20.664  25.423  1.00  0.00     0.111 C 
BRANCH  26  27
ATOM     27  S   UNL A   1      32.612  19.962  23.764  1.00  0.00    -0.089 SA
BRANCH  27  28
ATOM     28  C   UNL A   1      32.795  18.223  23.839  1.00  0.00     0.174 A 
ATOM     29  N   UNL A   1      33.302  17.459  22.898  1.00  0.00    -0.132 NA
ATOM     30  S   UNL A   1      32.418  17.364  25.295  1.00  0.00    -0.091 S 
ATOM     31  N   UNL A   1      33.512  16.152  23.338  1.00  0.00    -0.143 NA
ATOM     32  C   UNL A   1      33.139  15.972  24.590  1.00  0.00     0.115 A 
ATOM     33  C   UNL A   1      33.302  14.714  25.377  1.00  0.00     0.081 C 
ENDBRANCH  27  28
ENDBRANCH  26  27
ENDBRANCH  13  26
ENDBRANCH   3   5
ENDBRANCH   2   3
ENDBRANCH   1   2
BRANCH   1  34
ATOM     34  C   UNL A   1      37.473  21.066  25.016  1.00  0.00     0.275 C 
BRANCH  34  35
ATOM     35  O   UNL A   1      38.806  21.473  25.340  1.00  0.00    -0.458 OA
BRANCH  35  36
ATOM     36  C   UNL A   1      39.609  20.432  25.616  1.00  0.00     0.338 C 
ATOM     37  O   UNL A   1      39.320  19.242  25.616  1.00  0.00    -0.246 OA
BRANCH  36  38
ATOM     38  C   UNL A   1      40.824  20.846  26.291  1.00  0.00     0.060 A 
ATOM     39  C   UNL A   1      40.739  20.883  27.683  1.00  0.00     0.016 A 
ATOM     40  C   UNL A   1      41.530  21.806  25.557  1.00  0.00     0.016 A 
ATOM     41  C   UNL A   1      41.153  22.014  28.331  1.00  0.00     0.010 A 
ATOM     42  C   UNL A   1      41.957  22.939  26.210  1.00  0.00     0.010 A 
ATOM     43  C   UNL A   1      41.688  23.060  27.574  1.00  0.00    -0.014 A 
BRANCH  43  44
ATOM     44  C   UNL A   1      42.124  24.218  28.324  1.00  0.00     0.031 A 
ATOM     45  C   UNL A   1      41.218  25.379  28.111  1.00  0.00     0.074 A 
ATOM     46  C   UNL A   1      43.162  24.168  29.178  1.00  0.00     0.049 A 
ATOM     47  N   UNL A   1      41.520  26.576  27.731  1.00  0.00    -0.248 NA
ATOM     48  C   UNL A   1      39.765  25.107  28.150  1.00  0.00     0.031 C 
ATOM     49  C   UNL A   1      43.934  22.995  29.599  1.00  0.00     0.029 A 
ATOM     50  N   UNL A   1      43.640  25.151  29.980  1.00  0.00    -0.354 N 
ATOM     51  C   UNL A   1      40.307  27.254  27.644  1.00  0.00     0.074 A 
ATOM     52  C   UNL A   1      39.265  26.269  27.741  1.00  0.00     0.031 C 
ATOM     53  C   UNL A   1      44.552  23.277  30.768  1.00  0.00     0.029 A 
ATOM     54  C   UNL A   1      44.322  24.675  31.091  1.00  0.00     0.049 A 
ATOM     55  H   UNL A   1      43.517  26.110  29.793  1.00  0.00     0.167 HD
ATOM     56  C   UNL A   1      40.238  28.603  27.780  1.00  0.00     0.031 A 
ATOM     57  C   UNL A   1      44.566  25.361  32.235  1.00  0.00     0.031 A 
ATOM     58  C   UNL A   1      41.490  29.235  27.467  1.00  0.00     0.049 A 
ATOM     59  C   UNL A   1      44.352  26.801  31.950  1.00  0.00     0.074 A 
ATOM     60  C   UNL A   1      42.272  29.316  26.333  1.00  0.00     0.029 A 
ATOM     61  N   UNL A   1      42.305  29.575  28.520  1.00  0.00    -0.354 N 
ATOM     62  N   UNL A   1      45.116  27.496  31.157  1.00  0.00    -0.248 NA
ATOM     63  C   UNL A   1      43.018  27.345  32.165  1.00  0.00     0.031 C 
ATOM     64  C   UNL A   1      43.613  29.236  26.807  1.00  0.00     0.029 A 
ATOM     65  C   UNL A   1      43.576  29.178  28.201  1.00  0.00     0.049 A 
ATOM     66  H   UNL A   1      42.025  30.023  29.351  1.00  0.00     0.167 HD
ATOM     67  C   UNL A   1      44.243  28.302  30.440  1.00  0.00     0.074 A 
ATOM     68  C   UNL A   1      42.977  28.234  31.167  1.00  0.00     0.031 C 
ATOM     69  C   UNL A   1      44.542  28.713  29.171  1.00  0.00     0.031 A 
BRANCH  56  70
ATOM     70  C   UNL A   1      39.194  29.245  28.661  1.00  0.00    -0.014 A 
ATOM     71  C   UNL A   1      39.168  28.910  30.023  1.00  0.00     0.009 A 
ATOM     72  C   UNL A   1      38.061  29.916  28.152  1.00  0.00     0.009 A 
ATOM     73  C   UNL A   1      38.030  29.145  30.805  1.00  0.00     0.001 A 
ATOM     74  C   UNL A   1      36.941  30.185  28.938  1.00  0.00     0.001 A 
ATOM     75  C   UNL A   1      36.913  29.769  30.258  1.00  0.00     0.000 A 
ENDBRANCH  56  70
BRANCH  57  76
ATOM     76  C   UNL A   1      44.627  24.827  33.613  1.00  0.00    -0.014 A 
ATOM     77  C   UNL A   1      43.523  24.178  34.187  1.00  0.00     0.009 A 
ATOM     78  C   UNL A   1      45.861  24.733  34.287  1.00  0.00     0.009 A 
ATOM     79  C   UNL A   1      43.655  23.448  35.377  1.00  0.00     0.001 A 
ATOM     80  C   UNL A   1      45.992  24.009  35.476  1.00  0.00     0.001 A 
ATOM     81  C   UNL A   1      44.890  23.357  36.016  1.00  0.00     0.000 A 
ENDBRANCH  57  76
BRANCH  69  82
ATOM     82  C   UNL A   1      45.928  28.429  28.645  1.00  0.00    -0.014 A 
ATOM     83  C   UNL A   1      46.280  27.215  28.027  1.00  0.00     0.009 A 
ATOM     84  C   UNL A   1      46.851  29.482  28.615  1.00  0.00     0.009 A 
ATOM     85  C   UNL A   1      47.530  27.057  27.419  1.00  0.00     0.001 A 
ATOM     86  C   UNL A   1      48.091  29.331  27.991  1.00  0.00     0.001 A 
ATOM     87  C   UNL A   1      48.432  28.119  27.396  1.00  0.00     0.000 A 
ENDBRANCH  69  82
ENDBRANCH  43  44
ENDBRANCH  36  38
ENDBRANCH  35  36
ENDBRANCH  34  35
ENDBRANCH   1  34
TORSDOF 17
ENDMDL
MODEL 3
REMARK VINA RESULT:     -11.6      1.407      2.150
REMARK SMILES Cc1cc(C)n(CC(=O)N[C@@H]2C(=O)N3C(C(=O)OCCOC(=O)c4ccc(-c5c6nc(c(-c7ccccc7)c7ccc([nH]7)c(-c7ccccc7)c7nc(c(-c8ccccc8)c8ccc5[nH]8)C=C7)C=C6)cc4)=C(CSc4nnc(C)s4)CS[C@H]23)n1
REMARK SMILES IDX 19 1 18 2 16 3 17 4 15 5 11 6 12 7 83 8 13 9 14 10 82 11
REMARK SMILES IDX 81 12 72 13 10 14 8 15 9 16 7 18 6 19 1 20 2 21 3 22 84 23
REMARK SMILES IDX 4 24 5 25 73 26 74 27 75 28 76 29 80 30 77 31 78 32 79 33
REMARK SMILES IDX 20 34 21 35 22 36 23 37 24 38 25 39 71 40 26 41 70 42 27 43
REMARK SMILES IDX 28 44 29 45 64 46 30 47 69 48 63 49 65 50 31 51 68 52 62 53
REMARK SMILES IDX 61 54 32 56 54 57 39 58 53 59 40 60 43 61 52 62 66 63 41 64
REMARK SMILES IDX 42 65 51 67 67 68 44 69 33 70 34 71 38 72 35 73 37 74 36 75
REMARK SMILES IDX 55 76 56 77 60 78 57 79 59 80 58 81 45 82 46 83 50 84 47 85
REMARK SMILES IDX 49 86 48 87
REMARK H PARENT 10 17 65 55 43 66
REMARK Flexibility Score: inf
ROOT
ATOM      1  C   UNL A   1      36.404  22.496  24.944  1.00  0.00     0.275 C 
ENDROOT
BRANCH   1   2
ATOM      2  O   UNL A   1      36.057  23.474  23.940  1.00  0.00    -0.457 OA
BRANCH   2   3
ATOM      3  C   UNL A   1      34.801  23.430  23.444  1.00  0.00     0.355 C 
ATOM      4  O   UNL A   1      34.513  23.137  22.290  1.00  0.00    -0.244 OA
BRANCH   3   5
ATOM      5  C   UNL A   1      33.748  23.827  24.462  1.00  0.00     0.132 C 
ATOM      6  C   UNL A   1      33.467  27.163  25.157  1.00  0.00     0.205 C 
ATOM      7  C   UNL A   1      33.796  26.278  23.931  1.00  0.00     0.253 C 
ATOM      8  C   UNL A   1      33.423  25.824  25.949  1.00  0.00     0.181 C 
ATOM      9  O   UNL A   1      34.074  26.448  22.787  1.00  0.00    -0.272 OA
ATOM     10  N   UNL A   1      33.678  25.165  24.696  1.00  0.00    -0.289 N 
ATOM     11  S   UNL A   1      31.917  25.261  26.690  1.00  0.00    -0.129 SA
ATOM     12  C   UNL A   1      31.970  23.515  26.228  1.00  0.00     0.106 C 
ATOM     13  C   UNL A   1      32.903  23.003  25.135  1.00  0.00    -0.019 C 
BRANCH   6  14
ATOM     14  N   UNL A   1      32.454  28.257  25.088  1.00  0.00    -0.340 N 
ATOM     15  C   UNL A   1      31.546  28.798  24.231  1.00  0.00     0.242 C 
ATOM     16  O   UNL A   1      31.031  29.855  24.632  1.00  0.00    -0.273 OA
ATOM     17  H   UNL A   1      32.438  28.749  25.941  1.00  0.00     0.164 HD
BRANCH  15  18
ATOM     18  C   UNL A   1      31.075  28.233  22.924  1.00  0.00     0.244 C 
BRANCH  18  19
ATOM     19  N   UNL A   1      29.777  28.733  22.554  1.00  0.00    -0.260 N 
ATOM     20  C   UNL A   1      28.072  31.260  20.873  1.00  0.00     0.069 C 
ATOM     21  C   UNL A   1      28.454  30.083  21.640  1.00  0.00     0.060 A 
ATOM     22  C   UNL A   1      27.648  29.204  22.369  1.00  0.00     0.048 A 
ATOM     23  N   UNL A   1      29.744  29.769  21.719  1.00  0.00    -0.178 NA
ATOM     24  C   UNL A   1      28.529  28.303  22.923  1.00  0.00     0.036 A 
ATOM     25  C   UNL A   1      28.261  27.125  23.774  1.00  0.00     0.066 C 
ENDBRANCH  18  19
ENDBRANCH  15  18
ENDBRANCH   6  14
BRANCH  13  26
ATOM     26  C   UNL A   1      32.813  21.478  25.033  1.00  0.00     0.111 C 
BRANCH  26  27
ATOM     27  S   UNL A   1      32.403  20.627  23.490  1.00  0.00    -0.089 SA
BRANCH  27  28
ATOM     28  C   UNL A   1      32.564  18.893  23.673  1.00  0.00     0.174 A 
ATOM     29  N   UNL A   1      32.662  18.019  22.696  1.00  0.00    -0.132 NA
ATOM     30  S   UNL A   1      32.749  18.191  25.246  1.00  0.00    -0.091 S 
ATOM     31  N   UNL A   1      32.995  16.747  23.160  1.00  0.00    -0.143 NA
ATOM     32  C   UNL A   1      33.119  16.702  24.472  1.00  0.00     0.115 A 
ATOM     33  C   UNL A   1      33.542  15.511  25.268  1.00  0.00     0.081 C 
ENDBRANCH  27  28
ENDBRANCH  26  27
ENDBRANCH  13  26
ENDBRANCH   3   5
ENDBRANCH   2   3
ENDBRANCH   1   2
BRANCH   1  34
ATOM     34  C   UNL A   1      37.763  21.884  24.658  1.00  0.00     0.275 C 
BRANCH  34  35
ATOM     35  O   UNL A   1      38.420  21.551  25.885  1.00  0.00    -0.458 OA
BRANCH  35  36
ATOM     36  C   UNL A   1      39.361  20.605  25.725  1.00  0.00     0.338 C 
ATOM     37  O   UNL A   1      39.201  19.436  25.402  1.00  0.00    -0.246 OA
BRANCH  36  38
ATOM     38  C   UNL A   1      40.623  20.986  26.332  1.00  0.00     0.060 A 
ATOM     39  C   UNL A   1      40.627  20.986  27.727  1.00  0.00     0.016 A 
ATOM     40  C   UNL A   1      41.295  21.956  25.579  1.00  0.00     0.016 A 
ATOM     41  C   UNL A   1      41.098  22.094  28.377  1.00  0.00     0.010 A 
ATOM     42  C   UNL A   1      41.779  23.066  26.233  1.00  0.00     0.010 A 
ATOM     43  C   UNL A   1      41.599  23.153  27.614  1.00  0.00    -0.014 A 
BRANCH  43  44
ATOM     44  C   UNL A   1      42.099  24.284  28.365  1.00  0.00     0.031 A 
ATOM     45  C   UNL A   1      41.222  25.477  28.204  1.00  0.00     0.074 A 
ATOM     46  C   UNL A   1      43.166  24.189  29.177  1.00  0.00     0.049 A 
ATOM     47  N   UNL A   1      41.547  26.670  27.831  1.00  0.00    -0.248 NA
ATOM     48  C   UNL A   1      39.763  25.248  28.295  1.00  0.00     0.031 C 
ATOM     49  C   UNL A   1      43.917  22.986  29.551  1.00  0.00     0.029 A 
ATOM     50  N   UNL A   1      43.704  25.144  29.975  1.00  0.00    -0.354 N 
ATOM     51  C   UNL A   1      40.353  27.386  27.801  1.00  0.00     0.074 A 
ATOM     52  C   UNL A   1      39.284  26.431  27.923  1.00  0.00     0.031 C 
ATOM     53  C   UNL A   1      44.587  23.230  30.700  1.00  0.00     0.029 A 
ATOM     54  C   UNL A   1      44.413  24.629  31.052  1.00  0.00     0.049 A 
ATOM     55  H   UNL A   1      43.604  26.109  29.808  1.00  0.00     0.167 HD
ATOM     56  C   UNL A   1      40.331  28.734  27.960  1.00  0.00     0.031 A 
ATOM     57  C   UNL A   1      44.720  25.288  32.197  1.00  0.00     0.031 A 
ATOM     58  C   UNL A   1      41.589  29.332  27.610  1.00  0.00     0.049 A 
ATOM     59  C   UNL A   1      44.541  26.739  31.942  1.00  0.00     0.074 A 
ATOM     60  C   UNL A   1      42.329  29.408  26.448  1.00  0.00     0.029 A 
ATOM     61  N   UNL A   1      42.453  29.629  28.635  1.00  0.00    -0.354 N 
ATOM     62  N   UNL A   1      45.296  27.423  31.132  1.00  0.00    -0.248 NA
ATOM     63  C   UNL A   1      43.234  27.319  32.216  1.00  0.00     0.031 C 
ATOM     64  C   UNL A   1      43.685  29.279  26.869  1.00  0.00     0.029 A 
ATOM     65  C   UNL A   1      43.699  29.199  28.263  1.00  0.00     0.049 A 
ATOM     66  H   UNL A   1      42.219  30.072  29.483  1.00  0.00     0.167 HD
ATOM     67  C   UNL A   1      44.422  28.267  30.460  1.00  0.00     0.074 A 
ATOM     68  C   UNL A   1      43.182  28.226  31.234  1.00  0.00     0.031 C 
ATOM     69  C   UNL A   1      44.686  28.689  29.187  1.00  0.00     0.031 A 
BRANCH  56  70
ATOM     70  C   UNL A   1      39.341  29.393  28.890  1.00  0.00    -0.014 A 
ATOM     71  C   UNL A   1      38.466  30.356  28.365  1.00  0.00     0.009 A 
ATOM     72  C   UNL A   1      39.444  29.331  30.296  1.00  0.00     0.009 A 
ATOM     73  C   UNL A   1      37.809  31.269  29.199  1.00  0.00     0.001 A 
ATOM     74  C   UNL A   1      38.762  30.214  31.132  1.00  0.00     0.001 A 
ATOM     75  C   UNL A   1      37.969  31.206  30.580  1.00  0.00     0.000 A 
ENDBRANCH  56  70
BRANCH  57  76
ATOM     76  C   UNL A   1      44.817  24.730  33.563  1.00  0.00    -0.014 A 
ATOM     77  C   UNL A   1      43.715  24.110  34.171  1.00  0.00     0.009 A 
ATOM     78  C   UNL A   1      46.073  24.583  34.186  1.00  0.00     0.009 A 
ATOM     79  C   UNL A   1      43.868  23.357  35.344  1.00  0.00     0.001 A 
ATOM     80  C   UNL A   1      46.225  23.836  35.358  1.00  0.00     0.001 A 
ATOM     81  C   UNL A   1      45.122  23.213  35.931  1.00  0.00     0.000 A 
ENDBRANCH  57  76
BRANCH  69  82
ATOM     82  C   UNL A   1      46.041  28.372  28.605  1.00  0.00    -0.014 A 
ATOM     83  C   UNL A   1      46.330  27.160  27.951  1.00  0.00     0.009 A 
ATOM     84  C   UNL A   1      46.996  29.396  28.560  1.00  0.00     0.009 A 
ATOM     85  C   UNL A   1      47.551  26.974  27.294  1.00  0.00     0.001 A 
ATOM     86  C   UNL A   1      48.206  29.218  27.886  1.00  0.00     0.001 A 
ATOM     87  C   UNL A   1      48.486  28.007  27.257  1.00  0.00     0.000 A 
ENDBRANCH  69  82
ENDBRANCH  43  44
ENDBRANCH  36  38
ENDBRANCH  35  36
ENDBRANCH  34  35
ENDBRANCH   1  34
TORSDOF 17
ENDMDL
