MODEL 1
REMARK VINA RESULT:     -10.8      0.000      0.000
REMARK SMILES CC(C)(C)OC(=O)N1CCC[C@H]1C(=O)N[C@@H](Cc1ccccc1)C(=O)OCCOC(=O)c1ccc(-c2c3nc(c(-c4ccccc4)c4ccc([nH]4)c(-c4ccccc4)c4nc(c(-c5ccccc5)c5ccc2[nH]5)C=C4)C=C3)cc1
REMARK SMILES IDX 26 1 24 2 25 3 16 4 15 5 13 6 14 7 12 9 8 10 9 11 10 12
REMARK SMILES IDX 11 13 6 14 7 15 5 16 2 17 1 18 3 19 4 20 17 21 18 22 19 23
REMARK SMILES IDX 23 24 20 25 22 26 21 27 27 28 28 29 29 30 30 31 31 32 32 33
REMARK SMILES IDX 33 34 79 35 34 36 78 37 35 38 36 39 37 40 72 41 38 42 77 43
REMARK SMILES IDX 71 44 73 45 39 46 76 47 70 48 69 49 40 51 62 52 47 53 61 54
REMARK SMILES IDX 48 55 51 56 60 57 74 58 49 59 50 60 59 62 75 63 52 64 41 65
REMARK SMILES IDX 42 66 46 67 43 68 45 69 44 70 63 71 64 72 68 73 65 74 67 75
REMARK SMILES IDX 66 76 53 77 54 78 58 79 55 80 57 81 56 82
REMARK H PARENT 15 8 73 50 51 61
REMARK Flexibility Score: inf
ROOT
ATOM      1  O   UNL A   1      38.329  22.845  25.896  1.00  0.00    -0.461 OA
ENDROOT
BRANCH   1   2
ATOM      2  C   UNL A   1      37.459  21.992  25.283  1.00  0.00     0.329 C 
ATOM      3  O   UNL A   1      37.783  20.996  24.640  1.00  0.00    -0.250 OA
BRANCH   2   4
ATOM      4  C   UNL A   1      35.999  22.469  25.361  1.00  0.00     0.196 C 
BRANCH   4   5
ATOM      5  N   UNL A   1      35.150  21.637  26.222  1.00  0.00    -0.341 N 
ATOM      6  C   UNL A   1      33.817  21.707  26.518  1.00  0.00     0.243 C 
ATOM      7  O   UNL A   1      33.378  20.852  27.293  1.00  0.00    -0.273 OA
ATOM      8  H   UNL A   1      35.625  20.898  26.665  1.00  0.00     0.164 HD
BRANCH   6   9
ATOM      9  C   UNL A   1      32.897  22.832  25.933  1.00  0.00     0.178 C 
ATOM     10  N   UNL A   1      31.900  22.346  24.953  1.00  0.00    -0.296 N 
ATOM     11  C   UNL A   1      30.719  21.955  25.696  1.00  0.00     0.124 C 
ATOM     12  C   UNL A   1      30.577  23.055  26.720  1.00  0.00     0.024 C 
ATOM     13  C   UNL A   1      32.023  23.344  27.118  1.00  0.00     0.037 C 
BRANCH  10  14
ATOM     14  C   UNL A   1      32.286  21.526  23.895  1.00  0.00     0.410 C 
ATOM     15  O   UNL A   1      32.394  22.032  22.775  1.00  0.00    -0.224 OA
BRANCH  14  16
ATOM     16  O   UNL A   1      32.540  20.071  24.197  1.00  0.00    -0.444 OA
BRANCH  16  17
ATOM     17  C   UNL A   1      33.378  18.253  24.361  1.00  0.00     0.106 C 
ATOM     18  C   UNL A   1      33.250  17.146  23.132  1.00  0.00     0.056 C 
ATOM     19  C   UNL A   1      32.945  17.163  25.588  1.00  0.00     0.056 C 
ATOM     20  C   UNL A   1      35.031  18.129  24.584  1.00  0.00     0.056 C 
ENDBRANCH  16  17
ENDBRANCH  14  16
ENDBRANCH  10  14
ENDBRANCH   6   9
ENDBRANCH   4   5
BRANCH   4  21
ATOM     21  C   UNL A   1      36.000  23.954  25.786  1.00  0.00     0.072 C 
BRANCH  21  22
ATOM     22  C   UNL A   1      35.069  24.813  24.955  1.00  0.00    -0.045 A 
ATOM     23  C   UNL A   1      34.769  24.473  23.634  1.00  0.00     0.004 A 
ATOM     24  C   UNL A   1      34.386  25.887  25.556  1.00  0.00     0.004 A 
ATOM     25  C   UNL A   1      33.776  25.166  22.941  1.00  0.00     0.000 A 
ATOM     26  C   UNL A   1      33.380  26.563  24.868  1.00  0.00     0.000 A 
ATOM     27  C   UNL A   1      33.073  26.199  23.560  1.00  0.00     0.000 A 
ENDBRANCH  21  22
ENDBRANCH   4  21
ENDBRANCH   2   4
ENDBRANCH   1   2
BRANCH   1  28
ATOM     28  C   UNL A   1      39.478  22.209  26.490  1.00  0.00     0.274 C 
BRANCH  28  29
ATOM     29  C   UNL A   1      40.406  23.256  27.098  1.00  0.00     0.275 C 
BRANCH  29  30
ATOM     30  O   UNL A   1      41.463  23.523  26.166  1.00  0.00    -0.458 OA
BRANCH  30  31
ATOM     31  C   UNL A   1      42.676  23.060  26.535  1.00  0.00     0.338 C 
ATOM     32  O   UNL A   1      42.985  21.912  26.790  1.00  0.00    -0.246 OA
BRANCH  31  33
ATOM     33  C   UNL A   1      43.585  24.206  26.655  1.00  0.00     0.060 A 
ATOM     34  C   UNL A   1      43.883  25.043  28.237  1.00  0.00     0.016 A 
ATOM     35  C   UNL A   1      44.329  24.874  25.125  1.00  0.00     0.016 A 
ATOM     36  C   UNL A   1      44.940  26.522  28.306  1.00  0.00     0.010 A 
ATOM     37  C   UNL A   1      45.388  26.343  25.211  1.00  0.00     0.010 A 
ATOM     38  C   UNL A   1      45.704  27.189  26.805  1.00  0.00    -0.014 A 
BRANCH  38  39
ATOM     39  C   UNL A   1      46.678  28.361  26.863  1.00  0.00     0.031 A 
ATOM     40  C   UNL A   1      46.165  29.788  26.810  1.00  0.00     0.074 A 
ATOM     41  C   UNL A   1      48.024  28.196  26.807  1.00  0.00     0.049 A 
ATOM     42  N   UNL A   1      46.804  30.909  26.557  1.00  0.00    -0.248 NA
ATOM     43  C   UNL A   1      44.739  29.981  27.079  1.00  0.00     0.031 C 
ATOM     44  C   UNL A   1      48.762  26.933  26.846  1.00  0.00     0.029 A 
ATOM     45  N   UNL A   1      49.030  29.126  26.596  1.00  0.00    -0.354 N 
ATOM     46  C   UNL A   1      45.847  31.920  26.625  1.00  0.00     0.074 A 
ATOM     47  C   UNL A   1      44.580  31.279  26.885  1.00  0.00     0.031 C 
ATOM     48  C   UNL A   1      50.060  27.145  26.599  1.00  0.00     0.029 A 
ATOM     49  C   UNL A   1      50.265  28.560  26.352  1.00  0.00     0.049 A 
ATOM     50  H   UNL A   1      48.880  30.099  26.618  1.00  0.00     0.167 HD
ATOM     51  C   UNL A   1      45.989  33.264  26.505  1.00  0.00     0.031 A 
ATOM     52  C   UNL A   1      51.436  29.074  25.925  1.00  0.00     0.031 A 
ATOM     53  C   UNL A   1      47.229  33.939  26.242  1.00  0.00     0.049 A 
ATOM     54  C   UNL A   1      51.566  30.545  25.685  1.00  0.00     0.074 A 
ATOM     55  C   UNL A   1      47.468  35.301  26.143  1.00  0.00     0.029 A 
ATOM     56  N   UNL A   1      48.441  33.305  26.032  1.00  0.00    -0.354 N 
ATOM     57  N   UNL A   1      50.653  31.477  25.782  1.00  0.00    -0.248 NA
ATOM     58  C   UNL A   1      52.899  31.037  25.304  1.00  0.00     0.031 C 
ATOM     59  C   UNL A   1      48.820  35.487  25.835  1.00  0.00     0.029 A 
ATOM     60  C   UNL A   1      49.428  34.245  25.790  1.00  0.00     0.049 A 
ATOM     61  H   UNL A   1      48.579  32.330  26.052  1.00  0.00     0.167 HD
ATOM     62  C   UNL A   1      51.311  32.671  25.527  1.00  0.00     0.074 A 
ATOM     63  C   UNL A   1      52.696  32.346  25.261  1.00  0.00     0.031 C 
ATOM     64  C   UNL A   1      50.807  33.927  25.536  1.00  0.00     0.031 A 
BRANCH  51  65
ATOM     65  C   UNL A   1      44.747  34.101  26.666  1.00  0.00    -0.014 A 
ATOM     66  C   UNL A   1      44.368  34.593  27.926  1.00  0.00     0.009 A 
ATOM     67  C   UNL A   1      43.955  34.411  25.550  1.00  0.00     0.009 A 
ATOM     68  C   UNL A   1      43.198  35.342  28.072  1.00  0.00     0.001 A 
ATOM     69  C   UNL A   1      42.801  35.184  25.694  1.00  0.00     0.001 A 
ATOM     70  C   UNL A   1      42.417  35.638  26.955  1.00  0.00     0.000 A 
ENDBRANCH  51  65
BRANCH  52  71
ATOM     71  C   UNL A   1      52.599  28.174  25.691  1.00  0.00    -0.014 A 
ATOM     72  C   UNL A   1      52.812  27.603  24.426  1.00  0.00     0.009 A 
ATOM     73  C   UNL A   1      53.500  27.883  26.728  1.00  0.00     0.009 A 
ATOM     74  C   UNL A   1      53.891  26.743  24.212  1.00  0.00     0.001 A 
ATOM     75  C   UNL A   1      54.593  27.043  26.502  1.00  0.00     0.001 A 
ATOM     76  C   UNL A   1      54.783  26.468  25.247  1.00  0.00     0.000 A 
ENDBRANCH  52  71
BRANCH  64  77
ATOM     77  C   UNL A   1      51.771  35.054  25.322  1.00  0.00    -0.014 A 
ATOM     78  C   UNL A   1      52.004  35.588  24.046  1.00  0.00     0.009 A 
ATOM     79  C   UNL A   1      52.449  35.597  26.425  1.00  0.00     0.009 A 
ATOM     80  C   UNL A   1      52.920  36.628  23.877  1.00  0.00     0.001 A 
ATOM     81  C   UNL A   1      53.345  36.652  26.255  1.00  0.00     0.001 A 
ATOM     82  C   UNL A   1      53.587  37.161  24.980  1.00  0.00     0.000 A 
ENDBRANCH  64  77
ENDBRANCH  38  39
ENDBRANCH  31  33
ENDBRANCH  30  31
ENDBRANCH  29  30
ENDBRANCH  28  29
ENDBRANCH   1  28
TORSDOF 18
ENDMDL
MODEL 2
REMARK VINA RESULT:     -10.7      5.054      8.162
REMARK SMILES CC(C)(C)OC(=O)N1CCC[C@H]1C(=O)N[C@@H](Cc1ccccc1)C(=O)OCCOC(=O)c1ccc(-c2c3nc(c(-c4ccccc4)c4ccc([nH]4)c(-c4ccccc4)c4nc(c(-c5ccccc5)c5ccc2[nH]5)C=C4)C=C3)cc1
REMARK SMILES IDX 26 1 24 2 25 3 16 4 15 5 13 6 14 7 12 9 8 10 9 11 10 12
REMARK SMILES IDX 11 13 6 14 7 15 5 16 2 17 1 18 3 19 4 20 17 21 18 22 19 23
REMARK SMILES IDX 23 24 20 25 22 26 21 27 27 28 28 29 29 30 30 31 31 32 32 33
REMARK SMILES IDX 33 34 79 35 34 36 78 37 35 38 36 39 37 40 72 41 38 42 77 43
REMARK SMILES IDX 71 44 73 45 39 46 76 47 70 48 69 49 40 51 62 52 47 53 61 54
REMARK SMILES IDX 48 55 51 56 60 57 74 58 49 59 50 60 59 62 75 63 52 64 41 65
REMARK SMILES IDX 42 66 46 67 43 68 45 69 44 70 63 71 64 72 68 73 65 74 67 75
REMARK SMILES IDX 66 76 53 77 54 78 58 79 55 80 57 81 56 82
REMARK H PARENT 15 8 73 50 51 61
REMARK Flexibility Score: inf
ROOT
ATOM      1  O   UNL A   1      32.659  28.305  24.504  1.00  0.00    -0.461 OA
ENDROOT
BRANCH   1   2
ATOM      2  C   UNL A   1      33.147  27.928  23.288  1.00  0.00     0.329 C 
ATOM      3  O   UNL A   1      34.160  28.384  22.762  1.00  0.00    -0.250 OA
BRANCH   2   4
ATOM      4  C   UNL A   1      32.221  26.945  22.551  1.00  0.00     0.196 C 
BRANCH   4   5
ATOM      5  N   UNL A   1      32.888  25.710  22.124  1.00  0.00    -0.341 N 
ATOM      6  C   UNL A   1      33.387  24.657  22.839  1.00  0.00     0.243 C 
ATOM      7  O   UNL A   1      33.906  23.744  22.188  1.00  0.00    -0.273 OA
ATOM      8  H   UNL A   1      32.996  25.625  21.150  1.00  0.00     0.164 HD
BRANCH   6   9
ATOM      9  C   UNL A   1      33.337  24.621  24.404  1.00  0.00     0.178 C 
ATOM     10  N   UNL A   1      33.335  23.255  24.975  1.00  0.00    -0.296 N 
ATOM     11  C   UNL A   1      34.717  22.857  25.146  1.00  0.00     0.124 C 
ATOM     12  C   UNL A   1      35.371  24.105  25.688  1.00  0.00     0.024 C 
ATOM     13  C   UNL A   1      34.687  25.221  24.900  1.00  0.00     0.037 C 
BRANCH  10  14
ATOM     14  C   UNL A   1      32.449  22.289  24.503  1.00  0.00     0.410 C 
ATOM     15  O   UNL A   1      31.292  22.635  24.252  1.00  0.00    -0.224 OA
BRANCH  14  16
ATOM     16  O   UNL A   1      32.971  20.885  24.337  1.00  0.00    -0.444 OA
BRANCH  16  17
ATOM     17  C   UNL A   1      33.126  18.885  24.225  1.00  0.00     0.106 C 
ATOM     18  C   UNL A   1      32.567  18.064  22.897  1.00  0.00     0.056 C 
ATOM     19  C   UNL A   1      32.390  17.855  25.357  1.00  0.00     0.056 C 
ATOM     20  C   UNL A   1      34.639  18.175  24.291  1.00  0.00     0.056 C 
ENDBRANCH  16  17
ENDBRANCH  14  16
ENDBRANCH  10  14
ENDBRANCH   6   9
ENDBRANCH   4   5
BRANCH   4  21
ATOM     21  C   UNL A   1      30.994  26.676  23.448  1.00  0.00     0.072 C 
BRANCH  21  22
ATOM     22  C   UNL A   1      29.794  27.530  23.092  1.00  0.00    -0.045 A 
ATOM     23  C   UNL A   1      28.527  27.234  23.602  1.00  0.00     0.004 A 
ATOM     24  C   UNL A   1      29.973  28.716  22.356  1.00  0.00     0.004 A 
ATOM     25  C   UNL A   1      27.471  28.126  23.413  1.00  0.00     0.000 A 
ATOM     26  C   UNL A   1      28.922  29.614  22.188  1.00  0.00     0.000 A 
ATOM     27  C   UNL A   1      27.671  29.320  22.722  1.00  0.00     0.000 A 
ENDBRANCH  21  22
ENDBRANCH   4  21
ENDBRANCH   2   4
ENDBRANCH   1   2
BRANCH   1  28
ATOM     28  C   UNL A   1      33.619  28.952  25.363  1.00  0.00     0.274 C 
BRANCH  28  29
ATOM     29  C   UNL A   1      32.909  29.873  26.349  1.00  0.00     0.275 C 
BRANCH  29  30
ATOM     30  O   UNL A   1      33.527  29.728  27.636  1.00  0.00    -0.458 OA
BRANCH  30  31
ATOM     31  C   UNL A   1      34.280  30.777  28.026  1.00  0.00     0.338 C 
ATOM     32  O   UNL A   1      33.977  31.954  28.009  1.00  0.00    -0.246 OA
BRANCH  31  33
ATOM     33  C   UNL A   1      35.598  30.269  28.424  1.00  0.00     0.060 A 
ATOM     34  C   UNL A   1      36.007  29.889  30.150  1.00  0.00     0.016 A 
ATOM     35  C   UNL A   1      36.893  30.143  27.140  1.00  0.00     0.016 A 
ATOM     36  C   UNL A   1      37.689  29.359  30.598  1.00  0.00     0.010 A 
ATOM     37  C   UNL A   1      38.562  29.605  27.600  1.00  0.00     0.010 A 
ATOM     38  C   UNL A   1      38.982  29.209  29.339  1.00  0.00    -0.014 A 
BRANCH  38  39
ATOM     39  C   UNL A   1      40.364  28.662  29.680  1.00  0.00     0.031 A 
ATOM     40  C   UNL A   1      41.420  29.569  30.284  1.00  0.00     0.074 A 
ATOM     41  C   UNL A   1      40.765  27.414  29.327  1.00  0.00     0.049 A 
ATOM     42  N   UNL A   1      42.720  29.405  30.384  1.00  0.00    -0.248 NA
ATOM     43  C   UNL A   1      40.948  30.833  30.854  1.00  0.00     0.031 C 
ATOM     44  C   UNL A   1      39.943  26.357  28.736  1.00  0.00     0.029 A 
ATOM     45  N   UNL A   1      42.030  26.848  29.326  1.00  0.00    -0.354 N 
ATOM     46  C   UNL A   1      43.205  30.552  31.011  1.00  0.00     0.074 A 
ATOM     47  C   UNL A   1      42.073  31.425  31.218  1.00  0.00     0.031 C 
ATOM     48  C   UNL A   1      40.709  25.323  28.368  1.00  0.00     0.029 A 
ATOM     49  C   UNL A   1      42.094  25.638  28.665  1.00  0.00     0.049 A 
ATOM     50  H   UNL A   1      42.810  27.269  29.755  1.00  0.00     0.167 HD
ATOM     51  C   UNL A   1      44.465  30.863  31.407  1.00  0.00     0.031 A 
ATOM     52  C   UNL A   1      43.128  24.866  28.275  1.00  0.00     0.031 A 
ATOM     53  C   UNL A   1      45.616  30.025  31.217  1.00  0.00     0.049 A 
ATOM     54  C   UNL A   1      44.530  25.262  28.615  1.00  0.00     0.074 A 
ATOM     55  C   UNL A   1      46.924  30.248  31.621  1.00  0.00     0.029 A 
ATOM     56  N   UNL A   1      45.602  28.805  30.565  1.00  0.00    -0.354 N 
ATOM     57  N   UNL A   1      44.954  26.336  29.230  1.00  0.00    -0.248 NA
ATOM     58  C   UNL A   1      45.595  24.323  28.229  1.00  0.00     0.031 C 
ATOM     59  C   UNL A   1      47.707  29.176  31.178  1.00  0.00     0.029 A 
ATOM     60  C   UNL A   1      46.878  28.269  30.541  1.00  0.00     0.049 A 
ATOM     61  H   UNL A   1      44.803  28.382  30.175  1.00  0.00     0.167 HD
ATOM     62  C   UNL A   1      46.326  26.178  29.354  1.00  0.00     0.074 A 
ATOM     63  C   UNL A   1      46.666  24.911  28.741  1.00  0.00     0.031 C 
ATOM     64  C   UNL A   1      47.218  27.007  29.944  1.00  0.00     0.031 A 
BRANCH  51  65
ATOM     65  C   UNL A   1      44.658  32.186  32.101  1.00  0.00    -0.014 A 
ATOM     66  C   UNL A   1      44.967  33.345  31.369  1.00  0.00     0.009 A 
ATOM     67  C   UNL A   1      44.518  32.279  33.494  1.00  0.00     0.009 A 
ATOM     68  C   UNL A   1      45.175  34.561  32.024  1.00  0.00     0.001 A 
ATOM     69  C   UNL A   1      44.700  33.503  34.142  1.00  0.00     0.001 A 
ATOM     70  C   UNL A   1      45.040  34.639  33.409  1.00  0.00     0.000 A 
ENDBRANCH  51  65
BRANCH  52  71
ATOM     71  C   UNL A   1      42.871  23.618  27.505  1.00  0.00    -0.014 A 
ATOM     72  C   UNL A   1      42.544  22.426  28.171  1.00  0.00     0.009 A 
ATOM     73  C   UNL A   1      42.950  23.612  26.103  1.00  0.00     0.009 A 
ATOM     74  C   UNL A   1      42.323  21.251  27.449  1.00  0.00     0.001 A 
ATOM     75  C   UNL A   1      42.702  22.440  25.383  1.00  0.00     0.001 A 
ATOM     76  C   UNL A   1      42.397  21.260  26.057  1.00  0.00     0.000 A 
ENDBRANCH  52  71
BRANCH  64  77
ATOM     77  C   UNL A   1      48.640  26.538  30.025  1.00  0.00    -0.014 A 
ATOM     78  C   UNL A   1      49.079  25.703  31.063  1.00  0.00     0.009 A 
ATOM     79  C   UNL A   1      49.551  26.933  29.033  1.00  0.00     0.009 A 
ATOM     80  C   UNL A   1      50.413  25.296  31.119  1.00  0.00     0.001 A 
ATOM     81  C   UNL A   1      50.877  26.505  29.079  1.00  0.00     0.001 A 
ATOM     82  C   UNL A   1      51.310  25.694  30.126  1.00  0.00     0.000 A 
ENDBRANCH  64  77
ENDBRANCH  38  39
ENDBRANCH  31  33
ENDBRANCH  30  31
ENDBRANCH  29  30
ENDBRANCH  28  29
ENDBRANCH   1  28
TORSDOF 18
ENDMDL
MODEL 3
REMARK VINA RESULT:     -10.6      4.033      7.265
REMARK SMILES CC(C)(C)OC(=O)N1CCC[C@H]1C(=O)N[C@@H](Cc1ccccc1)C(=O)OCCOC(=O)c1ccc(-c2c3nc(c(-c4ccccc4)c4ccc([nH]4)c(-c4ccccc4)c4nc(c(-c5ccccc5)c5ccc2[nH]5)C=C4)C=C3)cc1
REMARK SMILES IDX 26 1 24 2 25 3 16 4 15 5 13 6 14 7 12 9 8 10 9 11 10 12
REMARK SMILES IDX 11 13 6 14 7 15 5 16 2 17 1 18 3 19 4 20 17 21 18 22 19 23
REMARK SMILES IDX 23 24 20 25 22 26 21 27 27 28 28 29 29 30 30 31 31 32 32 33
REMARK SMILES IDX 33 34 79 35 34 36 78 37 35 38 36 39 37 40 72 41 38 42 77 43
REMARK SMILES IDX 71 44 73 45 39 46 76 47 70 48 69 49 40 51 62 52 47 53 61 54
REMARK SMILES IDX 48 55 51 56 60 57 74 58 49 59 50 60 59 62 75 63 52 64 41 65
REMARK SMILES IDX 42 66 46 67 43 68 45 69 44 70 63 71 64 72 68 73 65 74 67 75
REMARK SMILES IDX 66 76 53 77 54 78 58 79 55 80 57 81 56 82
REMARK H PARENT 15 8 73 50 51 61
REMARK Flexibility Score: inf
ROOT
ATOM      1  O   UNL A   1      33.629  22.819  24.838  1.00  0.00    -0.461 OA
ENDROOT
BRANCH   1   2
ATOM      2  C   UNL A   1      32.427  23.379  25.155  1.00  0.00     0.329 C 
ATOM      3  O   UNL A   1      31.397  22.752  25.394  1.00  0.00    -0.250 OA
BRANCH   2   4
ATOM      4  C   UNL A   1      32.439  24.914  25.060  1.00  0.00     0.196 C 
BRANCH   4   5
ATOM      5  N   UNL A   1      31.103  25.511  24.941  1.00  0.00    -0.341 N 
ATOM      6  C   UNL A   1      30.464  26.095  23.884  1.00  0.00     0.243 C 
ATOM      7  O   UNL A   1      29.321  26.516  24.093  1.00  0.00    -0.273 OA
ATOM      8  H   UNL A   1      30.575  25.485  25.770  1.00  0.00     0.164 HD
BRANCH   6   9
ATOM      9  C   UNL A   1      31.152  26.256  22.486  1.00  0.00     0.178 C 
ATOM     10  N   UNL A   1      32.133  27.363  22.421  1.00  0.00    -0.296 N 
ATOM     11  C   UNL A   1      33.414  26.829  22.838  1.00  0.00     0.124 C 
ATOM     12  C   UNL A   1      33.464  25.482  22.157  1.00  0.00     0.024 C 
ATOM     13  C   UNL A   1      32.025  24.982  22.277  1.00  0.00     0.037 C 
BRANCH  10  14
ATOM     14  C   UNL A   1      31.798  28.637  22.875  1.00  0.00     0.410 C 
ATOM     15  O   UNL A   1      32.622  29.245  23.563  1.00  0.00    -0.224 OA
BRANCH  14  16
ATOM     16  O   UNL A   1      30.444  29.179  22.493  1.00  0.00    -0.444 OA
BRANCH  16  17
ATOM     17  C   UNL A   1      28.639  30.060  22.529  1.00  0.00     0.106 C 
ATOM     18  C   UNL A   1      28.347  31.356  23.522  1.00  0.00     0.056 C 
ATOM     19  C   UNL A   1      27.229  29.220  22.964  1.00  0.00     0.056 C 
ATOM     20  C   UNL A   1      28.025  30.729  21.124  1.00  0.00     0.056 C 
ENDBRANCH  16  17
ENDBRANCH  14  16
ENDBRANCH  10  14
ENDBRANCH   6   9
ENDBRANCH   4   5
BRANCH   4  21
ATOM     21  C   UNL A   1      33.229  25.465  26.267  1.00  0.00     0.072 C 
BRANCH  21  22
ATOM     22  C   UNL A   1      33.046  26.956  26.471  1.00  0.00    -0.045 A 
ATOM     23  C   UNL A   1      31.846  27.468  26.972  1.00  0.00     0.004 A 
ATOM     24  C   UNL A   1      34.137  27.825  26.289  1.00  0.00     0.004 A 
ATOM     25  C   UNL A   1      31.754  28.815  27.323  1.00  0.00     0.000 A 
ATOM     26  C   UNL A   1      34.048  29.165  26.661  1.00  0.00     0.000 A 
ATOM     27  C   UNL A   1      32.855  29.659  27.183  1.00  0.00     0.000 A 
ENDBRANCH  21  22
ENDBRANCH   4  21
ENDBRANCH   2   4
ENDBRANCH   1   2
BRANCH   1  28
ATOM     28  C   UNL A   1      33.842  21.502  25.384  1.00  0.00     0.274 C 
BRANCH  28  29
ATOM     29  C   UNL A   1      35.131  20.904  24.831  1.00  0.00     0.275 C 
BRANCH  29  30
ATOM     30  O   UNL A   1      36.182  21.125  25.782  1.00  0.00    -0.458 OA
BRANCH  30  31
ATOM     31  C   UNL A   1      37.428  20.899  25.315  1.00  0.00     0.338 C 
ATOM     32  O   UNL A   1      37.804  19.971  24.626  1.00  0.00    -0.246 OA
BRANCH  31  33
ATOM     33  C   UNL A   1      38.309  21.946  25.844  1.00  0.00     0.060 A 
ATOM     34  C   UNL A   1      39.842  21.563  26.735  1.00  0.00     0.016 A 
ATOM     35  C   UNL A   1      37.759  23.684  25.699  1.00  0.00     0.016 A 
ATOM     36  C   UNL A   1      40.842  22.901  27.457  1.00  0.00     0.010 A 
ATOM     37  C   UNL A   1      38.770  25.007  26.416  1.00  0.00     0.010 A 
ATOM     38  C   UNL A   1      40.325  24.630  27.308  1.00  0.00    -0.014 A 
BRANCH  38  39
ATOM     39  C   UNL A   1      41.206  25.769  27.812  1.00  0.00     0.031 A 
ATOM     40  C   UNL A   1      40.610  26.892  28.640  1.00  0.00     0.074 A 
ATOM     41  C   UNL A   1      42.500  25.917  27.427  1.00  0.00     0.049 A 
ATOM     42  N   UNL A   1      41.091  28.081  28.924  1.00  0.00    -0.248 NA
ATOM     43  C   UNL A   1      39.293  26.641  29.228  1.00  0.00     0.031 C 
ATOM     44  C   UNL A   1      43.300  24.981  26.636  1.00  0.00     0.029 A 
ATOM     45  N   UNL A   1      43.357  26.996  27.574  1.00  0.00    -0.354 N 
ATOM     46  C   UNL A   1      40.123  28.710  29.706  1.00  0.00     0.074 A 
ATOM     47  C   UNL A   1      39.009  27.797  29.805  1.00  0.00     0.031 C 
ATOM     48  C   UNL A   1      44.474  25.533  26.309  1.00  0.00     0.029 A 
ATOM     49  C   UNL A   1      44.520  26.884  26.839  1.00  0.00     0.049 A 
ATOM     50  H   UNL A   1      43.157  27.770  28.149  1.00  0.00     0.167 HD
ATOM     51  C   UNL A   1      40.145  29.923  30.312  1.00  0.00     0.031 A 
ATOM     52  C   UNL A   1      45.505  27.758  26.552  1.00  0.00     0.031 A 
ATOM     53  C   UNL A   1      41.230  30.861  30.235  1.00  0.00     0.049 A 
ATOM     54  C   UNL A   1      45.477  29.136  27.131  1.00  0.00     0.074 A 
ATOM     55  C   UNL A   1      41.351  32.098  30.850  1.00  0.00     0.029 A 
ATOM     56  N   UNL A   1      42.383  30.670  29.494  1.00  0.00    -0.354 N 
ATOM     57  N   UNL A   1      44.565  29.692  27.886  1.00  0.00    -0.248 NA
ATOM     58  C   UNL A   1      46.632  30.000  26.840  1.00  0.00     0.031 C 
ATOM     59  C   UNL A   1      42.563  32.670  30.449  1.00  0.00     0.029 A 
ATOM     60  C   UNL A   1      43.214  31.770  29.624  1.00  0.00     0.049 A 
ATOM     61  H   UNL A   1      42.583  29.871  28.955  1.00  0.00     0.167 HD
ATOM     62  C   UNL A   1      45.058  30.948  28.205  1.00  0.00     0.074 A 
ATOM     63  C   UNL A   1      46.345  31.078  27.554  1.00  0.00     0.031 C 
ATOM     64  C   UNL A   1      44.497  31.898  28.988  1.00  0.00     0.031 A 
BRANCH  51  65
ATOM     65  C   UNL A   1      38.938  30.303  31.129  1.00  0.00    -0.014 A 
ATOM     66  C   UNL A   1      38.859  29.977  32.493  1.00  0.00     0.009 A 
ATOM     67  C   UNL A   1      37.877  31.004  30.536  1.00  0.00     0.009 A 
ATOM     68  C   UNL A   1      37.722  30.305  33.235  1.00  0.00     0.001 A 
ATOM     69  C   UNL A   1      36.753  31.355  31.287  1.00  0.00     0.001 A 
ATOM     70  C   UNL A   1      36.671  30.996  32.632  1.00  0.00     0.000 A 
ENDBRANCH  51  65
BRANCH  52  71
ATOM     71  C   UNL A   1      46.621  27.347  25.656  1.00  0.00    -0.014 A 
ATOM     72  C   UNL A   1      47.640  26.506  26.129  1.00  0.00     0.009 A 
ATOM     73  C   UNL A   1      46.672  27.792  24.324  1.00  0.00     0.009 A 
ATOM     74  C   UNL A   1      48.698  26.138  25.294  1.00  0.00     0.001 A 
ATOM     75  C   UNL A   1      47.718  27.400  23.485  1.00  0.00     0.001 A 
ATOM     76  C   UNL A   1      48.733  26.580  23.973  1.00  0.00     0.000 A 
ENDBRANCH  52  71
BRANCH  64  77
ATOM     77  C   UNL A   1      45.301  33.136  29.248  1.00  0.00    -0.014 A 
ATOM     78  C   UNL A   1      45.097  34.312  28.510  1.00  0.00     0.009 A 
ATOM     79  C   UNL A   1      46.273  33.124  30.260  1.00  0.00     0.009 A 
ATOM     80  C   UNL A   1      45.873  35.444  28.764  1.00  0.00     0.001 A 
ATOM     81  C   UNL A   1      47.030  34.265  30.528  1.00  0.00     0.001 A 
ATOM     82  C   UNL A   1      46.835  35.421  29.774  1.00  0.00     0.000 A 
ENDBRANCH  64  77
ENDBRANCH  38  39
ENDBRANCH  31  33
ENDBRANCH  30  31
ENDBRANCH  29  30
ENDBRANCH  28  29
ENDBRANCH   1  28
TORSDOF 18
ENDMDL
