MODEL 1
REMARK VINA RESULT:      -8.8      0.000      0.000
REMARK SMILES CC(=O)Nc1ccc(/N=C2\C(=O)N(c3ccc(NC(C)=O)cc3)[C@H](c3ccccc3)[C@H]2CC(=O)OCCOC(=O)c2ccc(-c3c4nc(c(-c5ccccc5)c5ccc([nH]5)c(-c5ccccc5)c5nc(c(-c6ccccc6)c6ccc3[nH]6)C=C5)C=C4)cc2)cc1
REMARK SMILES IDX 36 1 35 2 33 3 34 4 32 5 31 6 9 7 10 8 11 9 12 10 13 11
REMARK SMILES IDX 24 12 8 13 5 14 6 15 90 16 7 17 89 18 4 19 1 20 2 21 3 22
REMARK SMILES IDX 14 24 15 25 23 26 16 27 22 28 17 29 18 30 19 31 20 33 21 34
REMARK SMILES IDX 25 35 26 36 30 37 27 38 29 39 28 40 37 41 38 42 39 43 40 44
REMARK SMILES IDX 41 45 42 46 88 47 43 48 87 49 44 50 45 51 46 52 81 53 47 54
REMARK SMILES IDX 86 55 80 56 82 57 48 58 85 59 79 60 78 61 49 63 71 64 56 65
REMARK SMILES IDX 70 66 57 67 60 68 69 69 83 70 58 71 59 72 68 74 84 75 61 76
REMARK SMILES IDX 50 77 51 78 55 79 52 80 54 81 53 82 72 83 73 84 77 85 74 86
REMARK SMILES IDX 76 87 75 88 62 89 63 90 67 91 64 92 66 93 65 94
REMARK H PARENT 4 23 18 32 82 62 60 73
REMARK Flexibility Score: inf
ROOT
ATOM      1  C   UNL A   1      42.202  22.447  26.708  1.00  0.00     0.274 C 
ENDROOT
BRANCH   1   2
ATOM      2  O   UNL A   1      43.294  22.429  25.770  1.00  0.00    -0.462 OA
BRANCH   2   3
ATOM      3  C   UNL A   1      43.685  23.611  25.239  1.00  0.00     0.306 C 
ATOM      4  O   UNL A   1      42.956  24.571  25.030  1.00  0.00    -0.252 OA
BRANCH   3   5
ATOM      5  C   UNL A   1      45.152  23.593  24.868  1.00  0.00     0.135 C 
BRANCH   5   6
ATOM      6  C   UNL A   1      45.995  24.470  25.794  1.00  0.00     0.083 C 
ATOM      7  N   UNL A   1      47.984  25.273  24.640  1.00  0.00    -0.247 NA
ATOM      8  C   UNL A   1      46.761  25.491  25.003  1.00  0.00     0.112 C 
ATOM      9  C   UNL A   1      45.953  26.751  24.967  1.00  0.00     0.273 C 
ATOM     10  O   UNL A   1      45.908  27.501  24.017  1.00  0.00    -0.267 OA
ATOM     11  N   UNL A   1      45.353  26.790  26.213  1.00  0.00    -0.299 N 
ATOM     12  C   UNL A   1      45.148  25.422  26.704  1.00  0.00     0.131 C 
BRANCH   7  13
ATOM     13  C   UNL A   1      48.900  26.184  24.095  1.00  0.00     0.064 A 
ATOM     14  C   UNL A   1      50.738  28.213  23.281  1.00  0.00     0.041 A 
ATOM     15  C   UNL A   1      50.630  27.831  24.623  1.00  0.00     0.028 A 
ATOM     16  C   UNL A   1      49.928  27.565  22.355  1.00  0.00     0.028 A 
ATOM     17  C   UNL A   1      49.730  26.831  25.017  1.00  0.00     0.030 A 
ATOM     18  C   UNL A   1      48.995  26.596  22.765  1.00  0.00     0.030 A 
BRANCH  14  19
ATOM     19  N   UNL A   1      51.661  29.234  22.992  1.00  0.00    -0.326 N 
ATOM     20  C   UNL A   1      50.917  30.112  20.765  1.00  0.00     0.114 C 
ATOM     21  C   UNL A   1      51.845  30.084  21.944  1.00  0.00     0.221 C 
ATOM     22  O   UNL A   1      52.805  30.859  21.992  1.00  0.00    -0.275 OA
ATOM     23  H   UNL A   1      52.324  29.364  23.710  1.00  0.00     0.169 HD
ENDBRANCH  14  19
ENDBRANCH   7  13
BRANCH  11  24
ATOM     24  C   UNL A   1      44.891  27.994  26.801  1.00  0.00     0.045 A 
ATOM     25  C   UNL A   1      43.592  28.456  26.563  1.00  0.00     0.028 A 
ATOM     26  C   UNL A   1      45.766  28.854  27.470  1.00  0.00     0.028 A 
ATOM     27  C   UNL A   1      43.185  29.739  26.960  1.00  0.00     0.028 A 
ATOM     28  C   UNL A   1      45.369  30.143  27.854  1.00  0.00     0.028 A 
ATOM     29  C   UNL A   1      44.079  30.604  27.583  1.00  0.00     0.041 A 
BRANCH  29  30
ATOM     30  N   UNL A   1      43.792  31.945  27.911  1.00  0.00    -0.326 N 
ATOM     31  C   UNL A   1      44.366  33.083  27.374  1.00  0.00     0.221 C 
ATOM     32  H   UNL A   1      43.104  32.087  28.601  1.00  0.00     0.169 HD
ATOM     33  C   UNL A   1      43.914  34.351  28.059  1.00  0.00     0.114 C 
ATOM     34  O   UNL A   1      45.167  33.133  26.448  1.00  0.00    -0.275 OA
ENDBRANCH  29  30
ENDBRANCH  11  24
BRANCH  12  35
ATOM     35  C   UNL A   1      45.300  25.142  28.187  1.00  0.00    -0.024 A 
ATOM     36  C   UNL A   1      44.395  24.265  28.817  1.00  0.00     0.006 A 
ATOM     37  C   UNL A   1      46.310  25.728  28.969  1.00  0.00     0.006 A 
ATOM     38  C   UNL A   1      44.495  23.983  30.181  1.00  0.00     0.000 A 
ATOM     39  C   UNL A   1      46.417  25.431  30.331  1.00  0.00     0.000 A 
ATOM     40  C   UNL A   1      45.511  24.562  30.935  1.00  0.00     0.000 A 
ENDBRANCH  12  35
ENDBRANCH   5   6
ENDBRANCH   3   5
ENDBRANCH   2   3
ENDBRANCH   1   2
BRANCH   1  41
ATOM     41  C   UNL A   1      40.939  21.821  26.113  1.00  0.00     0.275 C 
BRANCH  41  42
ATOM     42  O   UNL A   1      39.784  22.191  26.887  1.00  0.00    -0.458 OA
BRANCH  42  43
ATOM     43  C   UNL A   1      39.025  23.188  26.376  1.00  0.00     0.338 C 
ATOM     44  O   UNL A   1      38.145  23.088  25.538  1.00  0.00    -0.246 OA
BRANCH  43  45
ATOM     45  C   UNL A   1      39.320  24.445  27.090  1.00  0.00     0.060 A 
ATOM     46  C   UNL A   1      40.057  25.427  26.416  1.00  0.00     0.016 A 
ATOM     47  C   UNL A   1      38.889  24.658  28.404  1.00  0.00     0.016 A 
ATOM     48  C   UNL A   1      40.351  26.633  27.050  1.00  0.00     0.010 A 
ATOM     49  C   UNL A   1      39.208  25.855  29.047  1.00  0.00     0.010 A 
ATOM     50  C   UNL A   1      39.942  26.845  28.374  1.00  0.00    -0.014 A 
BRANCH  50  51
ATOM     51  C   UNL A   1      40.335  28.086  29.076  1.00  0.00     0.031 A 
ATOM     52  C   UNL A   1      39.382  29.241  29.130  1.00  0.00     0.074 A 
ATOM     53  C   UNL A   1      41.537  28.170  29.673  1.00  0.00     0.049 A 
ATOM     54  N   UNL A   1      39.536  30.411  29.697  1.00  0.00    -0.248 NA
ATOM     55  C   UNL A   1      38.081  29.055  28.468  1.00  0.00     0.031 C 
ATOM     56  C   UNL A   1      42.536  27.104  29.725  1.00  0.00     0.029 A 
ATOM     57  N   UNL A   1      42.114  29.210  30.354  1.00  0.00    -0.354 N 
ATOM     58  C   UNL A   1      38.349  31.092  29.478  1.00  0.00     0.074 A 
ATOM     59  C   UNL A   1      37.484  30.212  28.720  1.00  0.00     0.031 C 
ATOM     60  C   UNL A   1      43.613  27.550  30.395  1.00  0.00     0.029 A 
ATOM     61  C   UNL A   1      43.378  28.930  30.809  1.00  0.00     0.049 A 
ATOM     62  H   UNL A   1      41.666  30.074  30.502  1.00  0.00     0.167 HD
ATOM     63  C   UNL A   1      38.004  32.340  29.872  1.00  0.00     0.031 A 
ATOM     64  C   UNL A   1      44.250  29.707  31.476  1.00  0.00     0.031 A 
ATOM     65  C   UNL A   1      38.863  33.238  30.591  1.00  0.00     0.049 A 
ATOM     66  C   UNL A   1      43.877  31.116  31.828  1.00  0.00     0.074 A 
ATOM     67  C   UNL A   1      38.605  34.532  31.011  1.00  0.00     0.029 A 
ATOM     68  N   UNL A   1      40.156  32.937  30.984  1.00  0.00    -0.354 N 
ATOM     69  N   UNL A   1      42.749  31.748  31.613  1.00  0.00    -0.248 NA
ATOM     70  C   UNL A   1      44.903  31.921  32.509  1.00  0.00     0.031 C 
ATOM     71  C   UNL A   1      39.754  35.020  31.647  1.00  0.00     0.029 A 
ATOM     72  C   UNL A   1      40.717  34.024  31.630  1.00  0.00     0.049 A 
ATOM     73  H   UNL A   1      40.608  32.077  30.829  1.00  0.00     0.167 HD
ATOM     74  C   UNL A   1      42.927  33.022  32.131  1.00  0.00     0.074 A 
ATOM     75  C   UNL A   1      44.269  33.075  32.676  1.00  0.00     0.031 C 
ATOM     76  C   UNL A   1      42.055  34.059  32.154  1.00  0.00     0.031 A 
BRANCH  63  77
ATOM     77  C   UNL A   1      36.627  32.799  29.511  1.00  0.00    -0.014 A 
ATOM     78  C   UNL A   1      36.371  33.333  28.240  1.00  0.00     0.009 A 
ATOM     79  C   UNL A   1      35.583  32.705  30.442  1.00  0.00     0.009 A 
ATOM     80  C   UNL A   1      35.092  33.784  27.912  1.00  0.00     0.001 A 
ATOM     81  C   UNL A   1      34.304  33.155  30.110  1.00  0.00     0.001 A 
ATOM     82  C   UNL A   1      34.061  33.697  28.849  1.00  0.00     0.000 A 
ENDBRANCH  63  77
BRANCH  64  83
ATOM     83  C   UNL A   1      45.581  29.172  31.842  1.00  0.00    -0.014 A 
ATOM     84  C   UNL A   1      46.672  29.335  30.977  1.00  0.00     0.009 A 
ATOM     85  C   UNL A   1      45.761  28.496  33.058  1.00  0.00     0.009 A 
ATOM     86  C   UNL A   1      47.923  28.817  31.321  1.00  0.00     0.001 A 
ATOM     87  C   UNL A   1      47.013  27.986  33.400  1.00  0.00     0.001 A 
ATOM     88  C   UNL A   1      48.093  28.144  32.531  1.00  0.00     0.000 A 
ENDBRANCH  64  83
BRANCH  76  89
ATOM     89  C   UNL A   1      42.531  35.329  32.785  1.00  0.00    -0.014 A 
ATOM     90  C   UNL A   1      42.233  35.610  34.126  1.00  0.00     0.009 A 
ATOM     91  C   UNL A   1      43.303  36.238  32.045  1.00  0.00     0.009 A 
ATOM     92  C   UNL A   1      42.689  36.791  34.713  1.00  0.00     0.001 A 
ATOM     93  C   UNL A   1      43.763  37.414  32.638  1.00  0.00     0.001 A 
ATOM     94  C   UNL A   1      43.453  37.690  33.970  1.00  0.00     0.000 A 
ENDBRANCH  76  89
ENDBRANCH  50  51
ENDBRANCH  43  45
ENDBRANCH  42  43
ENDBRANCH  41  42
ENDBRANCH   1  41
TORSDOF 17
ENDMDL
MODEL 2
REMARK VINA RESULT:      -8.7      4.023     11.391
REMARK SMILES CC(=O)Nc1ccc(/N=C2\C(=O)N(c3ccc(NC(C)=O)cc3)[C@H](c3ccccc3)[C@H]2CC(=O)OCCOC(=O)c2ccc(-c3c4nc(c(-c5ccccc5)c5ccc([nH]5)c(-c5ccccc5)c5nc(c(-c6ccccc6)c6ccc3[nH]6)C=C5)C=C4)cc2)cc1
REMARK SMILES IDX 36 1 35 2 33 3 34 4 32 5 31 6 9 7 10 8 11 9 12 10 13 11
REMARK SMILES IDX 24 12 8 13 5 14 6 15 90 16 7 17 89 18 4 19 1 20 2 21 3 22
REMARK SMILES IDX 14 24 15 25 23 26 16 27 22 28 17 29 18 30 19 31 20 33 21 34
REMARK SMILES IDX 25 35 26 36 30 37 27 38 29 39 28 40 37 41 38 42 39 43 40 44
REMARK SMILES IDX 41 45 42 46 88 47 43 48 87 49 44 50 45 51 46 52 81 53 47 54
REMARK SMILES IDX 86 55 80 56 82 57 48 58 85 59 79 60 78 61 49 63 71 64 56 65
REMARK SMILES IDX 70 66 57 67 60 68 69 69 83 70 58 71 59 72 68 74 84 75 61 76
REMARK SMILES IDX 50 77 51 78 55 79 52 80 54 81 53 82 72 83 73 84 77 85 74 86
REMARK SMILES IDX 76 87 75 88 62 89 63 90 67 91 64 92 66 93 65 94
REMARK H PARENT 4 23 18 32 82 62 60 73
REMARK Flexibility Score: inf
ROOT
ATOM      1  C   UNL A   1      39.763  24.833  26.626  1.00  0.00     0.274 C 
ENDROOT
BRANCH   1   2
ATOM      2  O   UNL A   1      39.012  25.739  27.455  1.00  0.00    -0.462 OA
BRANCH   2   3
ATOM      3  C   UNL A   1      39.704  26.670  28.154  1.00  0.00     0.306 C 
ATOM      4  O   UNL A   1      40.898  26.909  28.028  1.00  0.00    -0.252 OA
BRANCH   3   5
ATOM      5  C   UNL A   1      38.827  27.359  29.176  1.00  0.00     0.135 C 
BRANCH   5   6
ATOM      6  C   UNL A   1      39.141  28.850  29.299  1.00  0.00     0.083 C 
ATOM      7  N   UNL A   1      37.390  30.185  28.257  1.00  0.00    -0.247 NA
ATOM      8  C   UNL A   1      37.875  29.656  29.335  1.00  0.00     0.112 C 
ATOM      9  C   UNL A   1      37.507  29.878  30.769  1.00  0.00     0.273 C 
ATOM     10  O   UNL A   1      36.367  29.911  31.180  1.00  0.00    -0.267 OA
ATOM     11  N   UNL A   1      38.728  30.027  31.400  1.00  0.00    -0.299 N 
ATOM     12  C   UNL A   1      39.750  29.255  30.683  1.00  0.00     0.131 C 
BRANCH   7  13
ATOM     13  C   UNL A   1      36.357  31.127  28.144  1.00  0.00     0.064 A 
ATOM     14  C   UNL A   1      34.439  33.243  28.128  1.00  0.00     0.041 A 
ATOM     15  C   UNL A   1      35.807  33.508  28.263  1.00  0.00     0.028 A 
ATOM     16  C   UNL A   1      34.045  31.917  27.992  1.00  0.00     0.028 A 
ATOM     17  C   UNL A   1      36.745  32.466  28.265  1.00  0.00     0.030 A 
ATOM     18  C   UNL A   1      34.988  30.875  28.042  1.00  0.00     0.030 A 
BRANCH  14  19
ATOM     19  N   UNL A   1      33.581  34.357  28.150  1.00  0.00    -0.326 N 
ATOM     20  C   UNL A   1      33.621  35.106  30.543  1.00  0.00     0.114 C 
ATOM     21  C   UNL A   1      33.144  35.204  29.123  1.00  0.00     0.221 C 
ATOM     22  O   UNL A   1      32.338  36.083  28.803  1.00  0.00    -0.275 OA
ATOM     23  H   UNL A   1      33.213  34.573  27.263  1.00  0.00     0.169 HD
ENDBRANCH  14  19
ENDBRANCH   7  13
BRANCH  11  24
ATOM     24  C   UNL A   1      38.872  30.707  32.636  1.00  0.00     0.045 A 
ATOM     25  C   UNL A   1      39.434  30.067  33.745  1.00  0.00     0.028 A 
ATOM     26  C   UNL A   1      38.286  31.959  32.844  1.00  0.00     0.028 A 
ATOM     27  C   UNL A   1      39.395  30.644  35.024  1.00  0.00     0.028 A 
ATOM     28  C   UNL A   1      38.230  32.532  34.123  1.00  0.00     0.028 A 
ATOM     29  C   UNL A   1      38.766  31.869  35.228  1.00  0.00     0.041 A 
BRANCH  29  30
ATOM     30  N   UNL A   1      38.579  32.467  36.492  1.00  0.00    -0.326 N 
ATOM     31  C   UNL A   1      37.879  31.955  37.568  1.00  0.00     0.221 C 
ATOM     32  H   UNL A   1      38.994  33.351  36.621  1.00  0.00     0.169 HD
ATOM     33  C   UNL A   1      37.771  32.928  38.718  1.00  0.00     0.114 C 
ATOM     34  O   UNL A   1      37.368  30.844  37.649  1.00  0.00    -0.275 OA
ENDBRANCH  29  30
ENDBRANCH  11  24
BRANCH  12  35
ATOM     35  C   UNL A   1      41.160  29.808  30.591  1.00  0.00    -0.024 A 
ATOM     36  C   UNL A   1      42.252  28.946  30.818  1.00  0.00     0.006 A 
ATOM     37  C   UNL A   1      41.427  31.153  30.291  1.00  0.00     0.006 A 
ATOM     38  C   UNL A   1      43.566  29.414  30.748  1.00  0.00     0.000 A 
ATOM     39  C   UNL A   1      42.744  31.615  30.205  1.00  0.00     0.000 A 
ATOM     40  C   UNL A   1      43.810  30.748  30.435  1.00  0.00     0.000 A 
ENDBRANCH  12  35
ENDBRANCH   5   6
ENDBRANCH   3   5
ENDBRANCH   2   3
ENDBRANCH   1   2
BRANCH   1  41
ATOM     41  C   UNL A   1      40.130  23.554  27.381  1.00  0.00     0.275 C 
BRANCH  41  42
ATOM     42  O   UNL A   1      41.519  23.575  27.757  1.00  0.00    -0.458 OA
BRANCH  42  43
ATOM     43  C   UNL A   1      42.402  23.287  26.772  1.00  0.00     0.338 C 
ATOM     44  O   UNL A   1      42.359  22.346  25.997  1.00  0.00    -0.246 OA
BRANCH  43  45
ATOM     45  C   UNL A   1      43.390  24.377  26.664  1.00  0.00     0.060 A 
ATOM     46  C   UNL A   1      43.927  24.896  27.849  1.00  0.00     0.016 A 
ATOM     47  C   UNL A   1      43.780  24.890  25.423  1.00  0.00     0.016 A 
ATOM     48  C   UNL A   1      44.869  25.921  27.794  1.00  0.00     0.010 A 
ATOM     49  C   UNL A   1      44.704  25.935  25.370  1.00  0.00     0.010 A 
ATOM     50  C   UNL A   1      45.249  26.456  26.555  1.00  0.00    -0.014 A 
BRANCH  50  51
ATOM     51  C   UNL A   1      46.178  27.606  26.502  1.00  0.00     0.031 A 
ATOM     52  C   UNL A   1      47.651  27.363  26.358  1.00  0.00     0.074 A 
ATOM     53  C   UNL A   1      45.702  28.861  26.571  1.00  0.00     0.049 A 
ATOM     54  N   UNL A   1      48.626  28.234  26.290  1.00  0.00    -0.248 NA
ATOM     55  C   UNL A   1      48.083  25.959  26.269  1.00  0.00     0.031 C 
ATOM     56  C   UNL A   1      44.290  29.229  26.674  1.00  0.00     0.029 A 
ATOM     57  N   UNL A   1      46.366  30.060  26.563  1.00  0.00    -0.354 N 
ATOM     58  C   UNL A   1      49.783  27.486  26.131  1.00  0.00     0.074 A 
ATOM     59  C   UNL A   1      49.394  26.092  26.121  1.00  0.00     0.031 C 
ATOM     60  C   UNL A   1      44.194  30.569  26.729  1.00  0.00     0.029 A 
ATOM     61  C   UNL A   1      45.534  31.146  26.674  1.00  0.00     0.049 A 
ATOM     62  H   UNL A   1      47.345  30.135  26.485  1.00  0.00     0.167 HD
ATOM     63  C   UNL A   1      51.060  27.919  26.005  1.00  0.00     0.031 A 
ATOM     64  C   UNL A   1      45.825  32.457  26.735  1.00  0.00     0.031 A 
ATOM     65  C   UNL A   1      51.466  29.295  26.052  1.00  0.00     0.049 A 
ATOM     66  C   UNL A   1      47.255  32.908  26.677  1.00  0.00     0.074 A 
ATOM     67  C   UNL A   1      52.741  29.825  25.956  1.00  0.00     0.029 A 
ATOM     68  N   UNL A   1      50.599  30.361  26.222  1.00  0.00    -0.354 N 
ATOM     69  N   UNL A   1      48.340  32.189  26.529  1.00  0.00    -0.248 NA
ATOM     70  C   UNL A   1      47.498  34.353  26.805  1.00  0.00     0.031 C 
ATOM     71  C   UNL A   1      52.645  31.217  26.085  1.00  0.00     0.029 A 
ATOM     72  C   UNL A   1      51.310  31.547  26.249  1.00  0.00     0.049 A 
ATOM     73  H   UNL A   1      49.621  30.286  26.309  1.00  0.00     0.167 HD
ATOM     74  C   UNL A   1      49.394  33.090  26.543  1.00  0.00     0.074 A 
ATOM     75  C   UNL A   1      48.820  34.410  26.711  1.00  0.00     0.031 C 
ATOM     76  C   UNL A   1      50.722  32.846  26.427  1.00  0.00     0.031 A 
BRANCH  63  77
ATOM     77  C   UNL A   1      52.107  26.868  25.816  1.00  0.00    -0.014 A 
ATOM     78  C   UNL A   1      52.425  26.411  24.529  1.00  0.00     0.009 A 
ATOM     79  C   UNL A   1      52.774  26.327  26.924  1.00  0.00     0.009 A 
ATOM     80  C   UNL A   1      53.385  25.412  24.355  1.00  0.00     0.001 A 
ATOM     81  C   UNL A   1      53.735  25.330  26.746  1.00  0.00     0.001 A 
ATOM     82  C   UNL A   1      54.035  24.872  25.465  1.00  0.00     0.000 A 
ENDBRANCH  63  77
BRANCH  64  83
ATOM     83  C   UNL A   1      44.734  33.447  26.878  1.00  0.00    -0.014 A 
ATOM     84  C   UNL A   1      44.125  34.000  25.744  1.00  0.00     0.009 A 
ATOM     85  C   UNL A   1      44.300  33.840  28.153  1.00  0.00     0.009 A 
ATOM     86  C   UNL A   1      43.104  34.943  25.884  1.00  0.00     0.001 A 
ATOM     87  C   UNL A   1      43.276  34.777  28.290  1.00  0.00     0.001 A 
ATOM     88  C   UNL A   1      42.680  35.330  27.156  1.00  0.00     0.000 A 
ENDBRANCH  64  83
BRANCH  76  89
ATOM     89  C   UNL A   1      51.634  34.031  26.482  1.00  0.00    -0.014 A 
ATOM     90  C   UNL A   1      51.954  34.734  25.311  1.00  0.00     0.009 A 
ATOM     91  C   UNL A   1      52.155  34.464  27.710  1.00  0.00     0.009 A 
ATOM     92  C   UNL A   1      52.796  35.845  25.368  1.00  0.00     0.001 A 
ATOM     93  C   UNL A   1      52.992  35.580  27.764  1.00  0.00     0.001 A 
ATOM     94  C   UNL A   1      53.313  36.266  26.593  1.00  0.00     0.000 A 
ENDBRANCH  76  89
ENDBRANCH  50  51
ENDBRANCH  43  45
ENDBRANCH  42  43
ENDBRANCH  41  42
ENDBRANCH   1  41
TORSDOF 17
ENDMDL
MODEL 3
REMARK VINA RESULT:      -8.7      4.049     10.340
REMARK SMILES CC(=O)Nc1ccc(/N=C2\C(=O)N(c3ccc(NC(C)=O)cc3)[C@H](c3ccccc3)[C@H]2CC(=O)OCCOC(=O)c2ccc(-c3c4nc(c(-c5ccccc5)c5ccc([nH]5)c(-c5ccccc5)c5nc(c(-c6ccccc6)c6ccc3[nH]6)C=C5)C=C4)cc2)cc1
REMARK SMILES IDX 36 1 35 2 33 3 34 4 32 5 31 6 9 7 10 8 11 9 12 10 13 11
REMARK SMILES IDX 24 12 8 13 5 14 6 15 90 16 7 17 89 18 4 19 1 20 2 21 3 22
REMARK SMILES IDX 14 24 15 25 23 26 16 27 22 28 17 29 18 30 19 31 20 33 21 34
REMARK SMILES IDX 25 35 26 36 30 37 27 38 29 39 28 40 37 41 38 42 39 43 40 44
REMARK SMILES IDX 41 45 42 46 88 47 43 48 87 49 44 50 45 51 46 52 81 53 47 54
REMARK SMILES IDX 86 55 80 56 82 57 48 58 85 59 79 60 78 61 49 63 71 64 56 65
REMARK SMILES IDX 70 66 57 67 60 68 69 69 83 70 58 71 59 72 68 74 84 75 61 76
REMARK SMILES IDX 50 77 51 78 55 79 52 80 54 81 53 82 72 83 73 84 77 85 74 86
REMARK SMILES IDX 76 87 75 88 62 89 63 90 67 91 64 92 66 93 65 94
REMARK H PARENT 4 23 18 32 82 62 60 73
REMARK Flexibility Score: inf
ROOT
ATOM      1  C   UNL A   1      39.861  25.068  26.735  1.00  0.00     0.274 C 
ENDROOT
BRANCH   1   2
ATOM      2  O   UNL A   1      39.045  25.985  27.488  1.00  0.00    -0.462 OA
BRANCH   2   3
ATOM      3  C   UNL A   1      39.668  27.013  28.111  1.00  0.00     0.306 C 
ATOM      4  O   UNL A   1      40.839  27.333  27.955  1.00  0.00    -0.252 OA
BRANCH   3   5
ATOM      5  C   UNL A   1      38.748  27.704  29.093  1.00  0.00     0.135 C 
BRANCH   5   6
ATOM      6  C   UNL A   1      39.070  29.191  29.242  1.00  0.00     0.083 C 
ATOM      7  N   UNL A   1      37.327  30.555  28.227  1.00  0.00    -0.247 NA
ATOM      8  C   UNL A   1      37.809  30.004  29.294  1.00  0.00     0.112 C 
ATOM      9  C   UNL A   1      37.443  30.201  30.733  1.00  0.00     0.273 C 
ATOM     10  O   UNL A   1      36.305  30.233  31.145  1.00  0.00    -0.267 OA
ATOM     11  N   UNL A   1      38.666  30.331  31.365  1.00  0.00    -0.299 N 
ATOM     12  C   UNL A   1      39.683  29.566  30.633  1.00  0.00     0.131 C 
BRANCH   7  13
ATOM     13  C   UNL A   1      36.299  31.505  28.132  1.00  0.00     0.064 A 
ATOM     14  C   UNL A   1      34.388  33.627  28.166  1.00  0.00     0.041 A 
ATOM     15  C   UNL A   1      35.753  33.880  28.345  1.00  0.00     0.028 A 
ATOM     16  C   UNL A   1      33.994  32.309  27.960  1.00  0.00     0.028 A 
ATOM     17  C   UNL A   1      36.687  32.836  28.323  1.00  0.00     0.030 A 
ATOM     18  C   UNL A   1      34.933  31.263  27.986  1.00  0.00     0.030 A 
BRANCH  14  19
ATOM     19  N   UNL A   1      33.532  34.741  28.218  1.00  0.00    -0.326 N 
ATOM     20  C   UNL A   1      33.427  35.311  30.658  1.00  0.00     0.114 C 
ATOM     21  C   UNL A   1      33.038  35.517  29.223  1.00  0.00     0.221 C 
ATOM     22  O   UNL A   1      32.255  36.423  28.921  1.00  0.00    -0.275 OA
ATOM     23  H   UNL A   1      33.219  35.025  27.328  1.00  0.00     0.169 HD
ENDBRANCH  14  19
ENDBRANCH   7  13
BRANCH  11  24
ATOM     24  C   UNL A   1      38.816  30.988  32.613  1.00  0.00     0.045 A 
ATOM     25  C   UNL A   1      39.280  30.296  33.736  1.00  0.00     0.028 A 
ATOM     26  C   UNL A   1      38.323  32.281  32.812  1.00  0.00     0.028 A 
ATOM     27  C   UNL A   1      39.236  30.865  35.019  1.00  0.00     0.028 A 
ATOM     28  C   UNL A   1      38.263  32.847  34.094  1.00  0.00     0.028 A 
ATOM     29  C   UNL A   1      38.700  32.135  35.212  1.00  0.00     0.041 A 
BRANCH  29  30
ATOM     30  N   UNL A   1      38.512  32.736  36.474  1.00  0.00    -0.326 N 
ATOM     31  C   UNL A   1      37.884  32.191  37.578  1.00  0.00     0.221 C 
ATOM     32  H   UNL A   1      38.868  33.648  36.579  1.00  0.00     0.169 HD
ATOM     33  C   UNL A   1      37.744  33.170  38.719  1.00  0.00     0.114 C 
ATOM     34  O   UNL A   1      37.456  31.048  37.689  1.00  0.00    -0.275 OA
ENDBRANCH  29  30
ENDBRANCH  11  24
BRANCH  12  35
ATOM     35  C   UNL A   1      41.096  30.113  30.550  1.00  0.00    -0.024 A 
ATOM     36  C   UNL A   1      41.289  31.474  30.239  1.00  0.00     0.006 A 
ATOM     37  C   UNL A   1      42.231  29.314  30.766  1.00  0.00     0.006 A 
ATOM     38  C   UNL A   1      42.571  32.018  30.147  1.00  0.00     0.000 A 
ATOM     39  C   UNL A   1      43.513  29.866  30.689  1.00  0.00     0.000 A 
ATOM     40  C   UNL A   1      43.683  31.213  30.379  1.00  0.00     0.000 A 
ENDBRANCH  12  35
ENDBRANCH   5   6
ENDBRANCH   3   5
ENDBRANCH   2   3
ENDBRANCH   1   2
BRANCH   1  41
ATOM     41  C   UNL A   1      40.311  23.882  27.591  1.00  0.00     0.275 C 
BRANCH  41  42
ATOM     42  O   UNL A   1      41.671  24.064  28.024  1.00  0.00    -0.458 OA
BRANCH  42  43
ATOM     43  C   UNL A   1      42.624  23.831  27.092  1.00  0.00     0.338 C 
ATOM     44  O   UNL A   1      42.690  22.882  26.329  1.00  0.00    -0.246 OA
BRANCH  43  45
ATOM     45  C   UNL A   1      43.535  24.989  27.021  1.00  0.00     0.060 A 
ATOM     46  C   UNL A   1      43.864  25.490  25.755  1.00  0.00     0.016 A 
ATOM     47  C   UNL A   1      44.068  25.571  28.176  1.00  0.00     0.016 A 
ATOM     48  C   UNL A   1      44.715  26.587  25.642  1.00  0.00     0.010 A 
ATOM     49  C   UNL A   1      44.943  26.653  28.060  1.00  0.00     0.010 A 
ATOM     50  C   UNL A   1      45.272  27.163  26.793  1.00  0.00    -0.014 A 
BRANCH  50  51
ATOM     51  C   UNL A   1      46.247  28.267  26.667  1.00  0.00     0.031 A 
ATOM     52  C   UNL A   1      45.767  29.687  26.689  1.00  0.00     0.074 A 
ATOM     53  C   UNL A   1      47.559  27.997  26.546  1.00  0.00     0.049 A 
ATOM     54  N   UNL A   1      46.462  30.793  26.595  1.00  0.00    -0.248 NA
ATOM     55  C   UNL A   1      44.319  29.892  26.845  1.00  0.00     0.031 C 
ATOM     56  C   UNL A   1      48.154  26.661  26.550  1.00  0.00     0.029 A 
ATOM     57  N   UNL A   1      48.626  28.844  26.397  1.00  0.00    -0.354 N 
ATOM     58  C   UNL A   1      45.540  31.823  26.700  1.00  0.00     0.074 A 
ATOM     59  C   UNL A   1      44.235  31.215  26.857  1.00  0.00     0.031 C 
ATOM     60  C   UNL A   1      49.486  26.779  26.400  1.00  0.00     0.029 A 
ATOM     61  C   UNL A   1      49.828  28.194  26.281  1.00  0.00     0.049 A 
ATOM     62  H   UNL A   1      48.538  29.825  26.375  1.00  0.00     0.167 HD
ATOM     63  C   UNL A   1      45.756  33.159  26.670  1.00  0.00     0.031 A 
ATOM     64  C   UNL A   1      51.065  28.686  26.091  1.00  0.00     0.031 A 
ATOM     65  C   UNL A   1      47.038  33.776  26.478  1.00  0.00     0.049 A 
ATOM     66  C   UNL A   1      51.269  30.168  25.977  1.00  0.00     0.074 A 
ATOM     67  C   UNL A   1      47.348  35.124  26.410  1.00  0.00     0.029 A 
ATOM     68  N   UNL A   1      48.223  33.082  26.308  1.00  0.00    -0.354 N 
ATOM     69  N   UNL A   1      50.386  31.131  26.077  1.00  0.00    -0.248 NA
ATOM     70  C   UNL A   1      52.641  30.628  25.714  1.00  0.00     0.031 C 
ATOM     71  C   UNL A   1      48.725  35.243  26.182  1.00  0.00     0.029 A 
ATOM     72  C   UNL A   1      49.267  33.969  26.121  1.00  0.00     0.049 A 
ATOM     73  H   UNL A   1      48.311  32.101  26.321  1.00  0.00     0.167 HD
ATOM     74  C   UNL A   1      51.093  32.310  25.891  1.00  0.00     0.074 A 
ATOM     75  C   UNL A   1      52.478  31.944  25.677  1.00  0.00     0.031 C 
ATOM     76  C   UNL A   1      50.634  33.585  25.899  1.00  0.00     0.031 A 
BRANCH  63  77
ATOM     77  C   UNL A   1      44.556  34.035  26.840  1.00  0.00    -0.014 A 
ATOM     78  C   UNL A   1      44.137  34.419  28.122  1.00  0.00     0.009 A 
ATOM     79  C   UNL A   1      43.837  34.474  25.719  1.00  0.00     0.009 A 
ATOM     80  C   UNL A   1      43.002  35.216  28.281  1.00  0.00     0.001 A 
ATOM     81  C   UNL A   1      42.704  35.273  25.882  1.00  0.00     0.001 A 
ATOM     82  C   UNL A   1      42.286  35.639  27.161  1.00  0.00     0.000 A 
ENDBRANCH  63  77
BRANCH  64  83
ATOM     83  C   UNL A   1      52.215  27.761  25.976  1.00  0.00    -0.014 A 
ATOM     84  C   UNL A   1      52.965  27.418  27.109  1.00  0.00     0.009 A 
ATOM     85  C   UNL A   1      52.564  27.222  24.729  1.00  0.00     0.009 A 
ATOM     86  C   UNL A   1      54.057  26.555  26.992  1.00  0.00     0.001 A 
ATOM     87  C   UNL A   1      53.652  26.355  24.618  1.00  0.00     0.001 A 
ATOM     88  C   UNL A   1      54.399  26.024  25.748  1.00  0.00     0.000 A 
ENDBRANCH  64  83
BRANCH  76  89
ATOM     89  C   UNL A   1      51.641  34.667  25.665  1.00  0.00    -0.014 A 
ATOM     90  C   UNL A   1      51.937  35.089  24.361  1.00  0.00     0.009 A 
ATOM     91  C   UNL A   1      52.277  35.285  26.752  1.00  0.00     0.009 A 
ATOM     92  C   UNL A   1      52.868  36.107  24.148  1.00  0.00     0.001 A 
ATOM     93  C   UNL A   1      53.202  36.307  26.535  1.00  0.00     0.001 A 
ATOM     94  C   UNL A   1      53.499  36.714  25.234  1.00  0.00     0.000 A 
ENDBRANCH  76  89
ENDBRANCH  50  51
ENDBRANCH  43  45
ENDBRANCH  42  43
ENDBRANCH  41  42
ENDBRANCH   1  41
TORSDOF 17
ENDMDL
