MODEL 1
REMARK VINA RESULT:     -10.4      0.000      0.000
REMARK SMILES CCOc1ccc(-c2nc(C(=O)OCCOC(=O)c3ccc(-c4c5nc(c(-c6ccccc6)c6ccc([nH]6)c(-c6ccccc6)c6nc(c(-c7ccccc7)c7ccc4[nH]7)C=C6)C=C5)cc3)cc(=O)[nH]2)cc1
REMARK SMILES IDX 14 1 13 2 11 3 12 4 10 5 8 6 9 7 70 8 68 9 67 11 69 12 7 13
REMARK SMILES IDX 4 14 5 15 72 16 6 17 71 18 3 19 2 20 1 21 15 22 16 23 17 24
REMARK SMILES IDX 18 25 19 26 20 27 66 28 21 29 65 30 22 31 23 32 24 33 59 34
REMARK SMILES IDX 25 35 64 36 58 37 60 38 26 39 63 40 57 41 56 42 27 44 49 45
REMARK SMILES IDX 34 46 48 47 35 48 38 49 47 50 61 51 36 52 37 53 46 55 62 56
REMARK SMILES IDX 39 57 28 58 29 59 33 60 30 61 32 62 31 63 50 64 51 65 55 66
REMARK SMILES IDX 52 67 54 68 53 69 40 70 41 71 45 72 42 73 44 74 43 75
REMARK H PARENT 70 10 60 43 38 54
REMARK Flexibility Score: inf
ROOT
ATOM      1  C   UNL A   1      40.605  19.703  26.443  1.00  0.00     0.275 C 
ENDROOT
BRANCH   1   2
ATOM      2  O   UNL A   1      41.566  19.656  25.370  1.00  0.00    -0.457 OA
BRANCH   2   3
ATOM      3  C   UNL A   1      42.659  18.878  25.595  1.00  0.00     0.357 C 
ATOM      4  O   UNL A   1      42.640  17.674  25.814  1.00  0.00    -0.244 OA
BRANCH   3   5
ATOM      5  C   UNL A   1      43.928  19.661  25.415  1.00  0.00     0.156 A 
ATOM      6  C   UNL A   1      44.898  21.727  25.301  1.00  0.00     0.141 A 
ATOM      7  N   UNL A   1      43.818  21.034  25.428  1.00  0.00    -0.223 NA
ATOM      8  N   UNL A   1      46.127  21.165  25.106  1.00  0.00    -0.306 N 
ATOM      9  C   UNL A   1      46.298  19.813  25.066  1.00  0.00     0.251 A 
ATOM     10  H   UNL A   1      46.910  21.752  24.992  1.00  0.00     0.171 HD
ATOM     11  C   UNL A   1      45.082  19.005  25.250  1.00  0.00     0.107 A 
ATOM     12  O   UNL A   1      47.391  19.286  24.895  1.00  0.00    -0.269 OA
BRANCH   6  13
ATOM     13  C   UNL A   1      44.843  23.193  25.409  1.00  0.00     0.018 A 
ATOM     14  C   UNL A   1      44.728  25.971  25.320  1.00  0.00     0.119 A 
ATOM     15  C   UNL A   1      45.926  25.330  25.646  1.00  0.00     0.047 A 
ATOM     16  C   UNL A   1      43.588  25.223  25.031  1.00  0.00     0.047 A 
ATOM     17  C   UNL A   1      45.988  23.934  25.702  1.00  0.00     0.016 A 
ATOM     18  C   UNL A   1      43.642  23.830  25.081  1.00  0.00     0.016 A 
BRANCH  14  19
ATOM     19  O   UNL A   1      44.763  27.327  25.165  1.00  0.00    -0.494 OA
BRANCH  19  20
ATOM     20  C   UNL A   1      46.055  27.849  24.834  1.00  0.00     0.226 C 
ATOM     21  C   UNL A   1      46.450  28.986  25.762  1.00  0.00     0.049 C 
ENDBRANCH  19  20
ENDBRANCH  14  19
ENDBRANCH   6  13
ENDBRANCH   3   5
ENDBRANCH   2   3
ENDBRANCH   1   2
BRANCH   1  22
ATOM     22  C   UNL A   1      40.707  21.025  27.208  1.00  0.00     0.275 C 
BRANCH  22  23
ATOM     23  O   UNL A   1      40.631  22.143  26.304  1.00  0.00    -0.458 OA
BRANCH  23  24
ATOM     24  C   UNL A   1      39.430  22.758  26.232  1.00  0.00     0.338 C 
ATOM     25  O   UNL A   1      38.381  22.306  25.806  1.00  0.00    -0.246 OA
BRANCH  24  26
ATOM     26  C   UNL A   1      39.535  24.109  26.801  1.00  0.00     0.060 A 
ATOM     27  C   UNL A   1      40.111  25.112  26.028  1.00  0.00     0.016 A 
ATOM     28  C   UNL A   1      39.202  24.352  28.133  1.00  0.00     0.016 A 
ATOM     29  C   UNL A   1      40.430  26.339  26.598  1.00  0.00     0.010 A 
ATOM     30  C   UNL A   1      39.465  25.612  28.688  1.00  0.00     0.010 A 
ATOM     31  C   UNL A   1      40.119  26.605  27.937  1.00  0.00    -0.014 A 
BRANCH  31  32
ATOM     32  C   UNL A   1      40.524  27.901  28.545  1.00  0.00     0.031 A 
ATOM     33  C   UNL A   1      41.962  28.155  28.912  1.00  0.00     0.074 A 
ATOM     34  C   UNL A   1      39.613  28.877  28.730  1.00  0.00     0.049 A 
ATOM     35  N   UNL A   1      42.490  29.186  29.527  1.00  0.00    -0.248 NA
ATOM     36  C   UNL A   1      42.938  27.115  28.547  1.00  0.00     0.031 C 
ATOM     37  C   UNL A   1      38.196  28.796  28.373  1.00  0.00     0.029 A 
ATOM     38  N   UNL A   1      39.752  30.141  29.251  1.00  0.00    -0.354 N 
ATOM     39  C   UNL A   1      43.839  28.892  29.675  1.00  0.00     0.074 A 
ATOM     40  C   UNL A   1      44.057  27.593  29.075  1.00  0.00     0.031 C 
ATOM     41  C   UNL A   1      37.606  29.970  28.641  1.00  0.00     0.029 A 
ATOM     42  C   UNL A   1      38.583  30.864  29.254  1.00  0.00     0.049 A 
ATOM     43  H   UNL A   1      40.605  30.494  29.591  1.00  0.00     0.167 HD
ATOM     44  C   UNL A   1      44.808  29.631  30.264  1.00  0.00     0.031 A 
ATOM     45  C   UNL A   1      38.317  32.097  29.720  1.00  0.00     0.031 A 
ATOM     46  C   UNL A   1      44.612  30.942  30.823  1.00  0.00     0.049 A 
ATOM     47  C   UNL A   1      39.406  32.889  30.384  1.00  0.00     0.074 A 
ATOM     48  C   UNL A   1      45.544  31.772  31.422  1.00  0.00     0.029 A 
ATOM     49  N   UNL A   1      43.402  31.617  30.845  1.00  0.00    -0.354 N 
ATOM     50  N   UNL A   1      40.669  32.579  30.548  1.00  0.00    -0.248 NA
ATOM     51  C   UNL A   1      39.024  34.194  30.945  1.00  0.00     0.031 C 
ATOM     52  C   UNL A   1      44.892  32.939  31.835  1.00  0.00     0.029 A 
ATOM     53  C   UNL A   1      43.562  32.847  31.461  1.00  0.00     0.049 A 
ATOM     54  H   UNL A   1      42.557  31.274  30.477  1.00  0.00     0.167 HD
ATOM     55  C   UNL A   1      41.232  33.650  31.229  1.00  0.00     0.074 A 
ATOM     56  C   UNL A   1      40.181  34.626  31.426  1.00  0.00     0.031 C 
ATOM     57  C   UNL A   1      42.507  33.804  31.658  1.00  0.00     0.031 A 
BRANCH  44  58
ATOM     58  C   UNL A   1      46.173  29.017  30.378  1.00  0.00    -0.014 A 
ATOM     59  C   UNL A   1      46.512  28.179  31.450  1.00  0.00     0.009 A 
ATOM     60  C   UNL A   1      47.118  29.249  29.366  1.00  0.00     0.009 A 
ATOM     61  C   UNL A   1      47.783  27.603  31.517  1.00  0.00     0.001 A 
ATOM     62  C   UNL A   1      48.380  28.657  29.425  1.00  0.00     0.001 A 
ATOM     63  C   UNL A   1      48.714  27.840  30.504  1.00  0.00     0.000 A 
ENDBRANCH  44  58
BRANCH  45  64
ATOM     64  C   UNL A   1      36.942  32.648  29.614  1.00  0.00    -0.014 A 
ATOM     65  C   UNL A   1      36.010  32.438  30.640  1.00  0.00     0.009 A 
ATOM     66  C   UNL A   1      36.557  33.383  28.483  1.00  0.00     0.009 A 
ATOM     67  C   UNL A   1      34.713  32.942  30.528  1.00  0.00     0.001 A 
ATOM     68  C   UNL A   1      35.268  33.908  28.384  1.00  0.00     0.001 A 
ATOM     69  C   UNL A   1      34.344  33.679  29.402  1.00  0.00     0.000 A 
ENDBRANCH  45  64
BRANCH  57  70
ATOM     70  C   UNL A   1      42.834  35.082  32.372  1.00  0.00    -0.014 A 
ATOM     71  C   UNL A   1      43.471  36.138  31.702  1.00  0.00     0.009 A 
ATOM     72  C   UNL A   1      42.479  35.241  33.720  1.00  0.00     0.009 A 
ATOM     73  C   UNL A   1      43.770  37.322  32.379  1.00  0.00     0.001 A 
ATOM     74  C   UNL A   1      42.762  36.432  34.388  1.00  0.00     0.001 A 
ATOM     75  C   UNL A   1      43.414  37.468  33.719  1.00  0.00     0.000 A 
ENDBRANCH  57  70
ENDBRANCH  31  32
ENDBRANCH  24  26
ENDBRANCH  23  24
ENDBRANCH  22  23
ENDBRANCH   1  22
TORSDOF 14
ENDMDL
MODEL 2
REMARK VINA RESULT:     -10.3      0.370      6.069
REMARK SMILES CCOc1ccc(-c2nc(C(=O)OCCOC(=O)c3ccc(-c4c5nc(c(-c6ccccc6)c6ccc([nH]6)c(-c6ccccc6)c6nc(c(-c7ccccc7)c7ccc4[nH]7)C=C6)C=C5)cc3)cc(=O)[nH]2)cc1
REMARK SMILES IDX 14 1 13 2 11 3 12 4 10 5 8 6 9 7 70 8 68 9 67 11 69 12 7 13
REMARK SMILES IDX 4 14 5 15 72 16 6 17 71 18 3 19 2 20 1 21 15 22 16 23 17 24
REMARK SMILES IDX 18 25 19 26 20 27 66 28 21 29 65 30 22 31 23 32 24 33 59 34
REMARK SMILES IDX 25 35 64 36 58 37 60 38 26 39 63 40 57 41 56 42 27 44 49 45
REMARK SMILES IDX 34 46 48 47 35 48 38 49 47 50 61 51 36 52 37 53 46 55 62 56
REMARK SMILES IDX 39 57 28 58 29 59 33 60 30 61 32 62 31 63 50 64 51 65 55 66
REMARK SMILES IDX 52 67 54 68 53 69 40 70 41 71 45 72 42 73 44 74 43 75
REMARK H PARENT 70 10 60 43 38 54
REMARK Flexibility Score: inf
ROOT
ATOM      1  C   UNL A   1      40.608  19.710  26.447  1.00  0.00     0.275 C 
ENDROOT
BRANCH   1   2
ATOM      2  O   UNL A   1      41.566  19.643  25.373  1.00  0.00    -0.457 OA
BRANCH   2   3
ATOM      3  C   UNL A   1      42.656  18.864  25.607  1.00  0.00     0.357 C 
ATOM      4  O   UNL A   1      42.634  17.661  25.829  1.00  0.00    -0.244 OA
BRANCH   3   5
ATOM      5  C   UNL A   1      43.928  19.643  25.431  1.00  0.00     0.156 A 
ATOM      6  C   UNL A   1      44.903  21.707  25.308  1.00  0.00     0.141 A 
ATOM      7  N   UNL A   1      43.821  21.016  25.432  1.00  0.00    -0.223 NA
ATOM      8  N   UNL A   1      46.133  21.141  25.128  1.00  0.00    -0.306 N 
ATOM      9  C   UNL A   1      46.302  19.788  25.101  1.00  0.00     0.251 A 
ATOM     10  H   UNL A   1      46.918  21.725  25.017  1.00  0.00     0.171 HD
ATOM     11  C   UNL A   1      45.083  18.984  25.280  1.00  0.00     0.107 A 
ATOM     12  O   UNL A   1      47.395  19.258  24.942  1.00  0.00    -0.269 OA
BRANCH   6  13
ATOM     13  C   UNL A   1      44.850  23.173  25.405  1.00  0.00     0.018 A 
ATOM     14  C   UNL A   1      44.738  25.951  25.294  1.00  0.00     0.119 A 
ATOM     15  C   UNL A   1      45.936  25.311  25.624  1.00  0.00     0.047 A 
ATOM     16  C   UNL A   1      43.596  25.201  25.012  1.00  0.00     0.047 A 
ATOM     17  C   UNL A   1      45.996  23.915  25.690  1.00  0.00     0.016 A 
ATOM     18  C   UNL A   1      43.649  23.809  25.074  1.00  0.00     0.016 A 
BRANCH  14  19
ATOM     19  O   UNL A   1      44.774  27.306  25.127  1.00  0.00    -0.494 OA
BRANCH  19  20
ATOM     20  C   UNL A   1      46.063  27.822  24.776  1.00  0.00     0.226 C 
ATOM     21  C   UNL A   1      46.502  28.920  25.732  1.00  0.00     0.049 C 
ENDBRANCH  19  20
ENDBRANCH  14  19
ENDBRANCH   6  13
ENDBRANCH   3   5
ENDBRANCH   2   3
ENDBRANCH   1   2
BRANCH   1  22
ATOM     22  C   UNL A   1      40.699  21.052  27.177  1.00  0.00     0.275 C 
BRANCH  22  23
ATOM     23  O   UNL A   1      40.582  22.146  26.248  1.00  0.00    -0.458 OA
BRANCH  23  24
ATOM     24  C   UNL A   1      39.385  22.771  26.226  1.00  0.00     0.338 C 
ATOM     25  O   UNL A   1      38.315  22.331  25.841  1.00  0.00    -0.246 OA
BRANCH  24  26
ATOM     26  C   UNL A   1      39.525  24.119  26.797  1.00  0.00     0.060 A 
ATOM     27  C   UNL A   1      40.129  25.106  26.026  1.00  0.00     0.016 A 
ATOM     28  C   UNL A   1      39.196  24.369  28.128  1.00  0.00     0.016 A 
ATOM     29  C   UNL A   1      40.480  26.324  26.598  1.00  0.00     0.010 A 
ATOM     30  C   UNL A   1      39.491  25.621  28.686  1.00  0.00     0.010 A 
ATOM     31  C   UNL A   1      40.173  26.597  27.937  1.00  0.00    -0.014 A 
BRANCH  31  32
ATOM     32  C   UNL A   1      40.611  27.881  28.547  1.00  0.00     0.031 A 
ATOM     33  C   UNL A   1      39.616  28.981  28.808  1.00  0.00     0.074 A 
ATOM     34  C   UNL A   1      41.896  28.054  28.913  1.00  0.00     0.049 A 
ATOM     35  N   UNL A   1      39.823  30.196  29.252  1.00  0.00    -0.248 NA
ATOM     36  C   UNL A   1      38.202  28.680  28.530  1.00  0.00     0.031 C 
ATOM     37  C   UNL A   1      42.961  27.059  28.773  1.00  0.00     0.029 A 
ATOM     38  N   UNL A   1      42.522  29.129  29.498  1.00  0.00    -0.354 N 
ATOM     39  C   UNL A   1      38.581  30.820  29.249  1.00  0.00     0.074 A 
ATOM     40  C   UNL A   1      37.622  29.848  28.772  1.00  0.00     0.031 C 
ATOM     41  C   UNL A   1      44.094  27.550  29.298  1.00  0.00     0.029 A 
ATOM     42  C   UNL A   1      43.856  28.917  29.747  1.00  0.00     0.049 A 
ATOM     43  H   UNL A   1      42.059  29.969  29.716  1.00  0.00     0.167 HD
ATOM     44  C   UNL A   1      38.270  32.089  29.602  1.00  0.00     0.031 A 
ATOM     45  C   UNL A   1      44.793  29.738  30.256  1.00  0.00     0.031 A 
ATOM     46  C   UNL A   1      39.208  33.049  30.119  1.00  0.00     0.049 A 
ATOM     47  C   UNL A   1      44.424  31.145  30.624  1.00  0.00     0.074 A 
ATOM     48  C   UNL A   1      38.974  34.353  30.523  1.00  0.00     0.029 A 
ATOM     49  N   UNL A   1      40.559  32.807  30.313  1.00  0.00    -0.354 N 
ATOM     50  N   UNL A   1      43.252  31.730  30.579  1.00  0.00    -0.248 NA
ATOM     51  C   UNL A   1      45.516  32.012  31.094  1.00  0.00     0.031 C 
ATOM     52  C   UNL A   1      40.190  34.910  30.932  1.00  0.00     0.029 A 
ATOM     53  C   UNL A   1      41.172  33.942  30.815  1.00  0.00     0.049 A 
ATOM     54  H   UNL A   1      41.012  31.955  30.123  1.00  0.00     0.167 HD
ATOM     55  C   UNL A   1      43.464  33.031  31.016  1.00  0.00     0.074 A 
ATOM     56  C   UNL A   1      44.870  33.143  31.343  1.00  0.00     0.031 C 
ATOM     57  C   UNL A   1      42.572  34.043  31.128  1.00  0.00     0.031 A 
BRANCH  44  58
ATOM     58  C   UNL A   1      36.851  32.535  29.397  1.00  0.00    -0.014 A 
ATOM     59  C   UNL A   1      36.418  33.057  28.170  1.00  0.00     0.009 A 
ATOM     60  C   UNL A   1      35.926  32.385  30.441  1.00  0.00     0.009 A 
ATOM     61  C   UNL A   1      35.085  33.442  28.001  1.00  0.00     0.001 A 
ATOM     62  C   UNL A   1      34.591  32.752  30.264  1.00  0.00     0.001 A 
ATOM     63  C   UNL A   1      34.174  33.286  29.047  1.00  0.00     0.000 A 
ENDBRANCH  44  58
BRANCH  45  64
ATOM     64  C   UNL A   1      46.191  29.261  30.408  1.00  0.00    -0.014 A 
ATOM     65  C   UNL A   1      47.112  29.410  29.362  1.00  0.00     0.009 A 
ATOM     66  C   UNL A   1      46.607  28.650  31.602  1.00  0.00     0.009 A 
ATOM     67  C   UNL A   1      48.421  28.942  29.503  1.00  0.00     0.001 A 
ATOM     68  C   UNL A   1      47.922  28.207  31.750  1.00  0.00     0.001 A 
ATOM     69  C   UNL A   1      48.825  28.346  30.698  1.00  0.00     0.000 A 
ENDBRANCH  45  64
BRANCH  57  70
ATOM     70  C   UNL A   1      43.092  35.353  31.637  1.00  0.00    -0.014 A 
ATOM     71  C   UNL A   1      43.044  35.665  33.005  1.00  0.00     0.009 A 
ATOM     72  C   UNL A   1      43.658  36.276  30.744  1.00  0.00     0.009 A 
ATOM     73  C   UNL A   1      43.531  36.890  33.465  1.00  0.00     0.001 A 
ATOM     74  C   UNL A   1      44.161  37.491  31.210  1.00  0.00     0.001 A 
ATOM     75  C   UNL A   1      44.090  37.800  32.568  1.00  0.00     0.000 A 
ENDBRANCH  57  70
ENDBRANCH  31  32
ENDBRANCH  24  26
ENDBRANCH  23  24
ENDBRANCH  22  23
ENDBRANCH   1  22
TORSDOF 14
ENDMDL
MODEL 3
REMARK VINA RESULT:     -10.3      4.043      9.202
REMARK SMILES CCOc1ccc(-c2nc(C(=O)OCCOC(=O)c3ccc(-c4c5nc(c(-c6ccccc6)c6ccc([nH]6)c(-c6ccccc6)c6nc(c(-c7ccccc7)c7ccc4[nH]7)C=C6)C=C5)cc3)cc(=O)[nH]2)cc1
REMARK SMILES IDX 14 1 13 2 11 3 12 4 10 5 8 6 9 7 70 8 68 9 67 11 69 12 7 13
REMARK SMILES IDX 4 14 5 15 72 16 6 17 71 18 3 19 2 20 1 21 15 22 16 23 17 24
REMARK SMILES IDX 18 25 19 26 20 27 66 28 21 29 65 30 22 31 23 32 24 33 59 34
REMARK SMILES IDX 25 35 64 36 58 37 60 38 26 39 63 40 57 41 56 42 27 44 49 45
REMARK SMILES IDX 34 46 48 47 35 48 38 49 47 50 61 51 36 52 37 53 46 55 62 56
REMARK SMILES IDX 39 57 28 58 29 59 33 60 30 61 32 62 31 63 50 64 51 65 55 66
REMARK SMILES IDX 52 67 54 68 53 69 40 70 41 71 45 72 42 73 44 74 43 75
REMARK H PARENT 70 10 60 43 38 54
REMARK Flexibility Score: inf
ROOT
ATOM      1  C   UNL A   1      35.102  21.566  25.472  1.00  0.00     0.275 C 
ENDROOT
BRANCH   1   2
ATOM      2  O   UNL A   1      33.927  21.463  24.645  1.00  0.00    -0.457 OA
BRANCH   2   3
ATOM      3  C   UNL A   1      33.466  22.636  24.133  1.00  0.00     0.357 C 
ATOM      4  O   UNL A   1      33.606  23.009  22.976  1.00  0.00    -0.244 OA
BRANCH   3   5
ATOM      5  C   UNL A   1      32.637  23.379  25.142  1.00  0.00     0.156 A 
ATOM      6  C   UNL A   1      32.250  25.364  26.205  1.00  0.00     0.141 A 
ATOM      7  N   UNL A   1      32.963  24.699  25.362  1.00  0.00    -0.223 NA
ATOM      8  N   UNL A   1      31.225  24.809  26.918  1.00  0.00    -0.306 N 
ATOM      9  C   UNL A   1      30.865  23.504  26.757  1.00  0.00     0.251 A 
ATOM     10  H   UNL A   1      30.734  25.367  27.564  1.00  0.00     0.171 HD
ATOM     11  C   UNL A   1      31.643  22.740  25.770  1.00  0.00     0.107 A 
ATOM     12  O   UNL A   1      29.949  22.986  27.384  1.00  0.00    -0.269 OA
BRANCH   6  13
ATOM     13  C   UNL A   1      32.497  26.801  26.398  1.00  0.00     0.018 A 
ATOM     14  C   UNL A   1      33.134  29.443  26.993  1.00  0.00     0.119 A 
ATOM     15  C   UNL A   1      31.859  28.948  27.283  1.00  0.00     0.047 A 
ATOM     16  C   UNL A   1      34.093  28.615  26.411  1.00  0.00     0.047 A 
ATOM     17  C   UNL A   1      31.530  27.624  26.978  1.00  0.00     0.016 A 
ATOM     18  C   UNL A   1      33.774  27.292  26.107  1.00  0.00     0.016 A 
BRANCH  14  19
ATOM     19  O   UNL A   1      33.431  30.705  27.423  1.00  0.00    -0.494 OA
BRANCH  19  20
ATOM     20  C   UNL A   1      34.834  30.974  27.535  1.00  0.00     0.226 C 
ATOM     21  C   UNL A   1      35.090  32.374  28.069  1.00  0.00     0.049 C 
ENDBRANCH  19  20
ENDBRANCH  14  19
ENDBRANCH   6  13
ENDBRANCH   3   5
ENDBRANCH   2   3
ENDBRANCH   1   2
BRANCH   1  22
ATOM     22  C   UNL A   1      36.184  20.588  25.007  1.00  0.00     0.275 C 
BRANCH  22  23
ATOM     23  O   UNL A   1      37.417  21.282  24.742  1.00  0.00    -0.458 OA
BRANCH  23  24
ATOM     24  C   UNL A   1      38.478  20.899  25.487  1.00  0.00     0.338 C 
ATOM     25  O   UNL A   1      38.923  19.773  25.633  1.00  0.00    -0.246 OA
BRANCH  24  26
ATOM     26  C   UNL A   1      39.095  22.079  26.107  1.00  0.00     0.060 A 
ATOM     27  C   UNL A   1      38.515  23.324  25.886  1.00  0.00     0.016 A 
ATOM     28  C   UNL A   1      40.312  21.980  26.780  1.00  0.00     0.016 A 
ATOM     29  C   UNL A   1      39.181  24.484  26.266  1.00  0.00     0.010 A 
ATOM     30  C   UNL A   1      40.952  23.147  27.219  1.00  0.00     0.010 A 
ATOM     31  C   UNL A   1      40.412  24.414  26.931  1.00  0.00    -0.014 A 
BRANCH  31  32
ATOM     32  C   UNL A   1      41.138  25.666  27.273  1.00  0.00     0.031 A 
ATOM     33  C   UNL A   1      40.553  26.642  28.261  1.00  0.00     0.074 A 
ATOM     34  C   UNL A   1      42.348  25.917  26.736  1.00  0.00     0.049 A 
ATOM     35  N   UNL A   1      40.996  27.821  28.620  1.00  0.00    -0.248 NA
ATOM     36  C   UNL A   1      39.304  26.244  28.931  1.00  0.00     0.031 C 
ATOM     37  C   UNL A   1      43.064  25.040  25.808  1.00  0.00     0.029 A 
ATOM     38  N   UNL A   1      43.199  26.981  26.910  1.00  0.00    -0.354 N 
ATOM     39  C   UNL A   1      40.054  28.329  29.506  1.00  0.00     0.074 A 
ATOM     40  C   UNL A   1      39.020  27.326  29.643  1.00  0.00     0.031 C 
ATOM     41  C   UNL A   1      44.262  25.576  25.531  1.00  0.00     0.029 A 
ATOM     42  C   UNL A   1      44.372  26.866  26.203  1.00  0.00     0.049 A 
ATOM     43  H   UNL A   1      42.989  27.751  27.486  1.00  0.00     0.167 HD
ATOM     44  C   UNL A   1      40.045  29.525  30.141  1.00  0.00     0.031 A 
ATOM     45  C   UNL A   1      45.410  27.714  26.084  1.00  0.00     0.031 A 
ATOM     46  C   UNL A   1      41.090  30.509  30.046  1.00  0.00     0.049 A 
ATOM     47  C   UNL A   1      45.367  29.040  26.785  1.00  0.00     0.074 A 
ATOM     48  C   UNL A   1      41.173  31.742  30.673  1.00  0.00     0.029 A 
ATOM     49  N   UNL A   1      42.237  30.371  29.282  1.00  0.00    -0.354 N 
ATOM     50  N   UNL A   1      44.450  29.519  27.590  1.00  0.00    -0.248 NA
ATOM     51  C   UNL A   1      46.496  29.951  26.543  1.00  0.00     0.031 C 
ATOM     52  C   UNL A   1      42.357  32.363  30.264  1.00  0.00     0.029 A 
ATOM     53  C   UNL A   1      43.026  31.502  29.410  1.00  0.00     0.049 A 
ATOM     54  H   UNL A   1      42.459  29.586  28.732  1.00  0.00     0.167 HD
ATOM     55  C   UNL A   1      44.892  30.784  27.952  1.00  0.00     0.074 A 
ATOM     56  C   UNL A   1      46.168  30.989  27.299  1.00  0.00     0.031 C 
ATOM     57  C   UNL A   1      44.288  31.697  28.749  1.00  0.00     0.031 A 
BRANCH  44  58
ATOM     58  C   UNL A   1      38.838  29.860  30.967  1.00  0.00    -0.014 A 
ATOM     59  C   UNL A   1      38.777  29.551  32.333  1.00  0.00     0.009 A 
ATOM     60  C   UNL A   1      37.764  30.539  30.371  1.00  0.00     0.009 A 
ATOM     61  C   UNL A   1      37.649  29.897  33.082  1.00  0.00     0.001 A 
ATOM     62  C   UNL A   1      36.647  30.901  31.125  1.00  0.00     0.001 A 
ATOM     63  C   UNL A   1      36.588  30.573  32.478  1.00  0.00     0.000 A 
ENDBRANCH  44  58
BRANCH  45  64
ATOM     64  C   UNL A   1      46.567  27.351  25.227  1.00  0.00    -0.014 A 
ATOM     65  C   UNL A   1      47.541  26.455  25.688  1.00  0.00     0.009 A 
ATOM     66  C   UNL A   1      46.703  27.906  23.945  1.00  0.00     0.009 A 
ATOM     67  C   UNL A   1      48.638  26.132  24.887  1.00  0.00     0.001 A 
ATOM     68  C   UNL A   1      47.786  27.562  23.136  1.00  0.00     0.001 A 
ATOM     69  C   UNL A   1      48.757  26.682  23.610  1.00  0.00     0.000 A 
ENDBRANCH  45  64
BRANCH  57  70
ATOM     70  C   UNL A   1      45.009  32.993  28.966  1.00  0.00    -0.014 A 
ATOM     71  C   UNL A   1      45.943  33.132  30.005  1.00  0.00     0.009 A 
ATOM     72  C   UNL A   1      44.772  34.078  28.108  1.00  0.00     0.009 A 
ATOM     73  C   UNL A   1      46.607  34.345  30.196  1.00  0.00     0.001 A 
ATOM     74  C   UNL A   1      45.452  35.283  28.291  1.00  0.00     0.001 A 
ATOM     75  C   UNL A   1      46.362  35.418  29.339  1.00  0.00     0.000 A 
ENDBRANCH  57  70
ENDBRANCH  31  32
ENDBRANCH  24  26
ENDBRANCH  23  24
ENDBRANCH  22  23
ENDBRANCH   1  22
TORSDOF 14
ENDMDL
