MODEL 1
REMARK VINA RESULT:     -11.9      0.000      0.000
REMARK SMILES Cc1c(Cl)cccc1NC(=O)NCc1cn([C@@H]2C[NH2+][C@H](C(=O)OCCOC(=O)c3ccc(-c4c5nc(c(-c6ccccc6)c6ccc([nH]6)c(-c6ccccc6)c6nc(c(-c7ccccc7)c7ccc4[nH]7)C=C6)C=C5)cc3)C2)nn1
REMARK SMILES IDX 24 1 23 2 21 3 22 4 20 5 17 6 18 7 77 8 19 9 16 12 14 13
REMARK SMILES IDX 15 14 79 15 78 16 13 17 12 18 9 19 10 20 11 22 8 24 1 25
REMARK SMILES IDX 2 26 3 27 4 28 5 29 7 30 6 31 25 32 26 33 27 34 28 35 29 36
REMARK SMILES IDX 30 37 76 38 31 39 75 40 32 41 33 42 34 43 69 44 35 45 74 46
REMARK SMILES IDX 68 47 70 48 36 49 73 50 67 51 66 52 37 54 59 55 44 56 58 57
REMARK SMILES IDX 45 58 48 59 57 60 71 61 46 62 47 63 56 65 72 66 49 67 38 68
REMARK SMILES IDX 39 69 43 70 40 71 42 72 41 73 60 74 61 75 65 76 62 77 64 78
REMARK SMILES IDX 63 79 50 80 51 81 55 82 52 83 54 84 53 85
REMARK H PARENT 19 10 19 11 9 21 12 23 70 53 48 64
REMARK Flexibility Score: inf
ROOT
ATOM      1  C   UNL A   1      33.842  30.566  26.895  1.00  0.00     0.274 C 
ENDROOT
BRANCH   1   2
ATOM      2  O   UNL A   1      32.757  29.667  27.173  1.00  0.00    -0.458 OA
BRANCH   2   3
ATOM      3  C   UNL A   1      32.675  28.556  26.392  1.00  0.00     0.365 C 
ATOM      4  O   UNL A   1      33.431  27.592  26.482  1.00  0.00    -0.245 OA
BRANCH   3   5
ATOM      5  C   UNL A   1      31.459  28.571  25.444  1.00  0.00     0.295 C 
ATOM      6  C   UNL A   1      31.359  27.295  23.370  1.00  0.00     0.170 C 
ATOM      7  C   UNL A   1      32.071  28.631  23.176  1.00  0.00     0.289 C 
ATOM      8  C   UNL A   1      31.164  27.182  24.884  1.00  0.00     0.110 C 
ATOM      9  N   UNL A   1      31.624  29.475  24.280  1.00  0.00    -0.333 N 
ATOM     10  H   UNL A   1      30.736  29.921  24.048  1.00  0.00     0.347 HD
ATOM     11  H   UNL A   1      32.294  30.219  24.477  1.00  0.00     0.347 HD
BRANCH   6  12
ATOM     12  N   UNL A   1      32.120  26.202  22.814  1.00  0.00    -0.243 N 
ATOM     13  C   UNL A   1      33.041  24.279  22.489  1.00  0.00     0.102 A 
ATOM     14  C   UNL A   1      32.001  24.893  23.146  1.00  0.00     0.137 A 
ATOM     15  N   UNL A   1      33.698  25.208  21.727  1.00  0.00    -0.134 NA
ATOM     16  N   UNL A   1      33.119  26.392  21.936  1.00  0.00    -0.067 NA
BRANCH  13  17
ATOM     17  C   UNL A   1      33.374  22.850  22.626  1.00  0.00     0.178 C 
BRANCH  17  18
ATOM     18  N   UNL A   1      32.513  22.084  23.476  1.00  0.00    -0.332 N 
ATOM     19  N   UNL A   1      33.629  21.508  25.535  1.00  0.00    -0.308 N 
ATOM     20  C   UNL A   1      32.550  21.712  24.757  1.00  0.00     0.319 C 
ATOM     21  H   UNL A   1      33.366  21.289  26.458  1.00  0.00     0.171 HD
ATOM     22  O   UNL A   1      31.458  21.428  25.269  1.00  0.00    -0.248 OA
ATOM     23  H   UNL A   1      31.711  21.756  23.009  1.00  0.00     0.165 HD
BRANCH  19  24
ATOM     24  C   UNL A   1      35.031  21.520  25.395  1.00  0.00     0.047 A 
ATOM     25  C   UNL A   1      35.090  24.043  25.873  1.00  0.00     0.048 C 
ATOM     26  C   UNL A   1      35.758  22.707  25.656  1.00  0.00    -0.009 A 
ATOM     27  C   UNL A   1      37.172  22.648  25.646  1.00  0.00     0.046 A 
ATOM     28  Cl  UNL A   1      38.152  24.038  25.975  1.00  0.00    -0.084 Cl
ATOM     29  C   UNL A   1      37.847  21.464  25.352  1.00  0.00     0.021 A 
ATOM     30  C   UNL A   1      35.732  20.421  24.898  1.00  0.00     0.026 A 
ATOM     31  C   UNL A   1      37.125  20.357  24.936  1.00  0.00     0.004 A 
ENDBRANCH  19  24
ENDBRANCH  17  18
ENDBRANCH  13  17
ENDBRANCH   6  12
ENDBRANCH   3   5
ENDBRANCH   2   3
ENDBRANCH   1   2
BRANCH   1  32
ATOM     32  C   UNL A   1      33.974  31.596  28.008  1.00  0.00     0.275 C 
BRANCH  32  33
ATOM     33  O   UNL A   1      34.973  31.226  28.964  1.00  0.00    -0.458 OA
BRANCH  33  34
ATOM     34  C   UNL A   1      36.098  31.977  28.934  1.00  0.00     0.338 C 
ATOM     35  O   UNL A   1      36.182  33.186  28.845  1.00  0.00    -0.246 OA
BRANCH  34  36
ATOM     36  C   UNL A   1      37.269  31.100  28.839  1.00  0.00     0.060 A 
ATOM     37  C   UNL A   1      37.052  29.736  28.617  1.00  0.00     0.016 A 
ATOM     38  C   UNL A   1      38.529  31.595  29.199  1.00  0.00     0.016 A 
ATOM     39  C   UNL A   1      38.081  28.848  28.865  1.00  0.00     0.010 A 
ATOM     40  C   UNL A   1      39.550  30.708  29.456  1.00  0.00     0.010 A 
ATOM     41  C   UNL A   1      39.302  29.341  29.338  1.00  0.00    -0.014 A 
BRANCH  41  42
ATOM     42  C   UNL A   1      40.363  28.395  29.629  1.00  0.00     0.031 A 
ATOM     43  C   UNL A   1      40.770  28.340  31.051  1.00  0.00     0.074 A 
ATOM     44  C   UNL A   1      40.820  27.516  28.718  1.00  0.00     0.049 A 
ATOM     45  N   UNL A   1      41.943  28.548  31.550  1.00  0.00    -0.248 NA
ATOM     46  C   UNL A   1      39.715  28.106  32.051  1.00  0.00     0.031 C 
ATOM     47  C   UNL A   1      40.290  27.266  27.374  1.00  0.00     0.029 A 
ATOM     48  N   UNL A   1      41.785  26.564  28.859  1.00  0.00    -0.354 N 
ATOM     49  C   UNL A   1      41.817  28.305  32.914  1.00  0.00     0.074 A 
ATOM     50  C   UNL A   1      40.409  28.171  33.185  1.00  0.00     0.031 C 
ATOM     51  C   UNL A   1      40.784  26.094  26.916  1.00  0.00     0.029 A 
ATOM     52  C   UNL A   1      41.758  25.592  27.871  1.00  0.00     0.049 A 
ATOM     53  H   UNL A   1      42.440  26.567  29.594  1.00  0.00     0.167 HD
ATOM     54  C   UNL A   1      42.889  27.990  33.686  1.00  0.00     0.031 A 
ATOM     55  C   UNL A   1      42.445  24.426  27.863  1.00  0.00     0.031 A 
ATOM     56  C   UNL A   1      44.135  28.342  33.062  1.00  0.00     0.049 A 
ATOM     57  C   UNL A   1      43.572  24.550  28.811  1.00  0.00     0.074 A 
ATOM     58  C   UNL A   1      44.735  29.518  32.665  1.00  0.00     0.029 A 
ATOM     59  N   UNL A   1      44.815  27.328  32.438  1.00  0.00    -0.354 N 
ATOM     60  N   UNL A   1      44.592  25.333  28.616  1.00  0.00    -0.248 NA
ATOM     61  C   UNL A   1      43.417  24.060  30.172  1.00  0.00     0.031 C 
ATOM     62  C   UNL A   1      45.491  29.182  31.504  1.00  0.00     0.029 A 
ATOM     63  C   UNL A   1      45.338  27.814  31.269  1.00  0.00     0.049 A 
ATOM     64  H   UNL A   1      44.912  26.407  32.774  1.00  0.00     0.167 HD
ATOM     65  C   UNL A   1      44.938  25.782  29.880  1.00  0.00     0.074 A 
ATOM     66  C   UNL A   1      44.301  24.844  30.797  1.00  0.00     0.031 C 
ATOM     67  C   UNL A   1      45.460  27.031  30.056  1.00  0.00     0.031 A 
BRANCH  54  68
ATOM     68  C   UNL A   1      42.810  26.980  34.802  1.00  0.00    -0.014 A 
ATOM     69  C   UNL A   1      42.856  25.611  34.488  1.00  0.00     0.009 A 
ATOM     70  C   UNL A   1      42.409  27.319  36.110  1.00  0.00     0.009 A 
ATOM     71  C   UNL A   1      42.473  24.640  35.423  1.00  0.00     0.001 A 
ATOM     72  C   UNL A   1      42.069  26.352  37.057  1.00  0.00     0.001 A 
ATOM     73  C   UNL A   1      42.078  25.011  36.704  1.00  0.00     0.000 A 
ENDBRANCH  54  68
BRANCH  55  74
ATOM     74  C   UNL A   1      42.070  23.141  27.244  1.00  0.00    -0.014 A 
ATOM     75  C   UNL A   1      42.900  22.529  26.293  1.00  0.00     0.009 A 
ATOM     76  C   UNL A   1      41.012  22.384  27.780  1.00  0.00     0.009 A 
ATOM     77  C   UNL A   1      42.699  21.194  25.920  1.00  0.00     0.001 A 
ATOM     78  C   UNL A   1      40.808  21.054  27.404  1.00  0.00     0.001 A 
ATOM     79  C   UNL A   1      41.662  20.454  26.485  1.00  0.00     0.000 A 
ENDBRANCH  55  74
BRANCH  67  80
ATOM     80  C   UNL A   1      45.949  27.753  28.823  1.00  0.00    -0.014 A 
ATOM     81  C   UNL A   1      47.271  27.656  28.354  1.00  0.00     0.009 A 
ATOM     82  C   UNL A   1      45.021  28.467  28.051  1.00  0.00     0.009 A 
ATOM     83  C   UNL A   1      47.663  28.290  27.172  1.00  0.00     0.001 A 
ATOM     84  C   UNL A   1      45.406  29.080  26.856  1.00  0.00     0.001 A 
ATOM     85  C   UNL A   1      46.728  29.001  26.423  1.00  0.00     0.000 A 
ENDBRANCH  67  80
ENDBRANCH  41  42
ENDBRANCH  34  36
ENDBRANCH  33  34
ENDBRANCH  32  33
ENDBRANCH   1  32
TORSDOF 15
ENDMDL
MODEL 2
REMARK VINA RESULT:     -11.8      3.183      8.424
REMARK SMILES Cc1c(Cl)cccc1NC(=O)NCc1cn([C@@H]2C[NH2+][C@H](C(=O)OCCOC(=O)c3ccc(-c4c5nc(c(-c6ccccc6)c6ccc([nH]6)c(-c6ccccc6)c6nc(c(-c7ccccc7)c7ccc4[nH]7)C=C6)C=C5)cc3)C2)nn1
REMARK SMILES IDX 24 1 23 2 21 3 22 4 20 5 17 6 18 7 77 8 19 9 16 12 14 13
REMARK SMILES IDX 15 14 79 15 78 16 13 17 12 18 9 19 10 20 11 22 8 24 1 25
REMARK SMILES IDX 2 26 3 27 4 28 5 29 7 30 6 31 25 32 26 33 27 34 28 35 29 36
REMARK SMILES IDX 30 37 76 38 31 39 75 40 32 41 33 42 34 43 69 44 35 45 74 46
REMARK SMILES IDX 68 47 70 48 36 49 73 50 67 51 66 52 37 54 59 55 44 56 58 57
REMARK SMILES IDX 45 58 48 59 57 60 71 61 46 62 47 63 56 65 72 66 49 67 38 68
REMARK SMILES IDX 39 69 43 70 40 71 42 72 41 73 60 74 61 75 65 76 62 77 64 78
REMARK SMILES IDX 63 79 50 80 51 81 55 82 52 83 54 84 53 85
REMARK H PARENT 19 10 19 11 9 21 12 23 70 53 48 64
REMARK Flexibility Score: inf
ROOT
ATOM      1  C   UNL A   1      37.767  22.802  25.731  1.00  0.00     0.274 C 
ENDROOT
BRANCH   1   2
ATOM      2  O   UNL A   1      37.123  22.042  24.696  1.00  0.00    -0.458 OA
BRANCH   2   3
ATOM      3  C   UNL A   1      35.880  22.453  24.327  1.00  0.00     0.365 C 
ATOM      4  O   UNL A   1      35.625  23.575  23.895  1.00  0.00    -0.245 OA
BRANCH   3   5
ATOM      5  C   UNL A   1      34.825  21.331  24.397  1.00  0.00     0.295 C 
ATOM      6  C   UNL A   1      32.649  21.601  25.460  1.00  0.00     0.170 C 
ATOM      7  C   UNL A   1      33.730  21.236  26.473  1.00  0.00     0.289 C 
ATOM      8  C   UNL A   1      33.415  21.869  24.162  1.00  0.00     0.110 C 
ATOM      9  N   UNL A   1      34.801  20.619  25.696  1.00  0.00    -0.333 N 
ATOM     10  H   UNL A   1      34.609  19.627  25.554  1.00  0.00     0.347 HD
ATOM     11  H   UNL A   1      35.698  20.687  26.178  1.00  0.00     0.347 HD
BRANCH   6  12
ATOM     12  N   UNL A   1      31.868  22.731  25.900  1.00  0.00    -0.243 N 
ATOM     13  C   UNL A   1      30.883  24.647  26.006  1.00  0.00     0.102 A 
ATOM     14  C   UNL A   1      31.405  23.738  25.117  1.00  0.00     0.137 A 
ATOM     15  N   UNL A   1      30.970  24.134  27.272  1.00  0.00    -0.134 NA
ATOM     16  N   UNL A   1      31.580  22.950  27.193  1.00  0.00    -0.067 NA
BRANCH  13  17
ATOM     17  C   UNL A   1      30.342  25.963  25.619  1.00  0.00     0.178 C 
BRANCH  17  18
ATOM     18  N   UNL A   1      30.322  26.243  24.215  1.00  0.00    -0.332 N 
ATOM     19  N   UNL A   1      31.845  28.034  23.675  1.00  0.00    -0.308 N 
ATOM     20  C   UNL A   1      31.093  26.954  23.391  1.00  0.00     0.319 C 
ATOM     21  H   UNL A   1      32.355  28.330  22.887  1.00  0.00     0.171 HD
ATOM     22  O   UNL A   1      31.040  26.638  22.194  1.00  0.00    -0.248 OA
ATOM     23  H   UNL A   1      29.567  25.815  23.752  1.00  0.00     0.165 HD
BRANCH  19  24
ATOM     24  C   UNL A   1      32.102  28.860  24.787  1.00  0.00     0.047 A 
ATOM     25  C   UNL A   1      33.923  27.245  25.606  1.00  0.00     0.048 C 
ATOM     26  C   UNL A   1      33.166  28.550  25.668  1.00  0.00    -0.009 A 
ATOM     27  C   UNL A   1      33.488  29.474  26.691  1.00  0.00     0.046 A 
ATOM     28  Cl  UNL A   1      34.786  29.198  27.804  1.00  0.00    -0.084 Cl
ATOM     29  C   UNL A   1      32.758  30.650  26.861  1.00  0.00     0.021 A 
ATOM     30  C   UNL A   1      31.268  29.928  25.122  1.00  0.00     0.026 A 
ATOM     31  C   UNL A   1      31.619  30.858  26.101  1.00  0.00     0.004 A 
ENDBRANCH  19  24
ENDBRANCH  17  18
ENDBRANCH  13  17
ENDBRANCH   6  12
ENDBRANCH   3   5
ENDBRANCH   2   3
ENDBRANCH   1   2
BRANCH   1  32
ATOM     32  C   UNL A   1      39.067  22.128  26.152  1.00  0.00     0.275 C 
BRANCH  32  33
ATOM     33  O   UNL A   1      39.753  22.873  27.162  1.00  0.00    -0.458 OA
BRANCH  33  34
ATOM     34  C   UNL A   1      41.041  23.172  26.875  1.00  0.00     0.338 C 
ATOM     35  O   UNL A   1      41.937  22.401  26.591  1.00  0.00    -0.246 OA
BRANCH  34  36
ATOM     36  C   UNL A   1      41.284  24.595  27.133  1.00  0.00     0.060 A 
ATOM     37  C   UNL A   1      41.988  24.940  28.291  1.00  0.00     0.016 A 
ATOM     38  C   UNL A   1      40.618  25.556  26.362  1.00  0.00     0.016 A 
ATOM     39  C   UNL A   1      41.935  26.247  28.739  1.00  0.00     0.010 A 
ATOM     40  C   UNL A   1      40.557  26.854  26.816  1.00  0.00     0.010 A 
ATOM     41  C   UNL A   1      41.170  27.176  28.026  1.00  0.00    -0.014 A 
BRANCH  41  42
ATOM     42  C   UNL A   1      41.093  28.536  28.526  1.00  0.00     0.031 A 
ATOM     43  C   UNL A   1      42.247  29.392  28.172  1.00  0.00     0.074 A 
ATOM     44  C   UNL A   1      39.987  29.031  29.112  1.00  0.00     0.049 A 
ATOM     45  N   UNL A   1      43.044  30.021  28.970  1.00  0.00    -0.248 NA
ATOM     46  C   UNL A   1      42.609  29.490  26.748  1.00  0.00     0.031 C 
ATOM     47  C   UNL A   1      38.679  28.380  29.245  1.00  0.00     0.029 A 
ATOM     48  N   UNL A   1      39.767  30.284  29.601  1.00  0.00    -0.354 N 
ATOM     49  C   UNL A   1      43.909  30.735  28.148  1.00  0.00     0.074 A 
ATOM     50  C   UNL A   1      43.687  30.269  26.803  1.00  0.00     0.031 C 
ATOM     51  C   UNL A   1      37.754  29.311  29.569  1.00  0.00     0.029 A 
ATOM     52  C   UNL A   1      38.427  30.580  29.795  1.00  0.00     0.049 A 
ATOM     53  H   UNL A   1      40.493  30.918  29.800  1.00  0.00     0.167 HD
ATOM     54  C   UNL A   1      44.578  31.831  28.593  1.00  0.00     0.031 A 
ATOM     55  C   UNL A   1      37.896  31.795  30.066  1.00  0.00     0.031 A 
ATOM     56  C   UNL A   1      44.621  31.899  30.028  1.00  0.00     0.049 A 
ATOM     57  C   UNL A   1      38.975  32.660  30.589  1.00  0.00     0.074 A 
ATOM     58  C   UNL A   1      45.167  31.127  31.031  1.00  0.00     0.029 A 
ATOM     59  N   UNL A   1      43.709  32.730  30.629  1.00  0.00    -0.354 N 
ATOM     60  N   UNL A   1      39.546  32.478  31.744  1.00  0.00    -0.248 NA
ATOM     61  C   UNL A   1      39.684  33.546  29.679  1.00  0.00     0.031 C 
ATOM     62  C   UNL A   1      44.268  31.248  32.131  1.00  0.00     0.029 A 
ATOM     63  C   UNL A   1      43.235  32.109  31.754  1.00  0.00     0.049 A 
ATOM     64  H   UNL A   1      43.441  33.621  30.306  1.00  0.00     0.167 HD
ATOM     65  C   UNL A   1      40.865  32.854  31.548  1.00  0.00     0.074 A 
ATOM     66  C   UNL A   1      40.848  33.652  30.328  1.00  0.00     0.031 C 
ATOM     67  C   UNL A   1      41.873  32.236  32.230  1.00  0.00     0.031 A 
BRANCH  54  68
ATOM     68  C   UNL A   1      44.808  33.042  27.727  1.00  0.00    -0.014 A 
ATOM     69  C   UNL A   1      43.710  33.832  27.351  1.00  0.00     0.009 A 
ATOM     70  C   UNL A   1      46.018  33.268  27.039  1.00  0.00     0.009 A 
ATOM     71  C   UNL A   1      43.809  34.763  26.309  1.00  0.00     0.001 A 
ATOM     72  C   UNL A   1      46.132  34.226  26.030  1.00  0.00     0.001 A 
ATOM     73  C   UNL A   1      45.018  34.956  25.648  1.00  0.00     0.000 A 
ENDBRANCH  54  68
BRANCH  55  74
ATOM     74  C   UNL A   1      36.566  32.320  29.709  1.00  0.00    -0.014 A 
ATOM     75  C   UNL A   1      35.693  32.804  30.695  1.00  0.00     0.009 A 
ATOM     76  C   UNL A   1      36.250  32.581  28.363  1.00  0.00     0.009 A 
ATOM     77  C   UNL A   1      34.564  33.556  30.345  1.00  0.00     0.001 A 
ATOM     78  C   UNL A   1      35.121  33.327  28.014  1.00  0.00     0.001 A 
ATOM     79  C   UNL A   1      34.287  33.828  29.007  1.00  0.00     0.000 A 
ENDBRANCH  55  74
BRANCH  67  80
ATOM     80  C   UNL A   1      41.483  31.392  33.420  1.00  0.00    -0.014 A 
ATOM     81  C   UNL A   1      41.347  31.917  34.717  1.00  0.00     0.009 A 
ATOM     82  C   UNL A   1      41.138  30.050  33.207  1.00  0.00     0.009 A 
ATOM     83  C   UNL A   1      40.921  31.111  35.777  1.00  0.00     0.001 A 
ATOM     84  C   UNL A   1      40.688  29.251  34.261  1.00  0.00     0.001 A 
ATOM     85  C   UNL A   1      40.589  29.779  35.547  1.00  0.00     0.000 A 
ENDBRANCH  67  80
ENDBRANCH  41  42
ENDBRANCH  34  36
ENDBRANCH  33  34
ENDBRANCH  32  33
ENDBRANCH   1  32
TORSDOF 15
ENDMDL
MODEL 3
REMARK VINA RESULT:     -11.7      1.514      1.993
REMARK SMILES Cc1c(Cl)cccc1NC(=O)NCc1cn([C@@H]2C[NH2+][C@H](C(=O)OCCOC(=O)c3ccc(-c4c5nc(c(-c6ccccc6)c6ccc([nH]6)c(-c6ccccc6)c6nc(c(-c7ccccc7)c7ccc4[nH]7)C=C6)C=C5)cc3)C2)nn1
REMARK SMILES IDX 24 1 23 2 21 3 22 4 20 5 17 6 18 7 77 8 19 9 16 12 14 13
REMARK SMILES IDX 15 14 79 15 78 16 13 17 12 18 9 19 10 20 11 22 8 24 1 25
REMARK SMILES IDX 2 26 3 27 4 28 5 29 7 30 6 31 25 32 26 33 27 34 28 35 29 36
REMARK SMILES IDX 30 37 76 38 31 39 75 40 32 41 33 42 34 43 69 44 35 45 74 46
REMARK SMILES IDX 68 47 70 48 36 49 73 50 67 51 66 52 37 54 59 55 44 56 58 57
REMARK SMILES IDX 45 58 48 59 57 60 71 61 46 62 47 63 56 65 72 66 49 67 38 68
REMARK SMILES IDX 39 69 43 70 40 71 42 72 41 73 60 74 61 75 65 76 62 77 64 78
REMARK SMILES IDX 63 79 50 80 51 81 55 82 52 83 54 84 53 85
REMARK H PARENT 19 10 19 11 9 21 12 23 70 53 48 64
REMARK Flexibility Score: inf
ROOT
ATOM      1  C   UNL A   1      32.651  30.339  26.781  1.00  0.00     0.274 C 
ENDROOT
BRANCH   1   2
ATOM      2  O   UNL A   1      32.734  28.980  27.238  1.00  0.00    -0.458 OA
BRANCH   2   3
ATOM      3  C   UNL A   1      33.070  28.047  26.305  1.00  0.00     0.365 C 
ATOM      4  O   UNL A   1      34.195  27.569  26.183  1.00  0.00    -0.245 OA
BRANCH   3   5
ATOM      5  C   UNL A   1      31.866  27.558  25.477  1.00  0.00     0.295 C 
ATOM      6  C   UNL A   1      32.012  25.780  23.818  1.00  0.00     0.170 C 
ATOM      7  C   UNL A   1      32.415  27.131  23.233  1.00  0.00     0.289 C 
ATOM      8  C   UNL A   1      31.870  26.040  25.319  1.00  0.00     0.110 C 
ATOM      9  N   UNL A   1      31.813  28.130  24.110  1.00  0.00    -0.333 N 
ATOM     10  H   UNL A   1      30.846  28.306  23.836  1.00  0.00     0.347 HD
ATOM     11  H   UNL A   1      32.309  29.021  24.058  1.00  0.00     0.347 HD
BRANCH   6  12
ATOM     12  N   UNL A   1      32.983  24.757  23.510  1.00  0.00    -0.243 N 
ATOM     13  C   UNL A   1      34.830  23.683  23.211  1.00  0.00     0.102 A 
ATOM     14  C   UNL A   1      34.288  24.753  23.882  1.00  0.00     0.137 A 
ATOM     15  N   UNL A   1      33.835  23.033  22.530  1.00  0.00    -0.134 NA
ATOM     16  N   UNL A   1      32.700  23.707  22.722  1.00  0.00    -0.067 NA
BRANCH  13  17
ATOM     17  C   UNL A   1      36.262  23.334  23.234  1.00  0.00     0.178 C 
BRANCH  17  18
ATOM     18  N   UNL A   1      36.919  23.469  24.498  1.00  0.00    -0.332 N 
ATOM     19  N   UNL A   1      36.192  21.755  26.032  1.00  0.00    -0.308 N 
ATOM     20  C   UNL A   1      37.043  22.695  25.577  1.00  0.00     0.319 C 
ATOM     21  H   UNL A   1      36.557  21.298  26.823  1.00  0.00     0.171 HD
ATOM     22  O   UNL A   1      38.017  22.933  26.305  1.00  0.00    -0.248 OA
ATOM     23  H   UNL A   1      37.386  24.331  24.594  1.00  0.00     0.165 HD
BRANCH  19  24
ATOM     24  C   UNL A   1      34.924  21.247  25.690  1.00  0.00     0.047 A 
ATOM     25  C   UNL A   1      33.782  23.021  27.154  1.00  0.00     0.048 C 
ATOM     26  C   UNL A   1      33.753  21.906  26.137  1.00  0.00    -0.009 A 
ATOM     27  C   UNL A   1      32.499  21.455  25.659  1.00  0.00     0.046 A 
ATOM     28  Cl  UNL A   1      31.012  22.208  26.128  1.00  0.00    -0.084 Cl
ATOM     29  C   UNL A   1      32.403  20.363  24.797  1.00  0.00     0.021 A 
ATOM     30  C   UNL A   1      34.772  20.039  25.008  1.00  0.00     0.026 A 
ATOM     31  C   UNL A   1      33.539  19.628  24.503  1.00  0.00     0.004 A 
ENDBRANCH  19  24
ENDBRANCH  17  18
ENDBRANCH  13  17
ENDBRANCH   6  12
ENDBRANCH   3   5
ENDBRANCH   2   3
ENDBRANCH   1   2
BRANCH   1  32
ATOM     32  C   UNL A   1      33.554  31.235  27.620  1.00  0.00     0.275 C 
BRANCH  32  33
ATOM     33  O   UNL A   1      34.939  30.938  27.419  1.00  0.00    -0.458 OA
BRANCH  33  34
ATOM     34  C   UNL A   1      35.772  31.441  28.358  1.00  0.00     0.338 C 
ATOM     35  O   UNL A   1      35.630  32.457  29.010  1.00  0.00    -0.246 OA
BRANCH  34  36
ATOM     36  C   UNL A   1      37.019  30.670  28.372  1.00  0.00     0.060 A 
ATOM     37  C   UNL A   1      36.960  29.322  28.001  1.00  0.00     0.016 A 
ATOM     38  C   UNL A   1      38.161  31.219  28.967  1.00  0.00     0.016 A 
ATOM     39  C   UNL A   1      38.016  28.493  28.329  1.00  0.00     0.010 A 
ATOM     40  C   UNL A   1      39.207  30.390  29.303  1.00  0.00     0.010 A 
ATOM     41  C   UNL A   1      39.103  29.027  29.030  1.00  0.00    -0.014 A 
BRANCH  41  42
ATOM     42  C   UNL A   1      40.190  28.139  29.400  1.00  0.00     0.031 A 
ATOM     43  C   UNL A   1      40.523  28.137  30.842  1.00  0.00     0.074 A 
ATOM     44  C   UNL A   1      40.735  27.261  28.538  1.00  0.00     0.049 A 
ATOM     45  N   UNL A   1      41.656  28.412  31.396  1.00  0.00    -0.248 NA
ATOM     46  C   UNL A   1      39.428  27.877  31.792  1.00  0.00     0.031 C 
ATOM     47  C   UNL A   1      40.288  26.955  27.175  1.00  0.00     0.029 A 
ATOM     48  N   UNL A   1      41.733  26.359  28.753  1.00  0.00    -0.354 N 
ATOM     49  C   UNL A   1      41.469  28.196  32.757  1.00  0.00     0.074 A 
ATOM     50  C   UNL A   1      40.055  28.002  32.959  1.00  0.00     0.031 C 
ATOM     51  C   UNL A   1      40.860  25.797  26.774  1.00  0.00     0.029 A 
ATOM     52  C   UNL A   1      41.804  25.364  27.791  1.00  0.00     0.049 A 
ATOM     53  H   UNL A   1      42.347  26.411  29.521  1.00  0.00     0.167 HD
ATOM     54  C   UNL A   1      42.512  27.950  33.593  1.00  0.00     0.031 A 
ATOM     55  C   UNL A   1      42.543  24.232  27.849  1.00  0.00     0.031 A 
ATOM     56  C   UNL A   1      43.772  28.346  33.026  1.00  0.00     0.049 A 
ATOM     57  C   UNL A   1      43.610  24.432  28.852  1.00  0.00     0.074 A 
ATOM     58  C   UNL A   1      44.337  29.539  32.630  1.00  0.00     0.029 A 
ATOM     59  N   UNL A   1      44.530  27.350  32.465  1.00  0.00    -0.354 N 
ATOM     60  N   UNL A   1      44.603  25.257  28.689  1.00  0.00    -0.248 NA
ATOM     61  C   UNL A   1      43.406  23.967  30.215  1.00  0.00     0.031 C 
ATOM     62  C   UNL A   1      45.169  29.211  31.520  1.00  0.00     0.029 A 
ATOM     63  C   UNL A   1      45.092  27.832  31.312  1.00  0.00     0.049 A 
ATOM     64  H   UNL A   1      44.651  26.443  32.829  1.00  0.00     0.167 HD
ATOM     65  C   UNL A   1      44.860  25.751  29.958  1.00  0.00     0.074 A 
ATOM     66  C   UNL A   1      44.218  24.807  30.864  1.00  0.00     0.031 C 
ATOM     67  C   UNL A   1      45.314  27.028  30.128  1.00  0.00     0.031 A 
BRANCH  54  68
ATOM     68  C   UNL A   1      42.420  26.964  34.729  1.00  0.00    -0.014 A 
ATOM     69  C   UNL A   1      42.589  25.595  34.461  1.00  0.00     0.009 A 
ATOM     70  C   UNL A   1      41.894  27.304  35.992  1.00  0.00     0.009 A 
ATOM     71  C   UNL A   1      42.206  24.621  35.392  1.00  0.00     0.001 A 
ATOM     72  C   UNL A   1      41.552  26.337  36.939  1.00  0.00     0.001 A 
ATOM     73  C   UNL A   1      41.686  24.993  36.627  1.00  0.00     0.000 A 
ENDBRANCH  54  68
BRANCH  55  74
ATOM     74  C   UNL A   1      42.261  22.916  27.246  1.00  0.00    -0.014 A 
ATOM     75  C   UNL A   1      43.152  22.337  26.331  1.00  0.00     0.009 A 
ATOM     76  C   UNL A   1      41.233  22.109  27.767  1.00  0.00     0.009 A 
ATOM     77  C   UNL A   1      43.038  20.986  25.978  1.00  0.00     0.001 A 
ATOM     78  C   UNL A   1      41.117  20.763  27.411  1.00  0.00     0.001 A 
ATOM     79  C   UNL A   1      42.030  20.197  26.529  1.00  0.00     0.000 A 
ENDBRANCH  55  74
BRANCH  67  80
ATOM     80  C   UNL A   1      45.834  27.742  28.904  1.00  0.00    -0.014 A 
ATOM     81  C   UNL A   1      45.002  28.466  28.031  1.00  0.00     0.009 A 
ATOM     82  C   UNL A   1      47.218  27.777  28.684  1.00  0.00     0.009 A 
ATOM     83  C   UNL A   1      45.536  29.166  26.945  1.00  0.00     0.001 A 
ATOM     84  C   UNL A   1      47.754  28.497  27.613  1.00  0.00     0.001 A 
ATOM     85  C   UNL A   1      46.913  29.183  26.739  1.00  0.00     0.000 A 
ENDBRANCH  67  80
ENDBRANCH  41  42
ENDBRANCH  34  36
ENDBRANCH  33  34
ENDBRANCH  32  33
ENDBRANCH   1  32
TORSDOF 15
ENDMDL
