MODEL 1
REMARK VINA RESULT:     -11.1      0.000      0.000
REMARK SMILES Cc1ccc(NC(=O)NC2(C(=O)OCCOC(=O)c3ccc(-c4c5nc(c(-c6ccccc6)c6ccc([nH]6)c(-c6ccccc6)c6nc(c(-c7ccccc7)c7ccc4[nH]7)C=C6)C=C5)cc3)CC2)c(C)n1
REMARK SMILES IDX 14 1 13 2 11 3 12 4 10 5 67 6 68 7 9 8 6 9 7 10 8 12 5 14
REMARK SMILES IDX 1 15 2 16 3 17 71 18 4 19 69 20 70 21 15 22 16 23 17 24
REMARK SMILES IDX 18 25 19 26 20 27 66 28 21 29 65 30 22 31 23 32 24 33 59 34
REMARK SMILES IDX 25 35 64 36 58 37 60 38 26 39 63 40 57 41 56 42 27 44 49 45
REMARK SMILES IDX 34 46 48 47 35 48 38 49 47 50 61 51 36 52 37 53 46 55 62 56
REMARK SMILES IDX 39 57 28 58 29 59 33 60 30 61 32 62 31 63 50 64 51 65 55 66
REMARK SMILES IDX 52 67 54 68 53 69 40 70 41 71 45 72 42 73 44 74 43 75
REMARK H PARENT 6 11 9 13 60 43 38 54
REMARK Flexibility Score: inf
ROOT
ATOM      1  C   UNL A   1      32.159  28.165  27.630  1.00  0.00     0.274 C 
ENDROOT
BRANCH   1   2
ATOM      2  O   UNL A   1      31.266  27.080  27.285  1.00  0.00    -0.460 OA
BRANCH   2   3
ATOM      3  C   UNL A   1      31.606  26.241  26.257  1.00  0.00     0.332 C 
ATOM      4  O   UNL A   1      32.749  26.079  25.842  1.00  0.00    -0.249 OA
BRANCH   3   5
ATOM      5  C   UNL A   1      30.388  25.497  25.664  1.00  0.00     0.139 C 
ATOM      6  C   UNL A   1      30.556  25.132  24.184  1.00  0.00     0.043 C 
ATOM      7  C   UNL A   1      29.372  25.918  24.587  1.00  0.00     0.043 C 
BRANCH   5   8
ATOM      8  N   UNL A   1      29.758  24.640  26.590  1.00  0.00    -0.322 N 
ATOM      9  N   UNL A   1      31.210  22.733  26.543  1.00  0.00    -0.306 N 
ATOM     10  C   UNL A   1      30.112  23.400  26.911  1.00  0.00     0.320 C 
ATOM     11  H   UNL A   1      31.042  21.798  26.806  1.00  0.00     0.171 HD
ATOM     12  O   UNL A   1      29.342  22.793  27.670  1.00  0.00    -0.248 OA
ATOM     13  H   UNL A   1      28.967  25.000  27.051  1.00  0.00     0.166 HD
BRANCH   9  14
ATOM     14  C   UNL A   1      32.513  22.725  25.950  1.00  0.00     0.064 A 
ATOM     15  C   UNL A   1      36.672  23.437  25.106  1.00  0.00     0.067 C 
ATOM     16  C   UNL A   1      35.269  23.147  25.503  1.00  0.00     0.038 A 
ATOM     17  C   UNL A   1      34.820  23.147  26.791  1.00  0.00     0.025 A 
ATOM     18  N   UNL A   1      34.441  22.885  24.491  1.00  0.00    -0.256 NA
ATOM     19  C   UNL A   1      33.458  22.936  26.996  1.00  0.00     0.030 A 
ATOM     20  C   UNL A   1      33.108  22.630  24.674  1.00  0.00     0.061 A 
ATOM     21  C   UNL A   1      32.718  22.072  23.348  1.00  0.00     0.069 C 
ENDBRANCH   9  14
ENDBRANCH   5   8
ENDBRANCH   3   5
ENDBRANCH   2   3
ENDBRANCH   1   2
BRANCH   1  22
ATOM     22  C   UNL A   1      31.755  29.430  26.863  1.00  0.00     0.275 C 
BRANCH  22  23
ATOM     23  O   UNL A   1      32.966  30.053  26.411  1.00  0.00    -0.458 OA
BRANCH  23  24
ATOM     24  C   UNL A   1      33.326  31.181  27.063  1.00  0.00     0.338 C 
ATOM     25  O   UNL A   1      32.632  32.143  27.338  1.00  0.00    -0.246 OA
BRANCH  24  26
ATOM     26  C   UNL A   1      34.701  30.985  27.556  1.00  0.00     0.060 A 
ATOM     27  C   UNL A   1      35.113  29.685  27.852  1.00  0.00     0.016 A 
ATOM     28  C   UNL A   1      35.507  32.067  27.886  1.00  0.00     0.016 A 
ATOM     29  C   UNL A   1      36.256  29.472  28.602  1.00  0.00     0.010 A 
ATOM     30  C   UNL A   1      36.741  31.830  28.501  1.00  0.00     0.010 A 
ATOM     31  C   UNL A   1      37.113  30.532  28.901  1.00  0.00    -0.014 A 
BRANCH  31  32
ATOM     32  C   UNL A   1      38.392  30.289  29.622  1.00  0.00     0.031 A 
ATOM     33  C   UNL A   1      39.463  29.445  28.986  1.00  0.00     0.074 A 
ATOM     34  C   UNL A   1      38.576  30.786  30.863  1.00  0.00     0.049 A 
ATOM     35  N   UNL A   1      40.468  28.828  29.551  1.00  0.00    -0.248 NA
ATOM     36  C   UNL A   1      39.371  29.237  27.530  1.00  0.00     0.031 C 
ATOM     37  C   UNL A   1      37.654  31.675  31.581  1.00  0.00     0.029 A 
ATOM     38  N   UNL A   1      39.602  30.596  31.758  1.00  0.00    -0.354 N 
ATOM     39  C   UNL A   1      41.069  28.083  28.542  1.00  0.00     0.074 A 
ATOM     40  C   UNL A   1      40.328  28.340  27.326  1.00  0.00     0.031 C 
ATOM     41  C   UNL A   1      38.165  31.973  32.781  1.00  0.00     0.029 A 
ATOM     42  C   UNL A   1      39.370  31.185  32.978  1.00  0.00     0.049 A 
ATOM     43  H   UNL A   1      40.419  30.090  31.546  1.00  0.00     0.167 HD
ATOM     44  C   UNL A   1      42.129  27.246  28.641  1.00  0.00     0.031 A 
ATOM     45  C   UNL A   1      39.992  31.039  34.162  1.00  0.00     0.031 A 
ATOM     46  C   UNL A   1      42.888  27.060  29.852  1.00  0.00     0.049 A 
ATOM     47  C   UNL A   1      41.140  30.082  34.253  1.00  0.00     0.074 A 
ATOM     48  C   UNL A   1      44.011  26.276  30.053  1.00  0.00     0.029 A 
ATOM     49  N   UNL A   1      42.608  27.678  31.062  1.00  0.00    -0.354 N 
ATOM     50  N   UNL A   1      41.667  29.335  33.313  1.00  0.00    -0.248 NA
ATOM     51  C   UNL A   1      41.767  29.932  35.572  1.00  0.00     0.031 C 
ATOM     52  C   UNL A   1      44.376  26.374  31.399  1.00  0.00     0.029 A 
ATOM     53  C   UNL A   1      43.522  27.272  32.020  1.00  0.00     0.049 A 
ATOM     54  H   UNL A   1      41.870  28.311  31.216  1.00  0.00     0.167 HD
ATOM     55  C   UNL A   1      42.700  28.639  33.922  1.00  0.00     0.074 A 
ATOM     56  C   UNL A   1      42.739  29.072  35.305  1.00  0.00     0.031 C 
ATOM     57  C   UNL A   1      43.539  27.718  33.388  1.00  0.00     0.031 A 
BRANCH  44  58
ATOM     58  C   UNL A   1      42.506  26.422  27.438  1.00  0.00    -0.014 A 
ATOM     59  C   UNL A   1      43.379  26.896  26.449  1.00  0.00     0.009 A 
ATOM     60  C   UNL A   1      42.025  25.105  27.339  1.00  0.00     0.009 A 
ATOM     61  C   UNL A   1      43.744  26.077  25.376  1.00  0.00     0.001 A 
ATOM     62  C   UNL A   1      42.414  24.278  26.284  1.00  0.00     0.001 A 
ATOM     63  C   UNL A   1      43.268  24.767  25.299  1.00  0.00     0.000 A 
ENDBRANCH  44  58
BRANCH  45  64
ATOM     64  C   UNL A   1      39.469  31.738  35.367  1.00  0.00    -0.014 A 
ATOM     65  C   UNL A   1      38.476  31.152  36.163  1.00  0.00     0.009 A 
ATOM     66  C   UNL A   1      39.979  32.996  35.739  1.00  0.00     0.009 A 
ATOM     67  C   UNL A   1      37.991  31.816  37.292  1.00  0.00     0.001 A 
ATOM     68  C   UNL A   1      39.524  33.638  36.889  1.00  0.00     0.001 A 
ATOM     69  C   UNL A   1      38.522  33.053  37.660  1.00  0.00     0.000 A 
ENDBRANCH  45  64
BRANCH  57  70
ATOM     70  C   UNL A   1      44.596  27.163  34.298  1.00  0.00    -0.014 A 
ATOM     71  C   UNL A   1      44.441  25.916  34.922  1.00  0.00     0.009 A 
ATOM     72  C   UNL A   1      45.773  27.896  34.515  1.00  0.00     0.009 A 
ATOM     73  C   UNL A   1      45.430  25.433  35.780  1.00  0.00     0.001 A 
ATOM     74  C   UNL A   1      46.773  27.395  35.347  1.00  0.00     0.001 A 
ATOM     75  C   UNL A   1      46.595  26.170  35.988  1.00  0.00     0.000 A 
ENDBRANCH  57  70
ENDBRANCH  31  32
ENDBRANCH  24  26
ENDBRANCH  23  24
ENDBRANCH  22  23
ENDBRANCH   1  22
TORSDOF 13
ENDMDL
MODEL 2
REMARK VINA RESULT:     -11.1      3.730      6.768
REMARK SMILES Cc1ccc(NC(=O)NC2(C(=O)OCCOC(=O)c3ccc(-c4c5nc(c(-c6ccccc6)c6ccc([nH]6)c(-c6ccccc6)c6nc(c(-c7ccccc7)c7ccc4[nH]7)C=C6)C=C5)cc3)CC2)c(C)n1
REMARK SMILES IDX 14 1 13 2 11 3 12 4 10 5 67 6 68 7 9 8 6 9 7 10 8 12 5 14
REMARK SMILES IDX 1 15 2 16 3 17 71 18 4 19 69 20 70 21 15 22 16 23 17 24
REMARK SMILES IDX 18 25 19 26 20 27 66 28 21 29 65 30 22 31 23 32 24 33 59 34
REMARK SMILES IDX 25 35 64 36 58 37 60 38 26 39 63 40 57 41 56 42 27 44 49 45
REMARK SMILES IDX 34 46 48 47 35 48 38 49 47 50 61 51 36 52 37 53 46 55 62 56
REMARK SMILES IDX 39 57 28 58 29 59 33 60 30 61 32 62 31 63 50 64 51 65 55 66
REMARK SMILES IDX 52 67 54 68 53 69 40 70 41 71 45 72 42 73 44 74 43 75
REMARK H PARENT 6 11 9 13 60 43 38 54
REMARK Flexibility Score: inf
ROOT
ATOM      1  C   UNL A   1      31.861  28.211  27.060  1.00  0.00     0.274 C 
ENDROOT
BRANCH   1   2
ATOM      2  O   UNL A   1      32.292  26.847  26.843  1.00  0.00    -0.460 OA
BRANCH   2   3
ATOM      3  C   UNL A   1      32.166  26.301  25.594  1.00  0.00     0.332 C 
ATOM      4  O   UNL A   1      33.070  26.240  24.768  1.00  0.00    -0.249 OA
BRANCH   3   5
ATOM      5  C   UNL A   1      30.747  25.751  25.322  1.00  0.00     0.139 C 
ATOM      6  C   UNL A   1      30.511  25.366  23.857  1.00  0.00     0.043 C 
ATOM      7  C   UNL A   1      29.582  26.323  24.493  1.00  0.00     0.043 C 
BRANCH   5   8
ATOM      8  N   UNL A   1      30.229  24.999  26.397  1.00  0.00    -0.322 N 
ATOM      9  N   UNL A   1      31.408  22.927  26.143  1.00  0.00    -0.306 N 
ATOM     10  C   UNL A   1      30.496  23.732  26.696  1.00  0.00     0.320 C 
ATOM     11  H   UNL A   1      31.192  22.026  26.478  1.00  0.00     0.171 HD
ATOM     12  O   UNL A   1      29.837  23.241  27.625  1.00  0.00    -0.248 OA
ATOM     13  H   UNL A   1      29.599  25.464  26.993  1.00  0.00     0.166 HD
BRANCH   9  14
ATOM     14  C   UNL A   1      32.548  22.745  25.296  1.00  0.00     0.064 A 
ATOM     15  C   UNL A   1      36.454  23.021  23.511  1.00  0.00     0.067 C 
ATOM     16  C   UNL A   1      35.158  22.892  24.229  1.00  0.00     0.038 A 
ATOM     17  C   UNL A   1      35.001  23.082  25.570  1.00  0.00     0.025 A 
ATOM     18  N   UNL A   1      34.117  22.577  23.457  1.00  0.00    -0.256 NA
ATOM     19  C   UNL A   1      33.708  23.006  26.083  1.00  0.00     0.030 A 
ATOM     20  C   UNL A   1      32.845  22.452  23.949  1.00  0.00     0.061 A 
ATOM     21  C   UNL A   1      32.147  21.770  22.821  1.00  0.00     0.069 C 
ENDBRANCH   9  14
ENDBRANCH   5   8
ENDBRANCH   3   5
ENDBRANCH   2   3
ENDBRANCH   1   2
BRANCH   1  22
ATOM     22  C   UNL A   1      32.978  29.178  26.647  1.00  0.00     0.275 C 
BRANCH  22  23
ATOM     23  O   UNL A   1      34.019  29.062  27.627  1.00  0.00    -0.458 OA
BRANCH  23  24
ATOM     24  C   UNL A   1      34.608  30.220  28.000  1.00  0.00     0.338 C 
ATOM     25  O   UNL A   1      34.081  31.300  28.197  1.00  0.00    -0.246 OA
BRANCH  24  26
ATOM     26  C   UNL A   1      36.017  29.919  28.307  1.00  0.00     0.060 A 
ATOM     27  C   UNL A   1      36.950  30.022  27.275  1.00  0.00     0.016 A 
ATOM     28  C   UNL A   1      36.386  29.379  29.533  1.00  0.00     0.016 A 
ATOM     29  C   UNL A   1      38.207  29.459  27.414  1.00  0.00     0.010 A 
ATOM     30  C   UNL A   1      37.707  28.960  29.718  1.00  0.00     0.010 A 
ATOM     31  C   UNL A   1      38.624  28.960  28.648  1.00  0.00    -0.014 A 
BRANCH  31  32
ATOM     32  C   UNL A   1      40.009  28.445  28.826  1.00  0.00     0.031 A 
ATOM     33  C   UNL A   1      41.123  29.393  29.174  1.00  0.00     0.074 A 
ATOM     34  C   UNL A   1      40.276  27.136  28.630  1.00  0.00     0.049 A 
ATOM     35  N   UNL A   1      42.413  29.235  29.031  1.00  0.00    -0.248 NA
ATOM     36  C   UNL A   1      40.735  30.705  29.722  1.00  0.00     0.031 C 
ATOM     37  C   UNL A   1      39.288  26.087  28.351  1.00  0.00     0.029 A 
ATOM     38  N   UNL A   1      41.474  26.462  28.615  1.00  0.00    -0.354 N 
ATOM     39  C   UNL A   1      42.983  30.456  29.377  1.00  0.00     0.074 A 
ATOM     40  C   UNL A   1      41.901  31.338  29.755  1.00  0.00     0.031 C 
ATOM     41  C   UNL A   1      39.911  24.910  28.223  1.00  0.00     0.029 A 
ATOM     42  C   UNL A   1      41.345  25.140  28.262  1.00  0.00     0.049 A 
ATOM     43  H   UNL A   1      42.335  26.884  28.835  1.00  0.00     0.167 HD
ATOM     44  C   UNL A   1      44.293  30.802  29.352  1.00  0.00     0.031 A 
ATOM     45  C   UNL A   1      42.267  24.226  27.908  1.00  0.00     0.031 A 
ATOM     46  C   UNL A   1      45.355  29.882  29.034  1.00  0.00     0.049 A 
ATOM     47  C   UNL A   1      43.704  24.643  27.857  1.00  0.00     0.074 A 
ATOM     48  C   UNL A   1      46.720  30.111  29.028  1.00  0.00     0.029 A 
ATOM     49  N   UNL A   1      45.170  28.554  28.679  1.00  0.00    -0.354 N 
ATOM     50  N   UNL A   1      44.233  25.812  28.126  1.00  0.00    -0.248 NA
ATOM     51  C   UNL A   1      44.669  23.621  27.436  1.00  0.00     0.031 C 
ATOM     52  C   UNL A   1      47.357  28.938  28.614  1.00  0.00     0.029 A 
ATOM     53  C   UNL A   1      46.394  27.958  28.427  1.00  0.00     0.049 A 
ATOM     54  H   UNL A   1      44.297  28.102  28.616  1.00  0.00     0.167 HD
ATOM     55  C   UNL A   1      45.597  25.663  27.923  1.00  0.00     0.074 A 
ATOM     56  C   UNL A   1      45.813  24.283  27.533  1.00  0.00     0.031 C 
ATOM     57  C   UNL A   1      46.582  26.585  28.041  1.00  0.00     0.031 A 
BRANCH  44  58
ATOM     58  C   UNL A   1      44.659  32.238  29.620  1.00  0.00    -0.014 A 
ATOM     59  C   UNL A   1      44.973  32.704  30.904  1.00  0.00     0.009 A 
ATOM     60  C   UNL A   1      44.762  33.126  28.535  1.00  0.00     0.009 A 
ATOM     61  C   UNL A   1      45.359  34.034  31.099  1.00  0.00     0.001 A 
ATOM     62  C   UNL A   1      45.177  34.445  28.727  1.00  0.00     0.001 A 
ATOM     63  C   UNL A   1      45.469  34.900  30.010  1.00  0.00     0.000 A 
ENDBRANCH  44  58
BRANCH  45  64
ATOM     64  C   UNL A   1      41.838  22.868  27.477  1.00  0.00    -0.014 A 
ATOM     65  C   UNL A   1      41.527  22.606  26.136  1.00  0.00     0.009 A 
ATOM     66  C   UNL A   1      41.757  21.817  28.408  1.00  0.00     0.009 A 
ATOM     67  C   UNL A   1      41.126  21.327  25.740  1.00  0.00     0.001 A 
ATOM     68  C   UNL A   1      41.397  20.532  28.003  1.00  0.00     0.001 A 
ATOM     69  C   UNL A   1      41.071  20.290  26.671  1.00  0.00     0.000 A 
ENDBRANCH  45  64
BRANCH  57  70
ATOM     70  C   UNL A   1      47.984  26.108  27.793  1.00  0.00    -0.014 A 
ATOM     71  C   UNL A   1      48.553  26.147  26.512  1.00  0.00     0.009 A 
ATOM     72  C   UNL A   1      48.749  25.629  28.868  1.00  0.00     0.009 A 
ATOM     73  C   UNL A   1      49.850  25.677  26.305  1.00  0.00     0.001 A 
ATOM     74  C   UNL A   1      50.057  25.192  28.664  1.00  0.00     0.001 A 
ATOM     75  C   UNL A   1      50.602  25.204  27.380  1.00  0.00     0.000 A 
ENDBRANCH  57  70
ENDBRANCH  31  32
ENDBRANCH  24  26
ENDBRANCH  23  24
ENDBRANCH  22  23
ENDBRANCH   1  22
TORSDOF 13
ENDMDL
MODEL 3
REMARK VINA RESULT:     -11.1      1.598      2.260
REMARK SMILES Cc1ccc(NC(=O)NC2(C(=O)OCCOC(=O)c3ccc(-c4c5nc(c(-c6ccccc6)c6ccc([nH]6)c(-c6ccccc6)c6nc(c(-c7ccccc7)c7ccc4[nH]7)C=C6)C=C5)cc3)CC2)c(C)n1
REMARK SMILES IDX 14 1 13 2 11 3 12 4 10 5 67 6 68 7 9 8 6 9 7 10 8 12 5 14
REMARK SMILES IDX 1 15 2 16 3 17 71 18 4 19 69 20 70 21 15 22 16 23 17 24
REMARK SMILES IDX 18 25 19 26 20 27 66 28 21 29 65 30 22 31 23 32 24 33 59 34
REMARK SMILES IDX 25 35 64 36 58 37 60 38 26 39 63 40 57 41 56 42 27 44 49 45
REMARK SMILES IDX 34 46 48 47 35 48 38 49 47 50 61 51 36 52 37 53 46 55 62 56
REMARK SMILES IDX 39 57 28 58 29 59 33 60 30 61 32 62 31 63 50 64 51 65 55 66
REMARK SMILES IDX 52 67 54 68 53 69 40 70 41 71 45 72 42 73 44 74 43 75
REMARK H PARENT 6 11 9 13 60 43 38 54
REMARK Flexibility Score: inf
ROOT
ATOM      1  C   UNL A   1      31.361  28.024  26.169  1.00  0.00     0.274 C 
ENDROOT
BRANCH   1   2
ATOM      2  O   UNL A   1      32.001  27.232  25.141  1.00  0.00    -0.460 OA
BRANCH   2   3
ATOM      3  C   UNL A   1      31.614  27.398  23.838  1.00  0.00     0.332 C 
ATOM      4  O   UNL A   1      30.461  27.291  23.436  1.00  0.00    -0.249 OA
BRANCH   3   5
ATOM      5  C   UNL A   1      32.796  27.747  22.904  1.00  0.00     0.139 C 
ATOM      6  C   UNL A   1      34.111  27.999  23.651  1.00  0.00     0.043 C 
ATOM      7  C   UNL A   1      33.605  29.046  22.740  1.00  0.00     0.043 C 
BRANCH   5   8
ATOM      8  N   UNL A   1      32.744  27.071  21.668  1.00  0.00    -0.322 N 
ATOM      9  N   UNL A   1      33.240  24.821  22.331  1.00  0.00    -0.306 N 
ATOM     10  C   UNL A   1      33.005  25.788  21.439  1.00  0.00     0.320 C 
ATOM     11  H   UNL A   1      33.577  24.061  21.803  1.00  0.00     0.171 HD
ATOM     12  O   UNL A   1      33.004  25.436  20.250  1.00  0.00    -0.248 OA
ATOM     13  H   UNL A   1      32.483  27.608  20.886  1.00  0.00     0.166 HD
BRANCH   9  14
ATOM     14  C   UNL A   1      33.237  24.360  23.687  1.00  0.00     0.064 A 
ATOM     15  C   UNL A   1      34.373  22.673  27.479  1.00  0.00     0.067 C 
ATOM     16  C   UNL A   1      34.069  23.334  26.182  1.00  0.00     0.038 A 
ATOM     17  C   UNL A   1      34.998  23.955  25.401  1.00  0.00     0.025 A 
ATOM     18  N   UNL A   1      32.790  23.277  25.808  1.00  0.00    -0.256 NA
ATOM     19  C   UNL A   1      34.573  24.457  24.173  1.00  0.00     0.030 A 
ATOM     20  C   UNL A   1      32.342  23.803  24.625  1.00  0.00     0.061 A 
ATOM     21  C   UNL A   1      30.866  23.804  24.831  1.00  0.00     0.069 C 
ENDBRANCH   9  14
ENDBRANCH   5   8
ENDBRANCH   3   5
ENDBRANCH   2   3
ENDBRANCH   1   2
BRANCH   1  22
ATOM     22  C   UNL A   1      31.587  29.515  25.889  1.00  0.00     0.275 C 
BRANCH  22  23
ATOM     23  O   UNL A   1      32.969  29.789  26.157  1.00  0.00    -0.458 OA
BRANCH  23  24
ATOM     24  C   UNL A   1      33.218  30.891  26.900  1.00  0.00     0.338 C 
ATOM     25  O   UNL A   1      32.440  31.772  27.218  1.00  0.00    -0.246 OA
BRANCH  24  26
ATOM     26  C   UNL A   1      34.589  30.768  27.425  1.00  0.00     0.060 A 
ATOM     27  C   UNL A   1      35.076  29.489  27.696  1.00  0.00     0.016 A 
ATOM     28  C   UNL A   1      35.315  31.890  27.808  1.00  0.00     0.016 A 
ATOM     29  C   UNL A   1      36.211  29.327  28.471  1.00  0.00     0.010 A 
ATOM     30  C   UNL A   1      36.545  31.714  28.449  1.00  0.00     0.010 A 
ATOM     31  C   UNL A   1      36.990  30.430  28.823  1.00  0.00    -0.014 A 
BRANCH  31  32
ATOM     32  C   UNL A   1      38.263  30.248  29.572  1.00  0.00     0.031 A 
ATOM     33  C   UNL A   1      39.376  29.435  28.971  1.00  0.00     0.074 A 
ATOM     34  C   UNL A   1      38.404  30.773  30.808  1.00  0.00     0.049 A 
ATOM     35  N   UNL A   1      40.393  28.866  29.566  1.00  0.00    -0.248 NA
ATOM     36  C   UNL A   1      39.321  29.199  27.518  1.00  0.00     0.031 C 
ATOM     37  C   UNL A   1      37.435  31.638  31.492  1.00  0.00     0.029 A 
ATOM     38  N   UNL A   1      39.418  30.637  31.725  1.00  0.00    -0.354 N 
ATOM     39  C   UNL A   1      41.041  28.128  28.581  1.00  0.00     0.074 A 
ATOM     40  C   UNL A   1      40.315  28.336  27.347  1.00  0.00     0.031 C 
ATOM     41  C   UNL A   1      37.911  31.976  32.696  1.00  0.00     0.029 A 
ATOM     42  C   UNL A   1      39.141  31.237  32.929  1.00  0.00     0.049 A 
ATOM     43  H   UNL A   1      40.258  30.159  31.536  1.00  0.00     0.167 HD
ATOM     44  C   UNL A   1      42.130  27.333  28.715  1.00  0.00     0.031 A 
ATOM     45  C   UNL A   1      39.745  31.135  34.127  1.00  0.00     0.031 A 
ATOM     46  C   UNL A   1      42.871  27.196  29.943  1.00  0.00     0.049 A 
ATOM     47  C   UNL A   1      40.926  30.223  34.257  1.00  0.00     0.074 A 
ATOM     48  C   UNL A   1      44.019  26.459  30.179  1.00  0.00     0.029 A 
ATOM     49  N   UNL A   1      42.545  27.824  31.136  1.00  0.00    -0.354 N 
ATOM     50  N   UNL A   1      41.499  29.482  33.340  1.00  0.00    -0.248 NA
ATOM     51  C   UNL A   1      41.532  30.120  35.589  1.00  0.00     0.031 C 
ATOM     52  C   UNL A   1      44.353  26.594  31.529  1.00  0.00     0.029 A 
ATOM     53  C   UNL A   1      43.455  27.469  32.119  1.00  0.00     0.049 A 
ATOM     54  H   UNL A   1      41.781  28.430  31.266  1.00  0.00     0.167 HD
ATOM     55  C   UNL A   1      42.546  28.836  33.981  1.00  0.00     0.074 A 
ATOM     56  C   UNL A   1      42.541  29.293  35.356  1.00  0.00     0.031 C 
ATOM     57  C   UNL A   1      43.428  27.939  33.479  1.00  0.00     0.031 A 
BRANCH  44  58
ATOM     58  C   UNL A   1      42.560  26.504  27.534  1.00  0.00    -0.014 A 
ATOM     59  C   UNL A   1      42.043  25.223  27.290  1.00  0.00     0.009 A 
ATOM     60  C   UNL A   1      43.456  27.060  26.604  1.00  0.00     0.009 A 
ATOM     61  C   UNL A   1      42.431  24.510  26.151  1.00  0.00     0.001 A 
ATOM     62  C   UNL A   1      43.818  26.359  25.452  1.00  0.00     0.001 A 
ATOM     63  C   UNL A   1      43.311  25.081  25.230  1.00  0.00     0.000 A 
ENDBRANCH  44  58
BRANCH  45  64
ATOM     64  C   UNL A   1      39.172  31.834  35.309  1.00  0.00    -0.014 A 
ATOM     65  C   UNL A   1      38.302  31.170  36.184  1.00  0.00     0.009 A 
ATOM     66  C   UNL A   1      39.513  33.172  35.580  1.00  0.00     0.009 A 
ATOM     67  C   UNL A   1      37.769  31.835  37.292  1.00  0.00     0.001 A 
ATOM     68  C   UNL A   1      39.014  33.821  36.709  1.00  0.00     0.001 A 
ATOM     69  C   UNL A   1      38.133  33.155  37.559  1.00  0.00     0.000 A 
ENDBRANCH  45  64
BRANCH  57  70
ATOM     70  C   UNL A   1      44.487  27.439  34.418  1.00  0.00    -0.014 A 
ATOM     71  C   UNL A   1      44.302  26.273  35.175  1.00  0.00     0.009 A 
ATOM     72  C   UNL A   1      45.697  28.141  34.528  1.00  0.00     0.009 A 
ATOM     73  C   UNL A   1      45.294  25.842  36.057  1.00  0.00     0.001 A 
ATOM     74  C   UNL A   1      46.700  27.690  35.385  1.00  0.00     0.001 A 
ATOM     75  C   UNL A   1      46.493  26.548  36.158  1.00  0.00     0.000 A 
ENDBRANCH  57  70
ENDBRANCH  31  32
ENDBRANCH  24  26
ENDBRANCH  23  24
ENDBRANCH  22  23
ENDBRANCH   1  22
TORSDOF 13
ENDMDL
