MODEL 1
REMARK VINA RESULT:     -11.6      0.000      0.000
REMARK SMILES CS(=O)(=O)c1ccc(/C=C(/C(=O)OCCOC(=O)c2ccc(-c3c4nc(c(-c5ccccc5)c5ccc([nH]5)c(-c5ccccc5)c5nc(c(-c6ccccc6)c6ccc3[nH]6)C=C5)C=C4)cc2)c2ccc(O)cc2)cc1
REMARK SMILES IDX 14 1 13 2 11 3 12 4 10 5 9 6 8 7 5 8 6 9 75 10 7 11 74 12
REMARK SMILES IDX 2 13 1 14 3 15 4 16 67 17 68 18 73 19 69 20 72 21 70 22
REMARK SMILES IDX 71 23 15 25 16 26 17 27 18 28 19 29 20 30 66 31 21 32 65 33
REMARK SMILES IDX 22 34 23 35 24 36 59 37 25 38 64 39 58 40 60 41 26 42 63 43
REMARK SMILES IDX 57 44 56 45 27 47 49 48 34 49 48 50 35 51 38 52 47 53 61 54
REMARK SMILES IDX 36 55 37 56 46 58 62 59 39 60 28 61 29 62 33 63 30 64 32 65
REMARK SMILES IDX 31 66 50 67 51 68 55 69 52 70 54 71 53 72 40 73 41 74 45 75
REMARK SMILES IDX 42 76 44 77 43 78
REMARK H PARENT 71 24 60 46 38 57
REMARK Flexibility Score: inf
ROOT
ATOM      1  C   UNL A   1      34.653  22.186  24.851  1.00  0.00     0.275 C 
ENDROOT
BRANCH   1   2
ATOM      2  O   UNL A   1      34.308  23.575  24.662  1.00  0.00    -0.458 OA
BRANCH   2   3
ATOM      3  C   UNL A   1      33.433  24.086  25.565  1.00  0.00     0.338 C 
ATOM      4  O   UNL A   1      33.209  23.629  26.678  1.00  0.00    -0.246 OA
BRANCH   3   5
ATOM      5  C   UNL A   1      32.782  25.336  25.069  1.00  0.00     0.067 C 
ATOM      6  C   UNL A   1      31.983  25.265  23.978  1.00  0.00     0.024 C 
BRANCH   6   7
ATOM      7  C   UNL A   1      31.028  26.283  23.470  1.00  0.00    -0.025 A 
ATOM      8  C   UNL A   1      29.185  28.319  22.857  1.00  0.00     0.067 A 
ATOM      9  C   UNL A   1      30.481  28.395  22.367  1.00  0.00     0.021 A 
ATOM     10  C   UNL A   1      28.764  27.193  23.567  1.00  0.00     0.021 A 
ATOM     11  C   UNL A   1      31.377  27.362  22.644  1.00  0.00     0.009 A 
ATOM     12  C   UNL A   1      29.687  26.187  23.877  1.00  0.00     0.009 A 
BRANCH   8  13
ATOM     13  S   UNL A   1      28.064  29.670  22.600  1.00  0.00     0.175 S 
ATOM     14  C   UNL A   1      28.837  31.018  23.459  1.00  0.00     0.163 C 
ATOM     15  O   UNL A   1      26.831  29.336  23.275  1.00  0.00    -0.224 OA
ATOM     16  O   UNL A   1      28.081  29.997  21.183  1.00  0.00    -0.224 OA
ENDBRANCH   8  13
ENDBRANCH   6   7
BRANCH   5  17
ATOM     17  C   UNL A   1      32.912  26.551  25.894  1.00  0.00    -0.011 A 
ATOM     18  C   UNL A   1      34.028  27.384  25.711  1.00  0.00     0.013 A 
ATOM     19  C   UNL A   1      31.903  26.936  26.787  1.00  0.00     0.013 A 
ATOM     20  C   UNL A   1      34.102  28.611  26.371  1.00  0.00     0.047 A 
ATOM     21  C   UNL A   1      31.988  28.158  27.459  1.00  0.00     0.047 A 
ATOM     22  C   UNL A   1      33.082  28.990  27.233  1.00  0.00     0.115 A 
BRANCH  22  23
ATOM     23  O   UNL A   1      33.196  30.201  27.844  1.00  0.00    -0.508 OA
ATOM     24  H   UNL A   1      33.721  30.290  28.615  1.00  0.00     0.293 HD
ENDBRANCH  22  23
ENDBRANCH   5  17
ENDBRANCH   3   5
ENDBRANCH   2   3
ENDBRANCH   1   2
BRANCH   1  25
ATOM     25  C   UNL A   1      36.136  21.951  24.563  1.00  0.00     0.275 C 
BRANCH  25  26
ATOM     26  O   UNL A   1      36.808  21.539  25.767  1.00  0.00    -0.458 OA
BRANCH  26  27
ATOM     27  C   UNL A   1      38.157  21.496  25.701  1.00  0.00     0.338 C 
ATOM     28  O   UNL A   1      38.846  20.673  25.117  1.00  0.00    -0.246 OA
BRANCH  27  29
ATOM     29  C   UNL A   1      38.746  22.639  26.423  1.00  0.00     0.060 A 
ATOM     30  C   UNL A   1      38.235  23.917  26.228  1.00  0.00     0.016 A 
ATOM     31  C   UNL A   1      39.926  22.468  27.146  1.00  0.00     0.016 A 
ATOM     32  C   UNL A   1      38.983  25.026  26.624  1.00  0.00     0.010 A 
ATOM     33  C   UNL A   1      40.606  23.585  27.649  1.00  0.00     0.010 A 
ATOM     34  C   UNL A   1      40.183  24.889  27.338  1.00  0.00    -0.014 A 
BRANCH  34  35
ATOM     35  C   UNL A   1      41.012  26.087  27.691  1.00  0.00     0.031 A 
ATOM     36  C   UNL A   1      40.504  27.119  28.676  1.00  0.00     0.074 A 
ATOM     37  C   UNL A   1      42.246  26.262  27.170  1.00  0.00     0.049 A 
ATOM     38  N   UNL A   1      40.959  28.323  28.925  1.00  0.00    -0.248 NA
ATOM     39  C   UNL A   1      39.315  26.761  29.467  1.00  0.00     0.031 C 
ATOM     40  C   UNL A   1      42.928  25.345  26.255  1.00  0.00     0.029 A 
ATOM     41  N   UNL A   1      43.158  27.276  27.352  1.00  0.00    -0.354 N 
ATOM     42  C   UNL A   1      40.067  28.893  29.829  1.00  0.00     0.074 A 
ATOM     43  C   UNL A   1      39.049  27.900  30.092  1.00  0.00     0.031 C 
ATOM     44  C   UNL A   1      44.170  25.792  26.024  1.00  0.00     0.029 A 
ATOM     45  C   UNL A   1      44.331  27.093  26.661  1.00  0.00     0.049 A 
ATOM     46  H   UNL A   1      42.987  28.059  27.925  1.00  0.00     0.167 HD
ATOM     47  C   UNL A   1      40.087  30.131  30.381  1.00  0.00     0.031 A 
ATOM     48  C   UNL A   1      45.400  27.894  26.495  1.00  0.00     0.031 A 
ATOM     49  C   UNL A   1      41.143  31.093  30.191  1.00  0.00     0.049 A 
ATOM     50  C   UNL A   1      45.396  29.268  27.095  1.00  0.00     0.074 A 
ATOM     51  C   UNL A   1      41.255  32.367  30.724  1.00  0.00     0.029 A 
ATOM     52  N   UNL A   1      42.283  30.876  29.435  1.00  0.00    -0.354 N 
ATOM     53  N   UNL A   1      44.489  29.834  27.852  1.00  0.00    -0.248 NA
ATOM     54  C   UNL A   1      46.549  30.125  26.786  1.00  0.00     0.031 C 
ATOM     55  C   UNL A   1      42.447  32.935  30.261  1.00  0.00     0.029 A 
ATOM     56  C   UNL A   1      43.098  31.995  29.478  1.00  0.00     0.049 A 
ATOM     57  H   UNL A   1      42.483  30.050  28.940  1.00  0.00     0.167 HD
ATOM     58  C   UNL A   1      44.959  31.113  28.109  1.00  0.00     0.074 A 
ATOM     59  C   UNL A   1      46.246  31.231  27.452  1.00  0.00     0.031 C 
ATOM     60  C   UNL A   1      44.370  32.107  28.816  1.00  0.00     0.031 A 
BRANCH  47  61
ATOM     61  C   UNL A   1      38.904  30.548  31.214  1.00  0.00    -0.014 A 
ATOM     62  C   UNL A   1      37.732  31.060  30.639  1.00  0.00     0.009 A 
ATOM     63  C   UNL A   1      38.951  30.364  32.606  1.00  0.00     0.009 A 
ATOM     64  C   UNL A   1      36.644  31.409  31.446  1.00  0.00     0.001 A 
ATOM     65  C   UNL A   1      37.854  30.687  33.406  1.00  0.00     0.001 A 
ATOM     66  C   UNL A   1      36.704  31.217  32.827  1.00  0.00     0.000 A 
ENDBRANCH  47  61
BRANCH  48  67
ATOM     67  C   UNL A   1      46.538  27.435  25.655  1.00  0.00    -0.014 A 
ATOM     68  C   UNL A   1      46.623  27.803  24.304  1.00  0.00     0.009 A 
ATOM     69  C   UNL A   1      47.560  26.649  26.212  1.00  0.00     0.009 A 
ATOM     70  C   UNL A   1      47.708  27.388  23.528  1.00  0.00     0.001 A 
ATOM     71  C   UNL A   1      48.659  26.266  25.443  1.00  0.00     0.001 A 
ATOM     72  C   UNL A   1      48.730  26.630  24.100  1.00  0.00     0.000 A 
ENDBRANCH  48  67
BRANCH  60  73
ATOM     73  C   UNL A   1      45.126  33.398  28.935  1.00  0.00    -0.014 A 
ATOM     74  C   UNL A   1      44.866  34.473  28.072  1.00  0.00     0.009 A 
ATOM     75  C   UNL A   1      46.102  33.546  29.934  1.00  0.00     0.009 A 
ATOM     76  C   UNL A   1      45.593  35.660  28.184  1.00  0.00     0.001 A 
ATOM     77  C   UNL A   1      46.811  34.741  30.059  1.00  0.00     0.001 A 
ATOM     78  C   UNL A   1      46.562  35.794  29.178  1.00  0.00     0.000 A 
ENDBRANCH  60  73
ENDBRANCH  34  35
ENDBRANCH  27  29
ENDBRANCH  26  27
ENDBRANCH  25  26
ENDBRANCH   1  25
TORSDOF 15
ENDMDL
MODEL 2
REMARK VINA RESULT:     -11.6      2.972      7.299
REMARK SMILES CS(=O)(=O)c1ccc(/C=C(/C(=O)OCCOC(=O)c2ccc(-c3c4nc(c(-c5ccccc5)c5ccc([nH]5)c(-c5ccccc5)c5nc(c(-c6ccccc6)c6ccc3[nH]6)C=C5)C=C4)cc2)c2ccc(O)cc2)cc1
REMARK SMILES IDX 14 1 13 2 11 3 12 4 10 5 9 6 8 7 5 8 6 9 75 10 7 11 74 12
REMARK SMILES IDX 2 13 1 14 3 15 4 16 67 17 68 18 73 19 69 20 72 21 70 22
REMARK SMILES IDX 71 23 15 25 16 26 17 27 18 28 19 29 20 30 66 31 21 32 65 33
REMARK SMILES IDX 22 34 23 35 24 36 59 37 25 38 64 39 58 40 60 41 26 42 63 43
REMARK SMILES IDX 57 44 56 45 27 47 49 48 34 49 48 50 35 51 38 52 47 53 61 54
REMARK SMILES IDX 36 55 37 56 46 58 62 59 39 60 28 61 29 62 33 63 30 64 32 65
REMARK SMILES IDX 31 66 50 67 51 68 55 69 52 70 54 71 53 72 40 73 41 74 45 75
REMARK SMILES IDX 42 76 44 77 43 78
REMARK H PARENT 71 24 60 46 38 57
REMARK Flexibility Score: inf
ROOT
ATOM      1  C   UNL A   1      33.124  27.547  25.413  1.00  0.00     0.275 C 
ENDROOT
BRANCH   1   2
ATOM      2  O   UNL A   1      33.929  26.929  24.387  1.00  0.00    -0.458 OA
BRANCH   2   3
ATOM      3  C   UNL A   1      33.264  26.088  23.553  1.00  0.00     0.338 C 
ATOM      4  O   UNL A   1      32.646  26.421  22.551  1.00  0.00    -0.246 OA
BRANCH   3   5
ATOM      5  C   UNL A   1      33.409  24.660  23.965  1.00  0.00     0.067 C 
ATOM      6  C   UNL A   1      32.328  23.848  23.891  1.00  0.00     0.024 C 
BRANCH   6   7
ATOM      7  C   UNL A   1      32.283  22.366  23.976  1.00  0.00    -0.025 A 
ATOM      8  C   UNL A   1      32.522  19.562  23.958  1.00  0.00     0.067 A 
ATOM      9  C   UNL A   1      32.531  20.245  25.167  1.00  0.00     0.021 A 
ATOM     10  C   UNL A   1      32.296  20.246  22.763  1.00  0.00     0.021 A 
ATOM     11  C   UNL A   1      32.374  21.632  25.168  1.00  0.00     0.009 A 
ATOM     12  C   UNL A   1      32.187  21.642  22.776  1.00  0.00     0.009 A 
BRANCH   8  13
ATOM     13  S   UNL A   1      32.821  17.814  23.931  1.00  0.00     0.175 S 
ATOM     14  C   UNL A   1      34.563  17.688  24.251  1.00  0.00     0.163 C 
ATOM     15  O   UNL A   1      32.562  17.357  22.585  1.00  0.00    -0.224 OA
ATOM     16  O   UNL A   1      32.131  17.228  25.070  1.00  0.00    -0.224 OA
ENDBRANCH   8  13
ENDBRANCH   6   7
BRANCH   5  17
ATOM     17  C   UNL A   1      34.765  24.168  24.271  1.00  0.00    -0.011 A 
ATOM     18  C   UNL A   1      35.267  24.319  25.575  1.00  0.00     0.013 A 
ATOM     19  C   UNL A   1      35.523  23.478  23.317  1.00  0.00     0.013 A 
ATOM     20  C   UNL A   1      36.483  23.733  25.930  1.00  0.00     0.047 A 
ATOM     21  C   UNL A   1      36.748  22.908  23.670  1.00  0.00     0.047 A 
ATOM     22  C   UNL A   1      37.210  23.030  24.978  1.00  0.00     0.115 A 
BRANCH  22  23
ATOM     23  O   UNL A   1      38.384  22.469  25.377  1.00  0.00    -0.508 OA
ATOM     24  H   UNL A   1      38.861  21.914  24.792  1.00  0.00     0.293 HD
ENDBRANCH  22  23
ENDBRANCH   5  17
ENDBRANCH   3   5
ENDBRANCH   2   3
ENDBRANCH   1   2
BRANCH   1  25
ATOM     25  C   UNL A   1      33.734  28.877  25.854  1.00  0.00     0.275 C 
BRANCH  25  26
ATOM     26  O   UNL A   1      34.054  28.827  27.257  1.00  0.00    -0.458 OA
BRANCH  26  27
ATOM     27  C   UNL A   1      34.508  29.979  27.797  1.00  0.00     0.338 C 
ATOM     28  O   UNL A   1      33.863  30.986  28.047  1.00  0.00    -0.246 OA
BRANCH  27  29
ATOM     29  C   UNL A   1      35.946  29.872  28.105  1.00  0.00     0.060 A 
ATOM     30  C   UNL A   1      36.886  30.134  27.115  1.00  0.00     0.016 A 
ATOM     31  C   UNL A   1      36.356  29.327  29.322  1.00  0.00     0.016 A 
ATOM     32  C   UNL A   1      38.204  29.711  27.287  1.00  0.00     0.010 A 
ATOM     33  C   UNL A   1      37.707  29.021  29.532  1.00  0.00     0.010 A 
ATOM     34  C   UNL A   1      38.645  29.143  28.492  1.00  0.00    -0.014 A 
BRANCH  34  35
ATOM     35  C   UNL A   1      40.045  28.626  28.636  1.00  0.00     0.031 A 
ATOM     36  C   UNL A   1      41.154  29.522  29.145  1.00  0.00     0.074 A 
ATOM     37  C   UNL A   1      40.349  27.342  28.349  1.00  0.00     0.049 A 
ATOM     38  N   UNL A   1      42.452  29.336  29.113  1.00  0.00    -0.248 NA
ATOM     39  C   UNL A   1      40.756  30.806  29.747  1.00  0.00     0.031 C 
ATOM     40  C   UNL A   1      39.404  26.315  27.906  1.00  0.00     0.029 A 
ATOM     41  N   UNL A   1      41.550  26.673  28.404  1.00  0.00    -0.354 N 
ATOM     42  C   UNL A   1      43.021  30.507  29.605  1.00  0.00     0.074 A 
ATOM     43  C   UNL A   1      41.928  31.394  29.938  1.00  0.00     0.031 C 
ATOM     44  C   UNL A   1      40.038  25.139  27.811  1.00  0.00     0.029 A 
ATOM     45  C   UNL A   1      41.460  25.348  28.052  1.00  0.00     0.049 A 
ATOM     46  H   UNL A   1      42.395  27.104  28.671  1.00  0.00     0.167 HD
ATOM     47  C   UNL A   1      44.331  30.819  29.758  1.00  0.00     0.031 A 
ATOM     48  C   UNL A   1      42.407  24.408  27.878  1.00  0.00     0.031 A 
ATOM     49  C   UNL A   1      45.422  29.910  29.510  1.00  0.00     0.049 A 
ATOM     50  C   UNL A   1      43.853  24.776  28.029  1.00  0.00     0.074 A 
ATOM     51  C   UNL A   1      46.782  30.134  29.653  1.00  0.00     0.029 A 
ATOM     52  N   UNL A   1      45.277  28.595  29.101  1.00  0.00    -0.354 N 
ATOM     53  N   UNL A   1      44.379  25.923  28.383  1.00  0.00    -0.248 NA
ATOM     54  C   UNL A   1      44.836  23.728  27.722  1.00  0.00     0.031 C 
ATOM     55  C   UNL A   1      47.461  28.965  29.295  1.00  0.00     0.029 A 
ATOM     56  C   UNL A   1      46.521  27.998  28.976  1.00  0.00     0.049 A 
ATOM     57  H   UNL A   1      44.417  28.149  28.926  1.00  0.00     0.167 HD
ATOM     58  C   UNL A   1      45.752  25.736  28.339  1.00  0.00     0.074 A 
ATOM     59  C   UNL A   1      45.979  24.357  27.954  1.00  0.00     0.031 C 
ATOM     60  C   UNL A   1      46.738  26.631  28.585  1.00  0.00     0.031 A 
BRANCH  47  61
ATOM     61  C   UNL A   1      44.675  32.226  30.170  1.00  0.00    -0.014 A 
ATOM     62  C   UNL A   1      44.966  32.561  31.500  1.00  0.00     0.009 A 
ATOM     63  C   UNL A   1      44.767  33.223  29.184  1.00  0.00     0.009 A 
ATOM     64  C   UNL A   1      45.308  33.875  31.838  1.00  0.00     0.001 A 
ATOM     65  C   UNL A   1      45.136  34.526  29.520  1.00  0.00     0.001 A 
ATOM     66  C   UNL A   1      45.399  34.853  30.847  1.00  0.00     0.000 A 
ENDBRANCH  47  61
BRANCH  48  67
ATOM     67  C   UNL A   1      42.013  23.036  27.462  1.00  0.00    -0.014 A 
ATOM     68  C   UNL A   1      41.528  22.116  28.402  1.00  0.00     0.009 A 
ATOM     69  C   UNL A   1      42.097  22.651  26.114  1.00  0.00     0.009 A 
ATOM     70  C   UNL A   1      41.137  20.836  28.000  1.00  0.00     0.001 A 
ATOM     71  C   UNL A   1      41.673  21.385  25.710  1.00  0.00     0.001 A 
ATOM     72  C   UNL A   1      41.199  20.476  26.653  1.00  0.00     0.000 A 
ENDBRANCH  48  67
BRANCH  60  73
ATOM     73  C   UNL A   1      48.151  26.138  28.467  1.00  0.00    -0.014 A 
ATOM     74  C   UNL A   1      48.841  25.640  29.582  1.00  0.00     0.009 A 
ATOM     75  C   UNL A   1      48.795  26.160  27.220  1.00  0.00     0.009 A 
ATOM     76  C   UNL A   1      50.162  25.204  29.458  1.00  0.00     0.001 A 
ATOM     77  C   UNL A   1      50.107  25.702  27.093  1.00  0.00     0.001 A 
ATOM     78  C   UNL A   1      50.792  25.233  28.214  1.00  0.00     0.000 A 
ENDBRANCH  60  73
ENDBRANCH  34  35
ENDBRANCH  27  29
ENDBRANCH  26  27
ENDBRANCH  25  26
ENDBRANCH   1  25
TORSDOF 15
ENDMDL
MODEL 3
REMARK VINA RESULT:     -11.6      1.287      2.448
REMARK SMILES CS(=O)(=O)c1ccc(/C=C(/C(=O)OCCOC(=O)c2ccc(-c3c4nc(c(-c5ccccc5)c5ccc([nH]5)c(-c5ccccc5)c5nc(c(-c6ccccc6)c6ccc3[nH]6)C=C5)C=C4)cc2)c2ccc(O)cc2)cc1
REMARK SMILES IDX 14 1 13 2 11 3 12 4 10 5 9 6 8 7 5 8 6 9 75 10 7 11 74 12
REMARK SMILES IDX 2 13 1 14 3 15 4 16 67 17 68 18 73 19 69 20 72 21 70 22
REMARK SMILES IDX 71 23 15 25 16 26 17 27 18 28 19 29 20 30 66 31 21 32 65 33
REMARK SMILES IDX 22 34 23 35 24 36 59 37 25 38 64 39 58 40 60 41 26 42 63 43
REMARK SMILES IDX 57 44 56 45 27 47 49 48 34 49 48 50 35 51 38 52 47 53 61 54
REMARK SMILES IDX 36 55 37 56 46 58 62 59 39 60 28 61 29 62 33 63 30 64 32 65
REMARK SMILES IDX 31 66 50 67 51 68 55 69 52 70 54 71 53 72 40 73 41 74 45 75
REMARK SMILES IDX 42 76 44 77 43 78
REMARK H PARENT 71 24 60 46 38 57
REMARK Flexibility Score: inf
ROOT
ATOM      1  C   UNL A   1      35.018  21.300  26.382  1.00  0.00     0.275 C 
ENDROOT
BRANCH   1   2
ATOM      2  O   UNL A   1      34.657  22.695  26.460  1.00  0.00    -0.458 OA
BRANCH   2   3
ATOM      3  C   UNL A   1      33.410  22.949  26.934  1.00  0.00     0.338 C 
ATOM      4  O   UNL A   1      32.978  22.598  28.024  1.00  0.00    -0.246 OA
BRANCH   3   5
ATOM      5  C   UNL A   1      32.604  23.771  25.982  1.00  0.00     0.067 C 
ATOM      6  C   UNL A   1      31.761  24.705  26.481  1.00  0.00     0.024 C 
BRANCH   6   7
ATOM      7  C   UNL A   1      31.078  25.808  25.756  1.00  0.00    -0.025 A 
ATOM      8  C   UNL A   1      30.084  27.908  24.170  1.00  0.00     0.067 A 
ATOM      9  C   UNL A   1      29.436  26.680  24.169  1.00  0.00     0.021 A 
ATOM     10  C   UNL A   1      31.163  28.137  25.026  1.00  0.00     0.021 A 
ATOM     11  C   UNL A   1      29.915  25.657  24.988  1.00  0.00     0.009 A 
ATOM     12  C   UNL A   1      31.659  27.085  25.807  1.00  0.00     0.009 A 
BRANCH   8  13
ATOM     13  S   UNL A   1      29.552  29.187  23.062  1.00  0.00     0.175 S 
ATOM     14  C   UNL A   1      27.826  28.839  22.827  1.00  0.00     0.163 C 
ATOM     15  O   UNL A   1      30.241  28.980  21.809  1.00  0.00    -0.224 OA
ATOM     16  O   UNL A   1      29.642  30.455  23.769  1.00  0.00    -0.224 OA
ENDBRANCH   8  13
ENDBRANCH   6   7
BRANCH   5  17
ATOM     17  C   UNL A   1      32.894  23.634  24.543  1.00  0.00    -0.011 A 
ATOM     18  C   UNL A   1      32.401  22.516  23.850  1.00  0.00     0.013 A 
ATOM     19  C   UNL A   1      33.571  24.637  23.838  1.00  0.00     0.013 A 
ATOM     20  C   UNL A   1      32.533  22.435  22.464  1.00  0.00     0.047 A 
ATOM     21  C   UNL A   1      33.718  24.546  22.452  1.00  0.00     0.047 A 
ATOM     22  C   UNL A   1      33.185  23.451  21.776  1.00  0.00     0.115 A 
BRANCH  22  23
ATOM     23  O   UNL A   1      33.278  23.331  20.424  1.00  0.00    -0.508 OA
ATOM     24  H   UNL A   1      34.109  23.158  20.024  1.00  0.00     0.293 HD
ENDBRANCH  22  23
ENDBRANCH   5  17
ENDBRANCH   3   5
ENDBRANCH   2   3
ENDBRANCH   1   2
BRANCH   1  25
ATOM     25  C   UNL A   1      35.636  20.974  25.023  1.00  0.00     0.275 C 
BRANCH  25  26
ATOM     26  O   UNL A   1      36.796  21.796  24.803  1.00  0.00    -0.458 OA
BRANCH  26  27
ATOM     27  C   UNL A   1      37.941  21.361  25.373  1.00  0.00     0.338 C 
ATOM     28  O   UNL A   1      38.432  20.245  25.294  1.00  0.00    -0.246 OA
BRANCH  27  29
ATOM     29  C   UNL A   1      38.594  22.454  26.118  1.00  0.00     0.060 A 
ATOM     30  C   UNL A   1      38.032  23.725  26.115  1.00  0.00     0.016 A 
ATOM     31  C   UNL A   1      39.865  22.260  26.659  1.00  0.00     0.016 A 
ATOM     32  C   UNL A   1      38.799  24.819  26.514  1.00  0.00     0.010 A 
ATOM     33  C   UNL A   1      40.580  23.350  27.173  1.00  0.00     0.010 A 
ATOM     34  C   UNL A   1      40.088  24.661  27.046  1.00  0.00    -0.014 A 
BRANCH  34  35
ATOM     35  C   UNL A   1      40.929  25.850  27.401  1.00  0.00     0.031 A 
ATOM     36  C   UNL A   1      40.448  26.865  28.416  1.00  0.00     0.074 A 
ATOM     37  C   UNL A   1      42.149  26.033  26.852  1.00  0.00     0.049 A 
ATOM     38  N   UNL A   1      40.912  28.064  28.676  1.00  0.00    -0.248 NA
ATOM     39  C   UNL A   1      39.278  26.495  29.231  1.00  0.00     0.031 C 
ATOM     40  C   UNL A   1      42.806  25.132  25.903  1.00  0.00     0.029 A 
ATOM     41  N   UNL A   1      43.068  27.042  27.029  1.00  0.00    -0.354 N 
ATOM     42  C   UNL A   1      40.044  28.619  29.612  1.00  0.00     0.074 A 
ATOM     43  C   UNL A   1      39.030  27.623  29.883  1.00  0.00     0.031 C 
ATOM     44  C   UNL A   1      44.043  25.581  25.649  1.00  0.00     0.029 A 
ATOM     45  C   UNL A   1      44.222  26.869  26.305  1.00  0.00     0.049 A 
ATOM     46  H   UNL A   1      42.913  27.815  27.620  1.00  0.00     0.167 HD
ATOM     47  C   UNL A   1      40.080  29.846  30.186  1.00  0.00     0.031 A 
ATOM     48  C   UNL A   1      45.289  27.671  26.127  1.00  0.00     0.031 A 
ATOM     49  C   UNL A   1      41.134  30.810  29.987  1.00  0.00     0.049 A 
ATOM     50  C   UNL A   1      45.303  29.034  26.751  1.00  0.00     0.074 A 
ATOM     51  C   UNL A   1      41.262  32.074  30.540  1.00  0.00     0.029 A 
ATOM     52  N   UNL A   1      42.253  30.605  29.198  1.00  0.00    -0.354 N 
ATOM     53  N   UNL A   1      44.417  29.588  27.541  1.00  0.00    -0.248 NA
ATOM     54  C   UNL A   1      46.450  29.895  26.430  1.00  0.00     0.031 C 
ATOM     55  C   UNL A   1      42.444  32.648  30.057  1.00  0.00     0.029 A 
ATOM     56  C   UNL A   1      43.073  31.722  29.241  1.00  0.00     0.049 A 
ATOM     57  H   UNL A   1      42.440  29.787  28.684  1.00  0.00     0.167 HD
ATOM     58  C   UNL A   1      44.896  30.861  27.810  1.00  0.00     0.074 A 
ATOM     59  C   UNL A   1      46.166  30.988  27.123  1.00  0.00     0.031 C 
ATOM     60  C   UNL A   1      44.328  31.843  28.550  1.00  0.00     0.031 A 
BRANCH  47  61
ATOM     61  C   UNL A   1      38.920  30.250  31.056  1.00  0.00    -0.014 A 
ATOM     62  C   UNL A   1      38.929  30.058  32.445  1.00  0.00     0.009 A 
ATOM     63  C   UNL A   1      37.818  30.894  30.468  1.00  0.00     0.009 A 
ATOM     64  C   UNL A   1      37.842  30.473  33.222  1.00  0.00     0.001 A 
ATOM     65  C   UNL A   1      36.747  31.332  31.249  1.00  0.00     0.001 A 
ATOM     66  C   UNL A   1      36.757  31.114  32.624  1.00  0.00     0.000 A 
ENDBRANCH  47  61
BRANCH  48  67
ATOM     67  C   UNL A   1      46.404  27.226  25.250  1.00  0.00    -0.014 A 
ATOM     68  C   UNL A   1      46.642  27.856  24.020  1.00  0.00     0.009 A 
ATOM     69  C   UNL A   1      47.254  26.184  25.656  1.00  0.00     0.009 A 
ATOM     70  C   UNL A   1      47.707  27.448  23.213  1.00  0.00     0.001 A 
ATOM     71  C   UNL A   1      48.337  25.802  24.864  1.00  0.00     0.001 A 
ATOM     72  C   UNL A   1      48.560  26.430  23.640  1.00  0.00     0.000 A 
ENDBRANCH  48  67
BRANCH  60  73
ATOM     73  C   UNL A   1      45.089  33.131  28.673  1.00  0.00    -0.014 A 
ATOM     74  C   UNL A   1      44.847  34.203  27.801  1.00  0.00     0.009 A 
ATOM     75  C   UNL A   1      46.052  33.277  29.684  1.00  0.00     0.009 A 
ATOM     76  C   UNL A   1      45.579  35.386  27.918  1.00  0.00     0.001 A 
ATOM     77  C   UNL A   1      46.766  34.469  29.813  1.00  0.00     0.001 A 
ATOM     78  C   UNL A   1      46.535  35.519  28.925  1.00  0.00     0.000 A 
ENDBRANCH  60  73
ENDBRANCH  34  35
ENDBRANCH  27  29
ENDBRANCH  26  27
ENDBRANCH  25  26
ENDBRANCH   1  25
TORSDOF 15
ENDMDL
