MODEL 1
REMARK VINA RESULT:     -12.4      0.000      0.000
REMARK SMILES COc1ccc2[nH]cc([C@H](C(=O)OCCOC(=O)c3ccc(-c4c5nc(c(-c6ccccc6)c6ccc([nH]6)c(-c6ccccc6)c6nc(c(-c7ccccc7)c7ccc4[nH]7)C=C6)C=C5)cc3)[NH+]3CC[NH+](Cc4cccc5ccccc45)CC3)c2c1
REMARK SMILES IDX 14 1 13 2 11 3 12 4 10 5 9 6 3 7 4 8 85 9 5 10 84 11 6 12
REMARK SMILES IDX 7 13 8 14 2 16 1 17 67 18 68 19 83 20 69 22 82 23 70 24
REMARK SMILES IDX 71 26 72 27 73 28 81 29 74 30 76 31 80 32 75 33 77 34 79 35
REMARK SMILES IDX 78 36 15 37 16 38 17 39 18 40 19 41 20 42 66 43 21 44 65 45
REMARK SMILES IDX 22 46 23 47 24 48 59 49 25 50 64 51 58 52 60 53 26 54 63 55
REMARK SMILES IDX 57 56 56 57 27 59 49 60 34 61 48 62 35 63 38 64 47 65 61 66
REMARK SMILES IDX 36 67 37 68 46 70 62 71 39 72 28 73 29 74 33 75 30 76 32 77
REMARK SMILES IDX 31 78 50 79 51 80 55 81 52 82 54 83 53 84 40 85 41 86 45 87
REMARK SMILES IDX 42 88 44 89 43 90
REMARK H PARENT 7 15 67 21 70 25 60 58 38 69
REMARK Flexibility Score: inf
ROOT
ATOM      1  C   UNL A   1      31.897  30.173  26.816  1.00  0.00     0.274 C 
ENDROOT
BRANCH   1   2
ATOM      2  O   UNL A   1      32.464  28.855  26.954  1.00  0.00    -0.457 OA
BRANCH   2   3
ATOM      3  C   UNL A   1      32.880  28.176  25.855  1.00  0.00     0.370 C 
ATOM      4  O   UNL A   1      34.065  27.963  25.607  1.00  0.00    -0.245 OA
BRANCH   3   5
ATOM      5  C   UNL A   1      31.700  27.643  24.995  1.00  0.00     0.328 C 
BRANCH   5   6
ATOM      6  C   UNL A   1      31.439  28.450  23.727  1.00  0.00     0.046 A 
ATOM      7  C   UNL A   1      27.762  29.147  22.892  1.00  0.00     0.119 A 
ATOM      8  C   UNL A   1      28.024  29.945  21.797  1.00  0.00     0.048 A 
ATOM      9  C   UNL A   1      28.829  28.523  23.511  1.00  0.00     0.057 A 
ATOM     10  C   UNL A   1      29.332  30.212  21.351  1.00  0.00     0.030 A 
ATOM     11  C   UNL A   1      30.165  28.796  23.158  1.00  0.00     0.013 A 
ATOM     12  C   UNL A   1      30.385  29.631  22.066  1.00  0.00     0.046 A 
ATOM     13  N   UNL A   1      31.745  29.731  21.904  1.00  0.00    -0.361 N 
ATOM     14  C   UNL A   1      32.388  29.025  22.888  1.00  0.00     0.094 A 
ATOM     15  H   UNL A   1      32.192  30.235  21.188  1.00  0.00     0.166 HD
BRANCH   7  16
ATOM     16  O   UNL A   1      26.554  28.872  23.469  1.00  0.00    -0.497 OA
ATOM     17  C   UNL A   1      26.346  27.567  23.976  1.00  0.00     0.278 C 
ENDBRANCH   7  16
ENDBRANCH   5   6
BRANCH   5  18
ATOM     18  N   UNL A   1      31.721  26.179  24.769  1.00  0.00    -0.310 N 
ATOM     19  C   UNL A   1      32.337  25.576  23.589  1.00  0.00     0.325 C 
ATOM     20  C   UNL A   1      31.798  25.361  25.972  1.00  0.00     0.325 C 
ATOM     21  H   UNL A   1      30.765  26.148  24.412  1.00  0.00     0.349 HD
ATOM     22  C   UNL A   1      33.518  24.571  23.779  1.00  0.00     0.324 C 
ATOM     23  C   UNL A   1      33.074  24.496  26.150  1.00  0.00     0.324 C 
ATOM     24  N   UNL A   1      33.554  23.747  24.988  1.00  0.00    -0.322 N 
ATOM     25  H   UNL A   1      34.536  23.549  25.184  1.00  0.00     0.348 HD
BRANCH  24  26
ATOM     26  C   UNL A   1      33.070  22.371  24.834  1.00  0.00     0.300 C 
BRANCH  26  27
ATOM     27  C   UNL A   1      34.148  21.344  24.554  1.00  0.00     0.014 A 
ATOM     28  C   UNL A   1      35.479  21.730  24.796  1.00  0.00     0.010 A 
ATOM     29  C   UNL A   1      33.841  19.982  24.288  1.00  0.00    -0.010 A 
ATOM     30  C   UNL A   1      36.465  20.772  24.978  1.00  0.00     0.001 A 
ATOM     31  C   UNL A   1      34.833  19.014  24.567  1.00  0.00    -0.018 A 
ATOM     32  C   UNL A   1      32.587  19.526  23.812  1.00  0.00     0.009 A 
ATOM     33  C   UNL A   1      36.126  19.422  24.928  1.00  0.00     0.009 A 
ATOM     34  C   UNL A   1      34.503  17.650  24.511  1.00  0.00     0.009 A 
ATOM     35  C   UNL A   1      32.297  18.166  23.700  1.00  0.00     0.001 A 
ATOM     36  C   UNL A   1      33.244  17.228  24.084  1.00  0.00     0.001 A 
ENDBRANCH  26  27
ENDBRANCH  24  26
ENDBRANCH   5  18
ENDBRANCH   3   5
ENDBRANCH   2   3
ENDBRANCH   1   2
BRANCH   1  37
ATOM     37  C   UNL A   1      32.898  31.212  27.378  1.00  0.00     0.275 C 
BRANCH  37  38
ATOM     38  O   UNL A   1      34.316  30.864  27.272  1.00  0.00    -0.458 OA
BRANCH  38  39
ATOM     39  C   UNL A   1      35.005  30.983  28.426  1.00  0.00     0.338 C 
ATOM     40  O   UNL A   1      34.661  31.712  29.344  1.00  0.00    -0.246 OA
BRANCH  39  41
ATOM     41  C   UNL A   1      36.195  30.142  28.654  1.00  0.00     0.060 A 
ATOM     42  C   UNL A   1      37.070  30.033  27.560  1.00  0.00     0.016 A 
ATOM     43  C   UNL A   1      36.550  29.554  29.865  1.00  0.00     0.016 A 
ATOM     44  C   UNL A   1      38.354  29.539  27.723  1.00  0.00     0.010 A 
ATOM     45  C   UNL A   1      37.844  29.013  30.019  1.00  0.00     0.010 A 
ATOM     46  C   UNL A   1      38.780  29.080  28.974  1.00  0.00    -0.014 A 
BRANCH  46  47
ATOM     47  C   UNL A   1      40.209  28.670  29.069  1.00  0.00     0.031 A 
ATOM     48  C   UNL A   1      40.603  27.359  28.492  1.00  0.00     0.074 A 
ATOM     49  C   UNL A   1      41.174  29.530  29.458  1.00  0.00     0.049 A 
ATOM     50  N   UNL A   1      41.799  26.857  28.373  1.00  0.00    -0.248 NA
ATOM     51  C   UNL A   1      39.513  26.484  28.038  1.00  0.00     0.031 C 
ATOM     52  C   UNL A   1      40.917  30.812  30.073  1.00  0.00     0.029 A 
ATOM     53  N   UNL A   1      42.542  29.525  29.323  1.00  0.00    -0.354 N 
ATOM     54  C   UNL A   1      41.604  25.574  27.900  1.00  0.00     0.074 A 
ATOM     55  C   UNL A   1      40.183  25.399  27.686  1.00  0.00     0.031 C 
ATOM     56  C   UNL A   1      42.021  31.571  30.039  1.00  0.00     0.029 A 
ATOM     57  C   UNL A   1      43.134  30.739  29.623  1.00  0.00     0.049 A 
ATOM     58  H   UNL A   1      43.053  28.731  29.040  1.00  0.00     0.167 HD
ATOM     59  C   UNL A   1      42.534  24.606  27.750  1.00  0.00     0.031 A 
ATOM     60  C   UNL A   1      44.429  31.123  29.648  1.00  0.00     0.031 A 
ATOM     61  C   UNL A   1      43.925  24.782  28.068  1.00  0.00     0.049 A 
ATOM     62  C   UNL A   1      45.439  30.024  29.497  1.00  0.00     0.074 A 
ATOM     63  C   UNL A   1      44.936  23.841  28.057  1.00  0.00     0.029 A 
ATOM     64  N   UNL A   1      44.497  25.981  28.475  1.00  0.00    -0.354 N 
ATOM     65  N   UNL A   1      45.240  28.776  29.150  1.00  0.00    -0.248 NA
ATOM     66  C   UNL A   1      46.827  30.344  29.852  1.00  0.00     0.031 C 
ATOM     67  C   UNL A   1      46.109  24.458  28.506  1.00  0.00     0.029 A 
ATOM     68  C   UNL A   1      45.847  25.803  28.722  1.00  0.00     0.049 A 
ATOM     69  H   UNL A   1      44.013  26.833  28.574  1.00  0.00     0.167 HD
ATOM     70  C   UNL A   1      46.466  28.148  29.284  1.00  0.00     0.074 A 
ATOM     71  C   UNL A   1      47.416  29.169  29.683  1.00  0.00     0.031 C 
ATOM     72  C   UNL A   1      46.768  26.837  29.122  1.00  0.00     0.031 A 
BRANCH  59  73
ATOM     73  C   UNL A   1      42.011  23.253  27.382  1.00  0.00    -0.014 A 
ATOM     74  C   UNL A   1      41.494  22.373  28.346  1.00  0.00     0.009 A 
ATOM     75  C   UNL A   1      42.123  22.822  26.051  1.00  0.00     0.009 A 
ATOM     76  C   UNL A   1      41.139  21.072  27.987  1.00  0.00     0.001 A 
ATOM     77  C   UNL A   1      41.737  21.532  25.691  1.00  0.00     0.001 A 
ATOM     78  C   UNL A   1      41.258  20.654  26.661  1.00  0.00     0.000 A 
ENDBRANCH  59  73
BRANCH  60  79
ATOM     79  C   UNL A   1      44.850  32.515  30.013  1.00  0.00    -0.014 A 
ATOM     80  C   UNL A   1      45.087  33.492  29.030  1.00  0.00     0.009 A 
ATOM     81  C   UNL A   1      45.057  32.874  31.356  1.00  0.00     0.009 A 
ATOM     82  C   UNL A   1      45.507  34.782  29.386  1.00  0.00     0.001 A 
ATOM     83  C   UNL A   1      45.421  34.175  31.714  1.00  0.00     0.001 A 
ATOM     84  C   UNL A   1      45.655  35.127  30.729  1.00  0.00     0.000 A 
ENDBRANCH  60  79
BRANCH  72  85
ATOM     85  C   UNL A   1      48.207  26.462  29.315  1.00  0.00    -0.014 A 
ATOM     86  C   UNL A   1      49.120  26.455  28.250  1.00  0.00     0.009 A 
ATOM     87  C   UNL A   1      48.647  26.113  30.600  1.00  0.00     0.009 A 
ATOM     88  C   UNL A   1      50.442  26.065  28.464  1.00  0.00     0.001 A 
ATOM     89  C   UNL A   1      49.976  25.757  30.817  1.00  0.00     0.001 A 
ATOM     90  C   UNL A   1      50.869  25.721  29.747  1.00  0.00     0.000 A 
ENDBRANCH  72  85
ENDBRANCH  46  47
ENDBRANCH  39  41
ENDBRANCH  38  39
ENDBRANCH  37  38
ENDBRANCH   1  37
TORSDOF 16
ENDMDL
MODEL 2
REMARK VINA RESULT:     -12.3      1.155      2.215
REMARK SMILES COc1ccc2[nH]cc([C@H](C(=O)OCCOC(=O)c3ccc(-c4c5nc(c(-c6ccccc6)c6ccc([nH]6)c(-c6ccccc6)c6nc(c(-c7ccccc7)c7ccc4[nH]7)C=C6)C=C5)cc3)[NH+]3CC[NH+](Cc4cccc5ccccc45)CC3)c2c1
REMARK SMILES IDX 14 1 13 2 11 3 12 4 10 5 9 6 3 7 4 8 85 9 5 10 84 11 6 12
REMARK SMILES IDX 7 13 8 14 2 16 1 17 67 18 68 19 83 20 69 22 82 23 70 24
REMARK SMILES IDX 71 26 72 27 73 28 81 29 74 30 76 31 80 32 75 33 77 34 79 35
REMARK SMILES IDX 78 36 15 37 16 38 17 39 18 40 19 41 20 42 66 43 21 44 65 45
REMARK SMILES IDX 22 46 23 47 24 48 59 49 25 50 64 51 58 52 60 53 26 54 63 55
REMARK SMILES IDX 57 56 56 57 27 59 49 60 34 61 48 62 35 63 38 64 47 65 61 66
REMARK SMILES IDX 36 67 37 68 46 70 62 71 39 72 28 73 29 74 33 75 30 76 32 77
REMARK SMILES IDX 31 78 50 79 51 80 55 81 52 82 54 83 53 84 40 85 41 86 45 87
REMARK SMILES IDX 42 88 44 89 43 90
REMARK H PARENT 7 15 67 21 70 25 60 58 38 69
REMARK Flexibility Score: inf
ROOT
ATOM      1  C   UNL A   1      32.258  29.552  26.753  1.00  0.00     0.274 C 
ENDROOT
BRANCH   1   2
ATOM      2  O   UNL A   1      32.233  29.975  25.376  1.00  0.00    -0.457 OA
BRANCH   2   3
ATOM      3  C   UNL A   1      32.404  29.067  24.382  1.00  0.00     0.370 C 
ATOM      4  O   UNL A   1      33.081  29.288  23.380  1.00  0.00    -0.245 OA
BRANCH   3   5
ATOM      5  C   UNL A   1      31.714  27.707  24.685  1.00  0.00     0.328 C 
BRANCH   5   6
ATOM      6  C   UNL A   1      30.261  27.631  24.229  1.00  0.00     0.046 A 
ATOM      7  C   UNL A   1      28.842  30.780  22.564  1.00  0.00     0.119 A 
ATOM      8  C   UNL A   1      27.619  30.224  22.249  1.00  0.00     0.048 A 
ATOM      9  C   UNL A   1      29.722  30.027  23.319  1.00  0.00     0.057 A 
ATOM     10  C   UNL A   1      27.280  28.901  22.589  1.00  0.00     0.030 A 
ATOM     11  C   UNL A   1      29.475  28.679  23.637  1.00  0.00     0.013 A 
ATOM     12  C   UNL A   1      28.239  28.147  23.273  1.00  0.00     0.046 A 
ATOM     13  N   UNL A   1      28.221  26.842  23.701  1.00  0.00    -0.361 N 
ATOM     14  C   UNL A   1      29.423  26.522  24.279  1.00  0.00     0.094 A 
ATOM     15  H   UNL A   1      27.459  26.228  23.607  1.00  0.00     0.166 HD
BRANCH   7  16
ATOM     16  O   UNL A   1      29.321  32.015  22.229  1.00  0.00    -0.497 OA
ATOM     17  C   UNL A   1      28.784  33.137  22.903  1.00  0.00     0.278 C 
ENDBRANCH   7  16
ENDBRANCH   5   6
BRANCH   5  18
ATOM     18  N   UNL A   1      32.515  26.518  24.308  1.00  0.00    -0.310 N 
ATOM     19  C   UNL A   1      32.546  25.304  25.120  1.00  0.00     0.325 C 
ATOM     20  C   UNL A   1      32.657  26.290  22.876  1.00  0.00     0.325 C 
ATOM     21  H   UNL A   1      33.389  26.904  24.667  1.00  0.00     0.349 HD
ATOM     22  C   UNL A   1      32.065  23.958  24.490  1.00  0.00     0.324 C 
ATOM     23  C   UNL A   1      32.026  24.990  22.308  1.00  0.00     0.324 C 
ATOM     24  N   UNL A   1      32.244  23.748  23.052  1.00  0.00    -0.322 N 
ATOM     25  H   UNL A   1      31.500  23.120  22.748  1.00  0.00     0.348 HD
BRANCH  24  26
ATOM     26  C   UNL A   1      33.402  22.935  22.667  1.00  0.00     0.300 C 
BRANCH  26  27
ATOM     27  C   UNL A   1      33.923  22.015  23.752  1.00  0.00     0.014 A 
ATOM     28  C   UNL A   1      33.242  20.800  23.944  1.00  0.00     0.010 A 
ATOM     29  C   UNL A   1      35.172  22.238  24.393  1.00  0.00    -0.010 A 
ATOM     30  C   UNL A   1      33.865  19.740  24.585  1.00  0.00     0.001 A 
ATOM     31  C   UNL A   1      35.831  21.124  24.962  1.00  0.00    -0.018 A 
ATOM     32  C   UNL A   1      35.825  23.494  24.452  1.00  0.00     0.009 A 
ATOM     33  C   UNL A   1      35.176  19.885  25.032  1.00  0.00     0.009 A 
ATOM     34  C   UNL A   1      37.151  21.262  25.423  1.00  0.00     0.009 A 
ATOM     35  C   UNL A   1      37.112  23.626  24.975  1.00  0.00     0.001 A 
ATOM     36  C   UNL A   1      37.788  22.503  25.426  1.00  0.00     0.001 A 
ENDBRANCH  26  27
ENDBRANCH  24  26
ENDBRANCH   5  18
ENDBRANCH   3   5
ENDBRANCH   2   3
ENDBRANCH   1   2
BRANCH   1  37
ATOM     37  C   UNL A   1      33.724  29.552  27.252  1.00  0.00     0.275 C 
BRANCH  37  38
ATOM     38  O   UNL A   1      34.373  30.861  27.345  1.00  0.00    -0.458 OA
BRANCH  38  39
ATOM     39  C   UNL A   1      35.128  31.030  28.450  1.00  0.00     0.338 C 
ATOM     40  O   UNL A   1      34.846  31.811  29.346  1.00  0.00    -0.246 OA
BRANCH  39  41
ATOM     41  C   UNL A   1      36.318  30.184  28.655  1.00  0.00     0.060 A 
ATOM     42  C   UNL A   1      37.208  30.127  27.569  1.00  0.00     0.016 A 
ATOM     43  C   UNL A   1      36.660  29.543  29.843  1.00  0.00     0.016 A 
ATOM     44  C   UNL A   1      38.491  29.632  27.726  1.00  0.00     0.010 A 
ATOM     45  C   UNL A   1      37.955  29.000  29.989  1.00  0.00     0.010 A 
ATOM     46  C   UNL A   1      38.903  29.117  28.960  1.00  0.00    -0.014 A 
BRANCH  46  47
ATOM     47  C   UNL A   1      40.333  28.709  29.055  1.00  0.00     0.031 A 
ATOM     48  C   UNL A   1      40.727  27.397  28.480  1.00  0.00     0.074 A 
ATOM     49  C   UNL A   1      41.297  29.570  29.442  1.00  0.00     0.049 A 
ATOM     50  N   UNL A   1      41.924  26.896  28.361  1.00  0.00    -0.248 NA
ATOM     51  C   UNL A   1      39.638  26.521  28.028  1.00  0.00     0.031 C 
ATOM     52  C   UNL A   1      41.040  30.853  30.055  1.00  0.00     0.029 A 
ATOM     53  N   UNL A   1      42.666  29.566  29.306  1.00  0.00    -0.354 N 
ATOM     54  C   UNL A   1      41.730  25.612  27.890  1.00  0.00     0.074 A 
ATOM     55  C   UNL A   1      40.309  25.436  27.677  1.00  0.00     0.031 C 
ATOM     56  C   UNL A   1      42.143  31.613  30.019  1.00  0.00     0.029 A 
ATOM     57  C   UNL A   1      43.257  30.781  29.604  1.00  0.00     0.049 A 
ATOM     58  H   UNL A   1      43.177  28.772  29.024  1.00  0.00     0.167 HD
ATOM     59  C   UNL A   1      42.661  24.644  27.741  1.00  0.00     0.031 A 
ATOM     60  C   UNL A   1      44.551  31.166  29.627  1.00  0.00     0.031 A 
ATOM     61  C   UNL A   1      44.051  24.822  28.058  1.00  0.00     0.049 A 
ATOM     62  C   UNL A   1      45.562  30.067  29.478  1.00  0.00     0.074 A 
ATOM     63  C   UNL A   1      45.063  23.882  28.048  1.00  0.00     0.029 A 
ATOM     64  N   UNL A   1      44.623  26.022  28.463  1.00  0.00    -0.354 N 
ATOM     65  N   UNL A   1      45.364  28.818  29.133  1.00  0.00    -0.248 NA
ATOM     66  C   UNL A   1      46.950  30.390  29.831  1.00  0.00     0.031 C 
ATOM     67  C   UNL A   1      46.236  24.500  28.495  1.00  0.00     0.029 A 
ATOM     68  C   UNL A   1      45.973  25.845  28.710  1.00  0.00     0.049 A 
ATOM     69  H   UNL A   1      44.138  26.874  28.560  1.00  0.00     0.167 HD
ATOM     70  C   UNL A   1      46.590  28.192  29.267  1.00  0.00     0.074 A 
ATOM     71  C   UNL A   1      47.540  29.215  29.664  1.00  0.00     0.031 C 
ATOM     72  C   UNL A   1      46.894  26.881  29.107  1.00  0.00     0.031 A 
BRANCH  59  73
ATOM     73  C   UNL A   1      42.138  23.290  27.375  1.00  0.00    -0.014 A 
ATOM     74  C   UNL A   1      42.081  22.857  26.042  1.00  0.00     0.009 A 
ATOM     75  C   UNL A   1      41.609  22.472  28.385  1.00  0.00     0.009 A 
ATOM     76  C   UNL A   1      41.465  21.645  25.725  1.00  0.00     0.001 A 
ATOM     77  C   UNL A   1      41.024  21.248  28.068  1.00  0.00     0.001 A 
ATOM     78  C   UNL A   1      40.941  20.841  26.739  1.00  0.00     0.000 A 
ENDBRANCH  59  73
BRANCH  60  79
ATOM     79  C   UNL A   1      44.972  32.558  29.990  1.00  0.00    -0.014 A 
ATOM     80  C   UNL A   1      45.134  32.951  31.330  1.00  0.00     0.009 A 
ATOM     81  C   UNL A   1      45.181  33.529  28.994  1.00  0.00     0.009 A 
ATOM     82  C   UNL A   1      45.502  34.265  31.654  1.00  0.00     0.001 A 
ATOM     83  C   UNL A   1      45.602  34.822  29.314  1.00  0.00     0.001 A 
ATOM     84  C   UNL A   1      45.754  35.194  30.645  1.00  0.00     0.000 A 
ENDBRANCH  60  79
BRANCH  72  85
ATOM     85  C   UNL A   1      48.332  26.507  29.300  1.00  0.00    -0.014 A 
ATOM     86  C   UNL A   1      49.264  26.585  28.255  1.00  0.00     0.009 A 
ATOM     87  C   UNL A   1      48.754  26.072  30.565  1.00  0.00     0.009 A 
ATOM     88  C   UNL A   1      50.587  26.193  28.465  1.00  0.00     0.001 A 
ATOM     89  C   UNL A   1      50.083  25.714  30.781  1.00  0.00     0.001 A 
ATOM     90  C   UNL A   1      50.994  25.764  29.728  1.00  0.00     0.000 A 
ENDBRANCH  72  85
ENDBRANCH  46  47
ENDBRANCH  39  41
ENDBRANCH  38  39
ENDBRANCH  37  38
ENDBRANCH   1  37
TORSDOF 16
ENDMDL
MODEL 3
REMARK VINA RESULT:     -12.2      3.960      9.366
REMARK SMILES COc1ccc2[nH]cc([C@H](C(=O)OCCOC(=O)c3ccc(-c4c5nc(c(-c6ccccc6)c6ccc([nH]6)c(-c6ccccc6)c6nc(c(-c7ccccc7)c7ccc4[nH]7)C=C6)C=C5)cc3)[NH+]3CC[NH+](Cc4cccc5ccccc45)CC3)c2c1
REMARK SMILES IDX 14 1 13 2 11 3 12 4 10 5 9 6 3 7 4 8 85 9 5 10 84 11 6 12
REMARK SMILES IDX 7 13 8 14 2 16 1 17 67 18 68 19 83 20 69 22 82 23 70 24
REMARK SMILES IDX 71 26 72 27 73 28 81 29 74 30 76 31 80 32 75 33 77 34 79 35
REMARK SMILES IDX 78 36 15 37 16 38 17 39 18 40 19 41 20 42 66 43 21 44 65 45
REMARK SMILES IDX 22 46 23 47 24 48 59 49 25 50 64 51 58 52 60 53 26 54 63 55
REMARK SMILES IDX 57 56 56 57 27 59 49 60 34 61 48 62 35 63 38 64 47 65 61 66
REMARK SMILES IDX 36 67 37 68 46 70 62 71 39 72 28 73 29 74 33 75 30 76 32 77
REMARK SMILES IDX 31 78 50 79 51 80 55 81 52 82 54 83 53 84 40 85 41 86 45 87
REMARK SMILES IDX 42 88 44 89 43 90
REMARK H PARENT 7 15 67 21 70 25 60 58 38 69
REMARK Flexibility Score: inf
ROOT
ATOM      1  C   UNL A   1      36.733  22.059  24.913  1.00  0.00     0.274 C 
ENDROOT
BRANCH   1   2
ATOM      2  O   UNL A   1      36.046  21.382  25.984  1.00  0.00    -0.457 OA
BRANCH   2   3
ATOM      3  C   UNL A   1      34.711  21.556  26.152  1.00  0.00     0.370 C 
ATOM      4  O   UNL A   1      34.121  21.262  27.189  1.00  0.00    -0.245 OA
BRANCH   3   5
ATOM      5  C   UNL A   1      34.033  22.227  24.924  1.00  0.00     0.328 C 
BRANCH   5   6
ATOM      6  C   UNL A   1      33.304  21.252  24.005  1.00  0.00     0.046 A 
ATOM      7  C   UNL A   1      34.112  17.536  24.496  1.00  0.00     0.119 A 
ATOM      8  C   UNL A   1      33.190  17.078  23.577  1.00  0.00     0.048 A 
ATOM      9  C   UNL A   1      34.291  18.902  24.610  1.00  0.00     0.057 A 
ATOM     10  C   UNL A   1      32.375  17.945  22.827  1.00  0.00     0.030 A 
ATOM     11  C   UNL A   1      33.466  19.825  23.939  1.00  0.00     0.013 A 
ATOM     12  C   UNL A   1      32.528  19.318  23.043  1.00  0.00     0.046 A 
ATOM     13  N   UNL A   1      31.866  20.394  22.503  1.00  0.00    -0.361 N 
ATOM     14  C   UNL A   1      32.324  21.557  23.066  1.00  0.00     0.094 A 
ATOM     15  H   UNL A   1      31.166  20.337  21.814  1.00  0.00     0.166 HD
BRANCH   7  16
ATOM     16  O   UNL A   1      34.904  16.806  25.336  1.00  0.00    -0.497 OA
ATOM     17  C   UNL A   1      35.152  15.453  25.001  1.00  0.00     0.278 C 
ENDBRANCH   7  16
ENDBRANCH   5   6
BRANCH   5  18
ATOM     18  N   UNL A   1      33.241  23.437  25.249  1.00  0.00    -0.310 N 
ATOM     19  C   UNL A   1      33.148  24.579  24.344  1.00  0.00     0.325 C 
ATOM     20  C   UNL A   1      32.048  23.206  26.052  1.00  0.00     0.325 C 
ATOM     21  H   UNL A   1      33.965  23.838  25.846  1.00  0.00     0.349 HD
ATOM     22  C   UNL A   1      31.746  25.007  23.804  1.00  0.00     0.324 C 
ATOM     23  C   UNL A   1      30.683  23.527  25.387  1.00  0.00     0.324 C 
ATOM     24  N   UNL A   1      30.568  24.784  24.645  1.00  0.00    -0.322 N 
ATOM     25  H   UNL A   1      29.774  24.653  24.018  1.00  0.00     0.348 HD
BRANCH  24  26
ATOM     26  C   UNL A   1      30.084  25.953  25.385  1.00  0.00     0.300 C 
BRANCH  26  27
ATOM     27  C   UNL A   1      30.546  27.289  24.839  1.00  0.00     0.014 A 
ATOM     28  C   UNL A   1      29.845  27.806  23.734  1.00  0.00     0.010 A 
ATOM     29  C   UNL A   1      31.479  28.106  25.534  1.00  0.00    -0.010 A 
ATOM     30  C   UNL A   1      29.902  29.160  23.439  1.00  0.00     0.001 A 
ATOM     31  C   UNL A   1      31.457  29.496  25.281  1.00  0.00    -0.018 A 
ATOM     32  C   UNL A   1      32.393  27.624  26.502  1.00  0.00     0.009 A 
ATOM     33  C   UNL A   1      30.653  30.007  24.250  1.00  0.00     0.009 A 
ATOM     34  C   UNL A   1      32.217  30.358  26.088  1.00  0.00     0.009 A 
ATOM     35  C   UNL A   1      33.191  28.490  27.251  1.00  0.00     0.001 A 
ATOM     36  C   UNL A   1      33.075  29.860  27.068  1.00  0.00     0.001 A 
ENDBRANCH  26  27
ENDBRANCH  24  26
ENDBRANCH   5  18
ENDBRANCH   3   5
ENDBRANCH   2   3
ENDBRANCH   1   2
BRANCH   1  37
ATOM     37  C   UNL A   1      37.746  23.061  25.519  1.00  0.00     0.275 C 
BRANCH  37  38
ATOM     38  O   UNL A   1      38.775  22.491  26.391  1.00  0.00    -0.458 OA
BRANCH  38  39
ATOM     39  C   UNL A   1      39.893  23.238  26.493  1.00  0.00     0.338 C 
ATOM     40  O   UNL A   1      40.994  22.856  26.128  1.00  0.00    -0.246 OA
BRANCH  39  41
ATOM     41  C   UNL A   1      39.801  24.622  26.993  1.00  0.00     0.060 A 
ATOM     42  C   UNL A   1      39.120  24.775  28.213  1.00  0.00     0.016 A 
ATOM     43  C   UNL A   1      40.408  25.733  26.414  1.00  0.00     0.016 A 
ATOM     44  C   UNL A   1      39.220  25.949  28.941  1.00  0.00     0.010 A 
ATOM     45  C   UNL A   1      40.474  26.943  27.139  1.00  0.00     0.010 A 
ATOM     46  C   UNL A   1      39.954  27.029  28.441  1.00  0.00    -0.014 A 
BRANCH  46  47
ATOM     47  C   UNL A   1      40.091  28.204  29.347  1.00  0.00     0.031 A 
ATOM     48  C   UNL A   1      38.977  29.186  29.394  1.00  0.00     0.074 A 
ATOM     49  C   UNL A   1      41.074  28.286  30.267  1.00  0.00     0.049 A 
ATOM     50  N   UNL A   1      38.842  30.215  30.182  1.00  0.00    -0.248 NA
ATOM     51  C   UNL A   1      37.907  29.019  28.400  1.00  0.00     0.031 C 
ATOM     52  C   UNL A   1      42.230  27.419  30.297  1.00  0.00     0.029 A 
ATOM     53  N   UNL A   1      41.236  29.050  31.398  1.00  0.00    -0.354 N 
ATOM     54  C   UNL A   1      37.710  30.867  29.731  1.00  0.00     0.074 A 
ATOM     55  C   UNL A   1      37.156  30.079  28.650  1.00  0.00     0.031 C 
ATOM     56  C   UNL A   1      42.843  27.507  31.485  1.00  0.00     0.029 A 
ATOM     57  C   UNL A   1      42.270  28.623  32.213  1.00  0.00     0.049 A 
ATOM     58  H   UNL A   1      40.670  29.829  31.609  1.00  0.00     0.167 HD
ATOM     59  C   UNL A   1      37.239  32.066  30.135  1.00  0.00     0.031 A 
ATOM     60  C   UNL A   1      42.761  29.117  33.370  1.00  0.00     0.031 A 
ATOM     61  C   UNL A   1      37.872  32.871  31.143  1.00  0.00     0.049 A 
ATOM     62  C   UNL A   1      42.234  30.459  33.784  1.00  0.00     0.074 A 
ATOM     63  C   UNL A   1      37.544  34.148  31.557  1.00  0.00     0.029 A 
ATOM     64  N   UNL A   1      38.980  32.481  31.886  1.00  0.00    -0.354 N 
ATOM     65  N   UNL A   1      41.222  31.126  33.285  1.00  0.00    -0.248 NA
ATOM     66  C   UNL A   1      42.976  31.170  34.832  1.00  0.00     0.031 C 
ATOM     67  C   UNL A   1      38.484  34.550  32.513  1.00  0.00     0.029 A 
ATOM     68  C   UNL A   1      39.352  33.494  32.753  1.00  0.00     0.049 A 
ATOM     69  H   UNL A   1      39.435  31.610  31.808  1.00  0.00     0.167 HD
ATOM     70  C   UNL A   1      41.228  32.353  33.925  1.00  0.00     0.074 A 
ATOM     71  C   UNL A   1      42.306  32.312  34.895  1.00  0.00     0.031 C 
ATOM     72  C   UNL A   1      40.432  33.427  33.705  1.00  0.00     0.031 A 
BRANCH  59  73
ATOM     73  C   UNL A   1      36.087  32.611  29.349  1.00  0.00    -0.014 A 
ATOM     74  C   UNL A   1      36.279  33.463  28.251  1.00  0.00     0.009 A 
ATOM     75  C   UNL A   1      34.781  32.331  29.779  1.00  0.00     0.009 A 
ATOM     76  C   UNL A   1      35.182  34.058  27.626  1.00  0.00     0.001 A 
ATOM     77  C   UNL A   1      33.687  32.901  29.132  1.00  0.00     0.001 A 
ATOM     78  C   UNL A   1      33.888  33.773  28.065  1.00  0.00     0.000 A 
ENDBRANCH  59  73
BRANCH  60  79
ATOM     79  C   UNL A   1      43.912  28.483  34.093  1.00  0.00    -0.014 A 
ATOM     80  C   UNL A   1      45.243  28.817  33.791  1.00  0.00     0.009 A 
ATOM     81  C   UNL A   1      43.690  27.501  35.076  1.00  0.00     0.009 A 
ATOM     82  C   UNL A   1      46.309  28.195  34.458  1.00  0.00     0.001 A 
ATOM     83  C   UNL A   1      44.751  26.923  35.779  1.00  0.00     0.001 A 
ATOM     84  C   UNL A   1      46.061  27.263  35.464  1.00  0.00     0.000 A 
ENDBRANCH  60  79
BRANCH  72  85
ATOM     85  C   UNL A   1      40.668  34.617  34.586  1.00  0.00    -0.014 A 
ATOM     86  C   UNL A   1      41.615  35.600  34.262  1.00  0.00     0.009 A 
ATOM     87  C   UNL A   1      39.915  34.748  35.761  1.00  0.00     0.009 A 
ATOM     88  C   UNL A   1      41.831  36.675  35.126  1.00  0.00     0.001 A 
ATOM     89  C   UNL A   1      40.109  35.839  36.605  1.00  0.00     0.001 A 
ATOM     90  C   UNL A   1      41.075  36.794  36.293  1.00  0.00     0.000 A 
ENDBRANCH  72  85
ENDBRANCH  46  47
ENDBRANCH  39  41
ENDBRANCH  38  39
ENDBRANCH  37  38
ENDBRANCH   1  37
TORSDOF 16
ENDMDL
