MODEL 1
REMARK VINA RESULT:     -12.4      0.000      0.000
REMARK SMILES Cc1ccc2oc(-c3ccc4c(c3)OCO4)c/c(=N\[C@H](C)C(=O)OCCOC(=O)c3ccc(-c4c5nc(c(-c6ccccc6)c6ccc([nH]6)c(-c6ccccc6)c6nc(c(-c7ccccc7)c7ccc4[nH]7)C=C6)C=C5)cc3)c2c1
REMARK SMILES IDX 25 1 24 2 22 3 23 4 20 5 21 6 19 7 1 8 2 9 3 10 79 11 4 12
REMARK SMILES IDX 78 13 5 14 18 15 6 16 17 17 7 18 8 19 9 20 13 21 10 22 12 23
REMARK SMILES IDX 11 24 14 25 16 26 15 27 26 28 27 29 28 30 29 31 30 32 31 33
REMARK SMILES IDX 77 34 32 35 76 36 33 37 34 38 35 39 70 40 36 41 75 42 69 43
REMARK SMILES IDX 71 44 37 45 74 46 68 47 67 48 38 50 60 51 45 52 59 53 46 54
REMARK SMILES IDX 49 55 58 56 72 57 47 58 48 59 57 61 73 62 50 63 39 64 40 65
REMARK SMILES IDX 44 66 41 67 43 68 42 69 61 70 62 71 66 72 63 73 65 74 64 75
REMARK SMILES IDX 51 76 52 77 56 78 53 79 55 80 54 81
REMARK H PARENT 71 49 49 60
REMARK Flexibility Score: inf
ROOT
ATOM      1  C   UNL A   1      38.907  20.977  25.557  1.00  0.00     0.274 C 
ENDROOT
BRANCH   1   2
ATOM      2  O   UNL A   1      37.697  20.958  24.772  1.00  0.00    -0.460 OA
BRANCH   2   3
ATOM      3  C   UNL A   1      37.173  22.190  24.547  1.00  0.00     0.330 C 
ATOM      4  O   UNL A   1      37.019  22.647  23.417  1.00  0.00    -0.250 OA
BRANCH   3   5
ATOM      5  C   UNL A   1      36.778  22.983  25.798  1.00  0.00     0.212 C 
ATOM      6  C   UNL A   1      37.754  24.118  26.087  1.00  0.00     0.046 C 
BRANCH   5   7
ATOM      7  N   UNL A   1      35.412  23.532  25.772  1.00  0.00    -0.270 NA
ATOM      8  C   UNL A   1      31.378  26.861  26.432  1.00  0.00     0.044 C 
ATOM      9  C   UNL A   1      31.582  25.391  26.218  1.00  0.00    -0.050 A 
ATOM     10  C   UNL A   1      30.488  24.544  25.967  1.00  0.00     0.007 A 
ATOM     11  C   UNL A   1      32.873  24.855  26.225  1.00  0.00     0.017 A 
ATOM     12  C   UNL A   1      30.678  23.178  25.728  1.00  0.00     0.048 A 
ATOM     13  C   UNL A   1      33.047  23.487  26.030  1.00  0.00     0.043 A 
ATOM     14  C   UNL A   1      31.963  22.654  25.764  1.00  0.00     0.136 A 
ATOM     15  C   UNL A   1      34.374  22.857  26.118  1.00  0.00     0.073 A 
ATOM     16  O   UNL A   1      32.143  21.318  25.492  1.00  0.00    -0.456 OA
ATOM     17  C   UNL A   1      34.305  21.438  26.551  1.00  0.00     0.076 A 
ATOM     18  C   UNL A   1      33.306  20.743  25.986  1.00  0.00     0.136 A 
BRANCH  18  19
ATOM     19  C   UNL A   1      33.552  19.359  25.541  1.00  0.00     0.021 A 
ATOM     20  C   UNL A   1      34.513  19.003  24.571  1.00  0.00     0.016 A 
ATOM     21  C   UNL A   1      32.681  18.372  26.043  1.00  0.00     0.062 A 
ATOM     22  C   UNL A   1      34.624  17.675  24.126  1.00  0.00     0.051 A 
ATOM     23  C   UNL A   1      32.818  17.079  25.594  1.00  0.00     0.166 A 
ATOM     24  C   UNL A   1      33.768  16.737  24.666  1.00  0.00     0.165 A 
ATOM     25  O   UNL A   1      32.058  16.020  25.982  1.00  0.00    -0.454 OA
ATOM     26  O   UNL A   1      33.739  15.409  24.369  1.00  0.00    -0.454 OA
ATOM     27  C   UNL A   1      32.747  14.946  25.312  1.00  0.00     0.468 C 
ENDBRANCH  18  19
ENDBRANCH   5   7
ENDBRANCH   3   5
ENDBRANCH   2   3
ENDBRANCH   1   2
BRANCH   1  28
ATOM     28  C   UNL A   1      39.569  19.594  25.709  1.00  0.00     0.275 C 
BRANCH  28  29
ATOM     29  O   UNL A   1      40.690  19.581  26.620  1.00  0.00    -0.458 OA
BRANCH  29  30
ATOM     30  C   UNL A   1      41.897  19.888  26.076  1.00  0.00     0.338 C 
ATOM     31  O   UNL A   1      42.516  19.230  25.262  1.00  0.00    -0.246 OA
BRANCH  30  32
ATOM     32  C   UNL A   1      42.293  21.263  26.462  1.00  0.00     0.060 A 
ATOM     33  C   UNL A   1      42.633  22.225  25.513  1.00  0.00     0.016 A 
ATOM     34  C   UNL A   1      42.282  21.598  27.823  1.00  0.00     0.016 A 
ATOM     35  C   UNL A   1      42.966  23.517  25.937  1.00  0.00     0.010 A 
ATOM     36  C   UNL A   1      42.642  22.874  28.249  1.00  0.00     0.010 A 
ATOM     37  C   UNL A   1      42.973  23.851  27.306  1.00  0.00    -0.014 A 
BRANCH  37  38
ATOM     38  C   UNL A   1      43.174  25.255  27.739  1.00  0.00     0.031 A 
ATOM     39  C   UNL A   1      42.020  26.185  27.969  1.00  0.00     0.074 A 
ATOM     40  C   UNL A   1      44.438  25.695  27.886  1.00  0.00     0.049 A 
ATOM     41  N   UNL A   1      42.041  27.406  28.443  1.00  0.00    -0.248 NA
ATOM     42  C   UNL A   1      40.677  25.700  27.618  1.00  0.00     0.031 C 
ATOM     43  C   UNL A   1      45.635  24.896  27.614  1.00  0.00     0.029 A 
ATOM     44  N   UNL A   1      44.931  26.906  28.299  1.00  0.00    -0.354 N 
ATOM     45  C   UNL A   1      40.718  27.826  28.472  1.00  0.00     0.074 A 
ATOM     46  C   UNL A   1      39.921  26.751  27.921  1.00  0.00     0.031 C 
ATOM     47  C   UNL A   1      46.722  25.628  27.897  1.00  0.00     0.029 A 
ATOM     48  C   UNL A   1      46.303  26.953  28.345  1.00  0.00     0.049 A 
ATOM     49  H   UNL A   1      44.357  27.669  28.540  1.00  0.00     0.167 HD
ATOM     50  C   UNL A   1      40.223  28.997  28.939  1.00  0.00     0.031 A 
ATOM     51  C   UNL A   1      47.137  27.945  28.715  1.00  0.00     0.031 A 
ATOM     52  C   UNL A   1      41.033  30.061  29.476  1.00  0.00     0.049 A 
ATOM     53  C   UNL A   1      46.557  29.235  29.223  1.00  0.00     0.074 A 
ATOM     54  C   UNL A   1      40.610  31.253  30.040  1.00  0.00     0.029 A 
ATOM     55  N   UNL A   1      42.418  30.076  29.502  1.00  0.00    -0.354 N 
ATOM     56  N   UNL A   1      45.297  29.568  29.369  1.00  0.00    -0.248 NA
ATOM     57  C   UNL A   1      47.505  30.278  29.640  1.00  0.00     0.031 C 
ATOM     58  C   UNL A   1      41.736  32.021  30.334  1.00  0.00     0.029 A 
ATOM     59  C   UNL A   1      42.864  31.274  30.034  1.00  0.00     0.049 A 
ATOM     60  H   UNL A   1      42.998  29.345  29.190  1.00  0.00     0.167 HD
ATOM     61  C   UNL A   1      45.300  30.848  29.907  1.00  0.00     0.074 A 
ATOM     62  C   UNL A   1      46.687  31.222  30.090  1.00  0.00     0.031 C 
ATOM     63  C   UNL A   1      44.246  31.642  30.212  1.00  0.00     0.031 A 
BRANCH  50  64
ATOM     64  C   UNL A   1      38.733  29.211  28.939  1.00  0.00    -0.014 A 
ATOM     65  C   UNL A   1      38.109  29.796  27.823  1.00  0.00     0.009 A 
ATOM     66  C   UNL A   1      37.983  29.018  30.109  1.00  0.00     0.009 A 
ATOM     67  C   UNL A   1      36.780  30.217  27.893  1.00  0.00     0.001 A 
ATOM     68  C   UNL A   1      36.645  29.415  30.167  1.00  0.00     0.001 A 
ATOM     69  C   UNL A   1      36.050  30.030  29.065  1.00  0.00     0.000 A 
ENDBRANCH  50  64
BRANCH  51  70
ATOM     70  C   UNL A   1      48.607  27.728  28.640  1.00  0.00    -0.014 A 
ATOM     71  C   UNL A   1      49.307  27.222  29.749  1.00  0.00     0.009 A 
ATOM     72  C   UNL A   1      49.329  28.071  27.487  1.00  0.00     0.009 A 
ATOM     73  C   UNL A   1      50.697  27.089  29.714  1.00  0.00     0.001 A 
ATOM     74  C   UNL A   1      50.715  27.901  27.442  1.00  0.00     0.001 A 
ATOM     75  C   UNL A   1      51.400  27.422  28.559  1.00  0.00     0.000 A 
ENDBRANCH  51  70
BRANCH  63  76
ATOM     76  C   UNL A   1      44.526  33.008  30.777  1.00  0.00    -0.014 A 
ATOM     77  C   UNL A   1      44.585  33.191  32.169  1.00  0.00     0.009 A 
ATOM     78  C   UNL A   1      44.601  34.133  29.943  1.00  0.00     0.009 A 
ATOM     79  C   UNL A   1      44.684  34.473  32.714  1.00  0.00     0.001 A 
ATOM     80  C   UNL A   1      44.735  35.411  30.489  1.00  0.00     0.001 A 
ATOM     81  C   UNL A   1      44.761  35.581  31.872  1.00  0.00     0.000 A 
ENDBRANCH  63  76
ENDBRANCH  37  38
ENDBRANCH  30  32
ENDBRANCH  29  30
ENDBRANCH  28  29
ENDBRANCH   1  28
TORSDOF 13
ENDMDL
MODEL 2
REMARK VINA RESULT:     -12.3      6.774     13.132
REMARK SMILES Cc1ccc2oc(-c3ccc4c(c3)OCO4)c/c(=N\[C@H](C)C(=O)OCCOC(=O)c3ccc(-c4c5nc(c(-c6ccccc6)c6ccc([nH]6)c(-c6ccccc6)c6nc(c(-c7ccccc7)c7ccc4[nH]7)C=C6)C=C5)cc3)c2c1
REMARK SMILES IDX 25 1 24 2 22 3 23 4 20 5 21 6 19 7 1 8 2 9 3 10 79 11 4 12
REMARK SMILES IDX 78 13 5 14 18 15 6 16 17 17 7 18 8 19 9 20 13 21 10 22 12 23
REMARK SMILES IDX 11 24 14 25 16 26 15 27 26 28 27 29 28 30 29 31 30 32 31 33
REMARK SMILES IDX 77 34 32 35 76 36 33 37 34 38 35 39 70 40 36 41 75 42 69 43
REMARK SMILES IDX 71 44 37 45 74 46 68 47 67 48 38 50 60 51 45 52 59 53 46 54
REMARK SMILES IDX 49 55 58 56 72 57 47 58 48 59 57 61 73 62 50 63 39 64 40 65
REMARK SMILES IDX 44 66 41 67 43 68 42 69 61 70 62 71 66 72 63 73 65 74 64 75
REMARK SMILES IDX 51 76 52 77 56 78 53 79 55 80 54 81
REMARK H PARENT 71 49 49 60
REMARK Flexibility Score: inf
ROOT
ATOM      1  C   UNL A   1      34.216  36.607  31.955  1.00  0.00     0.274 C 
ENDROOT
BRANCH   1   2
ATOM      2  O   UNL A   1      34.282  35.869  33.194  1.00  0.00    -0.460 OA
BRANCH   2   3
ATOM      3  C   UNL A   1      35.351  35.037  33.278  1.00  0.00     0.330 C 
ATOM      4  O   UNL A   1      36.460  35.339  32.845  1.00  0.00    -0.250 OA
BRANCH   3   5
ATOM      5  C   UNL A   1      35.090  33.685  33.953  1.00  0.00     0.212 C 
ATOM      6  C   UNL A   1      33.718  33.124  33.599  1.00  0.00     0.046 C 
BRANCH   5   7
ATOM      7  N   UNL A   1      36.106  32.654  33.678  1.00  0.00    -0.270 NA
ATOM      8  C   UNL A   1      38.289  28.119  32.114  1.00  0.00     0.044 C 
ATOM      9  C   UNL A   1      38.631  29.262  33.022  1.00  0.00    -0.050 A 
ATOM     10  C   UNL A   1      39.914  29.369  33.587  1.00  0.00     0.007 A 
ATOM     11  C   UNL A   1      37.684  30.256  33.283  1.00  0.00     0.017 A 
ATOM     12  C   UNL A   1      40.249  30.454  34.404  1.00  0.00     0.048 A 
ATOM     13  C   UNL A   1      38.014  31.308  34.134  1.00  0.00     0.043 A 
ATOM     14  C   UNL A   1      39.291  31.422  34.676  1.00  0.00     0.136 A 
ATOM     15  C   UNL A   1      37.028  32.332  34.513  1.00  0.00     0.073 A 
ATOM     16  O   UNL A   1      39.641  32.503  35.451  1.00  0.00    -0.456 OA
ATOM     17  C   UNL A   1      37.301  32.920  35.850  1.00  0.00     0.076 A 
ATOM     18  C   UNL A   1      38.599  33.168  36.082  1.00  0.00     0.136 A 
BRANCH  18  19
ATOM     19  C   UNL A   1      38.983  34.416  36.768  1.00  0.00     0.021 A 
ATOM     20  C   UNL A   1      39.648  35.488  36.137  1.00  0.00     0.016 A 
ATOM     21  C   UNL A   1      38.768  34.460  38.160  1.00  0.00     0.062 A 
ATOM     22  C   UNL A   1      40.068  36.605  36.878  1.00  0.00     0.051 A 
ATOM     23  C   UNL A   1      39.185  35.570  38.858  1.00  0.00     0.166 A 
ATOM     24  C   UNL A   1      39.812  36.618  38.234  1.00  0.00     0.165 A 
ATOM     25  O   UNL A   1      39.048  35.761  40.197  1.00  0.00    -0.454 OA
ATOM     26  O   UNL A   1      40.131  37.615  39.104  1.00  0.00    -0.454 OA
ATOM     27  C   UNL A   1      39.517  37.120  40.315  1.00  0.00     0.468 C 
ENDBRANCH  18  19
ENDBRANCH   5   7
ENDBRANCH   3   5
ENDBRANCH   2   3
ENDBRANCH   1   2
BRANCH   1  28
ATOM     28  C   UNL A   1      33.012  36.230  31.072  1.00  0.00     0.275 C 
BRANCH  28  29
ATOM     29  O   UNL A   1      32.959  34.829  30.725  1.00  0.00    -0.458 OA
BRANCH  29  30
ATOM     30  C   UNL A   1      33.416  34.510  29.485  1.00  0.00     0.338 C 
ATOM     31  O   UNL A   1      32.926  34.840  28.422  1.00  0.00    -0.246 OA
BRANCH  30  32
ATOM     32  C   UNL A   1      34.739  33.850  29.587  1.00  0.00     0.060 A 
ATOM     33  C   UNL A   1      35.861  34.346  28.926  1.00  0.00     0.016 A 
ATOM     34  C   UNL A   1      34.854  32.719  30.406  1.00  0.00     0.016 A 
ATOM     35  C   UNL A   1      37.093  33.699  29.088  1.00  0.00     0.010 A 
ATOM     36  C   UNL A   1      36.071  32.056  30.545  1.00  0.00     0.010 A 
ATOM     37  C   UNL A   1      37.206  32.550  29.896  1.00  0.00    -0.014 A 
BRANCH  37  38
ATOM     38  C   UNL A   1      38.535  31.962  30.188  1.00  0.00     0.031 A 
ATOM     39  C   UNL A   1      39.545  32.670  31.042  1.00  0.00     0.074 A 
ATOM     40  C   UNL A   1      38.837  30.775  29.627  1.00  0.00     0.049 A 
ATOM     41  N   UNL A   1      40.706  32.232  31.462  1.00  0.00    -0.248 NA
ATOM     42  C   UNL A   1      39.226  34.039  31.475  1.00  0.00     0.031 C 
ATOM     43  C   UNL A   1      37.958  30.037  28.717  1.00  0.00     0.029 A 
ATOM     44  N   UNL A   1      39.949  29.981  29.736  1.00  0.00    -0.354 N 
ATOM     45  C   UNL A   1      41.245  33.257  32.227  1.00  0.00     0.074 A 
ATOM     46  C   UNL A   1      40.310  34.361  32.174  1.00  0.00     0.031 C 
ATOM     47  C   UNL A   1      38.551  28.884  28.376  1.00  0.00     0.029 A 
ATOM     48  C   UNL A   1      39.860  28.811  29.020  1.00  0.00     0.049 A 
ATOM     49  H   UNL A   1      40.736  30.224  30.275  1.00  0.00     0.167 HD
ATOM     50  C   UNL A   1      42.408  33.259  32.923  1.00  0.00     0.031 A 
ATOM     51  C   UNL A   1      40.727  27.787  28.897  1.00  0.00     0.031 A 
ATOM     52  C   UNL A   1      43.332  32.154  32.956  1.00  0.00     0.049 A 
ATOM     53  C   UNL A   1      42.011  27.821  29.679  1.00  0.00     0.074 A 
ATOM     54  C   UNL A   1      44.498  32.039  33.694  1.00  0.00     0.029 A 
ATOM     55  N   UNL A   1      43.212  30.989  32.215  1.00  0.00    -0.354 N 
ATOM     56  N   UNL A   1      42.447  28.742  30.503  1.00  0.00    -0.248 NA
ATOM     57  C   UNL A   1      42.913  26.669  29.534  1.00  0.00     0.031 C 
ATOM     58  C   UNL A   1      45.123  30.844  33.342  1.00  0.00     0.029 A 
ATOM     59  C   UNL A   1      44.305  30.171  32.448  1.00  0.00     0.049 A 
ATOM     60  H   UNL A   1      42.463  30.775  31.614  1.00  0.00     0.167 HD
ATOM     61  C   UNL A   1      43.662  28.277  30.988  1.00  0.00     0.074 A 
ATOM     62  C   UNL A   1      43.882  26.977  30.388  1.00  0.00     0.031 C 
ATOM     63  C   UNL A   1      44.519  28.879  31.846  1.00  0.00     0.031 A 
BRANCH  50  64
ATOM     64  C   UNL A   1      42.762  34.465  33.749  1.00  0.00    -0.014 A 
ATOM     65  C   UNL A   1      43.280  35.614  33.126  1.00  0.00     0.009 A 
ATOM     66  C   UNL A   1      42.768  34.395  35.151  1.00  0.00     0.009 A 
ATOM     67  C   UNL A   1      43.832  36.647  33.888  1.00  0.00     0.001 A 
ATOM     68  C   UNL A   1      43.295  35.442  35.911  1.00  0.00     0.001 A 
ATOM     69  C   UNL A   1      43.842  36.558  35.279  1.00  0.00     0.000 A 
ENDBRANCH  50  64
BRANCH  51  70
ATOM     70  C   UNL A   1      40.379  26.638  28.019  1.00  0.00    -0.014 A 
ATOM     71  C   UNL A   1      40.851  26.588  26.695  1.00  0.00     0.009 A 
ATOM     72  C   UNL A   1      39.535  25.614  28.472  1.00  0.00     0.009 A 
ATOM     73  C   UNL A   1      40.464  25.554  25.840  1.00  0.00     0.001 A 
ATOM     74  C   UNL A   1      39.180  24.561  27.625  1.00  0.00     0.001 A 
ATOM     75  C   UNL A   1      39.635  24.537  26.307  1.00  0.00     0.000 A 
ENDBRANCH  51  70
BRANCH  63  76
ATOM     76  C   UNL A   1      45.791  28.157  32.203  1.00  0.00    -0.014 A 
ATOM     77  C   UNL A   1      45.832  27.332  33.339  1.00  0.00     0.009 A 
ATOM     78  C   UNL A   1      46.979  28.396  31.496  1.00  0.00     0.009 A 
ATOM     79  C   UNL A   1      47.040  26.784  33.776  1.00  0.00     0.001 A 
ATOM     80  C   UNL A   1      48.179  27.817  31.915  1.00  0.00     0.001 A 
ATOM     81  C   UNL A   1      48.211  27.025  33.061  1.00  0.00     0.000 A 
ENDBRANCH  63  76
ENDBRANCH  37  38
ENDBRANCH  30  32
ENDBRANCH  29  30
ENDBRANCH  28  29
ENDBRANCH   1  28
TORSDOF 13
ENDMDL
MODEL 3
REMARK VINA RESULT:     -12.2      1.057      5.870
REMARK SMILES Cc1ccc2oc(-c3ccc4c(c3)OCO4)c/c(=N\[C@H](C)C(=O)OCCOC(=O)c3ccc(-c4c5nc(c(-c6ccccc6)c6ccc([nH]6)c(-c6ccccc6)c6nc(c(-c7ccccc7)c7ccc4[nH]7)C=C6)C=C5)cc3)c2c1
REMARK SMILES IDX 25 1 24 2 22 3 23 4 20 5 21 6 19 7 1 8 2 9 3 10 79 11 4 12
REMARK SMILES IDX 78 13 5 14 18 15 6 16 17 17 7 18 8 19 9 20 13 21 10 22 12 23
REMARK SMILES IDX 11 24 14 25 16 26 15 27 26 28 27 29 28 30 29 31 30 32 31 33
REMARK SMILES IDX 77 34 32 35 76 36 33 37 34 38 35 39 70 40 36 41 75 42 69 43
REMARK SMILES IDX 71 44 37 45 74 46 68 47 67 48 38 50 60 51 45 52 59 53 46 54
REMARK SMILES IDX 49 55 58 56 72 57 47 58 48 59 57 61 73 62 50 63 39 64 40 65
REMARK SMILES IDX 44 66 41 67 43 68 42 69 61 70 62 71 66 72 63 73 65 74 64 75
REMARK SMILES IDX 51 76 52 77 56 78 53 79 55 80 54 81
REMARK H PARENT 71 49 49 60
REMARK Flexibility Score: inf
ROOT
ATOM      1  C   UNL A   1      38.479  20.930  25.559  1.00  0.00     0.274 C 
ENDROOT
BRANCH   1   2
ATOM      2  O   UNL A   1      37.370  21.140  24.660  1.00  0.00    -0.460 OA
BRANCH   2   3
ATOM      3  C   UNL A   1      37.069  22.447  24.460  1.00  0.00     0.330 C 
ATOM      4  O   UNL A   1      37.003  22.948  23.340  1.00  0.00    -0.250 OA
BRANCH   3   5
ATOM      5  C   UNL A   1      36.810  23.271  25.727  1.00  0.00     0.212 C 
ATOM      6  C   UNL A   1      38.002  24.150  26.091  1.00  0.00     0.046 C 
BRANCH   5   7
ATOM      7  N   UNL A   1      35.602  24.112  25.678  1.00  0.00    -0.270 NA
ATOM      8  C   UNL A   1      32.267  28.083  26.623  1.00  0.00     0.044 C 
ATOM      9  C   UNL A   1      32.202  26.675  26.112  1.00  0.00    -0.050 A 
ATOM     10  C   UNL A   1      31.011  26.165  25.566  1.00  0.00     0.007 A 
ATOM     11  C   UNL A   1      33.343  25.868  26.139  1.00  0.00     0.017 A 
ATOM     12  C   UNL A   1      30.957  24.864  25.053  1.00  0.00     0.048 A 
ATOM     13  C   UNL A   1      33.265  24.559  25.666  1.00  0.00     0.043 A 
ATOM     14  C   UNL A   1      32.090  24.063  25.108  1.00  0.00     0.136 A 
ATOM     15  C   UNL A   1      34.410  23.638  25.753  1.00  0.00     0.073 A 
ATOM     16  O   UNL A   1      32.037  22.799  24.569  1.00  0.00    -0.456 OA
ATOM     17  C   UNL A   1      33.992  22.217  25.852  1.00  0.00     0.076 A 
ATOM     18  C   UNL A   1      32.971  21.890  25.045  1.00  0.00     0.136 A 
BRANCH  18  19
ATOM     19  C   UNL A   1      32.999  20.598  24.334  1.00  0.00     0.021 A 
ATOM     20  C   UNL A   1      32.183  20.292  23.225  1.00  0.00     0.016 A 
ATOM     21  C   UNL A   1      33.810  19.590  24.893  1.00  0.00     0.062 A 
ATOM     22  C   UNL A   1      32.195  19.006  22.660  1.00  0.00     0.051 A 
ATOM     23  C   UNL A   1      33.806  18.342  24.314  1.00  0.00     0.166 A 
ATOM     24  C   UNL A   1      33.026  18.058  23.222  1.00  0.00     0.165 A 
ATOM     25  O   UNL A   1      34.531  17.271  24.734  1.00  0.00    -0.454 OA
ATOM     26  O   UNL A   1      33.180  16.772  22.803  1.00  0.00    -0.454 OA
ATOM     27  C   UNL A   1      34.238  16.330  23.682  1.00  0.00     0.468 C 
ENDBRANCH  18  19
ENDBRANCH   5   7
ENDBRANCH   3   5
ENDBRANCH   2   3
ENDBRANCH   1   2
BRANCH   1  28
ATOM     28  C   UNL A   1      39.231  19.607  25.318  1.00  0.00     0.275 C 
BRANCH  28  29
ATOM     29  O   UNL A   1      40.246  19.325  26.308  1.00  0.00    -0.458 OA
BRANCH  29  30
ATOM     30  C   UNL A   1      41.504  19.733  25.996  1.00  0.00     0.338 C 
ATOM     31  O   UNL A   1      42.282  19.181  25.243  1.00  0.00    -0.246 OA
BRANCH  30  32
ATOM     32  C   UNL A   1      41.753  21.083  26.556  1.00  0.00     0.060 A 
ATOM     33  C   UNL A   1      41.719  21.329  27.927  1.00  0.00     0.016 A 
ATOM     34  C   UNL A   1      42.065  22.121  25.667  1.00  0.00     0.016 A 
ATOM     35  C   UNL A   1      41.995  22.618  28.398  1.00  0.00     0.010 A 
ATOM     36  C   UNL A   1      42.311  23.411  26.132  1.00  0.00     0.010 A 
ATOM     37  C   UNL A   1      42.292  23.667  27.506  1.00  0.00    -0.014 A 
BRANCH  37  38
ATOM     38  C   UNL A   1      42.734  24.987  28.014  1.00  0.00     0.031 A 
ATOM     39  C   UNL A   1      44.185  25.328  28.177  1.00  0.00     0.074 A 
ATOM     40  C   UNL A   1      41.786  25.876  28.370  1.00  0.00     0.049 A 
ATOM     41  N   UNL A   1      44.719  26.475  28.516  1.00  0.00    -0.248 NA
ATOM     42  C   UNL A   1      45.164  24.256  27.944  1.00  0.00     0.031 C 
ATOM     43  C   UNL A   1      40.345  25.619  28.325  1.00  0.00     0.029 A 
ATOM     44  N   UNL A   1      41.882  27.163  28.832  1.00  0.00    -0.354 N 
ATOM     45  C   UNL A   1      46.093  26.272  28.512  1.00  0.00     0.074 A 
ATOM     46  C   UNL A   1      46.312  24.879  28.187  1.00  0.00     0.031 C 
ATOM     47  C   UNL A   1      39.692  26.724  28.712  1.00  0.00     0.029 A 
ATOM     48  C   UNL A   1      40.664  27.758  29.057  1.00  0.00     0.049 A 
ATOM     49  H   UNL A   1      42.741  27.619  28.988  1.00  0.00     0.167 HD
ATOM     50  C   UNL A   1      47.073  27.179  28.740  1.00  0.00     0.031 A 
ATOM     51  C   UNL A   1      40.357  28.998  29.485  1.00  0.00     0.031 A 
ATOM     52  C   UNL A   1      46.835  28.561  29.072  1.00  0.00     0.049 A 
ATOM     53  C   UNL A   1      41.467  29.980  29.734  1.00  0.00     0.074 A 
ATOM     54  C   UNL A   1      47.768  29.569  29.246  1.00  0.00     0.029 A 
ATOM     55  N   UNL A   1      45.589  29.126  29.296  1.00  0.00    -0.354 N 
ATOM     56  N   UNL A   1      42.760  29.811  29.598  1.00  0.00    -0.248 NA
ATOM     57  C   UNL A   1      41.082  31.329  30.173  1.00  0.00     0.031 C 
ATOM     58  C   UNL A   1      47.096  30.721  29.653  1.00  0.00     0.029 A 
ATOM     59  C   UNL A   1      45.735  30.457  29.649  1.00  0.00     0.049 A 
ATOM     60  H   UNL A   1      44.730  28.653  29.217  1.00  0.00     0.167 HD
ATOM     61  C   UNL A   1      43.341  31.030  29.917  1.00  0.00     0.074 A 
ATOM     62  C   UNL A   1      42.259  31.942  30.226  1.00  0.00     0.031 C 
ATOM     63  C   UNL A   1      44.654  31.359  29.957  1.00  0.00     0.031 A 
BRANCH  50  64
ATOM     64  C   UNL A   1      48.509  26.750  28.611  1.00  0.00    -0.014 A 
ATOM     65  C   UNL A   1      49.127  26.744  27.348  1.00  0.00     0.009 A 
ATOM     66  C   UNL A   1      49.182  26.169  29.696  1.00  0.00     0.009 A 
ATOM     67  C   UNL A   1      50.370  26.132  27.169  1.00  0.00     0.001 A 
ATOM     68  C   UNL A   1      50.437  25.581  29.519  1.00  0.00     0.001 A 
ATOM     69  C   UNL A   1      51.022  25.548  28.254  1.00  0.00     0.000 A 
ENDBRANCH  50  64
BRANCH  51  70
ATOM     70  C   UNL A   1      38.928  29.373  29.669  1.00  0.00    -0.014 A 
ATOM     71  C   UNL A   1      38.218  29.996  28.627  1.00  0.00     0.009 A 
ATOM     72  C   UNL A   1      38.280  29.164  30.894  1.00  0.00     0.009 A 
ATOM     73  C   UNL A   1      36.902  30.422  28.817  1.00  0.00     0.001 A 
ATOM     74  C   UNL A   1      36.951  29.557  31.069  1.00  0.00     0.001 A 
ATOM     75  C   UNL A   1      36.267  30.197  30.036  1.00  0.00     0.000 A 
ENDBRANCH  51  70
BRANCH  63  76
ATOM     76  C   UNL A   1      45.023  32.764  30.353  1.00  0.00    -0.014 A 
ATOM     77  C   UNL A   1      45.190  33.088  31.709  1.00  0.00     0.009 A 
ATOM     78  C   UNL A   1      45.076  33.792  29.400  1.00  0.00     0.009 A 
ATOM     79  C   UNL A   1      45.373  34.414  32.106  1.00  0.00     0.001 A 
ATOM     80  C   UNL A   1      45.295  35.113  29.796  1.00  0.00     0.001 A 
ATOM     81  C   UNL A   1      45.428  35.424  31.148  1.00  0.00     0.000 A 
ENDBRANCH  63  76
ENDBRANCH  37  38
ENDBRANCH  30  32
ENDBRANCH  29  30
ENDBRANCH  28  29
ENDBRANCH   1  28
TORSDOF 13
ENDMDL
