MODEL 1
REMARK VINA RESULT:      -9.9      0.000      0.000
REMARK SMILES O=C(OCCOC(=O)[C@H]1C=C[C@@H](NC(=O)c2ccc(Cl)cn2)C1)c1ccc(-c2c3nc(c(-c4ccccc4)c4ccc([nH]4)c(-c4ccccc4)c4nc(c(-c5ccccc5)c5ccc2[nH]5)C=C4)C=C3)cc1
REMARK SMILES IDX 4 1 3 2 2 3 1 4 24 5 25 6 71 7 26 8 70 9 27 10 28 11 29 12
REMARK SMILES IDX 64 13 30 14 69 15 63 16 65 17 31 18 68 19 62 20 61 21 32 23
REMARK SMILES IDX 54 24 39 25 53 26 40 27 43 28 52 29 66 30 41 31 42 32 51 34
REMARK SMILES IDX 67 35 44 36 33 37 34 38 38 39 35 40 37 41 36 42 55 43 56 44
REMARK SMILES IDX 60 45 57 46 59 47 58 48 45 49 46 50 50 51 47 52 49 53 48 54
REMARK SMILES IDX 5 55 6 56 7 57 8 58 9 59 10 60 23 61 11 62 12 63 13 64 14 65
REMARK SMILES IDX 15 67 16 68 17 69 22 70 18 71 21 72 19 73 20 74
REMARK H PARENT 65 22 43 33 13 66
REMARK Flexibility Score: inf
ROOT
ATOM      1  C   UNL A   1      33.256  36.477  28.685  1.00  0.00     0.275 C 
ENDROOT
BRANCH   1   2
ATOM      2  O   UNL A   1      32.546  35.236  28.560  1.00  0.00    -0.458 OA
BRANCH   2   3
ATOM      3  C   UNL A   1      33.048  34.027  28.221  1.00  0.00     0.338 C 
ATOM      4  O   UNL A   1      32.367  33.244  27.561  1.00  0.00    -0.246 OA
BRANCH   3   5
ATOM      5  C   UNL A   1      34.331  33.524  28.784  1.00  0.00     0.060 A 
ATOM      6  C   UNL A   1      34.475  32.800  29.973  1.00  0.00     0.016 A 
ATOM      7  C   UNL A   1      35.486  33.889  28.082  1.00  0.00     0.016 A 
ATOM      8  C   UNL A   1      35.735  32.345  30.390  1.00  0.00     0.010 A 
ATOM      9  C   UNL A   1      36.742  33.469  28.516  1.00  0.00     0.010 A 
ATOM     10  C   UNL A   1      36.879  32.654  29.652  1.00  0.00    -0.014 A 
BRANCH  10  11
ATOM     11  C   UNL A   1      38.231  32.170  30.044  1.00  0.00     0.031 A 
ATOM     12  C   UNL A   1      38.671  30.796  29.620  1.00  0.00     0.074 A 
ATOM     13  C   UNL A   1      38.993  32.884  30.899  1.00  0.00     0.049 A 
ATOM     14  N   UNL A   1      39.759  30.138  29.929  1.00  0.00    -0.248 NA
ATOM     15  C   UNL A   1      37.760  30.067  28.721  1.00  0.00     0.031 C 
ATOM     16  C   UNL A   1      38.667  34.206  31.442  1.00  0.00     0.029 A 
ATOM     17  N   UNL A   1      40.161  32.547  31.543  1.00  0.00    -0.354 N 
ATOM     18  C   UNL A   1      39.665  28.927  29.258  1.00  0.00     0.074 A 
ATOM     19  C   UNL A   1      38.383  28.906  28.591  1.00  0.00     0.031 C 
ATOM     20  C   UNL A   1      39.544  34.512  32.415  1.00  0.00     0.029 A 
ATOM     21  C   UNL A   1      40.510  33.426  32.543  1.00  0.00     0.049 A 
ATOM     22  H   UNL A   1      40.696  31.754  31.310  1.00  0.00     0.167 HD
ATOM     23  C   UNL A   1      40.589  27.942  29.154  1.00  0.00     0.031 A 
ATOM     24  C   UNL A   1      41.483  33.353  33.472  1.00  0.00     0.031 A 
ATOM     25  C   UNL A   1      41.849  27.948  29.843  1.00  0.00     0.049 A 
ATOM     26  C   UNL A   1      42.456  32.205  33.418  1.00  0.00     0.074 A 
ATOM     27  C   UNL A   1      42.909  27.067  29.728  1.00  0.00     0.029 A 
ATOM     28  N   UNL A   1      42.202  28.882  30.805  1.00  0.00    -0.354 N 
ATOM     29  N   UNL A   1      42.463  31.161  32.625  1.00  0.00    -0.248 NA
ATOM     30  C   UNL A   1      43.598  32.259  34.344  1.00  0.00     0.031 C 
ATOM     31  C   UNL A   1      43.901  27.462  30.635  1.00  0.00     0.029 A 
ATOM     32  C   UNL A   1      43.467  28.605  31.290  1.00  0.00     0.049 A 
ATOM     33  H   UNL A   1      41.636  29.632  31.100  1.00  0.00     0.167 HD
ATOM     34  C   UNL A   1      43.645  30.486  32.895  1.00  0.00     0.074 A 
ATOM     35  C   UNL A   1      44.318  31.220  33.946  1.00  0.00     0.031 C 
ATOM     36  C   UNL A   1      44.145  29.376  32.298  1.00  0.00     0.031 A 
BRANCH  23  37
ATOM     37  C   UNL A   1      40.268  26.823  28.206  1.00  0.00    -0.014 A 
ATOM     38  C   UNL A   1      39.484  25.738  28.639  1.00  0.00     0.009 A 
ATOM     39  C   UNL A   1      40.763  26.822  26.896  1.00  0.00     0.009 A 
ATOM     40  C   UNL A   1      39.252  24.648  27.800  1.00  0.00     0.001 A 
ATOM     41  C   UNL A   1      40.506  25.741  26.048  1.00  0.00     0.001 A 
ATOM     42  C   UNL A   1      39.765  24.650  26.505  1.00  0.00     0.000 A 
ENDBRANCH  23  37
BRANCH  24  43
ATOM     43  C   UNL A   1      41.616  34.398  34.524  1.00  0.00    -0.014 A 
ATOM     44  C   UNL A   1      41.023  34.243  35.786  1.00  0.00     0.009 A 
ATOM     45  C   UNL A   1      42.293  35.595  34.246  1.00  0.00     0.009 A 
ATOM     46  C   UNL A   1      41.054  35.284  36.718  1.00  0.00     0.001 A 
ATOM     47  C   UNL A   1      42.337  36.630  35.182  1.00  0.00     0.001 A 
ATOM     48  C   UNL A   1      41.705  36.479  36.414  1.00  0.00     0.000 A 
ENDBRANCH  24  43
BRANCH  36  49
ATOM     49  C   UNL A   1      45.544  28.975  32.665  1.00  0.00    -0.014 A 
ATOM     50  C   UNL A   1      45.810  28.062  33.693  1.00  0.00     0.009 A 
ATOM     51  C   UNL A   1      46.615  29.516  31.934  1.00  0.00     0.009 A 
ATOM     52  C   UNL A   1      47.129  27.719  34.002  1.00  0.00     0.001 A 
ATOM     53  C   UNL A   1      47.928  29.152  32.228  1.00  0.00     0.001 A 
ATOM     54  C   UNL A   1      48.185  28.261  33.268  1.00  0.00     0.000 A 
ENDBRANCH  36  49
ENDBRANCH  10  11
ENDBRANCH   3   5
ENDBRANCH   2   3
ENDBRANCH   1   2
BRANCH   1  55
ATOM     55  C   UNL A   1      33.346  37.046  30.102  1.00  0.00     0.274 C 
BRANCH  55  56
ATOM     56  O   UNL A   1      32.216  36.777  30.948  1.00  0.00    -0.462 OA
BRANCH  56  57
ATOM     57  C   UNL A   1      32.540  36.368  32.207  1.00  0.00     0.312 C 
ATOM     58  O   UNL A   1      32.009  36.801  33.227  1.00  0.00    -0.252 OA
BRANCH  57  59
ATOM     59  C   UNL A   1      33.673  35.346  32.259  1.00  0.00     0.124 C 
ATOM     60  C   UNL A   1      35.005  36.010  32.436  1.00  0.00    -0.014 C 
ATOM     61  C   UNL A   1      33.681  34.315  33.393  1.00  0.00     0.048 C 
ATOM     62  C   UNL A   1      35.824  35.267  33.190  1.00  0.00    -0.006 C 
ATOM     63  C   UNL A   1      35.167  34.003  33.657  1.00  0.00     0.106 C 
BRANCH  63  64
ATOM     64  N   UNL A   1      35.458  33.862  35.059  1.00  0.00    -0.344 N 
ATOM     65  C   UNL A   1      36.509  33.265  35.696  1.00  0.00     0.270 C 
ATOM     66  H   UNL A   1      34.787  34.262  35.658  1.00  0.00     0.164 HD
ATOM     67  O   UNL A   1      36.781  33.573  36.856  1.00  0.00    -0.267 OA
BRANCH  65  68
ATOM     68  C   UNL A   1      37.329  32.262  34.991  1.00  0.00     0.128 A 
ATOM     69  C   UNL A   1      38.523  31.829  35.550  1.00  0.00     0.036 A 
ATOM     70  N   UNL A   1      36.790  31.747  33.857  1.00  0.00    -0.250 NA
ATOM     71  C   UNL A   1      39.212  30.804  34.903  1.00  0.00     0.024 A 
ATOM     72  C   UNL A   1      37.465  30.729  33.276  1.00  0.00     0.132 A 
ATOM     73  C   UNL A   1      38.670  30.237  33.752  1.00  0.00     0.059 A 
ATOM     74  Cl  UNL A   1      39.472  28.954  32.944  1.00  0.00    -0.083 Cl
ENDBRANCH  65  68
ENDBRANCH  63  64
ENDBRANCH  57  59
ENDBRANCH  56  57
ENDBRANCH  55  56
ENDBRANCH   1  55
TORSDOF 13
ENDMDL
MODEL 2
REMARK VINA RESULT:      -9.7      7.115     12.531
REMARK SMILES O=C(OCCOC(=O)[C@H]1C=C[C@@H](NC(=O)c2ccc(Cl)cn2)C1)c1ccc(-c2c3nc(c(-c4ccccc4)c4ccc([nH]4)c(-c4ccccc4)c4nc(c(-c5ccccc5)c5ccc2[nH]5)C=C4)C=C3)cc1
REMARK SMILES IDX 4 1 3 2 2 3 1 4 24 5 25 6 71 7 26 8 70 9 27 10 28 11 29 12
REMARK SMILES IDX 64 13 30 14 69 15 63 16 65 17 31 18 68 19 62 20 61 21 32 23
REMARK SMILES IDX 54 24 39 25 53 26 40 27 43 28 52 29 66 30 41 31 42 32 51 34
REMARK SMILES IDX 67 35 44 36 33 37 34 38 38 39 35 40 37 41 36 42 55 43 56 44
REMARK SMILES IDX 60 45 57 46 59 47 58 48 45 49 46 50 50 51 47 52 49 53 48 54
REMARK SMILES IDX 5 55 6 56 7 57 8 58 9 59 10 60 23 61 11 62 12 63 13 64 14 65
REMARK SMILES IDX 15 67 16 68 17 69 22 70 18 71 21 72 19 73 20 74
REMARK H PARENT 65 22 43 33 13 66
REMARK Flexibility Score: inf
ROOT
ATOM      1  C   UNL A   1      43.148  18.283  25.830  1.00  0.00     0.275 C 
ENDROOT
BRANCH   1   2
ATOM      2  O   UNL A   1      43.629  18.776  24.572  1.00  0.00    -0.458 OA
BRANCH   2   3
ATOM      3  C   UNL A   1      44.778  19.447  24.332  1.00  0.00     0.338 C 
ATOM      4  O   UNL A   1      45.810  18.826  24.080  1.00  0.00    -0.246 OA
BRANCH   3   5
ATOM      5  C   UNL A   1      44.890  20.915  24.555  1.00  0.00     0.060 A 
ATOM      6  C   UNL A   1      44.637  21.909  23.602  1.00  0.00     0.016 A 
ATOM      7  C   UNL A   1      45.366  21.303  25.813  1.00  0.00     0.016 A 
ATOM      8  C   UNL A   1      44.742  23.268  23.935  1.00  0.00     0.010 A 
ATOM      9  C   UNL A   1      45.506  22.653  26.132  1.00  0.00     0.010 A 
ATOM     10  C   UNL A   1      45.153  23.654  25.212  1.00  0.00    -0.014 A 
BRANCH  10  11
ATOM     11  C   UNL A   1      45.253  25.083  25.615  1.00  0.00     0.031 A 
ATOM     12  C   UNL A   1      46.612  25.703  25.793  1.00  0.00     0.074 A 
ATOM     13  C   UNL A   1      44.149  25.775  25.970  1.00  0.00     0.049 A 
ATOM     14  N   UNL A   1      46.932  26.894  26.230  1.00  0.00    -0.248 NA
ATOM     15  C   UNL A   1      47.766  24.865  25.424  1.00  0.00     0.031 C 
ATOM     16  C   UNL A   1      42.771  25.282  25.906  1.00  0.00     0.029 A 
ATOM     17  N   UNL A   1      44.026  27.014  26.553  1.00  0.00    -0.354 N 
ATOM     18  C   UNL A   1      48.318  26.949  26.180  1.00  0.00     0.074 A 
ATOM     19  C   UNL A   1      48.782  25.649  25.748  1.00  0.00     0.031 C 
ATOM     20  C   UNL A   1      41.961  26.154  26.532  1.00  0.00     0.029 A 
ATOM     21  C   UNL A   1      42.755  27.280  27.012  1.00  0.00     0.049 A 
ATOM     22  H   UNL A   1      44.773  27.649  26.633  1.00  0.00     0.167 HD
ATOM     23  C   UNL A   1      49.134  28.004  26.414  1.00  0.00     0.031 A 
ATOM     24  C   UNL A   1      42.290  28.303  27.755  1.00  0.00     0.031 A 
ATOM     25  C   UNL A   1      48.676  29.284  26.875  1.00  0.00     0.049 A 
ATOM     26  C   UNL A   1      43.222  29.435  28.100  1.00  0.00     0.074 A 
ATOM     27  C   UNL A   1      49.390  30.458  27.037  1.00  0.00     0.029 A 
ATOM     28  N   UNL A   1      47.374  29.544  27.275  1.00  0.00    -0.354 N 
ATOM     29  N   UNL A   1      44.504  29.557  27.856  1.00  0.00    -0.248 NA
ATOM     30  C   UNL A   1      42.627  30.605  28.764  1.00  0.00     0.031 C 
ATOM     31  C   UNL A   1      48.519  31.428  27.551  1.00  0.00     0.029 A 
ATOM     32  C   UNL A   1      47.259  30.862  27.680  1.00  0.00     0.049 A 
ATOM     33  H   UNL A   1      46.640  28.888  27.273  1.00  0.00     0.167 HD
ATOM     34  C   UNL A   1      44.848  30.841  28.254  1.00  0.00     0.074 A 
ATOM     35  C   UNL A   1      43.647  31.451  28.785  1.00  0.00     0.031 C 
ATOM     36  C   UNL A   1      46.044  31.470  28.155  1.00  0.00     0.031 A 
BRANCH  23  37
ATOM     37  C   UNL A   1      50.590  27.805  26.103  1.00  0.00    -0.014 A 
ATOM     38  C   UNL A   1      51.071  28.048  24.804  1.00  0.00     0.009 A 
ATOM     39  C   UNL A   1      51.481  27.350  27.083  1.00  0.00     0.009 A 
ATOM     40  C   UNL A   1      52.400  27.781  24.476  1.00  0.00     0.001 A 
ATOM     41  C   UNL A   1      52.819  27.110  26.759  1.00  0.00     0.001 A 
ATOM     42  C   UNL A   1      53.273  27.311  25.454  1.00  0.00     0.000 A 
ENDBRANCH  23  37
BRANCH  24  43
ATOM     43  C   UNL A   1      40.874  28.334  28.213  1.00  0.00    -0.014 A 
ATOM     44  C   UNL A   1      39.875  28.964  27.455  1.00  0.00     0.009 A 
ATOM     45  C   UNL A   1      40.523  27.781  29.453  1.00  0.00     0.009 A 
ATOM     46  C   UNL A   1      38.577  29.091  27.957  1.00  0.00     0.001 A 
ATOM     47  C   UNL A   1      39.222  27.895  29.949  1.00  0.00     0.001 A 
ATOM     48  C   UNL A   1      38.253  28.562  29.206  1.00  0.00     0.000 A 
ENDBRANCH  24  43
BRANCH  36  49
ATOM     49  C   UNL A   1      46.077  32.931  28.493  1.00  0.00    -0.014 A 
ATOM     50  C   UNL A   1      45.827  33.922  27.534  1.00  0.00     0.009 A 
ATOM     51  C   UNL A   1      46.341  33.312  29.819  1.00  0.00     0.009 A 
ATOM     52  C   UNL A   1      45.870  35.271  27.894  1.00  0.00     0.001 A 
ATOM     53  C   UNL A   1      46.359  34.659  30.179  1.00  0.00     0.001 A 
ATOM     54  C   UNL A   1      46.132  35.638  29.215  1.00  0.00     0.000 A 
ENDBRANCH  36  49
ENDBRANCH  10  11
ENDBRANCH   3   5
ENDBRANCH   2   3
ENDBRANCH   1   2
BRANCH   1  55
ATOM     55  C   UNL A   1      42.227  19.231  26.602  1.00  0.00     0.274 C 
BRANCH  55  56
ATOM     56  O   UNL A   1      41.852  20.431  25.905  1.00  0.00    -0.462 OA
BRANCH  56  57
ATOM     57  C   UNL A   1      41.520  21.473  26.717  1.00  0.00     0.312 C 
ATOM     58  O   UNL A   1      42.339  22.144  27.341  1.00  0.00    -0.252 OA
BRANCH  57  59
ATOM     59  C   UNL A   1      40.019  21.716  26.837  1.00  0.00     0.124 C 
ATOM     60  C   UNL A   1      39.691  23.178  26.770  1.00  0.00    -0.014 C 
ATOM     61  C   UNL A   1      39.092  21.137  25.763  1.00  0.00     0.048 C 
ATOM     62  C   UNL A   1      38.526  23.390  26.145  1.00  0.00    -0.006 C 
ATOM     63  C   UNL A   1      37.901  22.111  25.674  1.00  0.00     0.106 C 
BRANCH  63  64
ATOM     64  N   UNL A   1      37.464  22.323  24.321  1.00  0.00    -0.344 N 
ATOM     65  C   UNL A   1      36.317  22.884  23.830  1.00  0.00     0.270 C 
ATOM     66  H   UNL A   1      38.095  22.010  23.633  1.00  0.00     0.164 HD
ATOM     67  O   UNL A   1      36.289  23.322  22.681  1.00  0.00    -0.267 OA
BRANCH  65  68
ATOM     68  C   UNL A   1      35.117  22.981  24.682  1.00  0.00     0.128 A 
ATOM     69  C   UNL A   1      34.857  24.152  25.379  1.00  0.00     0.036 A 
ATOM     70  N   UNL A   1      34.276  21.915  24.644  1.00  0.00    -0.250 NA
ATOM     71  C   UNL A   1      33.658  24.236  26.086  1.00  0.00     0.024 A 
ATOM     72  C   UNL A   1      33.107  22.046  25.310  1.00  0.00     0.132 A 
ATOM     73  C   UNL A   1      32.763  23.170  26.043  1.00  0.00     0.059 A 
ATOM     74  Cl  UNL A   1      31.265  23.248  26.876  1.00  0.00    -0.083 Cl
ENDBRANCH  65  68
ENDBRANCH  63  64
ENDBRANCH  57  59
ENDBRANCH  56  57
ENDBRANCH  55  56
ENDBRANCH   1  55
TORSDOF 13
ENDMDL
MODEL 3
REMARK VINA RESULT:      -9.6      5.264     11.243
REMARK SMILES O=C(OCCOC(=O)[C@H]1C=C[C@@H](NC(=O)c2ccc(Cl)cn2)C1)c1ccc(-c2c3nc(c(-c4ccccc4)c4ccc([nH]4)c(-c4ccccc4)c4nc(c(-c5ccccc5)c5ccc2[nH]5)C=C4)C=C3)cc1
REMARK SMILES IDX 4 1 3 2 2 3 1 4 24 5 25 6 71 7 26 8 70 9 27 10 28 11 29 12
REMARK SMILES IDX 64 13 30 14 69 15 63 16 65 17 31 18 68 19 62 20 61 21 32 23
REMARK SMILES IDX 54 24 39 25 53 26 40 27 43 28 52 29 66 30 41 31 42 32 51 34
REMARK SMILES IDX 67 35 44 36 33 37 34 38 38 39 35 40 37 41 36 42 55 43 56 44
REMARK SMILES IDX 60 45 57 46 59 47 58 48 45 49 46 50 50 51 47 52 49 53 48 54
REMARK SMILES IDX 5 55 6 56 7 57 8 58 9 59 10 60 23 61 11 62 12 63 13 64 14 65
REMARK SMILES IDX 15 67 16 68 17 69 22 70 18 71 21 72 19 73 20 74
REMARK H PARENT 65 22 43 33 13 66
REMARK Flexibility Score: inf
ROOT
ATOM      1  C   UNL A   1      43.511  21.302  25.271  1.00  0.00     0.275 C 
ENDROOT
BRANCH   1   2
ATOM      2  O   UNL A   1      43.104  22.595  24.801  1.00  0.00    -0.458 OA
BRANCH   2   3
ATOM      3  C   UNL A   1      43.777  23.763  24.907  1.00  0.00     0.338 C 
ATOM      4  O   UNL A   1      44.791  23.949  24.234  1.00  0.00    -0.246 OA
BRANCH   3   5
ATOM      5  C   UNL A   1      43.449  24.766  25.957  1.00  0.00     0.060 A 
ATOM      6  C   UNL A   1      44.110  25.983  26.161  1.00  0.00     0.016 A 
ATOM      7  C   UNL A   1      42.437  24.398  26.851  1.00  0.00     0.016 A 
ATOM      8  C   UNL A   1      43.689  26.870  27.164  1.00  0.00     0.010 A 
ATOM      9  C   UNL A   1      42.044  25.263  27.871  1.00  0.00     0.010 A 
ATOM     10  C   UNL A   1      42.635  26.529  28.014  1.00  0.00    -0.014 A 
BRANCH  10  11
ATOM     11  C   UNL A   1      42.141  27.450  29.073  1.00  0.00     0.031 A 
ATOM     12  C   UNL A   1      42.694  27.330  30.467  1.00  0.00     0.074 A 
ATOM     13  C   UNL A   1      41.102  28.276  28.834  1.00  0.00     0.049 A 
ATOM     14  N   UNL A   1      42.341  27.958  31.560  1.00  0.00    -0.248 NA
ATOM     15  C   UNL A   1      43.799  26.373  30.652  1.00  0.00     0.031 C 
ATOM     16  C   UNL A   1      40.425  28.454  27.546  1.00  0.00     0.029 A 
ATOM     17  N   UNL A   1      40.365  29.051  29.698  1.00  0.00    -0.354 N 
ATOM     18  C   UNL A   1      43.183  27.479  32.553  1.00  0.00     0.074 A 
ATOM     19  C   UNL A   1      44.009  26.453  31.956  1.00  0.00     0.031 C 
ATOM     20  C   UNL A   1      39.313  29.187  27.729  1.00  0.00     0.029 A 
ATOM     21  C   UNL A   1      39.213  29.556  29.137  1.00  0.00     0.049 A 
ATOM     22  H   UNL A   1      40.635  29.229  30.629  1.00  0.00     0.167 HD
ATOM     23  C   UNL A   1      43.303  27.896  33.836  1.00  0.00     0.031 A 
ATOM     24  C   UNL A   1      38.185  30.221  29.699  1.00  0.00     0.031 A 
ATOM     25  C   UNL A   1      42.461  28.890  34.438  1.00  0.00     0.049 A 
ATOM     26  C   UNL A   1      38.272  30.603  31.153  1.00  0.00     0.074 A 
ATOM     27  C   UNL A   1      42.560  29.475  35.688  1.00  0.00     0.029 A 
ATOM     28  N   UNL A   1      41.339  29.429  33.827  1.00  0.00    -0.354 N 
ATOM     29  N   UNL A   1      39.197  30.306  32.034  1.00  0.00    -0.248 NA
ATOM     30  C   UNL A   1      37.206  31.471  31.676  1.00  0.00     0.031 C 
ATOM     31  C   UNL A   1      41.484  30.360  35.838  1.00  0.00     0.029 A 
ATOM     32  C   UNL A   1      40.736  30.345  34.671  1.00  0.00     0.049 A 
ATOM     33  H   UNL A   1      41.018  29.195  32.926  1.00  0.00     0.167 HD
ATOM     34  C   UNL A   1      38.873  31.017  33.181  1.00  0.00     0.074 A 
ATOM     35  C   UNL A   1      37.649  31.737  32.897  1.00  0.00     0.031 C 
ATOM     36  C   UNL A   1      39.550  31.094  34.353  1.00  0.00     0.031 A 
BRANCH  23  37
ATOM     37  C   UNL A   1      44.434  27.304  34.628  1.00  0.00    -0.014 A 
ATOM     38  C   UNL A   1      45.708  27.900  34.587  1.00  0.00     0.009 A 
ATOM     39  C   UNL A   1      44.252  26.143  35.389  1.00  0.00     0.009 A 
ATOM     40  C   UNL A   1      46.789  27.312  35.243  1.00  0.00     0.001 A 
ATOM     41  C   UNL A   1      45.332  25.571  36.068  1.00  0.00     0.001 A 
ATOM     42  C   UNL A   1      46.601  26.147  35.982  1.00  0.00     0.000 A 
ENDBRANCH  23  37
BRANCH  24  43
ATOM     43  C   UNL A   1      36.987  30.595  28.898  1.00  0.00    -0.014 A 
ATOM     44  C   UNL A   1      36.761  31.922  28.500  1.00  0.00     0.009 A 
ATOM     45  C   UNL A   1      36.024  29.627  28.577  1.00  0.00     0.009 A 
ATOM     46  C   UNL A   1      35.572  32.277  27.855  1.00  0.00     0.001 A 
ATOM     47  C   UNL A   1      34.842  29.979  27.921  1.00  0.00     0.001 A 
ATOM     48  C   UNL A   1      34.611  31.307  27.572  1.00  0.00     0.000 A 
ENDBRANCH  24  43
BRANCH  36  49
ATOM     49  C   UNL A   1      39.063  32.096  35.357  1.00  0.00    -0.014 A 
ATOM     50  C   UNL A   1      39.441  33.444  35.306  1.00  0.00     0.009 A 
ATOM     51  C   UNL A   1      38.179  31.670  36.363  1.00  0.00     0.009 A 
ATOM     52  C   UNL A   1      38.965  34.343  36.264  1.00  0.00     0.001 A 
ATOM     53  C   UNL A   1      37.687  32.575  37.303  1.00  0.00     0.001 A 
ATOM     54  C   UNL A   1      38.086  33.908  37.258  1.00  0.00     0.000 A 
ENDBRANCH  36  49
ENDBRANCH  10  11
ENDBRANCH   3   5
ENDBRANCH   2   3
ENDBRANCH   1   2
BRANCH   1  55
ATOM     55  C   UNL A   1      42.664  20.712  26.399  1.00  0.00     0.274 C 
BRANCH  55  56
ATOM     56  O   UNL A   1      41.274  20.516  26.089  1.00  0.00    -0.462 OA
BRANCH  56  57
ATOM     57  C   UNL A   1      40.427  21.359  26.745  1.00  0.00     0.312 C 
ATOM     58  O   UNL A   1      40.462  21.560  27.956  1.00  0.00    -0.252 OA
BRANCH  57  59
ATOM     59  C   UNL A   1      39.377  22.009  25.849  1.00  0.00     0.124 C 
ATOM     60  C   UNL A   1      38.369  21.010  25.367  1.00  0.00    -0.014 C 
ATOM     61  C   UNL A   1      38.479  23.101  26.442  1.00  0.00     0.048 C 
ATOM     62  C   UNL A   1      37.151  21.555  25.264  1.00  0.00    -0.006 C 
ATOM     63  C   UNL A   1      37.143  22.994  25.683  1.00  0.00     0.106 C 
BRANCH  63  64
ATOM     64  N   UNL A   1      36.005  23.183  26.543  1.00  0.00    -0.344 N 
ATOM     65  C   UNL A   1      34.688  23.399  26.247  1.00  0.00     0.270 C 
ATOM     66  H   UNL A   1      36.210  23.151  27.505  1.00  0.00     0.164 HD
ATOM     67  O   UNL A   1      33.821  23.155  27.084  1.00  0.00    -0.267 OA
BRANCH  65  68
ATOM     68  C   UNL A   1      34.303  23.911  24.919  1.00  0.00     0.128 A 
ATOM     69  C   UNL A   1      33.961  23.023  23.909  1.00  0.00     0.036 A 
ATOM     70  N   UNL A   1      34.213  25.262  24.807  1.00  0.00    -0.250 NA
ATOM     71  C   UNL A   1      33.501  23.553  22.703  1.00  0.00     0.024 A 
ATOM     72  C   UNL A   1      33.728  25.739  23.638  1.00  0.00     0.132 A 
ATOM     73  C   UNL A   1      33.373  24.933  22.569  1.00  0.00     0.059 A 
ATOM     74  Cl  UNL A   1      32.783  25.622  21.113  1.00  0.00    -0.083 Cl
ENDBRANCH  65  68
ENDBRANCH  63  64
ENDBRANCH  57  59
ENDBRANCH  56  57
ENDBRANCH  55  56
ENDBRANCH   1  55
TORSDOF 13
ENDMDL
