MODEL 1
REMARK VINA RESULT:     -12.5      0.000      0.000
REMARK SMILES O=C(CN1C(=O)/C(=C2\SC(N3CCN(c4ccccc4F)CC3)=[NH+]C2=O)c2ccccc21)OCCOC(=O)c1ccc(-c2c3nc(c(-c4ccccc4)c4ccc([nH]4)c(-c4ccccc4)c4nc(c(-c5ccccc5)c5ccc2[nH]5)C=C4)C=C3)cc1
REMARK SMILES IDX 34 1 33 2 2 3 1 4 3 5 4 6 5 7 32 8 6 9 7 10 27 11 31 12 8 13
REMARK SMILES IDX 28 14 30 15 9 16 25 17 29 18 10 19 24 20 26 21 11 22 12 24
REMARK SMILES IDX 23 25 13 26 22 27 14 28 15 29 16 30 20 31 17 32 19 33 21 34
REMARK SMILES IDX 18 35 35 36 36 37 37 38 38 39 39 40 40 41 86 42 41 43 85 44
REMARK SMILES IDX 42 45 43 46 44 47 79 48 45 49 84 50 78 51 80 52 46 53 83 54
REMARK SMILES IDX 77 55 76 56 47 58 69 59 54 60 68 61 55 62 58 63 67 64 81 65
REMARK SMILES IDX 56 66 57 67 66 69 82 70 59 71 48 72 49 73 53 74 50 75 52 76
REMARK SMILES IDX 51 77 70 78 71 79 75 80 72 81 74 82 73 83 60 84 61 85 65 86
REMARK SMILES IDX 62 87 64 88 63 89
REMARK H PARENT 24 23 80 57 58 68
REMARK Flexibility Score: inf
ROOT
ATOM      1  C   UNL A   1      40.294  20.814  26.423  1.00  0.00     0.274 C 
ENDROOT
BRANCH   1   2
ATOM      2  O   UNL A   1      39.537  21.721  25.593  1.00  0.00    -0.461 OA
BRANCH   2   3
ATOM      3  C   UNL A   1      38.176  21.702  25.614  1.00  0.00     0.326 C 
ATOM      4  O   UNL A   1      37.556  22.179  26.561  1.00  0.00    -0.250 OA
BRANCH   3   5
ATOM      5  C   UNL A   1      37.483  20.901  24.516  1.00  0.00     0.248 C 
BRANCH   5   6
ATOM      6  N   UNL A   1      36.047  20.977  24.589  1.00  0.00    -0.296 N 
ATOM      7  C   UNL A   1      35.386  22.170  24.356  1.00  0.00     0.260 C 
ATOM      8  C   UNL A   1      35.149  19.911  24.692  1.00  0.00     0.053 A 
ATOM      9  O   UNL A   1      35.918  23.234  24.102  1.00  0.00    -0.269 OA
ATOM     10  C   UNL A   1      33.915  21.851  24.462  1.00  0.00     0.071 C 
ATOM     11  C   UNL A   1      33.829  20.383  24.568  1.00  0.00     0.012 A 
ATOM     12  C   UNL A   1      35.446  18.562  24.798  1.00  0.00     0.027 A 
ATOM     13  C   UNL A   1      33.006  22.837  24.525  1.00  0.00     0.122 C 
ATOM     14  C   UNL A   1      32.793  19.474  24.436  1.00  0.00     0.011 A 
ATOM     15  C   UNL A   1      34.391  17.655  24.709  1.00  0.00     0.002 A 
ATOM     16  S   UNL A   1      33.353  24.507  24.250  1.00  0.00     0.007 SA
ATOM     17  C   UNL A   1      31.548  22.736  24.856  1.00  0.00     0.347 C 
ATOM     18  C   UNL A   1      33.079  18.106  24.507  1.00  0.00     0.001 A 
ATOM     19  C   UNL A   1      31.678  24.925  24.427  1.00  0.00     0.319 C 
ATOM     20  N   UNL A   1      30.902  23.955  24.763  1.00  0.00    -0.200 N 
ATOM     21  O   UNL A   1      30.994  21.711  25.202  1.00  0.00    -0.240 OA
ATOM     22  N   UNL A   1      31.316  26.226  24.229  1.00  0.00    -0.252 N 
ATOM     23  H   UNL A   1      29.940  24.070  24.937  1.00  0.00     0.316 HD
ATOM     24  C   UNL A   1      31.970  27.123  23.255  1.00  0.00     0.258 C 
ATOM     25  C   UNL A   1      30.247  26.850  25.024  1.00  0.00     0.258 C 
ATOM     26  C   UNL A   1      30.922  27.789  22.338  1.00  0.00     0.162 C 
ATOM     27  C   UNL A   1      29.220  27.565  24.128  1.00  0.00     0.162 C 
ATOM     28  N   UNL A   1      29.916  28.443  23.177  1.00  0.00    -0.361 N 
BRANCH  28  29
ATOM     29  C   UNL A   1      29.377  29.663  22.823  1.00  0.00     0.073 A 
ATOM     30  C   UNL A   1      28.649  29.765  21.629  1.00  0.00     0.029 A 
ATOM     31  C   UNL A   1      29.471  30.814  23.620  1.00  0.00     0.146 A 
ATOM     32  C   UNL A   1      28.028  30.960  21.254  1.00  0.00     0.002 A 
ATOM     33  C   UNL A   1      28.874  32.017  23.245  1.00  0.00     0.041 A 
ATOM     34  F   UNL A   1      30.163  30.783  24.771  1.00  0.00    -0.205 F 
ATOM     35  C   UNL A   1      28.146  32.089  22.061  1.00  0.00     0.003 A 
ENDBRANCH  28  29
ENDBRANCH   5   6
ENDBRANCH   3   5
ENDBRANCH   2   3
ENDBRANCH   1   2
BRANCH   1  36
ATOM     36  C   UNL A   1      41.797  20.868  26.140  1.00  0.00     0.275 C 
BRANCH  36  37
ATOM     37  O   UNL A   1      42.418  21.971  26.823  1.00  0.00    -0.458 OA
BRANCH  37  38
ATOM     38  C   UNL A   1      42.520  23.116  26.100  1.00  0.00     0.338 C 
ATOM     39  O   UNL A   1      42.764  23.205  24.911  1.00  0.00    -0.246 OA
BRANCH  38  40
ATOM     40  C   UNL A   1      42.109  24.272  26.936  1.00  0.00     0.060 A 
ATOM     41  C   UNL A   1      40.922  24.274  27.674  1.00  0.00     0.016 A 
ATOM     42  C   UNL A   1      42.944  25.397  26.951  1.00  0.00     0.016 A 
ATOM     43  C   UNL A   1      40.590  25.391  28.449  1.00  0.00     0.010 A 
ATOM     44  C   UNL A   1      42.613  26.512  27.729  1.00  0.00     0.010 A 
ATOM     45  C   UNL A   1      41.443  26.508  28.499  1.00  0.00    -0.014 A 
BRANCH  45  46
ATOM     46  C   UNL A   1      41.184  27.588  29.484  1.00  0.00     0.031 A 
ATOM     47  C   UNL A   1      40.083  28.587  29.309  1.00  0.00     0.074 A 
ATOM     48  C   UNL A   1      41.977  27.658  30.571  1.00  0.00     0.049 A 
ATOM     49  N   UNL A   1      39.643  29.476  30.163  1.00  0.00    -0.248 NA
ATOM     50  C   UNL A   1      39.387  28.596  28.016  1.00  0.00     0.031 C 
ATOM     51  C   UNL A   1      43.108  26.769  30.842  1.00  0.00     0.029 A 
ATOM     52  N   UNL A   1      41.944  28.501  31.653  1.00  0.00    -0.354 N 
ATOM     53  C   UNL A   1      38.598  30.131  29.527  1.00  0.00     0.074 A 
ATOM     54  C   UNL A   1      38.503  29.571  28.195  1.00  0.00     0.031 C 
ATOM     55  C   UNL A   1      43.638  27.089  32.032  1.00  0.00     0.029 A 
ATOM     56  C   UNL A   1      42.898  28.215  32.597  1.00  0.00     0.049 A 
ATOM     57  H   UNL A   1      41.298  29.239  31.742  1.00  0.00     0.167 HD
ATOM     58  C   UNL A   1      37.785  31.097  30.016  1.00  0.00     0.031 A 
ATOM     59  C   UNL A   1      43.143  28.777  33.796  1.00  0.00     0.031 A 
ATOM     60  C   UNL A   1      37.904  31.679  31.328  1.00  0.00     0.049 A 
ATOM     61  C   UNL A   1      42.258  29.882  34.295  1.00  0.00     0.074 A 
ATOM     62  C   UNL A   1      37.085  32.623  31.925  1.00  0.00     0.029 A 
ATOM     63  N   UNL A   1      38.913  31.396  32.235  1.00  0.00    -0.354 N 
ATOM     64  N   UNL A   1      41.198  30.406  33.732  1.00  0.00    -0.248 NA
ATOM     65  C   UNL A   1      42.591  30.459  35.607  1.00  0.00     0.031 C 
ATOM     66  C   UNL A   1      37.637  32.964  33.161  1.00  0.00     0.029 A 
ATOM     67  C   UNL A   1      38.760  32.180  33.368  1.00  0.00     0.049 A 
ATOM     68  H   UNL A   1      39.630  30.737  32.096  1.00  0.00     0.167 HD
ATOM     69  C   UNL A   1      40.717  31.349  34.631  1.00  0.00     0.074 A 
ATOM     70  C   UNL A   1      41.597  31.321  35.781  1.00  0.00     0.031 C 
ATOM     71  C   UNL A   1      39.636  32.156  34.511  1.00  0.00     0.031 A 
BRANCH  58  72
ATOM     72  C   UNL A   1      36.668  31.595  29.142  1.00  0.00    -0.014 A 
ATOM     73  C   UNL A   1      36.680  32.918  28.672  1.00  0.00     0.009 A 
ATOM     74  C   UNL A   1      35.538  30.798  28.901  1.00  0.00     0.009 A 
ATOM     75  C   UNL A   1      35.576  33.439  27.994  1.00  0.00     0.001 A 
ATOM     76  C   UNL A   1      34.445  31.315  28.202  1.00  0.00     0.001 A 
ATOM     77  C   UNL A   1      34.460  32.637  27.759  1.00  0.00     0.000 A 
ENDBRANCH  58  72
BRANCH  59  78
ATOM     78  C   UNL A   1      44.248  28.243  34.631  1.00  0.00    -0.014 A 
ATOM     79  C   UNL A   1      44.011  27.219  35.563  1.00  0.00     0.009 A 
ATOM     80  C   UNL A   1      45.534  28.795  34.540  1.00  0.00     0.009 A 
ATOM     81  C   UNL A   1      45.035  26.774  36.399  1.00  0.00     0.001 A 
ATOM     82  C   UNL A   1      46.563  28.328  35.360  1.00  0.00     0.001 A 
ATOM     83  C   UNL A   1      46.311  27.325  36.294  1.00  0.00     0.000 A 
ENDBRANCH  59  78
BRANCH  71  84
ATOM     84  C   UNL A   1      39.309  33.077  35.654  1.00  0.00    -0.014 A 
ATOM     85  C   UNL A   1      39.879  34.360  35.697  1.00  0.00     0.009 A 
ATOM     86  C   UNL A   1      38.528  32.645  36.736  1.00  0.00     0.009 A 
ATOM     87  C   UNL A   1      39.688  35.185  36.807  1.00  0.00     0.001 A 
ATOM     88  C   UNL A   1      38.315  33.484  37.832  1.00  0.00     0.001 A 
ATOM     89  C   UNL A   1      38.903  34.748  37.871  1.00  0.00     0.000 A 
ENDBRANCH  71  84
ENDBRANCH  45  46
ENDBRANCH  38  40
ENDBRANCH  37  38
ENDBRANCH  36  37
ENDBRANCH   1  36
TORSDOF 13
ENDMDL
MODEL 2
REMARK VINA RESULT:     -12.4      3.976      7.488
REMARK SMILES O=C(CN1C(=O)/C(=C2\SC(N3CCN(c4ccccc4F)CC3)=[NH+]C2=O)c2ccccc21)OCCOC(=O)c1ccc(-c2c3nc(c(-c4ccccc4)c4ccc([nH]4)c(-c4ccccc4)c4nc(c(-c5ccccc5)c5ccc2[nH]5)C=C4)C=C3)cc1
REMARK SMILES IDX 34 1 33 2 2 3 1 4 3 5 4 6 5 7 32 8 6 9 7 10 27 11 31 12 8 13
REMARK SMILES IDX 28 14 30 15 9 16 25 17 29 18 10 19 24 20 26 21 11 22 12 24
REMARK SMILES IDX 23 25 13 26 22 27 14 28 15 29 16 30 20 31 17 32 19 33 21 34
REMARK SMILES IDX 18 35 35 36 36 37 37 38 38 39 39 40 40 41 86 42 41 43 85 44
REMARK SMILES IDX 42 45 43 46 44 47 79 48 45 49 84 50 78 51 80 52 46 53 83 54
REMARK SMILES IDX 77 55 76 56 47 58 69 59 54 60 68 61 55 62 58 63 67 64 81 65
REMARK SMILES IDX 56 66 57 67 66 69 82 70 59 71 48 72 49 73 53 74 50 75 52 76
REMARK SMILES IDX 51 77 70 78 71 79 75 80 72 81 74 82 73 83 60 84 61 85 65 86
REMARK SMILES IDX 62 87 64 88 63 89
REMARK H PARENT 24 23 80 57 58 68
REMARK Flexibility Score: inf
ROOT
ATOM      1  C   UNL A   1      36.067  20.247  25.045  1.00  0.00     0.274 C 
ENDROOT
BRANCH   1   2
ATOM      2  O   UNL A   1      35.588  21.514  25.546  1.00  0.00    -0.461 OA
BRANCH   2   3
ATOM      3  C   UNL A   1      35.086  22.447  24.691  1.00  0.00     0.326 C 
ATOM      4  O   UNL A   1      35.832  23.099  23.965  1.00  0.00    -0.250 OA
BRANCH   3   5
ATOM      5  C   UNL A   1      33.601  22.769  24.821  1.00  0.00     0.248 C 
BRANCH   5   6
ATOM      6  N   UNL A   1      33.250  24.039  24.241  1.00  0.00    -0.296 N 
ATOM      7  C   UNL A   1      33.313  25.203  24.987  1.00  0.00     0.260 C 
ATOM      8  C   UNL A   1      33.007  24.314  22.892  1.00  0.00     0.053 A 
ATOM      9  O   UNL A   1      33.633  25.273  26.158  1.00  0.00    -0.269 OA
ATOM     10  C   UNL A   1      32.935  26.317  24.043  1.00  0.00     0.071 C 
ATOM     11  C   UNL A   1      32.859  25.701  22.705  1.00  0.00     0.012 A 
ATOM     12  C   UNL A   1      33.002  23.420  21.834  1.00  0.00     0.027 A 
ATOM     13  C   UNL A   1      32.667  27.546  24.511  1.00  0.00     0.122 C 
ATOM     14  C   UNL A   1      32.816  26.212  21.419  1.00  0.00     0.011 A 
ATOM     15  C   UNL A   1      32.912  23.939  20.543  1.00  0.00     0.002 A 
ATOM     16  S   UNL A   1      32.952  28.059  26.136  1.00  0.00     0.007 SA
ATOM     17  C   UNL A   1      32.064  28.707  23.779  1.00  0.00     0.347 C 
ATOM     18  C   UNL A   1      32.843  25.324  20.337  1.00  0.00     0.001 A 
ATOM     19  C   UNL A   1      32.442  29.674  25.759  1.00  0.00     0.319 C 
ATOM     20  N   UNL A   1      31.993  29.843  24.564  1.00  0.00    -0.200 N 
ATOM     21  O   UNL A   1      31.649  28.657  22.638  1.00  0.00    -0.240 OA
ATOM     22  N   UNL A   1      32.527  30.621  26.738  1.00  0.00    -0.252 N 
ATOM     23  H   UNL A   1      31.633  30.700  24.240  1.00  0.00     0.316 HD
ATOM     24  C   UNL A   1      33.581  30.641  27.772  1.00  0.00     0.258 C 
ATOM     25  C   UNL A   1      31.522  31.687  26.857  1.00  0.00     0.258 C 
ATOM     26  C   UNL A   1      34.257  32.028  27.832  1.00  0.00     0.162 C 
ATOM     27  C   UNL A   1      32.179  33.074  26.971  1.00  0.00     0.162 C 
ATOM     28  N   UNL A   1      33.220  33.047  28.008  1.00  0.00    -0.361 N 
BRANCH  28  29
ATOM     29  C   UNL A   1      33.426  34.138  28.826  1.00  0.00     0.073 A 
ATOM     30  C   UNL A   1      33.113  35.418  28.345  1.00  0.00     0.029 A 
ATOM     31  C   UNL A   1      33.888  34.043  30.148  1.00  0.00     0.146 A 
ATOM     32  C   UNL A   1      33.242  36.552  29.153  1.00  0.00     0.002 A 
ATOM     33  C   UNL A   1      34.040  35.169  30.956  1.00  0.00     0.041 A 
ATOM     34  F   UNL A   1      34.213  32.846  30.664  1.00  0.00    -0.205 F 
ATOM     35  C   UNL A   1      33.711  36.427  30.458  1.00  0.00     0.003 A 
ENDBRANCH  28  29
ENDBRANCH   5   6
ENDBRANCH   3   5
ENDBRANCH   2   3
ENDBRANCH   1   2
BRANCH   1  36
ATOM     36  C   UNL A   1      37.592  20.192  24.940  1.00  0.00     0.275 C 
BRANCH  36  37
ATOM     37  O   UNL A   1      38.199  21.356  25.528  1.00  0.00    -0.458 OA
BRANCH  37  38
ATOM     38  C   UNL A   1      39.355  21.129  26.203  1.00  0.00     0.338 C 
ATOM     39  O   UNL A   1      39.954  20.071  26.281  1.00  0.00    -0.246 OA
BRANCH  38  40
ATOM     40  C   UNL A   1      39.904  22.414  26.700  1.00  0.00     0.060 A 
ATOM     41  C   UNL A   1      40.917  22.471  27.662  1.00  0.00     0.016 A 
ATOM     42  C   UNL A   1      39.356  23.600  26.192  1.00  0.00     0.016 A 
ATOM     43  C   UNL A   1      41.399  23.713  28.088  1.00  0.00     0.010 A 
ATOM     44  C   UNL A   1      39.841  24.841  26.617  1.00  0.00     0.010 A 
ATOM     45  C   UNL A   1      40.881  24.906  27.553  1.00  0.00    -0.014 A 
BRANCH  45  46
ATOM     46  C   UNL A   1      41.544  26.199  27.856  1.00  0.00     0.031 A 
ATOM     47  C   UNL A   1      42.876  26.570  27.282  1.00  0.00     0.074 A 
ATOM     48  C   UNL A   1      40.912  27.059  28.677  1.00  0.00     0.049 A 
ATOM     49  N   UNL A   1      43.493  27.724  27.329  1.00  0.00    -0.248 NA
ATOM     50  C   UNL A   1      43.614  25.521  26.567  1.00  0.00     0.031 C 
ATOM     51  C   UNL A   1      39.628  26.803  29.331  1.00  0.00     0.029 A 
ATOM     52  N   UNL A   1      41.254  28.323  29.087  1.00  0.00    -0.354 N 
ATOM     53  C   UNL A   1      44.676  27.553  26.626  1.00  0.00     0.074 A 
ATOM     54  C   UNL A   1      44.715  26.168  26.204  1.00  0.00     0.031 C 
ATOM     55  C   UNL A   1      39.271  27.890  30.032  1.00  0.00     0.029 A 
ATOM     56  C   UNL A   1      40.308  28.910  29.890  1.00  0.00     0.049 A 
ATOM     57  H   UNL A   1      42.095  28.765  28.830  1.00  0.00     0.167 HD
ATOM     58  C   UNL A   1      45.632  28.470  26.344  1.00  0.00     0.031 A 
ATOM     59  C   UNL A   1      40.262  30.140  30.438  1.00  0.00     0.031 A 
ATOM     60  C   UNL A   1      45.610  29.837  26.796  1.00  0.00     0.049 A 
ATOM     61  C   UNL A   1      41.360  31.123  30.153  1.00  0.00     0.074 A 
ATOM     62  C   UNL A   1      46.511  30.849  26.507  1.00  0.00     0.029 A 
ATOM     63  N   UNL A   1      44.660  30.379  27.646  1.00  0.00    -0.354 N 
ATOM     64  N   UNL A   1      42.411  30.984  29.384  1.00  0.00    -0.248 NA
ATOM     65  C   UNL A   1      41.253  32.443  30.794  1.00  0.00     0.031 C 
ATOM     66  C   UNL A   1      46.147  31.982  27.240  1.00  0.00     0.029 A 
ATOM     67  C   UNL A   1      44.978  31.698  27.927  1.00  0.00     0.049 A 
ATOM     68  H   UNL A   1      43.877  29.899  27.999  1.00  0.00     0.167 HD
ATOM     69  C   UNL A   1      43.074  32.204  29.421  1.00  0.00     0.074 A 
ATOM     70  C   UNL A   1      42.302  33.075  30.284  1.00  0.00     0.031 C 
ATOM     71  C   UNL A   1      44.214  32.565  28.787  1.00  0.00     0.031 A 
BRANCH  58  72
ATOM     72  C   UNL A   1      46.795  28.046  25.491  1.00  0.00    -0.014 A 
ATOM     73  C   UNL A   1      46.703  28.117  24.092  1.00  0.00     0.009 A 
ATOM     74  C   UNL A   1      47.925  27.446  26.068  1.00  0.00     0.009 A 
ATOM     75  C   UNL A   1      47.710  27.581  23.287  1.00  0.00     0.001 A 
ATOM     76  C   UNL A   1      48.941  26.931  25.261  1.00  0.00     0.001 A 
ATOM     77  C   UNL A   1      48.828  26.989  23.872  1.00  0.00     0.000 A 
ENDBRANCH  58  72
BRANCH  59  78
ATOM     78  C   UNL A   1      39.087  30.519  31.263  1.00  0.00    -0.014 A 
ATOM     79  C   UNL A   1      39.011  30.146  32.614  1.00  0.00     0.009 A 
ATOM     80  C   UNL A   1      38.011  31.208  30.685  1.00  0.00     0.009 A 
ATOM     81  C   UNL A   1      37.871  30.438  33.364  1.00  0.00     0.001 A 
ATOM     82  C   UNL A   1      36.883  31.522  31.446  1.00  0.00     0.001 A 
ATOM     83  C   UNL A   1      36.811  31.129  32.781  1.00  0.00     0.000 A 
ENDBRANCH  59  78
BRANCH  71  84
ATOM     84  C   UNL A   1      44.712  33.972  28.971  1.00  0.00    -0.014 A 
ATOM     85  C   UNL A   1      44.349  34.964  28.044  1.00  0.00     0.009 A 
ATOM     86  C   UNL A   1      45.617  34.297  29.991  1.00  0.00     0.009 A 
ATOM     87  C   UNL A   1      44.896  36.246  28.125  1.00  0.00     0.001 A 
ATOM     88  C   UNL A   1      46.141  35.589  30.087  1.00  0.00     0.001 A 
ATOM     89  C   UNL A   1      45.788  36.558  29.149  1.00  0.00     0.000 A 
ENDBRANCH  71  84
ENDBRANCH  45  46
ENDBRANCH  38  40
ENDBRANCH  37  38
ENDBRANCH  36  37
ENDBRANCH   1  36
TORSDOF 13
ENDMDL
MODEL 3
REMARK VINA RESULT:     -12.0      6.150     13.298
REMARK SMILES O=C(CN1C(=O)/C(=C2\SC(N3CCN(c4ccccc4F)CC3)=[NH+]C2=O)c2ccccc21)OCCOC(=O)c1ccc(-c2c3nc(c(-c4ccccc4)c4ccc([nH]4)c(-c4ccccc4)c4nc(c(-c5ccccc5)c5ccc2[nH]5)C=C4)C=C3)cc1
REMARK SMILES IDX 34 1 33 2 2 3 1 4 3 5 4 6 5 7 32 8 6 9 7 10 27 11 31 12 8 13
REMARK SMILES IDX 28 14 30 15 9 16 25 17 29 18 10 19 24 20 26 21 11 22 12 24
REMARK SMILES IDX 23 25 13 26 22 27 14 28 15 29 16 30 20 31 17 32 19 33 21 34
REMARK SMILES IDX 18 35 35 36 36 37 37 38 38 39 39 40 40 41 86 42 41 43 85 44
REMARK SMILES IDX 42 45 43 46 44 47 79 48 45 49 84 50 78 51 80 52 46 53 83 54
REMARK SMILES IDX 77 55 76 56 47 58 69 59 54 60 68 61 55 62 58 63 67 64 81 65
REMARK SMILES IDX 56 66 57 67 66 69 82 70 59 71 48 72 49 73 53 74 50 75 52 76
REMARK SMILES IDX 51 77 70 78 71 79 75 80 72 81 74 82 73 83 60 84 61 85 65 86
REMARK SMILES IDX 62 87 64 88 63 89
REMARK H PARENT 24 23 80 57 58 68
REMARK Flexibility Score: inf
ROOT
ATOM      1  C   UNL A   1      35.687  33.733  30.416  1.00  0.00     0.274 C 
ENDROOT
BRANCH   1   2
ATOM      2  O   UNL A   1      35.758  32.826  31.536  1.00  0.00    -0.461 OA
BRANCH   2   3
ATOM      3  C   UNL A   1      36.959  32.338  31.952  1.00  0.00     0.326 C 
ATOM      4  O   UNL A   1      37.999  32.660  31.383  1.00  0.00    -0.250 OA
BRANCH   3   5
ATOM      5  C   UNL A   1      36.925  31.243  33.014  1.00  0.00     0.248 C 
BRANCH   5   6
ATOM      6  N   UNL A   1      38.100  31.231  33.845  1.00  0.00    -0.296 N 
ATOM      7  C   UNL A   1      38.965  30.151  33.839  1.00  0.00     0.260 C 
ATOM      8  C   UNL A   1      38.628  32.299  34.577  1.00  0.00     0.053 A 
ATOM      9  O   UNL A   1      38.822  29.137  33.182  1.00  0.00    -0.269 OA
ATOM     10  C   UNL A   1      40.089  30.519  34.775  1.00  0.00     0.071 C 
ATOM     11  C   UNL A   1      39.873  31.935  35.125  1.00  0.00     0.012 A 
ATOM     12  C   UNL A   1      38.111  33.578  34.701  1.00  0.00     0.027 A 
ATOM     13  C   UNL A   1      40.973  29.592  35.177  1.00  0.00     0.122 C 
ATOM     14  C   UNL A   1      40.665  32.905  35.714  1.00  0.00     0.011 A 
ATOM     15  C   UNL A   1      38.896  34.539  35.336  1.00  0.00     0.002 A 
ATOM     16  S   UNL A   1      41.091  28.000  34.516  1.00  0.00     0.007 SA
ATOM     17  C   UNL A   1      42.004  29.700  36.260  1.00  0.00     0.347 C 
ATOM     18  C   UNL A   1      40.171  34.211  35.818  1.00  0.00     0.001 A 
ATOM     19  C   UNL A   1      42.466  27.645  35.513  1.00  0.00     0.319 C 
ATOM     20  N   UNL A   1      42.786  28.564  36.355  1.00  0.00    -0.200 N 
ATOM     21  O   UNL A   1      42.123  30.658  36.998  1.00  0.00    -0.240 OA
ATOM     22  N   UNL A   1      43.080  26.436  35.356  1.00  0.00    -0.252 N 
ATOM     23  H   UNL A   1      43.518  28.467  37.007  1.00  0.00     0.316 HD
ATOM     24  C   UNL A   1      43.185  25.729  34.063  1.00  0.00     0.258 C 
ATOM     25  C   UNL A   1      43.656  25.717  36.502  1.00  0.00     0.258 C 
ATOM     26  C   UNL A   1      44.648  25.327  33.780  1.00  0.00     0.162 C 
ATOM     27  C   UNL A   1      45.098  25.263  36.218  1.00  0.00     0.162 C 
ATOM     28  N   UNL A   1      45.154  24.567  34.924  1.00  0.00    -0.361 N 
BRANCH  28  29
ATOM     29  C   UNL A   1      45.983  23.479  34.747  1.00  0.00     0.073 A 
ATOM     30  C   UNL A   1      47.371  23.658  34.847  1.00  0.00     0.029 A 
ATOM     31  C   UNL A   1      45.517  22.176  34.518  1.00  0.00     0.146 A 
ATOM     32  C   UNL A   1      48.254  22.579  34.738  1.00  0.00     0.002 A 
ATOM     33  C   UNL A   1      46.389  21.096  34.387  1.00  0.00     0.041 A 
ATOM     34  F   UNL A   1      44.199  21.941  34.403  1.00  0.00    -0.205 F 
ATOM     35  C   UNL A   1      47.762  21.298  34.503  1.00  0.00     0.003 A 
ENDBRANCH  28  29
ENDBRANCH   5   6
ENDBRANCH   3   5
ENDBRANCH   2   3
ENDBRANCH   1   2
BRANCH   1  36
ATOM     36  C   UNL A   1      34.725  33.253  29.327  1.00  0.00     0.275 C 
BRANCH  36  37
ATOM     37  O   UNL A   1      34.490  31.837  29.425  1.00  0.00    -0.458 OA
BRANCH  37  38
ATOM     38  C   UNL A   1      34.803  31.120  28.316  1.00  0.00     0.338 C 
ATOM     39  O   UNL A   1      34.213  31.135  27.250  1.00  0.00    -0.246 OA
BRANCH  38  40
ATOM     40  C   UNL A   1      36.101  30.429  28.518  1.00  0.00     0.060 A 
ATOM     41  C   UNL A   1      37.122  30.464  27.564  1.00  0.00     0.016 A 
ATOM     42  C   UNL A   1      36.278  29.703  29.704  1.00  0.00     0.016 A 
ATOM     43  C   UNL A   1      38.327  29.798  27.813  1.00  0.00     0.010 A 
ATOM     44  C   UNL A   1      37.484  29.041  29.953  1.00  0.00     0.010 A 
ATOM     45  C   UNL A   1      38.525  29.100  29.018  1.00  0.00    -0.014 A 
BRANCH  45  46
ATOM     46  C   UNL A   1      39.874  28.583  29.356  1.00  0.00     0.031 A 
ATOM     47  C   UNL A   1      40.352  27.237  28.909  1.00  0.00     0.074 A 
ATOM     48  C   UNL A   1      40.687  29.366  30.091  1.00  0.00     0.049 A 
ATOM     49  N   UNL A   1      41.556  26.728  28.992  1.00  0.00    -0.248 NA
ATOM     50  C   UNL A   1      39.361  26.344  28.294  1.00  0.00     0.031 C 
ATOM     51  C   UNL A   1      40.329  30.683  30.620  1.00  0.00     0.029 A 
ATOM     52  N   UNL A   1      41.981  29.176  30.505  1.00  0.00    -0.354 N 
ATOM     53  C   UNL A   1      41.478  25.470  28.413  1.00  0.00     0.074 A 
ATOM     54  C   UNL A   1      40.096  25.271  28.028  1.00  0.00     0.031 C 
ATOM     55  C   UNL A   1      41.391  31.199  31.258  1.00  0.00     0.029 A 
ATOM     56  C   UNL A   1      42.495  30.245  31.197  1.00  0.00     0.049 A 
ATOM     57  H   UNL A   1      42.491  28.354  30.323  1.00  0.00     0.167 HD
ATOM     58  C   UNL A   1      42.471  24.572  28.208  1.00  0.00     0.031 A 
ATOM     59  C   UNL A   1      43.723  30.450  31.711  1.00  0.00     0.031 A 
ATOM     60  C   UNL A   1      43.838  24.756  28.624  1.00  0.00     0.049 A 
ATOM     61  C   UNL A   1      44.794  29.416  31.514  1.00  0.00     0.074 A 
ATOM     62  C   UNL A   1      44.920  23.920  28.405  1.00  0.00     0.029 A 
ATOM     63  N   UNL A   1      44.306  25.829  29.365  1.00  0.00    -0.354 N 
ATOM     64  N   UNL A   1      44.736  28.285  30.857  1.00  0.00    -0.248 NA
ATOM     65  C   UNL A   1      46.108  29.699  32.112  1.00  0.00     0.031 C 
ATOM     66  C   UNL A   1      46.026  24.451  29.072  1.00  0.00     0.029 A 
ATOM     67  C   UNL A   1      45.652  25.654  29.646  1.00  0.00     0.049 A 
ATOM     68  H   UNL A   1      43.764  26.600  29.648  1.00  0.00     0.167 HD
ATOM     69  C   UNL A   1      46.010  27.736  30.932  1.00  0.00     0.074 A 
ATOM     70  C   UNL A   1      46.822  28.662  31.695  1.00  0.00     0.031 C 
ATOM     71  C   UNL A   1      46.460  26.572  30.406  1.00  0.00     0.031 A 
BRANCH  58  72
ATOM     72  C   UNL A   1      42.138  23.297  27.484  1.00  0.00    -0.014 A 
ATOM     73  C   UNL A   1      41.653  22.190  28.197  1.00  0.00     0.009 A 
ATOM     74  C   UNL A   1      42.438  23.150  26.120  1.00  0.00     0.009 A 
ATOM     75  C   UNL A   1      41.491  20.956  27.565  1.00  0.00     0.001 A 
ATOM     76  C   UNL A   1      42.253  21.920  25.486  1.00  0.00     0.001 A 
ATOM     77  C   UNL A   1      41.790  20.822  26.210  1.00  0.00     0.000 A 
ENDBRANCH  58  72
BRANCH  59  78
ATOM     78  C   UNL A   1      44.010  31.730  32.406  1.00  0.00    -0.014 A 
ATOM     79  C   UNL A   1      44.597  32.802  31.716  1.00  0.00     0.009 A 
ATOM     80  C   UNL A   1      43.749  31.864  33.777  1.00  0.00     0.009 A 
ATOM     81  C   UNL A   1      44.936  33.976  32.391  1.00  0.00     0.001 A 
ATOM     82  C   UNL A   1      44.064  33.049  34.444  1.00  0.00     0.001 A 
ATOM     83  C   UNL A   1      44.665  34.100  33.753  1.00  0.00     0.000 A 
ENDBRANCH  59  78
BRANCH  71  84
ATOM     84  C   UNL A   1      47.908  26.218  30.608  1.00  0.00    -0.014 A 
ATOM     85  C   UNL A   1      48.309  25.580  31.793  1.00  0.00     0.009 A 
ATOM     86  C   UNL A   1      48.888  26.605  29.682  1.00  0.00     0.009 A 
ATOM     87  C   UNL A   1      49.661  25.351  32.055  1.00  0.00     0.001 A 
ATOM     88  C   UNL A   1      50.238  26.349  29.933  1.00  0.00     0.001 A 
ATOM     89  C   UNL A   1      50.623  25.733  31.123  1.00  0.00     0.000 A 
ENDBRANCH  71  84
ENDBRANCH  45  46
ENDBRANCH  38  40
ENDBRANCH  37  38
ENDBRANCH  36  37
ENDBRANCH   1  36
TORSDOF 13
ENDMDL
