MODEL 1
REMARK VINA RESULT:     -10.7      0.000      0.000
REMARK SMILES Cc1cc(NC(=O)CCC(=O)OCCOC(=O)c2ccc(-c3c4nc(c(-c5ccccc5)c5ccc([nH]5)c(-c5ccccc5)c5nc(c(-c6ccccc6)c6ccc3[nH]6)C=C5)C=C4)cc2)ccc1S(=O)(=O)[O-]
REMARK SMILES IDX 13 1 12 2 10 3 11 4 9 5 8 6 6 7 5 8 7 10 4 11 1 12 2 13 3 14
REMARK SMILES IDX 68 15 67 16 66 17 69 18 70 19 71 20 72 21 14 22 15 23 16 24
REMARK SMILES IDX 17 25 18 26 19 27 65 28 20 29 64 30 21 31 22 32 23 33 58 34
REMARK SMILES IDX 24 35 63 36 57 37 59 38 25 39 62 40 56 41 55 42 26 44 48 45
REMARK SMILES IDX 33 46 47 47 34 48 37 49 46 50 60 51 35 52 36 53 45 55 61 56
REMARK SMILES IDX 38 57 27 58 28 59 32 60 29 61 31 62 30 63 49 64 50 65 54 66
REMARK SMILES IDX 51 67 53 68 52 69 39 70 40 71 44 72 41 73 43 74 42 75
REMARK H PARENT 5 9 59 43 37 54
REMARK Flexibility Score: inf
ROOT
ATOM      1  C   UNL A   1      33.182  36.017  29.382  1.00  0.00     0.274 C 
ENDROOT
BRANCH   1   2
ATOM      2  O   UNL A   1      32.874  34.767  28.785  1.00  0.00    -0.462 OA
BRANCH   2   3
ATOM      3  C   UNL A   1      33.989  34.174  28.267  1.00  0.00     0.306 C 
ATOM      4  O   UNL A   1      34.678  34.650  27.397  1.00  0.00    -0.252 OA
BRANCH   3   5
ATOM      5  C   UNL A   1      34.180  32.817  28.898  1.00  0.00     0.132 C 
BRANCH   5   6
ATOM      6  C   UNL A   1      33.687  31.683  27.999  1.00  0.00     0.112 C 
BRANCH   6   7
ATOM      7  C   UNL A   1      34.814  30.850  27.439  1.00  0.00     0.224 C 
ATOM      8  N   UNL A   1      34.606  29.773  26.624  1.00  0.00    -0.326 N 
ATOM      9  H   UNL A   1      35.440  29.413  26.244  1.00  0.00     0.169 HD
ATOM     10  O   UNL A   1      35.976  31.237  27.607  1.00  0.00    -0.275 OA
BRANCH   8  11
ATOM     11  C   UNL A   1      33.463  29.063  26.208  1.00  0.00     0.041 A 
ATOM     12  C   UNL A   1      31.405  28.183  23.117  1.00  0.00     0.046 C 
ATOM     13  C   UNL A   1      31.841  28.216  24.556  1.00  0.00    -0.032 A 
ATOM     14  C   UNL A   1      32.948  29.044  24.909  1.00  0.00     0.030 A 
ATOM     15  C   UNL A   1      31.282  27.389  25.547  1.00  0.00     0.057 A 
ATOM     16  C   UNL A   1      31.725  27.496  26.875  1.00  0.00     0.021 A 
ATOM     17  C   UNL A   1      32.791  28.341  27.201  1.00  0.00     0.027 A 
BRANCH  15  18
ATOM     18  S   UNL A   1      30.208  25.998  25.220  1.00  0.00     0.124 S 
ATOM     19  O   UNL A   1      30.001  25.312  26.482  1.00  0.00    -0.237 OA
ATOM     20  O   UNL A   1      29.091  26.466  24.433  1.00  0.00    -0.237 OA
ATOM     21  O   UNL A   1      31.002  24.927  24.314  1.00  0.00    -0.744 OA
ENDBRANCH  15  18
ENDBRANCH   8  11
ENDBRANCH   6   7
ENDBRANCH   5   6
ENDBRANCH   3   5
ENDBRANCH   2   3
ENDBRANCH   1   2
BRANCH   1  22
ATOM     22  C   UNL A   1      32.929  35.924  30.893  1.00  0.00     0.275 C 
BRANCH  22  23
ATOM     23  O   UNL A   1      34.045  35.384  31.734  1.00  0.00    -0.458 OA
BRANCH  23  24
ATOM     24  C   UNL A   1      34.335  34.251  32.467  1.00  0.00     0.338 C 
ATOM     25  O   UNL A   1      33.579  33.292  32.538  1.00  0.00    -0.246 OA
BRANCH  24  26
ATOM     26  C   UNL A   1      35.627  34.179  33.148  1.00  0.00     0.060 A 
ATOM     27  C   UNL A   1      35.918  33.246  34.166  1.00  0.00     0.016 A 
ATOM     28  C   UNL A   1      36.599  34.639  32.347  1.00  0.00     0.016 A 
ATOM     29  C   UNL A   1      37.136  32.541  34.110  1.00  0.00     0.010 A 
ATOM     30  C   UNL A   1      37.385  33.596  32.031  1.00  0.00     0.010 A 
ATOM     31  C   UNL A   1      37.839  32.640  32.921  1.00  0.00    -0.014 A 
BRANCH  31  32
ATOM     32  C   UNL A   1      38.945  31.870  32.327  1.00  0.00     0.031 A 
ATOM     33  C   UNL A   1      38.698  30.650  31.563  1.00  0.00     0.074 A 
ATOM     34  C   UNL A   1      40.204  32.396  32.404  1.00  0.00     0.049 A 
ATOM     35  N   UNL A   1      39.165  29.487  31.868  1.00  0.00    -0.248 NA
ATOM     36  C   UNL A   1      37.928  30.683  30.321  1.00  0.00     0.031 C 
ATOM     37  C   UNL A   1      41.482  31.995  31.855  1.00  0.00     0.029 A 
ATOM     38  N   UNL A   1      40.563  33.525  33.158  1.00  0.00    -0.354 N 
ATOM     39  C   UNL A   1      39.114  28.776  30.687  1.00  0.00     0.074 A 
ATOM     40  C   UNL A   1      38.146  29.451  29.844  1.00  0.00     0.031 C 
ATOM     41  C   UNL A   1      42.460  32.642  32.540  1.00  0.00     0.029 A 
ATOM     42  C   UNL A   1      41.853  33.436  33.609  1.00  0.00     0.049 A 
ATOM     43  H   UNL A   1      39.964  34.284  33.340  1.00  0.00     0.167 HD
ATOM     44  C   UNL A   1      40.154  27.982  30.300  1.00  0.00     0.031 A 
ATOM     45  C   UNL A   1      41.952  33.389  34.967  1.00  0.00     0.031 A 
ATOM     46  C   UNL A   1      41.353  28.227  31.116  1.00  0.00     0.049 A 
ATOM     47  C   UNL A   1      42.292  31.984  35.371  1.00  0.00     0.074 A 
ATOM     48  C   UNL A   1      42.575  28.818  30.832  1.00  0.00     0.029 A 
ATOM     49  N   UNL A   1      41.282  28.174  32.505  1.00  0.00    -0.354 N 
ATOM     50  N   UNL A   1      42.376  30.986  34.540  1.00  0.00    -0.248 NA
ATOM     51  C   UNL A   1      42.494  31.582  36.751  1.00  0.00     0.031 C 
ATOM     52  C   UNL A   1      43.237  29.108  32.060  1.00  0.00     0.029 A 
ATOM     53  C   UNL A   1      42.427  28.683  33.097  1.00  0.00     0.049 A 
ATOM     54  H   UNL A   1      40.513  27.818  33.006  1.00  0.00     0.167 HD
ATOM     55  C   UNL A   1      42.563  29.821  35.219  1.00  0.00     0.074 A 
ATOM     56  C   UNL A   1      42.670  30.258  36.605  1.00  0.00     0.031 C 
ATOM     57  C   UNL A   1      42.571  28.624  34.556  1.00  0.00     0.031 A 
BRANCH  44  58
ATOM     58  C   UNL A   1      40.166  27.289  28.954  1.00  0.00    -0.014 A 
ATOM     59  C   UNL A   1      39.531  26.049  28.767  1.00  0.00     0.009 A 
ATOM     60  C   UNL A   1      40.761  27.857  27.808  1.00  0.00     0.009 A 
ATOM     61  C   UNL A   1      39.565  25.371  27.543  1.00  0.00     0.001 A 
ATOM     62  C   UNL A   1      40.818  27.173  26.583  1.00  0.00     0.001 A 
ATOM     63  C   UNL A   1      40.226  25.923  26.454  1.00  0.00     0.000 A 
ENDBRANCH  44  58
BRANCH  45  64
ATOM     64  C   UNL A   1      40.932  34.267  35.689  1.00  0.00    -0.014 A 
ATOM     65  C   UNL A   1      39.783  33.667  36.262  1.00  0.00     0.009 A 
ATOM     66  C   UNL A   1      41.228  35.582  36.097  1.00  0.00     0.009 A 
ATOM     67  C   UNL A   1      39.003  34.330  37.227  1.00  0.00     0.001 A 
ATOM     68  C   UNL A   1      40.438  36.249  37.053  1.00  0.00     0.001 A 
ATOM     69  C   UNL A   1      39.334  35.619  37.629  1.00  0.00     0.000 A 
ENDBRANCH  45  64
BRANCH  57  70
ATOM     70  C   UNL A   1      42.712  27.251  35.174  1.00  0.00    -0.014 A 
ATOM     71  C   UNL A   1      41.710  26.283  35.234  1.00  0.00     0.009 A 
ATOM     72  C   UNL A   1      43.954  26.888  35.750  1.00  0.00     0.009 A 
ATOM     73  C   UNL A   1      41.936  25.022  35.803  1.00  0.00     0.001 A 
ATOM     74  C   UNL A   1      44.197  25.628  36.292  1.00  0.00     0.001 A 
ATOM     75  C   UNL A   1      43.182  24.690  36.318  1.00  0.00     0.000 A 
ENDBRANCH  57  70
ENDBRANCH  31  32
ENDBRANCH  24  26
ENDBRANCH  23  24
ENDBRANCH  22  23
ENDBRANCH   1  22
TORSDOF 15
ENDMDL
MODEL 2
REMARK VINA RESULT:     -10.6      2.194      3.231
REMARK SMILES Cc1cc(NC(=O)CCC(=O)OCCOC(=O)c2ccc(-c3c4nc(c(-c5ccccc5)c5ccc([nH]5)c(-c5ccccc5)c5nc(c(-c6ccccc6)c6ccc3[nH]6)C=C5)C=C4)cc2)ccc1S(=O)(=O)[O-]
REMARK SMILES IDX 13 1 12 2 10 3 11 4 9 5 8 6 6 7 5 8 7 10 4 11 1 12 2 13 3 14
REMARK SMILES IDX 68 15 67 16 66 17 69 18 70 19 71 20 72 21 14 22 15 23 16 24
REMARK SMILES IDX 17 25 18 26 19 27 65 28 20 29 64 30 21 31 22 32 23 33 58 34
REMARK SMILES IDX 24 35 63 36 57 37 59 38 25 39 62 40 56 41 55 42 26 44 48 45
REMARK SMILES IDX 33 46 47 47 34 48 37 49 46 50 60 51 35 52 36 53 45 55 61 56
REMARK SMILES IDX 38 57 27 58 28 59 32 60 29 61 31 62 30 63 49 64 50 65 54 66
REMARK SMILES IDX 51 67 53 68 52 69 39 70 40 71 44 72 41 73 43 74 42 75
REMARK H PARENT 5 9 59 43 37 54
REMARK Flexibility Score: inf
ROOT
ATOM      1  C   UNL A   1      33.958  31.483  27.610  1.00  0.00     0.274 C 
ENDROOT
BRANCH   1   2
ATOM      2  O   UNL A   1      33.868  30.072  27.487  1.00  0.00    -0.462 OA
BRANCH   2   3
ATOM      3  C   UNL A   1      32.634  29.687  27.049  1.00  0.00     0.306 C 
ATOM      4  O   UNL A   1      31.916  30.355  26.345  1.00  0.00    -0.252 OA
BRANCH   3   5
ATOM      5  C   UNL A   1      32.287  28.340  27.633  1.00  0.00     0.132 C 
BRANCH   5   6
ATOM      6  C   UNL A   1      31.317  27.556  26.749  1.00  0.00     0.112 C 
BRANCH   6   7
ATOM      7  C   UNL A   1      32.011  26.837  25.617  1.00  0.00     0.224 C 
ATOM      8  N   UNL A   1      31.777  27.125  24.302  1.00  0.00    -0.326 N 
ATOM      9  H   UNL A   1      32.394  26.659  23.692  1.00  0.00     0.169 HD
ATOM     10  O   UNL A   1      32.929  26.053  25.887  1.00  0.00    -0.275 OA
BRANCH   8  11
ATOM     11  C   UNL A   1      30.850  27.940  23.625  1.00  0.00     0.041 A 
ATOM     12  C   UNL A   1      27.109  28.570  23.211  1.00  0.00     0.046 C 
ATOM     13  C   UNL A   1      28.593  28.737  23.035  1.00  0.00    -0.032 A 
ATOM     14  C   UNL A   1      29.459  27.801  23.674  1.00  0.00     0.030 A 
ATOM     15  C   UNL A   1      29.168  29.830  22.363  1.00  0.00     0.057 A 
ATOM     16  C   UNL A   1      30.562  29.903  22.216  1.00  0.00     0.021 A 
ATOM     17  C   UNL A   1      31.389  28.954  22.826  1.00  0.00     0.027 A 
BRANCH  15  18
ATOM     18  S   UNL A   1      28.281  31.307  21.883  1.00  0.00     0.124 S 
ATOM     19  O   UNL A   1      29.209  32.416  21.991  1.00  0.00    -0.237 OA
ATOM     20  O   UNL A   1      27.585  31.034  20.648  1.00  0.00    -0.237 OA
ATOM     21  O   UNL A   1      27.156  31.623  22.993  1.00  0.00    -0.744 OA
ENDBRANCH  15  18
ENDBRANCH   8  11
ENDBRANCH   6   7
ENDBRANCH   5   6
ENDBRANCH   3   5
ENDBRANCH   2   3
ENDBRANCH   1   2
BRANCH   1  22
ATOM     22  C   UNL A   1      34.749  31.824  28.880  1.00  0.00     0.275 C 
BRANCH  22  23
ATOM     23  O   UNL A   1      34.480  33.158  29.506  1.00  0.00    -0.458 OA
BRANCH  23  24
ATOM     24  C   UNL A   1      34.416  33.717  30.766  1.00  0.00     0.338 C 
ATOM     25  O   UNL A   1      33.536  34.497  31.105  1.00  0.00    -0.246 OA
BRANCH  24  26
ATOM     26  C   UNL A   1      35.419  33.319  31.753  1.00  0.00     0.060 A 
ATOM     27  C   UNL A   1      35.430  32.058  32.385  1.00  0.00     0.016 A 
ATOM     28  C   UNL A   1      36.562  33.988  31.545  1.00  0.00     0.016 A 
ATOM     29  C   UNL A   1      36.648  31.356  32.472  1.00  0.00     0.010 A 
ATOM     30  C   UNL A   1      37.482  33.095  31.139  1.00  0.00     0.010 A 
ATOM     31  C   UNL A   1      37.689  31.851  31.705  1.00  0.00    -0.014 A 
BRANCH  31  32
ATOM     32  C   UNL A   1      38.980  31.296  31.264  1.00  0.00     0.031 A 
ATOM     33  C   UNL A   1      39.047  30.195  30.306  1.00  0.00     0.074 A 
ATOM     34  C   UNL A   1      40.121  31.922  31.681  1.00  0.00     0.049 A 
ATOM     35  N   UNL A   1      39.588  29.050  30.542  1.00  0.00    -0.248 NA
ATOM     36  C   UNL A   1      38.541  30.353  28.943  1.00  0.00     0.031 C 
ATOM     37  C   UNL A   1      41.523  31.738  31.370  1.00  0.00     0.029 A 
ATOM     38  N   UNL A   1      40.177  32.944  32.641  1.00  0.00    -0.354 N 
ATOM     39  C   UNL A   1      39.863  28.535  29.293  1.00  0.00     0.074 A 
ATOM     40  C   UNL A   1      39.003  29.240  28.361  1.00  0.00     0.031 C 
ATOM     41  C   UNL A   1      42.255  32.358  32.331  1.00  0.00     0.029 A 
ATOM     42  C   UNL A   1      41.352  32.908  33.343  1.00  0.00     0.049 A 
ATOM     43  H   UNL A   1      39.461  33.604  32.791  1.00  0.00     0.167 HD
ATOM     44  C   UNL A   1      41.052  27.917  29.033  1.00  0.00     0.031 A 
ATOM     45  C   UNL A   1      41.186  32.655  34.670  1.00  0.00     0.031 A 
ATOM     46  C   UNL A   1      42.024  28.142  30.114  1.00  0.00     0.049 A 
ATOM     47  C   UNL A   1      41.614  31.243  34.943  1.00  0.00     0.074 A 
ATOM     48  C   UNL A   1      43.193  28.886  30.183  1.00  0.00     0.029 A 
ATOM     49  N   UNL A   1      41.687  27.861  31.435  1.00  0.00    -0.354 N 
ATOM     50  N   UNL A   1      41.988  30.404  34.021  1.00  0.00    -0.248 NA
ATOM     51  C   UNL A   1      41.589  30.647  36.266  1.00  0.00     0.031 C 
ATOM     52  C   UNL A   1      43.556  29.038  31.552  1.00  0.00     0.029 A 
ATOM     53  C   UNL A   1      42.618  28.376  32.322  1.00  0.00     0.049 A 
ATOM     54  H   UNL A   1      40.885  27.357  31.704  1.00  0.00     0.167 HD
ATOM     55  C   UNL A   1      42.184  29.168  34.559  1.00  0.00     0.074 A 
ATOM     56  C   UNL A   1      41.958  29.386  35.982  1.00  0.00     0.031 C 
ATOM     57  C   UNL A   1      42.476  28.099  33.757  1.00  0.00     0.031 A 
BRANCH  44  58
ATOM     58  C   UNL A   1      41.419  27.453  27.639  1.00  0.00    -0.014 A 
ATOM     59  C   UNL A   1      41.033  26.186  27.169  1.00  0.00     0.009 A 
ATOM     60  C   UNL A   1      42.115  28.267  26.722  1.00  0.00     0.009 A 
ATOM     61  C   UNL A   1      41.397  25.719  25.900  1.00  0.00     0.001 A 
ATOM     62  C   UNL A   1      42.503  27.798  25.457  1.00  0.00     0.001 A 
ATOM     63  C   UNL A   1      42.150  26.518  25.049  1.00  0.00     0.000 A 
ENDBRANCH  44  58
BRANCH  45  64
ATOM     64  C   UNL A   1      39.939  33.304  35.269  1.00  0.00    -0.014 A 
ATOM     65  C   UNL A   1      38.695  32.631  35.178  1.00  0.00     0.009 A 
ATOM     66  C   UNL A   1      40.014  34.371  36.185  1.00  0.00     0.009 A 
ATOM     67  C   UNL A   1      37.603  32.977  35.995  1.00  0.00     0.001 A 
ATOM     68  C   UNL A   1      38.915  34.724  36.992  1.00  0.00     0.001 A 
ATOM     69  C   UNL A   1      37.714  34.020  36.907  1.00  0.00     0.000 A 
ENDBRANCH  45  64
BRANCH  57  70
ATOM     70  C   UNL A   1      42.665  26.665  34.197  1.00  0.00    -0.014 A 
ATOM     71  C   UNL A   1      43.749  25.851  33.866  1.00  0.00     0.009 A 
ATOM     72  C   UNL A   1      41.674  26.067  35.013  1.00  0.00     0.009 A 
ATOM     73  C   UNL A   1      43.857  24.538  34.341  1.00  0.00     0.001 A 
ATOM     74  C   UNL A   1      41.785  24.771  35.513  1.00  0.00     0.001 A 
ATOM     75  C   UNL A   1      42.884  24.004  35.175  1.00  0.00     0.000 A 
ENDBRANCH  57  70
ENDBRANCH  31  32
ENDBRANCH  24  26
ENDBRANCH  23  24
ENDBRANCH  22  23
ENDBRANCH   1  22
TORSDOF 15
ENDMDL
MODEL 3
REMARK VINA RESULT:     -10.5      3.691      5.888
REMARK SMILES Cc1cc(NC(=O)CCC(=O)OCCOC(=O)c2ccc(-c3c4nc(c(-c5ccccc5)c5ccc([nH]5)c(-c5ccccc5)c5nc(c(-c6ccccc6)c6ccc3[nH]6)C=C5)C=C4)cc2)ccc1S(=O)(=O)[O-]
REMARK SMILES IDX 13 1 12 2 10 3 11 4 9 5 8 6 6 7 5 8 7 10 4 11 1 12 2 13 3 14
REMARK SMILES IDX 68 15 67 16 66 17 69 18 70 19 71 20 72 21 14 22 15 23 16 24
REMARK SMILES IDX 17 25 18 26 19 27 65 28 20 29 64 30 21 31 22 32 23 33 58 34
REMARK SMILES IDX 24 35 63 36 57 37 59 38 25 39 62 40 56 41 55 42 26 44 48 45
REMARK SMILES IDX 33 46 47 47 34 48 37 49 46 50 60 51 35 52 36 53 45 55 61 56
REMARK SMILES IDX 38 57 27 58 28 59 32 60 29 61 31 62 30 63 49 64 50 65 54 66
REMARK SMILES IDX 51 67 53 68 52 69 39 70 40 71 44 72 41 73 43 74 42 75
REMARK H PARENT 5 9 59 43 37 54
REMARK Flexibility Score: inf
ROOT
ATOM      1  C   UNL A   1      35.171  31.912  29.207  1.00  0.00     0.274 C 
ENDROOT
BRANCH   1   2
ATOM      2  O   UNL A   1      35.179  31.493  27.851  1.00  0.00    -0.462 OA
BRANCH   2   3
ATOM      3  C   UNL A   1      34.391  30.395  27.663  1.00  0.00     0.306 C 
ATOM      4  O   UNL A   1      34.758  29.253  27.805  1.00  0.00    -0.252 OA
BRANCH   3   5
ATOM      5  C   UNL A   1      33.025  30.828  27.192  1.00  0.00     0.132 C 
BRANCH   5   6
ATOM      6  C   UNL A   1      32.093  29.641  26.943  1.00  0.00     0.112 C 
BRANCH   6   7
ATOM      7  C   UNL A   1      31.508  29.641  25.551  1.00  0.00     0.224 C 
ATOM      8  N   UNL A   1      31.178  28.494  24.885  1.00  0.00    -0.326 N 
ATOM      9  H   UNL A   1      30.696  28.665  24.044  1.00  0.00     0.169 HD
ATOM     10  O   UNL A   1      31.184  30.721  25.045  1.00  0.00    -0.275 OA
BRANCH   8  11
ATOM     11  C   UNL A   1      31.375  27.123  25.136  1.00  0.00     0.041 A 
ATOM     12  C   UNL A   1      34.097  24.482  25.559  1.00  0.00     0.046 C 
ATOM     13  C   UNL A   1      32.723  25.091  25.497  1.00  0.00    -0.032 A 
ATOM     14  C   UNL A   1      32.609  26.465  25.133  1.00  0.00     0.030 A 
ATOM     15  C   UNL A   1      31.560  24.402  25.885  1.00  0.00     0.057 A 
ATOM     16  C   UNL A   1      30.309  25.030  25.775  1.00  0.00     0.021 A 
ATOM     17  C   UNL A   1      30.221  26.370  25.385  1.00  0.00     0.027 A 
BRANCH  15  18
ATOM     18  S   UNL A   1      31.549  22.848  26.769  1.00  0.00     0.124 S 
ATOM     19  O   UNL A   1      31.788  21.800  25.794  1.00  0.00    -0.237 OA
ATOM     20  O   UNL A   1      32.389  22.986  27.935  1.00  0.00    -0.237 OA
ATOM     21  O   UNL A   1      30.056  22.561  27.300  1.00  0.00    -0.744 OA
ENDBRANCH  15  18
ENDBRANCH   8  11
ENDBRANCH   6   7
ENDBRANCH   5   6
ENDBRANCH   3   5
ENDBRANCH   2   3
ENDBRANCH   1   2
BRANCH   1  22
ATOM     22  C   UNL A   1      36.571  32.419  29.581  1.00  0.00     0.275 C 
BRANCH  22  23
ATOM     23  O   UNL A   1      37.590  31.383  29.945  1.00  0.00    -0.458 OA
BRANCH  23  24
ATOM     24  C   UNL A   1      37.686  30.010  30.031  1.00  0.00     0.338 C 
ATOM     25  O   UNL A   1      37.505  29.392  31.072  1.00  0.00    -0.246 OA
BRANCH  24  26
ATOM     26  C   UNL A   1      37.969  29.257  28.810  1.00  0.00     0.060 A 
ATOM     27  C   UNL A   1      38.701  29.782  27.724  1.00  0.00     0.016 A 
ATOM     28  C   UNL A   1      37.987  27.942  29.071  1.00  0.00     0.016 A 
ATOM     29  C   UNL A   1      39.715  28.993  27.146  1.00  0.00     0.010 A 
ATOM     30  C   UNL A   1      39.252  27.517  28.908  1.00  0.00     0.010 A 
ATOM     31  C   UNL A   1      40.079  27.861  27.855  1.00  0.00    -0.014 A 
BRANCH  31  32
ATOM     32  C   UNL A   1      41.240  26.956  27.798  1.00  0.00     0.031 A 
ATOM     33  C   UNL A   1      41.072  25.509  27.688  1.00  0.00     0.074 A 
ATOM     34  C   UNL A   1      42.485  27.517  27.724  1.00  0.00     0.049 A 
ATOM     35  N   UNL A   1      41.508  24.654  28.547  1.00  0.00    -0.248 NA
ATOM     36  C   UNL A   1      40.430  24.914  26.517  1.00  0.00     0.031 C 
ATOM     37  C   UNL A   1      43.812  26.966  27.546  1.00  0.00     0.029 A 
ATOM     38  N   UNL A   1      42.765  28.884  27.879  1.00  0.00    -0.354 N 
ATOM     39  C   UNL A   1      41.575  23.467  27.847  1.00  0.00     0.074 A 
ATOM     40  C   UNL A   1      40.695  23.615  26.704  1.00  0.00     0.031 C 
ATOM     41  C   UNL A   1      44.715  27.907  27.923  1.00  0.00     0.029 A 
ATOM     42  C   UNL A   1      44.004  29.081  28.429  1.00  0.00     0.049 A 
ATOM     43  H   UNL A   1      42.150  29.609  27.625  1.00  0.00     0.167 HD
ATOM     44  C   UNL A   1      42.650  22.636  27.976  1.00  0.00     0.031 A 
ATOM     45  C   UNL A   1      43.968  29.687  29.648  1.00  0.00     0.031 A 
ATOM     46  C   UNL A   1      43.761  23.295  28.678  1.00  0.00     0.049 A 
ATOM     47  C   UNL A   1      44.267  28.659  30.699  1.00  0.00     0.074 A 
ATOM     48  C   UNL A   1      45.005  23.741  28.255  1.00  0.00     0.029 A 
ATOM     49  N   UNL A   1      43.553  23.902  29.913  1.00  0.00    -0.354 N 
ATOM     50  N   UNL A   1      44.435  27.392  30.453  1.00  0.00    -0.248 NA
ATOM     51  C   UNL A   1      44.332  28.967  32.116  1.00  0.00     0.031 C 
ATOM     52  C   UNL A   1      45.541  24.608  29.249  1.00  0.00     0.029 A 
ATOM     53  C   UNL A   1      44.633  24.685  30.289  1.00  0.00     0.049 A 
ATOM     54  H   UNL A   1      42.738  23.788  30.454  1.00  0.00     0.167 HD
ATOM     55  C   UNL A   1      44.556  26.697  31.618  1.00  0.00     0.074 A 
ATOM     56  C   UNL A   1      44.524  27.741  32.633  1.00  0.00     0.031 C 
ATOM     57  C   UNL A   1      44.631  25.331  31.607  1.00  0.00     0.031 A 
BRANCH  44  58
ATOM     58  C   UNL A   1      42.797  21.390  27.128  1.00  0.00    -0.014 A 
ATOM     59  C   UNL A   1      43.703  21.342  26.054  1.00  0.00     0.009 A 
ATOM     60  C   UNL A   1      42.083  20.202  27.388  1.00  0.00     0.009 A 
ATOM     61  C   UNL A   1      43.825  20.216  25.231  1.00  0.00     0.001 A 
ATOM     62  C   UNL A   1      42.184  19.077  26.554  1.00  0.00     0.001 A 
ATOM     63  C   UNL A   1      43.050  19.088  25.468  1.00  0.00     0.000 A 
ENDBRANCH  44  58
BRANCH  45  64
ATOM     64  C   UNL A   1      42.879  30.751  29.775  1.00  0.00    -0.014 A 
ATOM     65  C   UNL A   1      41.639  30.408  30.368  1.00  0.00     0.009 A 
ATOM     66  C   UNL A   1      43.153  32.126  29.633  1.00  0.00     0.009 A 
ATOM     67  C   UNL A   1      40.745  31.387  30.838  1.00  0.00     0.001 A 
ATOM     68  C   UNL A   1      42.251  33.104  30.091  1.00  0.00     0.001 A 
ATOM     69  C   UNL A   1      41.054  32.737  30.706  1.00  0.00     0.000 A 
ENDBRANCH  45  64
BRANCH  57  70
ATOM     70  C   UNL A   1      44.711  24.421  32.813  1.00  0.00    -0.014 A 
ATOM     71  C   UNL A   1      43.658  23.668  33.332  1.00  0.00     0.009 A 
ATOM     72  C   UNL A   1      45.947  24.304  33.496  1.00  0.00     0.009 A 
ATOM     73  C   UNL A   1      43.829  22.828  34.440  1.00  0.00     0.001 A 
ATOM     74  C   UNL A   1      46.134  23.451  34.581  1.00  0.00     0.001 A 
ATOM     75  C   UNL A   1      45.068  22.709  35.055  1.00  0.00     0.000 A 
ENDBRANCH  57  70
ENDBRANCH  31  32
ENDBRANCH  24  26
ENDBRANCH  23  24
ENDBRANCH  22  23
ENDBRANCH   1  22
TORSDOF 15
ENDMDL
