MODEL 1
REMARK VINA RESULT:     -12.2      0.000      0.000
REMARK SMILES NS(=O)(=O)c1ccc(-n2nc(C(=O)OCCOC(=O)c3ccc(-c4c5nc(c(-c6ccccc6)c6ccc([nH]6)c(-c6ccccc6)c6nc(c(-c7ccccc7)c7ccc4[nH]7)C=C6)C=C5)cc3)cc2-c2cc3ccccc3s2)cc1
REMARK SMILES IDX 15 1 14 2 12 3 13 4 11 5 9 6 10 7 69 8 68 9 8 10 5 11 6 12
REMARK SMILES IDX 80 13 7 14 79 15 2 16 3 17 4 18 1 19 70 22 71 23 78 24 72 25
REMARK SMILES IDX 77 26 73 27 76 28 74 29 75 30 16 31 17 32 18 33 19 34 20 35
REMARK SMILES IDX 21 36 67 37 22 38 66 39 23 40 24 41 25 42 60 43 26 44 65 45
REMARK SMILES IDX 59 46 61 47 27 48 64 49 58 50 57 51 28 53 50 54 35 55 49 56
REMARK SMILES IDX 36 57 39 58 48 59 62 60 37 61 38 62 47 64 63 65 40 66 29 67
REMARK SMILES IDX 30 68 34 69 31 70 33 71 32 72 51 73 52 74 56 75 53 76 55 77
REMARK SMILES IDX 54 78 41 79 42 80 46 81 43 82 45 83 44 84
REMARK H PARENT 1 20 1 21 61 52 39 63
REMARK Flexibility Score: inf
ROOT
ATOM      1  C   UNL A   1      36.831  20.864  25.013  1.00  0.00     0.275 C 
ENDROOT
BRANCH   1   2
ATOM      2  O   UNL A   1      36.834  22.034  24.180  1.00  0.00    -0.457 OA
BRANCH   2   3
ATOM      3  C   UNL A   1      36.397  23.208  24.749  1.00  0.00     0.358 C 
ATOM      4  O   UNL A   1      36.949  23.756  25.696  1.00  0.00    -0.244 OA
BRANCH   3   5
ATOM      5  C   UNL A   1      35.212  23.730  24.050  1.00  0.00     0.171 A 
ATOM      6  N   UNL A   1      33.404  24.801  23.715  1.00  0.00    -0.231 N 
ATOM      7  N   UNL A   1      34.645  24.935  24.260  1.00  0.00    -0.160 NA
ATOM      8  C   UNL A   1      33.208  23.538  23.210  1.00  0.00     0.085 A 
ATOM      9  C   UNL A   1      34.483  23.026  23.069  1.00  0.00     0.068 A 
BRANCH   6  10
ATOM     10  C   UNL A   1      32.562  25.913  23.555  1.00  0.00     0.065 A 
ATOM     11  C   UNL A   1      30.841  28.041  23.163  1.00  0.00     0.082 A 
ATOM     12  C   UNL A   1      30.892  27.411  24.413  1.00  0.00     0.024 A 
ATOM     13  C   UNL A   1      31.653  27.616  22.105  1.00  0.00     0.024 A 
ATOM     14  C   UNL A   1      31.743  26.324  24.606  1.00  0.00     0.030 A 
ATOM     15  C   UNL A   1      32.538  26.558  22.309  1.00  0.00     0.030 A 
BRANCH  11  16
ATOM     16  S   UNL A   1      29.736  29.399  22.916  1.00  0.00     0.238 S 
ATOM     17  O   UNL A   1      29.961  30.387  23.954  1.00  0.00    -0.207 OA
ATOM     18  O   UNL A   1      28.431  28.882  22.605  1.00  0.00    -0.207 OA
BRANCH  16  19
ATOM     19  N   UNL A   1      30.323  30.105  21.510  1.00  0.00    -0.225 NA
ATOM     20  H   UNL A   1      31.095  30.730  21.740  1.00  0.00     0.137 HD
ATOM     21  H   UNL A   1      29.578  30.636  21.059  1.00  0.00     0.137 HD
ENDBRANCH  16  19
ENDBRANCH  11  16
ENDBRANCH   6  10
BRANCH   8  22
ATOM     22  C   UNL A   1      32.004  22.741  23.153  1.00  0.00     0.054 A 
ATOM     23  C   UNL A   1      31.877  21.482  22.564  1.00  0.00     0.031 A 
ATOM     24  S   UNL A   1      31.223  22.506  24.720  1.00  0.00    -0.134 S 
ATOM     25  C   UNL A   1      32.341  20.528  23.568  1.00  0.00    -0.007 A 
ATOM     26  C   UNL A   1      32.209  21.072  24.856  1.00  0.00     0.035 A 
ATOM     27  C   UNL A   1      33.032  19.305  23.430  1.00  0.00     0.009 A 
ATOM     28  C   UNL A   1      32.856  20.528  25.976  1.00  0.00     0.019 A 
ATOM     29  C   UNL A   1      33.721  18.781  24.530  1.00  0.00     0.001 A 
ATOM     30  C   UNL A   1      33.665  19.408  25.774  1.00  0.00     0.001 A 
ENDBRANCH   8  22
ENDBRANCH   3   5
ENDBRANCH   2   3
ENDBRANCH   1   2
BRANCH   1  31
ATOM     31  C   UNL A   1      38.156  20.123  24.900  1.00  0.00     0.275 C 
BRANCH  31  32
ATOM     32  O   UNL A   1      39.096  20.657  25.826  1.00  0.00    -0.458 OA
BRANCH  32  33
ATOM     33  C   UNL A   1      40.277  20.002  25.887  1.00  0.00     0.338 C 
ATOM     34  O   UNL A   1      40.493  18.836  25.604  1.00  0.00    -0.246 OA
BRANCH  33  35
ATOM     35  C   UNL A   1      41.256  20.859  26.549  1.00  0.00     0.060 A 
ATOM     36  C   UNL A   1      41.272  20.856  27.947  1.00  0.00     0.016 A 
ATOM     37  C   UNL A   1      41.795  21.902  25.787  1.00  0.00     0.016 A 
ATOM     38  C   UNL A   1      41.611  22.026  28.586  1.00  0.00     0.010 A 
ATOM     39  C   UNL A   1      42.087  23.074  26.420  1.00  0.00     0.010 A 
ATOM     40  C   UNL A   1      41.904  23.143  27.799  1.00  0.00    -0.014 A 
BRANCH  40  41
ATOM     41  C   UNL A   1      42.185  24.407  28.434  1.00  0.00     0.031 A 
ATOM     42  C   UNL A   1      41.131  25.402  28.135  1.00  0.00     0.074 A 
ATOM     43  C   UNL A   1      43.189  24.539  29.324  1.00  0.00     0.049 A 
ATOM     44  N   UNL A   1      41.253  26.474  27.431  1.00  0.00    -0.248 NA
ATOM     45  C   UNL A   1      39.732  25.052  28.459  1.00  0.00     0.031 C 
ATOM     46  C   UNL A   1      44.093  23.505  29.841  1.00  0.00     0.029 A 
ATOM     47  N   UNL A   1      43.535  25.623  30.061  1.00  0.00    -0.354 N 
ATOM     48  C   UNL A   1      39.991  27.056  27.429  1.00  0.00     0.074 A 
ATOM     49  C   UNL A   1      39.072  26.034  27.847  1.00  0.00     0.031 C 
ATOM     50  C   UNL A   1      44.688  23.955  30.972  1.00  0.00     0.029 A 
ATOM     51  C   UNL A   1      44.300  25.340  31.187  1.00  0.00     0.049 A 
ATOM     52  H   UNL A   1      43.266  26.539  29.818  1.00  0.00     0.167 HD
ATOM     53  C   UNL A   1      39.860  28.410  27.423  1.00  0.00     0.031 A 
ATOM     54  C   UNL A   1      44.527  26.169  32.240  1.00  0.00     0.031 A 
ATOM     55  C   UNL A   1      41.086  29.045  27.006  1.00  0.00     0.049 A 
ATOM     56  C   UNL A   1      44.186  27.544  31.797  1.00  0.00     0.074 A 
ATOM     57  C   UNL A   1      41.869  28.987  25.870  1.00  0.00     0.029 A 
ATOM     58  N   UNL A   1      41.893  29.545  28.002  1.00  0.00    -0.354 N 
ATOM     59  N   UNL A   1      44.881  28.191  30.906  1.00  0.00    -0.248 NA
ATOM     60  C   UNL A   1      42.806  27.985  31.953  1.00  0.00     0.031 C 
ATOM     61  C   UNL A   1      43.212  29.011  26.347  1.00  0.00     0.029 A 
ATOM     62  C   UNL A   1      43.184  29.180  27.733  1.00  0.00     0.049 A 
ATOM     63  H   UNL A   1      41.592  30.074  28.777  1.00  0.00     0.167 HD
ATOM     64  C   UNL A   1      43.931  28.772  30.079  1.00  0.00     0.074 A 
ATOM     65  C   UNL A   1      42.674  28.691  30.825  1.00  0.00     0.031 C 
ATOM     66  C   UNL A   1      44.188  28.971  28.752  1.00  0.00     0.031 A 
BRANCH  53  67
ATOM     67  C   UNL A   1      38.840  29.128  28.279  1.00  0.00    -0.014 A 
ATOM     68  C   UNL A   1      38.938  28.985  29.674  1.00  0.00     0.009 A 
ATOM     69  C   UNL A   1      37.635  29.666  27.787  1.00  0.00     0.009 A 
ATOM     70  C   UNL A   1      37.847  29.244  30.510  1.00  0.00     0.001 A 
ATOM     71  C   UNL A   1      36.557  29.963  28.622  1.00  0.00     0.001 A 
ATOM     72  C   UNL A   1      36.652  29.716  29.982  1.00  0.00     0.000 A 
ENDBRANCH  53  67
BRANCH  54  73
ATOM     73  C   UNL A   1      44.730  25.841  33.673  1.00  0.00    -0.014 A 
ATOM     74  C   UNL A   1      45.466  26.693  34.516  1.00  0.00     0.009 A 
ATOM     75  C   UNL A   1      43.968  24.828  34.283  1.00  0.00     0.009 A 
ATOM     76  C   UNL A   1      45.409  26.558  35.912  1.00  0.00     0.001 A 
ATOM     77  C   UNL A   1      43.913  24.692  35.676  1.00  0.00     0.001 A 
ATOM     78  C   UNL A   1      44.622  25.567  36.492  1.00  0.00     0.000 A 
ENDBRANCH  54  73
BRANCH  66  79
ATOM     79  C   UNL A   1      45.595  28.731  28.261  1.00  0.00    -0.014 A 
ATOM     80  C   UNL A   1      46.072  27.471  27.853  1.00  0.00     0.009 A 
ATOM     81  C   UNL A   1      46.413  29.850  28.050  1.00  0.00     0.009 A 
ATOM     82  C   UNL A   1      47.341  27.337  27.277  1.00  0.00     0.001 A 
ATOM     83  C   UNL A   1      47.669  29.719  27.456  1.00  0.00     0.001 A 
ATOM     84  C   UNL A   1      48.136  28.464  27.076  1.00  0.00     0.000 A 
ENDBRANCH  66  79
ENDBRANCH  40  41
ENDBRANCH  33  35
ENDBRANCH  32  33
ENDBRANCH  31  32
ENDBRANCH   1  31
TORSDOF 15
ENDMDL
MODEL 2
REMARK VINA RESULT:     -11.9      2.498      7.395
REMARK SMILES NS(=O)(=O)c1ccc(-n2nc(C(=O)OCCOC(=O)c3ccc(-c4c5nc(c(-c6ccccc6)c6ccc([nH]6)c(-c6ccccc6)c6nc(c(-c7ccccc7)c7ccc4[nH]7)C=C6)C=C5)cc3)cc2-c2cc3ccccc3s2)cc1
REMARK SMILES IDX 15 1 14 2 12 3 13 4 11 5 9 6 10 7 69 8 68 9 8 10 5 11 6 12
REMARK SMILES IDX 80 13 7 14 79 15 2 16 3 17 4 18 1 19 70 22 71 23 78 24 72 25
REMARK SMILES IDX 77 26 73 27 76 28 74 29 75 30 16 31 17 32 18 33 19 34 20 35
REMARK SMILES IDX 21 36 67 37 22 38 66 39 23 40 24 41 25 42 60 43 26 44 65 45
REMARK SMILES IDX 59 46 61 47 27 48 64 49 58 50 57 51 28 53 50 54 35 55 49 56
REMARK SMILES IDX 36 57 39 58 48 59 62 60 37 61 38 62 47 64 63 65 40 66 29 67
REMARK SMILES IDX 30 68 34 69 31 70 33 71 32 72 51 73 52 74 56 75 53 76 55 77
REMARK SMILES IDX 54 78 41 79 42 80 46 81 43 82 45 83 44 84
REMARK H PARENT 1 20 1 21 61 52 39 63
REMARK Flexibility Score: inf
ROOT
ATOM      1  C   UNL A   1      34.080  32.139  28.116  1.00  0.00     0.275 C 
ENDROOT
BRANCH   1   2
ATOM      2  O   UNL A   1      33.809  30.841  27.564  1.00  0.00    -0.457 OA
BRANCH   2   3
ATOM      3  C   UNL A   1      32.595  30.668  26.940  1.00  0.00     0.358 C 
ATOM      4  O   UNL A   1      31.740  31.542  26.854  1.00  0.00    -0.244 OA
BRANCH   3   5
ATOM      5  C   UNL A   1      32.479  29.320  26.362  1.00  0.00     0.171 A 
ATOM      6  N   UNL A   1      33.051  27.389  25.673  1.00  0.00    -0.231 N 
ATOM      7  N   UNL A   1      33.219  28.249  26.715  1.00  0.00    -0.160 NA
ATOM      8  C   UNL A   1      32.252  27.931  24.694  1.00  0.00     0.085 A 
ATOM      9  C   UNL A   1      31.587  28.961  25.330  1.00  0.00     0.068 A 
BRANCH   6  10
ATOM     10  C   UNL A   1      33.507  26.064  25.749  1.00  0.00     0.065 A 
ATOM     11  C   UNL A   1      34.327  23.424  25.821  1.00  0.00     0.082 A 
ATOM     12  C   UNL A   1      35.195  24.407  25.327  1.00  0.00     0.024 A 
ATOM     13  C   UNL A   1      33.049  23.755  26.286  1.00  0.00     0.024 A 
ATOM     14  C   UNL A   1      34.775  25.735  25.270  1.00  0.00     0.030 A 
ATOM     15  C   UNL A   1      32.645  25.089  26.273  1.00  0.00     0.030 A 
BRANCH  11  16
ATOM     16  S   UNL A   1      34.855  21.737  25.861  1.00  0.00     0.238 S 
ATOM     17  O   UNL A   1      36.282  21.692  26.116  1.00  0.00    -0.207 OA
ATOM     18  O   UNL A   1      34.238  21.034  24.768  1.00  0.00    -0.207 OA
BRANCH  16  19
ATOM     19  N   UNL A   1      34.144  21.159  27.268  1.00  0.00    -0.225 NA
ATOM     20  H   UNL A   1      34.865  20.990  27.969  1.00  0.00     0.137 HD
ATOM     21  H   UNL A   1      33.653  20.288  27.068  1.00  0.00     0.137 HD
ENDBRANCH  16  19
ENDBRANCH  11  16
ENDBRANCH   6  10
BRANCH   8  22
ATOM     22  C   UNL A   1      32.303  27.763  23.260  1.00  0.00     0.054 A 
ATOM     23  C   UNL A   1      33.111  26.862  22.566  1.00  0.00     0.031 A 
ATOM     24  S   UNL A   1      30.725  27.516  22.508  1.00  0.00    -0.134 S 
ATOM     25  C   UNL A   1      32.391  25.591  22.586  1.00  0.00    -0.007 A 
ATOM     26  C   UNL A   1      31.014  25.812  22.754  1.00  0.00     0.035 A 
ATOM     27  C   UNL A   1      32.865  24.263  22.654  1.00  0.00     0.009 A 
ATOM     28  C   UNL A   1      30.125  24.793  23.126  1.00  0.00     0.019 A 
ATOM     29  C   UNL A   1      31.996  23.248  23.071  1.00  0.00     0.001 A 
ATOM     30  C   UNL A   1      30.656  23.519  23.342  1.00  0.00     0.001 A 
ENDBRANCH   8  22
ENDBRANCH   3   5
ENDBRANCH   2   3
ENDBRANCH   1   2
BRANCH   1  31
ATOM     31  C   UNL A   1      35.562  32.470  28.002  1.00  0.00     0.275 C 
BRANCH  31  32
ATOM     32  O   UNL A   1      36.106  32.724  29.293  1.00  0.00    -0.458 OA
BRANCH  32  33
ATOM     33  C   UNL A   1      36.374  31.623  30.030  1.00  0.00     0.338 C 
ATOM     34  O   UNL A   1      35.950  31.355  31.142  1.00  0.00    -0.246 OA
BRANCH  33  35
ATOM     35  C   UNL A   1      37.433  30.863  29.373  1.00  0.00     0.060 A 
ATOM     36  C   UNL A   1      37.163  29.528  29.055  1.00  0.00     0.016 A 
ATOM     37  C   UNL A   1      38.733  31.365  29.491  1.00  0.00     0.016 A 
ATOM     38  C   UNL A   1      38.208  28.635  29.099  1.00  0.00     0.010 A 
ATOM     39  C   UNL A   1      39.760  30.472  29.578  1.00  0.00     0.010 A 
ATOM     40  C   UNL A   1      39.467  29.115  29.470  1.00  0.00    -0.014 A 
BRANCH  40  41
ATOM     41  C   UNL A   1      40.569  28.195  29.605  1.00  0.00     0.031 A 
ATOM     42  C   UNL A   1      41.052  28.140  31.002  1.00  0.00     0.074 A 
ATOM     43  C   UNL A   1      40.933  27.382  28.593  1.00  0.00     0.049 A 
ATOM     44  N   UNL A   1      42.193  28.546  31.445  1.00  0.00    -0.248 NA
ATOM     45  C   UNL A   1      40.078  27.813  32.064  1.00  0.00     0.031 C 
ATOM     46  C   UNL A   1      40.306  27.225  27.275  1.00  0.00     0.029 A 
ATOM     47  N   UNL A   1      41.884  26.415  28.579  1.00  0.00    -0.354 N 
ATOM     48  C   UNL A   1      42.163  28.298  32.812  1.00  0.00     0.074 A 
ATOM     49  C   UNL A   1      40.784  28.093  33.158  1.00  0.00     0.031 C 
ATOM     50  C   UNL A   1      40.725  26.065  26.715  1.00  0.00     0.029 A 
ATOM     51  C   UNL A   1      41.732  25.465  27.575  1.00  0.00     0.049 A 
ATOM     52  H   UNL A   1      42.624  26.388  29.229  1.00  0.00     0.167 HD
ATOM     53  C   UNL A   1      43.299  27.938  33.469  1.00  0.00     0.031 A 
ATOM     54  C   UNL A   1      42.342  24.252  27.510  1.00  0.00     0.031 A 
ATOM     55  C   UNL A   1      44.470  28.268  32.693  1.00  0.00     0.049 A 
ATOM     56  C   UNL A   1      43.496  24.291  28.443  1.00  0.00     0.074 A 
ATOM     57  C   UNL A   1      44.988  29.436  32.171  1.00  0.00     0.029 A 
ATOM     58  N   UNL A   1      45.051  27.240  31.986  1.00  0.00    -0.354 N 
ATOM     59  N   UNL A   1      44.547  25.032  28.235  1.00  0.00    -0.248 NA
ATOM     60  C   UNL A   1      43.260  23.919  29.832  1.00  0.00     0.031 C 
ATOM     61  C   UNL A   1      45.487  29.074  30.885  1.00  0.00     0.029 A 
ATOM     62  C   UNL A   1      45.340  27.695  30.728  1.00  0.00     0.049 A 
ATOM     63  H   UNL A   1      45.228  26.333  32.327  1.00  0.00     0.167 HD
ATOM     64  C   UNL A   1      44.820  25.603  29.470  1.00  0.00     0.074 A 
ATOM     65  C   UNL A   1      44.055  24.810  30.435  1.00  0.00     0.031 C 
ATOM     66  C   UNL A   1      45.377  26.847  29.558  1.00  0.00     0.031 A 
BRANCH  53  67
ATOM     67  C   UNL A   1      43.317  26.847  34.518  1.00  0.00    -0.014 A 
ATOM     68  C   UNL A   1      43.923  27.136  35.752  1.00  0.00     0.009 A 
ATOM     69  C   UNL A   1      43.056  25.490  34.249  1.00  0.00     0.009 A 
ATOM     70  C   UNL A   1      44.357  26.117  36.605  1.00  0.00     0.001 A 
ATOM     71  C   UNL A   1      43.452  24.471  35.117  1.00  0.00     0.001 A 
ATOM     72  C   UNL A   1      44.137  24.784  36.279  1.00  0.00     0.000 A 
ENDBRANCH  53  67
BRANCH  54  73
ATOM     73  C   UNL A   1      41.847  22.976  26.939  1.00  0.00    -0.014 A 
ATOM     74  C   UNL A   1      42.739  21.984  26.495  1.00  0.00     0.009 A 
ATOM     75  C   UNL A   1      40.495  22.612  27.082  1.00  0.00     0.009 A 
ATOM     76  C   UNL A   1      42.301  20.674  26.242  1.00  0.00     0.001 A 
ATOM     77  C   UNL A   1      40.057  21.307  26.828  1.00  0.00     0.001 A 
ATOM     78  C   UNL A   1      40.963  20.332  26.423  1.00  0.00     0.000 A 
ENDBRANCH  54  73
BRANCH  66  79
ATOM     79  C   UNL A   1      45.871  27.490  28.284  1.00  0.00    -0.014 A 
ATOM     80  C   UNL A   1      47.187  27.352  27.803  1.00  0.00     0.009 A 
ATOM     81  C   UNL A   1      44.927  28.119  27.461  1.00  0.00     0.009 A 
ATOM     82  C   UNL A   1      47.548  27.856  26.548  1.00  0.00     0.001 A 
ATOM     83  C   UNL A   1      45.281  28.601  26.200  1.00  0.00     0.001 A 
ATOM     84  C   UNL A   1      46.591  28.475  25.746  1.00  0.00     0.000 A 
ENDBRANCH  66  79
ENDBRANCH  40  41
ENDBRANCH  33  35
ENDBRANCH  32  33
ENDBRANCH  31  32
ENDBRANCH   1  31
TORSDOF 15
ENDMDL
MODEL 3
REMARK VINA RESULT:     -11.8      3.046      6.711
REMARK SMILES NS(=O)(=O)c1ccc(-n2nc(C(=O)OCCOC(=O)c3ccc(-c4c5nc(c(-c6ccccc6)c6ccc([nH]6)c(-c6ccccc6)c6nc(c(-c7ccccc7)c7ccc4[nH]7)C=C6)C=C5)cc3)cc2-c2cc3ccccc3s2)cc1
REMARK SMILES IDX 15 1 14 2 12 3 13 4 11 5 9 6 10 7 69 8 68 9 8 10 5 11 6 12
REMARK SMILES IDX 80 13 7 14 79 15 2 16 3 17 4 18 1 19 70 22 71 23 78 24 72 25
REMARK SMILES IDX 77 26 73 27 76 28 74 29 75 30 16 31 17 32 18 33 19 34 20 35
REMARK SMILES IDX 21 36 67 37 22 38 66 39 23 40 24 41 25 42 60 43 26 44 65 45
REMARK SMILES IDX 59 46 61 47 27 48 64 49 58 50 57 51 28 53 50 54 35 55 49 56
REMARK SMILES IDX 36 57 39 58 48 59 62 60 37 61 38 62 47 64 63 65 40 66 29 67
REMARK SMILES IDX 30 68 34 69 31 70 33 71 32 72 51 73 52 74 56 75 53 76 55 77
REMARK SMILES IDX 54 78 41 79 42 80 46 81 43 82 45 83 44 84
REMARK H PARENT 1 20 1 21 61 52 39 63
REMARK Flexibility Score: inf
ROOT
ATOM      1  C   UNL A   1      40.831  21.361  26.483  1.00  0.00     0.275 C 
ENDROOT
BRANCH   1   2
ATOM      2  O   UNL A   1      39.555  21.681  25.906  1.00  0.00    -0.457 OA
BRANCH   2   3
ATOM      3  C   UNL A   1      38.830  22.684  26.508  1.00  0.00     0.358 C 
ATOM      4  O   UNL A   1      39.253  23.377  27.426  1.00  0.00    -0.244 OA
BRANCH   3   5
ATOM      5  C   UNL A   1      37.508  22.836  25.881  1.00  0.00     0.171 A 
ATOM      6  N   UNL A   1      35.633  23.699  25.365  1.00  0.00    -0.231 N 
ATOM      7  N   UNL A   1      36.954  24.002  25.492  1.00  0.00    -0.160 NA
ATOM      8  C   UNL A   1      35.381  22.388  25.694  1.00  0.00     0.085 A 
ATOM      9  C   UNL A   1      36.616  21.775  25.618  1.00  0.00     0.068 A 
BRANCH   6  10
ATOM     10  C   UNL A   1      34.736  24.608  24.780  1.00  0.00     0.065 A 
ATOM     11  C   UNL A   1      33.046  26.481  23.650  1.00  0.00     0.082 A 
ATOM     12  C   UNL A   1      33.607  25.479  22.847  1.00  0.00     0.024 A 
ATOM     13  C   UNL A   1      33.321  26.549  25.020  1.00  0.00     0.024 A 
ATOM     14  C   UNL A   1      34.477  24.547  23.411  1.00  0.00     0.030 A 
ATOM     15  C   UNL A   1      34.154  25.590  25.595  1.00  0.00     0.030 A 
BRANCH  11  16
ATOM     16  S   UNL A   1      31.969  27.679  22.920  1.00  0.00     0.238 S 
ATOM     17  O   UNL A   1      32.752  28.823  22.495  1.00  0.00    -0.207 OA
ATOM     18  O   UNL A   1      30.793  27.803  23.739  1.00  0.00    -0.207 OA
BRANCH  16  19
ATOM     19  N   UNL A   1      31.489  26.928  21.497  1.00  0.00    -0.225 NA
ATOM     20  H   UNL A   1      31.683  27.542  20.707  1.00  0.00     0.137 HD
ATOM     21  H   UNL A   1      30.489  26.731  21.537  1.00  0.00     0.137 HD
ENDBRANCH  16  19
ENDBRANCH  11  16
ENDBRANCH   6  10
BRANCH   8  22
ATOM     22  C   UNL A   1      34.221  21.799  26.323  1.00  0.00     0.054 A 
ATOM     23  C   UNL A   1      33.012  22.442  26.587  1.00  0.00     0.031 A 
ATOM     24  S   UNL A   1      33.692  20.285  25.582  1.00  0.00    -0.134 S 
ATOM     25  C   UNL A   1      32.248  22.370  25.344  1.00  0.00    -0.007 A 
ATOM     26  C   UNL A   1      32.680  21.282  24.568  1.00  0.00     0.035 A 
ATOM     27  C   UNL A   1      31.340  23.282  24.764  1.00  0.00     0.009 A 
ATOM     28  C   UNL A   1      32.361  21.150  23.208  1.00  0.00     0.019 A 
ATOM     29  C   UNL A   1      31.055  23.186  23.397  1.00  0.00     0.001 A 
ATOM     30  C   UNL A   1      31.591  22.158  22.624  1.00  0.00     0.001 A 
ENDBRANCH   8  22
ENDBRANCH   3   5
ENDBRANCH   2   3
ENDBRANCH   1   2
BRANCH   1  31
ATOM     31  C   UNL A   1      41.956  22.003  25.683  1.00  0.00     0.275 C 
BRANCH  31  32
ATOM     32  O   UNL A   1      42.581  23.025  26.452  1.00  0.00    -0.458 OA
BRANCH  32  33
ATOM     33  C   UNL A   1      42.590  24.250  25.880  1.00  0.00     0.338 C 
ATOM     34  O   UNL A   1      43.269  24.623  24.938  1.00  0.00    -0.246 OA
BRANCH  33  35
ATOM     35  C   UNL A   1      41.791  25.157  26.699  1.00  0.00     0.060 A 
ATOM     36  C   UNL A   1      41.027  26.120  26.032  1.00  0.00     0.016 A 
ATOM     37  C   UNL A   1      42.159  25.280  28.043  1.00  0.00     0.016 A 
ATOM     38  C   UNL A   1      40.842  27.333  26.653  1.00  0.00     0.010 A 
ATOM     39  C   UNL A   1      42.012  26.497  28.639  1.00  0.00     0.010 A 
ATOM     40  C   UNL A   1      41.438  27.529  27.902  1.00  0.00    -0.014 A 
BRANCH  40  41
ATOM     41  C   UNL A   1      41.332  28.815  28.548  1.00  0.00     0.031 A 
ATOM     42  C   UNL A   1      42.498  29.668  28.232  1.00  0.00     0.074 A 
ATOM     43  C   UNL A   1      40.204  29.192  29.181  1.00  0.00     0.049 A 
ATOM     44  N   UNL A   1      43.412  30.067  29.049  1.00  0.00    -0.248 NA
ATOM     45  C   UNL A   1      42.814  29.918  26.810  1.00  0.00     0.031 C 
ATOM     46  C   UNL A   1      38.931  28.470  29.289  1.00  0.00     0.029 A 
ATOM     47  N   UNL A   1      39.914  30.381  29.765  1.00  0.00    -0.354 N 
ATOM     48  C   UNL A   1      44.288  30.821  28.278  1.00  0.00     0.074 A 
ATOM     49  C   UNL A   1      44.014  30.487  26.908  1.00  0.00     0.031 C 
ATOM     50  C   UNL A   1      37.956  29.333  29.664  1.00  0.00     0.029 A 
ATOM     51  C   UNL A   1      38.556  30.629  29.934  1.00  0.00     0.049 A 
ATOM     52  H   UNL A   1      40.610  31.018  30.048  1.00  0.00     0.167 HD
ATOM     53  C   UNL A   1      44.914  31.904  28.813  1.00  0.00     0.031 A 
ATOM     54  C   UNL A   1      37.981  31.831  30.206  1.00  0.00     0.031 A 
ATOM     55  C   UNL A   1      44.874  31.864  30.254  1.00  0.00     0.049 A 
ATOM     56  C   UNL A   1      39.054  32.728  30.705  1.00  0.00     0.074 A 
ATOM     57  C   UNL A   1      45.319  30.973  31.211  1.00  0.00     0.029 A 
ATOM     58  N   UNL A   1      43.915  32.638  30.867  1.00  0.00    -0.354 N 
ATOM     59  N   UNL A   1      39.646  32.549  31.851  1.00  0.00    -0.248 NA
ATOM     60  C   UNL A   1      39.812  33.492  29.723  1.00  0.00     0.031 C 
ATOM     61  C   UNL A   1      44.289  30.947  32.196  1.00  0.00     0.029 A 
ATOM     62  C   UNL A   1      43.320  31.888  31.845  1.00  0.00     0.049 A 
ATOM     63  H   UNL A   1      43.695  33.571  30.640  1.00  0.00     0.167 HD
ATOM     64  C   UNL A   1      40.992  32.750  31.581  1.00  0.00     0.074 A 
ATOM     65  C   UNL A   1      41.026  33.420  30.279  1.00  0.00     0.031 C 
ATOM     66  C   UNL A   1      41.953  32.075  32.279  1.00  0.00     0.031 A 
BRANCH  53  67
ATOM     67  C   UNL A   1      45.072  33.204  28.054  1.00  0.00    -0.014 A 
ATOM     68  C   UNL A   1      43.929  34.002  27.878  1.00  0.00     0.009 A 
ATOM     69  C   UNL A   1      46.189  33.522  27.257  1.00  0.00     0.009 A 
ATOM     70  C   UNL A   1      43.868  34.974  26.873  1.00  0.00     0.001 A 
ATOM     71  C   UNL A   1      46.146  34.518  26.280  1.00  0.00     0.001 A 
ATOM     72  C   UNL A   1      44.971  35.219  26.063  1.00  0.00     0.000 A 
ENDBRANCH  53  67
BRANCH  54  73
ATOM     73  C   UNL A   1      36.656  32.357  29.797  1.00  0.00    -0.014 A 
ATOM     74  C   UNL A   1      35.679  32.688  30.753  1.00  0.00     0.009 A 
ATOM     75  C   UNL A   1      36.443  32.797  28.477  1.00  0.00     0.009 A 
ATOM     76  C   UNL A   1      34.557  33.459  30.408  1.00  0.00     0.001 A 
ATOM     77  C   UNL A   1      35.324  33.564  28.132  1.00  0.00     0.001 A 
ATOM     78  C   UNL A   1      34.387  33.908  29.101  1.00  0.00     0.000 A 
ENDBRANCH  54  73
BRANCH  66  79
ATOM     79  C   UNL A   1      41.518  31.267  33.478  1.00  0.00    -0.014 A 
ATOM     80  C   UNL A   1      41.156  29.908  33.410  1.00  0.00     0.009 A 
ATOM     81  C   UNL A   1      41.640  31.858  34.743  1.00  0.00     0.009 A 
ATOM     82  C   UNL A   1      40.896  29.176  34.574  1.00  0.00     0.001 A 
ATOM     83  C   UNL A   1      41.402  31.122  35.905  1.00  0.00     0.001 A 
ATOM     84  C   UNL A   1      41.025  29.785  35.821  1.00  0.00     0.000 A 
ENDBRANCH  66  79
ENDBRANCH  40  41
ENDBRANCH  33  35
ENDBRANCH  32  33
ENDBRANCH  31  32
ENDBRANCH   1  31
TORSDOF 15
ENDMDL
