MODEL 1
REMARK VINA RESULT:      -9.9      0.000      0.000
REMARK SMILES CC(=O)[C@@H]1CCCC[N@H+]1CC(C)(C)C(=O)OCCOC(=O)c1ccc(-c2c3nc(c(-c4ccccc4)c4ccc([nH]4)c(-c4ccccc4)c4nc(c(-c5ccccc5)c5ccc2[nH]5)C=C4)C=C3)cc1
REMARK SMILES IDX 17 1 16 2 14 3 15 4 11 5 12 6 13 7 10 8 9 9 4 10 5 11 6 12
REMARK SMILES IDX 8 13 7 15 2 16 1 17 3 18 18 19 19 20 20 21 21 22 22 23 23 24
REMARK SMILES IDX 69 25 24 26 68 27 25 28 26 29 27 30 62 31 28 32 67 33 61 34
REMARK SMILES IDX 63 35 29 36 66 37 60 38 59 39 30 41 52 42 37 43 51 44 38 45
REMARK SMILES IDX 41 46 50 47 64 48 39 49 40 50 49 52 65 53 42 54 31 55 32 56
REMARK SMILES IDX 36 57 33 58 35 59 34 60 53 61 54 62 58 63 55 64 57 65 56 66
REMARK SMILES IDX 43 67 44 68 48 69 45 70 47 71 46 72
REMARK H PARENT 9 14 63 40 41 51
REMARK Flexibility Score: inf
ROOT
ATOM      1  C   UNL A   1      38.279  19.905  24.984  1.00  0.00     0.274 C 
ENDROOT
BRANCH   1   2
ATOM      2  O   UNL A   1      37.645  21.081  25.546  1.00  0.00    -0.461 OA
BRANCH   2   3
ATOM      3  C   UNL A   1      36.382  21.276  25.085  1.00  0.00     0.317 C 
ATOM      4  O   UNL A   1      35.603  20.340  24.999  1.00  0.00    -0.251 OA
BRANCH   3   5
ATOM      5  C   UNL A   1      36.051  22.721  24.699  1.00  0.00     0.111 C 
ATOM      6  C   UNL A   1      36.268  22.946  23.200  1.00  0.00     0.029 C 
ATOM      7  C   UNL A   1      37.039  23.621  25.486  1.00  0.00     0.029 C 
BRANCH   5   8
ATOM      8  C   UNL A   1      34.593  23.184  25.097  1.00  0.00     0.281 C 
BRANCH   8   9
ATOM      9  N   UNL A   1      33.507  23.679  24.208  1.00  0.00    -0.325 N 
ATOM     10  C   UNL A   1      32.163  23.138  24.474  1.00  0.00     0.251 C 
ATOM     11  C   UNL A   1      31.078  23.694  23.526  1.00  0.00     0.074 C 
ATOM     12  C   UNL A   1      31.102  25.212  23.427  1.00  0.00     0.012 C 
ATOM     13  C   UNL A   1      33.516  25.120  23.961  1.00  0.00     0.262 C 
ATOM     14  H   UNL A   1      33.766  23.260  23.315  1.00  0.00     0.348 HD
ATOM     15  C   UNL A   1      32.480  25.638  22.975  1.00  0.00     0.062 C 
BRANCH  10  16
ATOM     16  C   UNL A   1      32.153  21.611  24.301  1.00  0.00     0.186 C 
ATOM     17  C   UNL A   1      32.318  21.034  22.910  1.00  0.00     0.094 C 
ATOM     18  O   UNL A   1      31.991  20.868  25.274  1.00  0.00    -0.293 OA
ENDBRANCH  10  16
ENDBRANCH   8   9
ENDBRANCH   5   8
ENDBRANCH   3   5
ENDBRANCH   2   3
ENDBRANCH   1   2
BRANCH   1  19
ATOM     19  C   UNL A   1      39.330  19.224  25.892  1.00  0.00     0.275 C 
BRANCH  19  20
ATOM     20  O   UNL A   1      40.686  19.235  25.375  1.00  0.00    -0.458 OA
BRANCH  20  21
ATOM     21  C   UNL A   1      41.666  19.440  26.293  1.00  0.00     0.338 C 
ATOM     22  O   UNL A   1      42.519  18.631  26.625  1.00  0.00    -0.246 OA
BRANCH  21  23
ATOM     23  C   UNL A   1      41.746  20.861  26.724  1.00  0.00     0.060 A 
ATOM     24  C   UNL A   1      41.429  21.813  25.752  1.00  0.00     0.016 A 
ATOM     25  C   UNL A   1      42.214  21.297  27.959  1.00  0.00     0.016 A 
ATOM     26  C   UNL A   1      41.497  23.184  26.004  1.00  0.00     0.010 A 
ATOM     27  C   UNL A   1      42.346  22.684  28.204  1.00  0.00     0.010 A 
ATOM     28  C   UNL A   1      41.981  23.638  27.230  1.00  0.00    -0.014 A 
BRANCH  28  29
ATOM     29  C   UNL A   1      42.245  25.094  27.414  1.00  0.00     0.031 A 
ATOM     30  C   UNL A   1      43.474  25.700  26.792  1.00  0.00     0.074 A 
ATOM     31  C   UNL A   1      41.374  25.902  28.049  1.00  0.00     0.049 A 
ATOM     32  N   UNL A   1      43.947  26.917  26.893  1.00  0.00    -0.248 NA
ATOM     33  C   UNL A   1      44.265  24.814  25.926  1.00  0.00     0.031 C 
ATOM     34  C   UNL A   1      40.074  25.497  28.580  1.00  0.00     0.029 A 
ATOM     35  N   UNL A   1      41.453  27.243  28.349  1.00  0.00    -0.354 N 
ATOM     36  C   UNL A   1      45.106  26.936  26.125  1.00  0.00     0.074 A 
ATOM     37  C   UNL A   1      45.265  25.607  25.572  1.00  0.00     0.031 C 
ATOM     38  C   UNL A   1      39.481  26.563  29.146  1.00  0.00     0.029 A 
ATOM     39  C   UNL A   1      40.381  27.712  29.070  1.00  0.00     0.049 A 
ATOM     40  H   UNL A   1      42.207  27.812  28.072  1.00  0.00     0.167 HD
ATOM     41  C   UNL A   1      45.966  27.961  25.905  1.00  0.00     0.031 A 
ATOM     42  C   UNL A   1      40.166  28.918  29.637  1.00  0.00     0.031 A 
ATOM     43  C   UNL A   1      45.827  29.278  26.470  1.00  0.00     0.049 A 
ATOM     44  C   UNL A   1      41.216  29.996  29.513  1.00  0.00     0.074 A 
ATOM     45  C   UNL A   1      46.671  30.369  26.335  1.00  0.00     0.029 A 
ATOM     46  N   UNL A   1      44.780  29.683  27.283  1.00  0.00    -0.354 N 
ATOM     47  N   UNL A   1      42.334  29.993  28.829  1.00  0.00    -0.248 NA
ATOM     48  C   UNL A   1      40.973  31.247  30.251  1.00  0.00     0.031 C 
ATOM     49  C   UNL A   1      46.167  31.411  27.121  1.00  0.00     0.029 A 
ATOM     50  C   UNL A   1      44.972  30.996  27.684  1.00  0.00     0.049 A 
ATOM     51  H   UNL A   1      44.014  29.120  27.538  1.00  0.00     0.167 HD
ATOM     52  C   UNL A   1      42.906  31.244  29.024  1.00  0.00     0.074 A 
ATOM     53  C   UNL A   1      42.008  31.988  29.881  1.00  0.00     0.031 C 
ATOM     54  C   UNL A   1      44.072  31.734  28.534  1.00  0.00     0.031 A 
BRANCH  41  55
ATOM     55  C   UNL A   1      47.184  27.661  25.074  1.00  0.00    -0.014 A 
ATOM     56  C   UNL A   1      47.186  27.821  23.680  1.00  0.00     0.009 A 
ATOM     57  C   UNL A   1      48.351  27.201  25.705  1.00  0.00     0.009 A 
ATOM     58  C   UNL A   1      48.314  27.474  22.930  1.00  0.00     0.001 A 
ATOM     59  C   UNL A   1      49.488  26.888  24.957  1.00  0.00     0.001 A 
ATOM     60  C   UNL A   1      49.462  27.011  23.570  1.00  0.00     0.000 A 
ENDBRANCH  41  55
BRANCH  42  61
ATOM     61  C   UNL A   1      38.931  29.174  30.432  1.00  0.00    -0.014 A 
ATOM     62  C   UNL A   1      37.793  29.734  29.830  1.00  0.00     0.009 A 
ATOM     63  C   UNL A   1      38.904  28.914  31.811  1.00  0.00     0.009 A 
ATOM     64  C   UNL A   1      36.667  30.050  30.597  1.00  0.00     0.001 A 
ATOM     65  C   UNL A   1      37.766  29.201  32.570  1.00  0.00     0.001 A 
ATOM     66  C   UNL A   1      36.653  29.779  31.964  1.00  0.00     0.000 A 
ENDBRANCH  42  61
BRANCH  54  67
ATOM     67  C   UNL A   1      44.423  33.162  28.862  1.00  0.00    -0.014 A 
ATOM     68  C   UNL A   1      45.195  33.492  29.987  1.00  0.00     0.009 A 
ATOM     69  C   UNL A   1      44.009  34.192  28.001  1.00  0.00     0.009 A 
ATOM     70  C   UNL A   1      45.514  34.825  30.259  1.00  0.00     0.001 A 
ATOM     71  C   UNL A   1      44.357  35.519  28.257  1.00  0.00     0.001 A 
ATOM     72  C   UNL A   1      45.101  35.836  29.392  1.00  0.00     0.000 A 
ENDBRANCH  54  67
ENDBRANCH  28  29
ENDBRANCH  21  23
ENDBRANCH  20  21
ENDBRANCH  19  20
ENDBRANCH   1  19
TORSDOF 14
ENDMDL
MODEL 2
REMARK VINA RESULT:      -9.7      3.707      8.091
REMARK SMILES CC(=O)[C@@H]1CCCC[N@H+]1CC(C)(C)C(=O)OCCOC(=O)c1ccc(-c2c3nc(c(-c4ccccc4)c4ccc([nH]4)c(-c4ccccc4)c4nc(c(-c5ccccc5)c5ccc2[nH]5)C=C4)C=C3)cc1
REMARK SMILES IDX 17 1 16 2 14 3 15 4 11 5 12 6 13 7 10 8 9 9 4 10 5 11 6 12
REMARK SMILES IDX 8 13 7 15 2 16 1 17 3 18 18 19 19 20 20 21 21 22 22 23 23 24
REMARK SMILES IDX 69 25 24 26 68 27 25 28 26 29 27 30 62 31 28 32 67 33 61 34
REMARK SMILES IDX 63 35 29 36 66 37 60 38 59 39 30 41 52 42 37 43 51 44 38 45
REMARK SMILES IDX 41 46 50 47 64 48 39 49 40 50 49 52 65 53 42 54 31 55 32 56
REMARK SMILES IDX 36 57 33 58 35 59 34 60 53 61 54 62 58 63 55 64 57 65 56 66
REMARK SMILES IDX 43 67 44 68 48 69 45 70 47 71 46 72
REMARK H PARENT 9 14 63 40 41 51
REMARK Flexibility Score: inf
ROOT
ATOM      1  C   UNL A   1      31.752  29.463  25.999  1.00  0.00     0.274 C 
ENDROOT
BRANCH   1   2
ATOM      2  O   UNL A   1      31.231  28.351  25.231  1.00  0.00    -0.461 OA
BRANCH   2   3
ATOM      3  C   UNL A   1      31.468  27.145  25.811  1.00  0.00     0.317 C 
ATOM      4  O   UNL A   1      31.035  26.899  26.927  1.00  0.00    -0.251 OA
BRANCH   3   5
ATOM      5  C   UNL A   1      32.298  26.173  24.967  1.00  0.00     0.111 C 
ATOM      6  C   UNL A   1      33.636  25.867  25.648  1.00  0.00     0.029 C 
ATOM      7  C   UNL A   1      32.578  26.892  23.621  1.00  0.00     0.029 C 
BRANCH   5   8
ATOM      8  C   UNL A   1      31.561  24.820  24.619  1.00  0.00     0.281 C 
BRANCH   8   9
ATOM      9  N   UNL A   1      32.136  23.448  24.545  1.00  0.00    -0.325 N 
ATOM     10  C   UNL A   1      31.553  22.457  25.465  1.00  0.00     0.251 C 
ATOM     11  C   UNL A   1      32.183  21.053  25.336  1.00  0.00     0.074 C 
ATOM     12  C   UNL A   1      32.249  20.565  23.897  1.00  0.00     0.012 C 
ATOM     13  C   UNL A   1      32.343  22.935  23.191  1.00  0.00     0.262 C 
ATOM     14  H   UNL A   1      33.075  23.600  24.913  1.00  0.00     0.348 HD
ATOM     15  C   UNL A   1      33.023  21.579  23.085  1.00  0.00     0.062 C 
BRANCH  10  16
ATOM     16  C   UNL A   1      31.753  22.894  26.925  1.00  0.00     0.186 C 
ATOM     17  C   UNL A   1      33.095  22.642  27.583  1.00  0.00     0.094 C 
ATOM     18  O   UNL A   1      30.832  23.418  27.558  1.00  0.00    -0.293 OA
ENDBRANCH  10  16
ENDBRANCH   8   9
ENDBRANCH   5   8
ENDBRANCH   3   5
ENDBRANCH   2   3
ENDBRANCH   1   2
BRANCH   1  19
ATOM     19  C   UNL A   1      33.294  29.588  26.019  1.00  0.00     0.275 C 
BRANCH  19  20
ATOM     20  O   UNL A   1      33.906  29.413  27.323  1.00  0.00    -0.458 OA
BRANCH  20  21
ATOM     21  C   UNL A   1      34.579  30.489  27.808  1.00  0.00     0.338 C 
ATOM     22  O   UNL A   1      34.118  31.607  27.978  1.00  0.00    -0.246 OA
BRANCH  21  23
ATOM     23  C   UNL A   1      35.922  30.123  28.333  1.00  0.00     0.060 A 
ATOM     24  C   UNL A   1      36.985  30.254  27.438  1.00  0.00     0.016 A 
ATOM     25  C   UNL A   1      36.164  29.563  29.584  1.00  0.00     0.016 A 
ATOM     26  C   UNL A   1      38.294  29.912  27.783  1.00  0.00     0.010 A 
ATOM     27  C   UNL A   1      37.476  29.155  29.920  1.00  0.00     0.010 A 
ATOM     28  C   UNL A   1      38.552  29.333  29.025  1.00  0.00    -0.014 A 
BRANCH  28  29
ATOM     29  C   UNL A   1      39.909  28.782  29.302  1.00  0.00     0.031 A 
ATOM     30  C   UNL A   1      40.879  29.596  30.115  1.00  0.00     0.074 A 
ATOM     31  C   UNL A   1      40.266  27.540  28.919  1.00  0.00     0.049 A 
ATOM     32  N   UNL A   1      42.134  29.356  30.404  1.00  0.00    -0.248 NA
ATOM     33  C   UNL A   1      40.354  30.843  30.691  1.00  0.00     0.031 C 
ATOM     34  C   UNL A   1      39.395  26.576  28.252  1.00  0.00     0.029 A 
ATOM     35  N   UNL A   1      41.465  26.875  29.045  1.00  0.00    -0.354 N 
ATOM     36  C   UNL A   1      42.557  30.433  31.175  1.00  0.00     0.074 A 
ATOM     37  C   UNL A   1      41.425  31.329  31.300  1.00  0.00     0.031 C 
ATOM     38  C   UNL A   1      40.088  25.446  28.022  1.00  0.00     0.029 A 
ATOM     39  C   UNL A   1      41.467  25.627  28.471  1.00  0.00     0.049 A 
ATOM     40  H   UNL A   1      42.247  27.259  29.504  1.00  0.00     0.167 HD
ATOM     41  C   UNL A   1      43.775  30.664  31.722  1.00  0.00     0.031 A 
ATOM     42  C   UNL A   1      42.474  24.745  28.294  1.00  0.00     0.031 A 
ATOM     43  C   UNL A   1      44.911  29.790  31.582  1.00  0.00     0.049 A 
ATOM     44  C   UNL A   1      43.863  25.095  28.771  1.00  0.00     0.074 A 
ATOM     45  C   UNL A   1      46.197  29.961  32.068  1.00  0.00     0.029 A 
ATOM     46  N   UNL A   1      44.900  28.583  30.902  1.00  0.00    -0.354 N 
ATOM     47  N   UNL A   1      44.268  26.138  29.454  1.00  0.00    -0.248 NA
ATOM     48  C   UNL A   1      44.937  24.143  28.444  1.00  0.00     0.031 C 
ATOM     49  C   UNL A   1      46.979  28.889  31.624  1.00  0.00     0.029 A 
ATOM     50  C   UNL A   1      46.163  28.013  30.926  1.00  0.00     0.049 A 
ATOM     51  H   UNL A   1      44.111  28.188  30.465  1.00  0.00     0.167 HD
ATOM     52  C   UNL A   1      45.629  25.951  29.667  1.00  0.00     0.074 A 
ATOM     53  C   UNL A   1      45.980  24.689  29.052  1.00  0.00     0.031 C 
ATOM     54  C   UNL A   1      46.508  26.754  30.317  1.00  0.00     0.031 A 
BRANCH  41  55
ATOM     55  C   UNL A   1      43.957  31.965  32.457  1.00  0.00    -0.014 A 
ATOM     56  C   UNL A   1      43.724  32.074  33.837  1.00  0.00     0.009 A 
ATOM     57  C   UNL A   1      44.361  33.106  31.746  1.00  0.00     0.009 A 
ATOM     58  C   UNL A   1      43.841  33.310  34.477  1.00  0.00     0.001 A 
ATOM     59  C   UNL A   1      44.511  34.333  32.395  1.00  0.00     0.001 A 
ATOM     60  C   UNL A   1      44.236  34.436  33.757  1.00  0.00     0.000 A 
ENDBRANCH  41  55
BRANCH  42  61
ATOM     61  C   UNL A   1      42.239  23.458  27.579  1.00  0.00    -0.014 A 
ATOM     62  C   UNL A   1      41.823  22.314  28.279  1.00  0.00     0.009 A 
ATOM     63  C   UNL A   1      42.485  23.351  26.201  1.00  0.00     0.009 A 
ATOM     64  C   UNL A   1      41.685  21.089  27.619  1.00  0.00     0.001 A 
ATOM     65  C   UNL A   1      42.316  22.133  25.538  1.00  0.00     0.001 A 
ATOM     66  C   UNL A   1      41.927  21.000  26.250  1.00  0.00     0.000 A 
ENDBRANCH  42  61
BRANCH  54  67
ATOM     67  C   UNL A   1      47.928  26.270  30.451  1.00  0.00    -0.014 A 
ATOM     68  C   UNL A   1      48.868  26.449  29.424  1.00  0.00     0.009 A 
ATOM     69  C   UNL A   1      48.343  25.664  31.648  1.00  0.00     0.009 A 
ATOM     70  C   UNL A   1      50.182  25.999  29.581  1.00  0.00     0.001 A 
ATOM     71  C   UNL A   1      49.664  25.246  31.815  1.00  0.00     0.001 A 
ATOM     72  C   UNL A   1      50.581  25.404  30.778  1.00  0.00     0.000 A 
ENDBRANCH  54  67
ENDBRANCH  28  29
ENDBRANCH  21  23
ENDBRANCH  20  21
ENDBRANCH  19  20
ENDBRANCH   1  19
TORSDOF 14
ENDMDL
MODEL 3
REMARK VINA RESULT:      -9.7      1.639      2.036
REMARK SMILES CC(=O)[C@@H]1CCCC[N@H+]1CC(C)(C)C(=O)OCCOC(=O)c1ccc(-c2c3nc(c(-c4ccccc4)c4ccc([nH]4)c(-c4ccccc4)c4nc(c(-c5ccccc5)c5ccc2[nH]5)C=C4)C=C3)cc1
REMARK SMILES IDX 17 1 16 2 14 3 15 4 11 5 12 6 13 7 10 8 9 9 4 10 5 11 6 12
REMARK SMILES IDX 8 13 7 15 2 16 1 17 3 18 18 19 19 20 20 21 21 22 22 23 23 24
REMARK SMILES IDX 69 25 24 26 68 27 25 28 26 29 27 30 62 31 28 32 67 33 61 34
REMARK SMILES IDX 63 35 29 36 66 37 60 38 59 39 30 41 52 42 37 43 51 44 38 45
REMARK SMILES IDX 41 46 50 47 64 48 39 49 40 50 49 52 65 53 42 54 31 55 32 56
REMARK SMILES IDX 36 57 33 58 35 59 34 60 53 61 54 62 58 63 55 64 57 65 56 66
REMARK SMILES IDX 43 67 44 68 48 69 45 70 47 71 46 72
REMARK H PARENT 9 14 63 40 41 51
REMARK Flexibility Score: inf
ROOT
ATOM      1  C   UNL A   1      38.214  19.845  25.049  1.00  0.00     0.274 C 
ENDROOT
BRANCH   1   2
ATOM      2  O   UNL A   1      37.730  21.206  25.157  1.00  0.00    -0.461 OA
BRANCH   2   3
ATOM      3  C   UNL A   1      36.388  21.310  24.976  1.00  0.00     0.317 C 
ATOM      4  O   UNL A   1      35.708  20.311  24.799  1.00  0.00    -0.251 OA
BRANCH   3   5
ATOM      5  C   UNL A   1      35.839  22.739  25.013  1.00  0.00     0.111 C 
ATOM      6  C   UNL A   1      35.518  23.235  23.599  1.00  0.00     0.029 C 
ATOM      7  C   UNL A   1      36.966  23.625  25.607  1.00  0.00     0.029 C 
BRANCH   5   8
ATOM      8  C   UNL A   1      34.572  22.928  25.938  1.00  0.00     0.281 C 
BRANCH   8   9
ATOM      9  N   UNL A   1      33.250  23.514  25.585  1.00  0.00    -0.325 N 
ATOM     10  C   UNL A   1      32.087  22.627  25.761  1.00  0.00     0.251 C 
ATOM     11  C   UNL A   1      30.745  23.292  25.387  1.00  0.00     0.074 C 
ATOM     12  C   UNL A   1      30.559  24.655  26.036  1.00  0.00     0.012 C 
ATOM     13  C   UNL A   1      33.024  24.874  26.073  1.00  0.00     0.262 C 
ATOM     14  H   UNL A   1      33.332  23.610  24.573  1.00  0.00     0.348 HD
ATOM     15  C   UNL A   1      31.724  25.534  25.640  1.00  0.00     0.062 C 
BRANCH  10  16
ATOM     16  C   UNL A   1      32.221  21.381  24.872  1.00  0.00     0.186 C 
ATOM     17  C   UNL A   1      32.337  21.566  23.372  1.00  0.00     0.094 C 
ATOM     18  O   UNL A   1      32.209  20.250  25.366  1.00  0.00    -0.293 OA
ENDBRANCH  10  16
ENDBRANCH   8   9
ENDBRANCH   5   8
ENDBRANCH   3   5
ENDBRANCH   2   3
ENDBRANCH   1   2
BRANCH   1  19
ATOM     19  C   UNL A   1      39.340  19.463  26.039  1.00  0.00     0.275 C 
BRANCH  19  20
ATOM     20  O   UNL A   1      40.531  18.905  25.426  1.00  0.00    -0.458 OA
BRANCH  20  21
ATOM     21  C   UNL A   1      41.697  19.133  26.086  1.00  0.00     0.338 C 
ATOM     22  O   UNL A   1      42.665  18.388  26.111  1.00  0.00    -0.246 OA
BRANCH  21  23
ATOM     23  C   UNL A   1      41.778  20.517  26.623  1.00  0.00     0.060 A 
ATOM     24  C   UNL A   1      41.869  21.537  25.673  1.00  0.00     0.016 A 
ATOM     25  C   UNL A   1      41.885  20.847  27.971  1.00  0.00     0.016 A 
ATOM     26  C   UNL A   1      41.988  22.880  26.033  1.00  0.00     0.010 A 
ATOM     27  C   UNL A   1      42.069  22.198  28.343  1.00  0.00     0.010 A 
ATOM     28  C   UNL A   1      42.115  23.226  27.378  1.00  0.00    -0.014 A 
BRANCH  28  29
ATOM     29  C   UNL A   1      42.450  24.634  27.738  1.00  0.00     0.031 A 
ATOM     30  C   UNL A   1      43.895  25.047  27.813  1.00  0.00     0.074 A 
ATOM     31  C   UNL A   1      41.497  25.570  27.917  1.00  0.00     0.049 A 
ATOM     32  N   UNL A   1      44.419  26.187  28.189  1.00  0.00    -0.248 NA
ATOM     33  C   UNL A   1      44.879  24.040  27.390  1.00  0.00     0.031 C 
ATOM     34  C   UNL A   1      40.062  25.364  27.738  1.00  0.00     0.029 A 
ATOM     35  N   UNL A   1      41.601  26.893  28.284  1.00  0.00    -0.354 N 
ATOM     36  C   UNL A   1      45.795  26.026  28.073  1.00  0.00     0.074 A 
ATOM     37  C   UNL A   1      46.021  24.677  27.599  1.00  0.00     0.031 C 
ATOM     38  C   UNL A   1      39.419  26.515  28.002  1.00  0.00     0.029 A 
ATOM     39  C   UNL A   1      40.388  27.524  28.425  1.00  0.00     0.049 A 
ATOM     40  H   UNL A   1      42.464  27.343  28.432  1.00  0.00     0.167 HD
ATOM     41  C   UNL A   1      46.783  26.914  28.345  1.00  0.00     0.031 A 
ATOM     42  C   UNL A   1      40.091  28.760  28.878  1.00  0.00     0.031 A 
ATOM     43  C   UNL A   1      46.567  28.249  28.839  1.00  0.00     0.049 A 
ATOM     44  C   UNL A   1      41.203  29.676  29.327  1.00  0.00     0.074 A 
ATOM     45  C   UNL A   1      47.509  29.206  29.180  1.00  0.00     0.029 A 
ATOM     46  N   UNL A   1      45.323  28.815  29.068  1.00  0.00    -0.354 N 
ATOM     47  N   UNL A   1      42.501  29.500  29.264  1.00  0.00    -0.248 NA
ATOM     48  C   UNL A   1      40.805  30.964  29.919  1.00  0.00     0.031 C 
ATOM     49  C   UNL A   1      46.833  30.326  29.677  1.00  0.00     0.029 A 
ATOM     50  C   UNL A   1      45.471  30.096  29.577  1.00  0.00     0.049 A 
ATOM     51  H   UNL A   1      44.461  28.372  28.895  1.00  0.00     0.167 HD
ATOM     52  C   UNL A   1      43.070  30.662  29.772  1.00  0.00     0.074 A 
ATOM     53  C   UNL A   1      41.979  31.543  30.128  1.00  0.00     0.031 C 
ATOM     54  C   UNL A   1      44.382  30.972  29.926  1.00  0.00     0.031 A 
BRANCH  41  55
ATOM     55  C   UNL A   1      48.198  26.427  28.186  1.00  0.00    -0.014 A 
ATOM     56  C   UNL A   1      48.910  26.600  26.989  1.00  0.00     0.009 A 
ATOM     57  C   UNL A   1      48.826  25.775  29.259  1.00  0.00     0.009 A 
ATOM     58  C   UNL A   1      50.201  26.081  26.853  1.00  0.00     0.001 A 
ATOM     59  C   UNL A   1      50.128  25.288  29.133  1.00  0.00     0.001 A 
ATOM     60  C   UNL A   1      50.808  25.429  27.925  1.00  0.00     0.000 A 
ENDBRANCH  41  55
BRANCH  42  61
ATOM     61  C   UNL A   1      38.672  29.204  28.995  1.00  0.00    -0.014 A 
ATOM     62  C   UNL A   1      38.056  29.918  27.955  1.00  0.00     0.009 A 
ATOM     63  C   UNL A   1      37.945  28.967  30.172  1.00  0.00     0.009 A 
ATOM     64  C   UNL A   1      36.754  30.406  28.103  1.00  0.00     0.001 A 
ATOM     65  C   UNL A   1      36.632  29.428  30.305  1.00  0.00     0.001 A 
ATOM     66  C   UNL A   1      36.042  30.157  29.274  1.00  0.00     0.000 A 
ENDBRANCH  42  61
BRANCH  54  67
ATOM     67  C   UNL A   1      44.718  32.342  30.453  1.00  0.00    -0.014 A 
ATOM     68  C   UNL A   1      44.855  33.448  29.599  1.00  0.00     0.009 A 
ATOM     69  C   UNL A   1      44.855  32.537  31.837  1.00  0.00     0.009 A 
ATOM     70  C   UNL A   1      45.157  34.709  30.117  1.00  0.00     0.001 A 
ATOM     71  C   UNL A   1      45.123  33.805  32.356  1.00  0.00     0.001 A 
ATOM     72  C   UNL A   1      45.284  34.888  31.495  1.00  0.00     0.000 A 
ENDBRANCH  54  67
ENDBRANCH  28  29
ENDBRANCH  21  23
ENDBRANCH  20  21
ENDBRANCH  19  20
ENDBRANCH   1  19
TORSDOF 14
ENDMDL
