MODEL 1
REMARK VINA RESULT:     -11.4      0.000      0.000
REMARK SMILES C[C@H]1[C@@H](C(=O)OCCOC(=O)c2ccc(-c3c4nc(c(-c5ccccc5)c5ccc([nH]5)c(-c5ccccc5)c5nc(c(-c6ccccc6)c6ccc3[nH]6)C=C5)C=C4)cc2)CCN1C(=O)N1CCNC(=O)C1(C)C
REMARK SMILES IDX 7 1 6 2 4 3 5 4 3 5 1 6 2 7 62 8 60 9 61 10 63 11 64 12
REMARK SMILES IDX 65 13 66 14 71 15 67 16 69 17 72 18 73 19 68 20 70 21 8 23
REMARK SMILES IDX 9 24 10 25 11 26 12 27 13 28 59 29 14 30 58 31 15 32 16 33
REMARK SMILES IDX 17 34 52 35 18 36 57 37 51 38 53 39 19 40 56 41 50 42 49 43
REMARK SMILES IDX 20 45 42 46 27 47 41 48 28 49 31 50 40 51 54 52 29 53 30 54
REMARK SMILES IDX 39 56 55 57 32 58 21 59 22 60 26 61 23 62 25 63 24 64 43 65
REMARK SMILES IDX 44 66 48 67 45 68 47 69 46 70 33 71 34 72 38 73 35 74 37 75
REMARK SMILES IDX 36 76
REMARK H PARENT 68 22 53 44 31 55
REMARK Flexibility Score: inf
ROOT
ATOM      1  C   UNL A   1      31.078  29.638  24.389  1.00  0.00     0.274 C 
ENDROOT
BRANCH   1   2
ATOM      2  O   UNL A   1      31.921  28.903  23.479  1.00  0.00    -0.462 OA
BRANCH   2   3
ATOM      3  C   UNL A   1      31.427  27.791  22.899  1.00  0.00     0.311 C 
ATOM      4  O   UNL A   1      30.628  27.805  21.967  1.00  0.00    -0.252 OA
BRANCH   3   5
ATOM      5  C   UNL A   1      31.951  26.486  23.475  1.00  0.00     0.123 C 
ATOM      6  C   UNL A   1      29.905  26.185  25.109  1.00  0.00     0.032 C 
ATOM      7  C   UNL A   1      31.127  25.587  24.421  1.00  0.00     0.098 C 
ATOM      8  N   UNL A   1      32.104  25.160  25.435  1.00  0.00    -0.321 N 
ATOM      9  C   UNL A   1      33.305  26.689  24.187  1.00  0.00     0.039 C 
ATOM     10  C   UNL A   1      33.116  26.169  25.596  1.00  0.00     0.122 C 
BRANCH   8  11
ATOM     11  C   UNL A   1      31.990  24.134  26.341  1.00  0.00     0.321 C 
ATOM     12  O   UNL A   1      31.147  24.133  27.234  1.00  0.00    -0.248 OA
BRANCH  11  13
ATOM     13  N   UNL A   1      32.813  23.059  26.136  1.00  0.00    -0.309 N 
ATOM     14  C   UNL A   1      34.013  22.952  26.949  1.00  0.00     0.143 C 
ATOM     15  C   UNL A   1      32.703  22.113  24.992  1.00  0.00     0.118 C 
ATOM     16  C   UNL A   1      34.141  21.532  27.508  1.00  0.00     0.137 C 
ATOM     17  C   UNL A   1      32.727  20.687  25.599  1.00  0.00     0.245 C 
ATOM     18  C   UNL A   1      31.472  22.319  24.089  1.00  0.00     0.045 C 
ATOM     19  C   UNL A   1      33.939  22.226  24.067  1.00  0.00     0.045 C 
ATOM     20  N   UNL A   1      33.538  20.483  26.694  1.00  0.00    -0.352 N 
ATOM     21  O   UNL A   1      32.193  19.715  25.064  1.00  0.00    -0.272 OA
ATOM     22  H   UNL A   1      33.726  19.551  26.948  1.00  0.00     0.163 HD
ENDBRANCH  11  13
ENDBRANCH   8  11
ENDBRANCH   3   5
ENDBRANCH   2   3
ENDBRANCH   1   2
BRANCH   1  23
ATOM     23  C   UNL A   1      31.612  29.519  25.815  1.00  0.00     0.275 C 
BRANCH  23  24
ATOM     24  O   UNL A   1      32.944  30.055  25.890  1.00  0.00    -0.458 OA
BRANCH  24  25
ATOM     25  C   UNL A   1      33.128  31.020  26.816  1.00  0.00     0.338 C 
ATOM     26  O   UNL A   1      32.343  31.880  27.174  1.00  0.00    -0.246 OA
BRANCH  25  27
ATOM     27  C   UNL A   1      34.446  30.838  27.431  1.00  0.00     0.060 A 
ATOM     28  C   UNL A   1      34.841  29.550  27.788  1.00  0.00     0.016 A 
ATOM     29  C   UNL A   1      35.231  31.940  27.757  1.00  0.00     0.016 A 
ATOM     30  C   UNL A   1      35.979  29.362  28.560  1.00  0.00     0.010 A 
ATOM     31  C   UNL A   1      36.432  31.737  28.441  1.00  0.00     0.010 A 
ATOM     32  C   UNL A   1      36.805  30.450  28.869  1.00  0.00    -0.014 A 
BRANCH  32  33
ATOM     33  C   UNL A   1      38.066  30.250  29.626  1.00  0.00     0.031 A 
ATOM     34  C   UNL A   1      39.191  29.465  29.017  1.00  0.00     0.074 A 
ATOM     35  C   UNL A   1      38.188  30.743  30.874  1.00  0.00     0.049 A 
ATOM     36  N   UNL A   1      40.242  28.945  29.595  1.00  0.00    -0.248 NA
ATOM     37  C   UNL A   1      39.117  29.221  27.566  1.00  0.00     0.031 C 
ATOM     38  C   UNL A   1      37.203  31.582  31.561  1.00  0.00     0.029 A 
ATOM     39  N   UNL A   1      39.196  30.598  31.793  1.00  0.00    -0.354 N 
ATOM     40  C   UNL A   1      40.921  28.259  28.597  1.00  0.00     0.074 A 
ATOM     41  C   UNL A   1      40.172  28.441  27.371  1.00  0.00     0.031 C 
ATOM     42  C   UNL A   1      37.661  31.890  32.782  1.00  0.00     0.029 A 
ATOM     43  C   UNL A   1      38.920  31.192  33.001  1.00  0.00     0.049 A 
ATOM     44  H   UNL A   1      40.035  30.117  31.606  1.00  0.00     0.167 HD
ATOM     45  C   UNL A   1      42.056  27.529  28.702  1.00  0.00     0.031 A 
ATOM     46  C   UNL A   1      39.570  31.129  34.177  1.00  0.00     0.031 A 
ATOM     47  C   UNL A   1      42.810  27.384  29.919  1.00  0.00     0.049 A 
ATOM     48  C   UNL A   1      40.798  30.276  34.285  1.00  0.00     0.074 A 
ATOM     49  C   UNL A   1      43.972  26.664  30.137  1.00  0.00     0.029 A 
ATOM     50  N   UNL A   1      42.481  27.990  31.122  1.00  0.00    -0.354 N 
ATOM     51  N   UNL A   1      41.387  29.561  33.358  1.00  0.00    -0.248 NA
ATOM     52  C   UNL A   1      41.436  30.199  35.606  1.00  0.00     0.031 C 
ATOM     53  C   UNL A   1      44.330  26.810  31.481  1.00  0.00     0.029 A 
ATOM     54  C   UNL A   1      43.413  27.653  32.089  1.00  0.00     0.049 A 
ATOM     55  H   UNL A   1      41.701  28.571  31.268  1.00  0.00     0.167 HD
ATOM     56  C   UNL A   1      42.471  28.959  33.978  1.00  0.00     0.074 A 
ATOM     57  C   UNL A   1      42.465  29.401  35.358  1.00  0.00     0.031 C 
ATOM     58  C   UNL A   1      43.388  28.112  33.453  1.00  0.00     0.031 A 
BRANCH  45  59
ATOM     59  C   UNL A   1      42.522  26.789  27.483  1.00  0.00    -0.014 A 
ATOM     60  C   UNL A   1      42.072  25.494  27.191  1.00  0.00     0.009 A 
ATOM     61  C   UNL A   1      43.404  27.421  26.590  1.00  0.00     0.009 A 
ATOM     62  C   UNL A   1      42.518  24.835  26.042  1.00  0.00     0.001 A 
ATOM     63  C   UNL A   1      43.830  26.769  25.432  1.00  0.00     0.001 A 
ATOM     64  C   UNL A   1      43.393  25.473  25.162  1.00  0.00     0.000 A 
ENDBRANCH  45  59
BRANCH  46  65
ATOM     65  C   UNL A   1      39.021  31.843  35.357  1.00  0.00    -0.014 A 
ATOM     66  C   UNL A   1      38.213  31.171  36.284  1.00  0.00     0.009 A 
ATOM     67  C   UNL A   1      39.336  33.194  35.581  1.00  0.00     0.009 A 
ATOM     68  C   UNL A   1      37.726  31.839  37.410  1.00  0.00     0.001 A 
ATOM     69  C   UNL A   1      38.871  33.851  36.720  1.00  0.00     0.001 A 
ATOM     70  C   UNL A   1      38.061  33.175  37.631  1.00  0.00     0.000 A 
ENDBRANCH  46  65
BRANCH  58  71
ATOM     71  C   UNL A   1      44.481  27.644  34.364  1.00  0.00    -0.014 A 
ATOM     72  C   UNL A   1      45.663  28.383  34.515  1.00  0.00     0.009 A 
ATOM     73  C   UNL A   1      44.301  26.474  35.116  1.00  0.00     0.009 A 
ATOM     74  C   UNL A   1      46.656  27.946  35.392  1.00  0.00     0.001 A 
ATOM     75  C   UNL A   1      45.289  26.049  36.005  1.00  0.00     0.001 A 
ATOM     76  C   UNL A   1      46.468  26.783  36.138  1.00  0.00     0.000 A 
ENDBRANCH  58  71
ENDBRANCH  32  33
ENDBRANCH  25  27
ENDBRANCH  24  25
ENDBRANCH  23  24
ENDBRANCH   1  23
TORSDOF 13
ENDMDL
MODEL 2
REMARK VINA RESULT:     -11.3      3.749      8.828
REMARK SMILES C[C@H]1[C@@H](C(=O)OCCOC(=O)c2ccc(-c3c4nc(c(-c5ccccc5)c5ccc([nH]5)c(-c5ccccc5)c5nc(c(-c6ccccc6)c6ccc3[nH]6)C=C5)C=C4)cc2)CCN1C(=O)N1CCNC(=O)C1(C)C
REMARK SMILES IDX 7 1 6 2 4 3 5 4 3 5 1 6 2 7 62 8 60 9 61 10 63 11 64 12
REMARK SMILES IDX 65 13 66 14 71 15 67 16 69 17 72 18 73 19 68 20 70 21 8 23
REMARK SMILES IDX 9 24 10 25 11 26 12 27 13 28 59 29 14 30 58 31 15 32 16 33
REMARK SMILES IDX 17 34 52 35 18 36 57 37 51 38 53 39 19 40 56 41 50 42 49 43
REMARK SMILES IDX 20 45 42 46 27 47 41 48 28 49 31 50 40 51 54 52 29 53 30 54
REMARK SMILES IDX 39 56 55 57 32 58 21 59 22 60 26 61 23 62 25 63 24 64 43 65
REMARK SMILES IDX 44 66 48 67 45 68 47 69 46 70 33 71 34 72 38 73 35 74 37 75
REMARK SMILES IDX 36 76
REMARK H PARENT 68 22 53 44 31 55
REMARK Flexibility Score: inf
ROOT
ATOM      1  C   UNL A   1      35.263  20.739  25.442  1.00  0.00     0.274 C 
ENDROOT
BRANCH   1   2
ATOM      2  O   UNL A   1      35.238  21.698  26.518  1.00  0.00    -0.462 OA
BRANCH   2   3
ATOM      3  C   UNL A   1      34.091  22.360  26.765  1.00  0.00     0.311 C 
ATOM      4  O   UNL A   1      33.211  21.944  27.514  1.00  0.00    -0.252 OA
BRANCH   3   5
ATOM      5  C   UNL A   1      33.961  23.697  26.055  1.00  0.00     0.123 C 
ATOM      6  C   UNL A   1      32.436  22.725  24.137  1.00  0.00     0.032 C 
ATOM      7  C   UNL A   1      32.999  23.937  24.871  1.00  0.00     0.098 C 
ATOM      8  N   UNL A   1      33.791  24.756  23.940  1.00  0.00    -0.321 N 
ATOM      9  C   UNL A   1      35.332  24.214  25.573  1.00  0.00     0.039 C 
ATOM     10  C   UNL A   1      35.189  24.450  24.084  1.00  0.00     0.122 C 
BRANCH   8  11
ATOM     11  C   UNL A   1      33.344  25.490  22.869  1.00  0.00     0.321 C 
ATOM     12  O   UNL A   1      33.352  25.055  21.720  1.00  0.00    -0.248 OA
BRANCH  11  13
ATOM     13  N   UNL A   1      32.796  26.710  23.165  1.00  0.00    -0.309 N 
ATOM     14  C   UNL A   1      33.693  27.791  23.535  1.00  0.00     0.143 C 
ATOM     15  C   UNL A   1      31.342  26.960  23.366  1.00  0.00     0.118 C 
ATOM     16  C   UNL A   1      33.330  29.061  22.758  1.00  0.00     0.137 C 
ATOM     17  C   UNL A   1      30.982  28.182  22.485  1.00  0.00     0.245 C 
ATOM     18  C   UNL A   1      30.424  25.760  23.064  1.00  0.00     0.045 C 
ATOM     19  C   UNL A   1      31.053  27.363  24.831  1.00  0.00     0.045 C 
ATOM     20  N   UNL A   1      31.929  29.178  22.374  1.00  0.00    -0.352 N 
ATOM     21  O   UNL A   1      29.858  28.376  22.022  1.00  0.00    -0.272 OA
ATOM     22  H   UNL A   1      31.633  30.042  22.004  1.00  0.00     0.163 HD
ENDBRANCH  11  13
ENDBRANCH   8  11
ENDBRANCH   3   5
ENDBRANCH   2   3
ENDBRANCH   1   2
BRANCH   1  23
ATOM     23  C   UNL A   1      36.700  20.494  24.986  1.00  0.00     0.275 C 
BRANCH  23  24
ATOM     24  O   UNL A   1      37.543  21.579  25.409  1.00  0.00    -0.458 OA
BRANCH  24  25
ATOM     25  C   UNL A   1      38.750  21.217  25.895  1.00  0.00     0.338 C 
ATOM     26  O   UNL A   1      39.283  20.123  25.850  1.00  0.00    -0.246 OA
BRANCH  25  27
ATOM     27  C   UNL A   1      39.410  22.405  26.447  1.00  0.00     0.060 A 
ATOM     28  C   UNL A   1      38.911  23.661  26.107  1.00  0.00     0.016 A 
ATOM     29  C   UNL A   1      40.577  22.280  27.194  1.00  0.00     0.016 A 
ATOM     30  C   UNL A   1      39.630  24.804  26.430  1.00  0.00     0.010 A 
ATOM     31  C   UNL A   1      41.242  23.436  27.612  1.00  0.00     0.010 A 
ATOM     32  C   UNL A   1      40.787  24.707  27.213  1.00  0.00    -0.014 A 
BRANCH  32  33
ATOM     33  C   UNL A   1      41.520  25.927  27.633  1.00  0.00     0.031 A 
ATOM     34  C   UNL A   1      40.868  26.915  28.556  1.00  0.00     0.074 A 
ATOM     35  C   UNL A   1      42.758  26.166  27.158  1.00  0.00     0.049 A 
ATOM     36  N   UNL A   1      41.209  28.150  28.817  1.00  0.00    -0.248 NA
ATOM     37  C   UNL A   1      39.663  26.457  29.269  1.00  0.00     0.031 C 
ATOM     38  C   UNL A   1      43.537  25.260  26.310  1.00  0.00     0.029 A 
ATOM     39  N   UNL A   1      43.575  27.257  27.314  1.00  0.00    -0.354 N 
ATOM     40  C   UNL A   1      40.230  28.639  29.672  1.00  0.00     0.074 A 
ATOM     41  C   UNL A   1      39.288  27.563  29.899  1.00  0.00     0.031 C 
ATOM     42  C   UNL A   1      44.722  25.824  26.036  1.00  0.00     0.029 A 
ATOM     43  C   UNL A   1      44.747  27.165  26.602  1.00  0.00     0.049 A 
ATOM     44  H   UNL A   1      43.346  28.030  27.880  1.00  0.00     0.167 HD
ATOM     45  C   UNL A   1      40.122  29.879  30.203  1.00  0.00     0.031 A 
ATOM     46  C   UNL A   1      45.706  28.079  26.371  1.00  0.00     0.031 A 
ATOM     47  C   UNL A   1      41.083  30.930  29.997  1.00  0.00     0.049 A 
ATOM     48  C   UNL A   1      45.542  29.462  26.927  1.00  0.00     0.074 A 
ATOM     49  C   UNL A   1      41.067  32.225  30.484  1.00  0.00     0.029 A 
ATOM     50  N   UNL A   1      42.245  30.795  29.253  1.00  0.00    -0.354 N 
ATOM     51  N   UNL A   1      44.572  29.942  27.665  1.00  0.00    -0.248 NA
ATOM     52  C   UNL A   1      46.592  30.435  26.597  1.00  0.00     0.031 C 
ATOM     53  C   UNL A   1      42.206  32.884  30.010  1.00  0.00     0.029 A 
ATOM     54  C   UNL A   1      42.950  31.986  29.260  1.00  0.00     0.049 A 
ATOM     55  H   UNL A   1      42.526  29.975  28.787  1.00  0.00     0.167 HD
ATOM     56  C   UNL A   1      44.897  31.269  27.898  1.00  0.00     0.074 A 
ATOM     57  C   UNL A   1      46.161  31.517  27.234  1.00  0.00     0.031 C 
ATOM     58  C   UNL A   1      44.208  32.203  28.597  1.00  0.00     0.031 A 
BRANCH  45  59
ATOM     59  C   UNL A   1      38.895  30.184  31.012  1.00  0.00    -0.014 A 
ATOM     60  C   UNL A   1      38.873  30.020  32.405  1.00  0.00     0.009 A 
ATOM     61  C   UNL A   1      37.750  30.680  30.366  1.00  0.00     0.009 A 
ATOM     62  C   UNL A   1      37.717  30.322  33.131  1.00  0.00     0.001 A 
ATOM     63  C   UNL A   1      36.606  31.002  31.097  1.00  0.00     0.001 A 
ATOM     64  C   UNL A   1      36.587  30.815  32.478  1.00  0.00     0.000 A 
ENDBRANCH  45  59
BRANCH  46  65
ATOM     65  C   UNL A   1      46.866  27.725  25.515  1.00  0.00    -0.014 A 
ATOM     66  C   UNL A   1      48.050  27.236  26.084  1.00  0.00     0.009 A 
ATOM     67  C   UNL A   1      46.778  27.838  24.117  1.00  0.00     0.009 A 
ATOM     68  C   UNL A   1      49.126  26.873  25.270  1.00  0.00     0.001 A 
ATOM     69  C   UNL A   1      47.844  27.450  23.306  1.00  0.00     0.001 A 
ATOM     70  C   UNL A   1      49.020  26.973  23.883  1.00  0.00     0.000 A 
ENDBRANCH  46  65
BRANCH  58  71
ATOM     71  C   UNL A   1      44.830  33.561  28.713  1.00  0.00    -0.014 A 
ATOM     72  C   UNL A   1      45.735  33.857  29.742  1.00  0.00     0.009 A 
ATOM     73  C   UNL A   1      44.542  34.538  27.748  1.00  0.00     0.009 A 
ATOM     74  C   UNL A   1      46.326  35.119  29.814  1.00  0.00     0.001 A 
ATOM     75  C   UNL A   1      45.149  35.792  27.813  1.00  0.00     0.001 A 
ATOM     76  C   UNL A   1      46.036  36.083  28.849  1.00  0.00     0.000 A 
ENDBRANCH  58  71
ENDBRANCH  32  33
ENDBRANCH  25  27
ENDBRANCH  24  25
ENDBRANCH  23  24
ENDBRANCH   1  23
TORSDOF 13
ENDMDL
MODEL 3
REMARK VINA RESULT:     -11.1      1.063      1.715
REMARK SMILES C[C@H]1[C@@H](C(=O)OCCOC(=O)c2ccc(-c3c4nc(c(-c5ccccc5)c5ccc([nH]5)c(-c5ccccc5)c5nc(c(-c6ccccc6)c6ccc3[nH]6)C=C5)C=C4)cc2)CCN1C(=O)N1CCNC(=O)C1(C)C
REMARK SMILES IDX 7 1 6 2 4 3 5 4 3 5 1 6 2 7 62 8 60 9 61 10 63 11 64 12
REMARK SMILES IDX 65 13 66 14 71 15 67 16 69 17 72 18 73 19 68 20 70 21 8 23
REMARK SMILES IDX 9 24 10 25 11 26 12 27 13 28 59 29 14 30 58 31 15 32 16 33
REMARK SMILES IDX 17 34 52 35 18 36 57 37 51 38 53 39 19 40 56 41 50 42 49 43
REMARK SMILES IDX 20 45 42 46 27 47 41 48 28 49 31 50 40 51 54 52 29 53 30 54
REMARK SMILES IDX 39 56 55 57 32 58 21 59 22 60 26 61 23 62 25 63 24 64 43 65
REMARK SMILES IDX 44 66 48 67 45 68 47 69 46 70 33 71 34 72 38 73 35 74 37 75
REMARK SMILES IDX 36 76
REMARK H PARENT 68 22 53 44 31 55
REMARK Flexibility Score: inf
ROOT
ATOM      1  C   UNL A   1      31.995  28.810  24.800  1.00  0.00     0.274 C 
ENDROOT
BRANCH   1   2
ATOM      2  O   UNL A   1      31.136  28.745  23.644  1.00  0.00    -0.462 OA
BRANCH   2   3
ATOM      3  C   UNL A   1      31.011  27.569  22.999  1.00  0.00     0.311 C 
ATOM      4  O   UNL A   1      30.670  27.468  21.824  1.00  0.00    -0.252 OA
BRANCH   3   5
ATOM      5  C   UNL A   1      31.344  26.345  23.836  1.00  0.00     0.123 C 
ATOM      6  C   UNL A   1      33.243  25.529  22.200  1.00  0.00     0.032 C 
ATOM      7  C   UNL A   1      32.562  25.437  23.561  1.00  0.00     0.098 C 
ATOM      8  N   UNL A   1      32.035  24.078  23.758  1.00  0.00    -0.321 N 
ATOM      9  C   UNL A   1      30.139  25.386  23.935  1.00  0.00     0.039 C 
ATOM     10  C   UNL A   1      30.633  24.044  23.438  1.00  0.00     0.122 C 
BRANCH   8  11
ATOM     11  C   UNL A   1      32.742  22.912  23.924  1.00  0.00     0.321 C 
ATOM     12  O   UNL A   1      32.671  21.978  23.128  1.00  0.00    -0.248 OA
BRANCH  11  13
ATOM     13  N   UNL A   1      33.608  22.882  24.984  1.00  0.00    -0.309 N 
ATOM     14  C   UNL A   1      33.055  22.988  26.323  1.00  0.00     0.143 C 
ATOM     15  C   UNL A   1      35.089  22.983  24.871  1.00  0.00     0.118 C 
ATOM     16  C   UNL A   1      33.663  21.911  27.227  1.00  0.00     0.137 C 
ATOM     17  C   UNL A   1      35.673  21.817  25.708  1.00  0.00     0.245 C 
ATOM     18  C   UNL A   1      35.638  22.971  23.432  1.00  0.00     0.045 C 
ATOM     19  C   UNL A   1      35.599  24.294  25.515  1.00  0.00     0.045 C 
ATOM     20  N   UNL A   1      35.008  21.480  26.867  1.00  0.00    -0.352 N 
ATOM     21  O   UNL A   1      36.764  21.297  25.475  1.00  0.00    -0.272 OA
ATOM     22  H   UNL A   1      35.482  20.900  27.506  1.00  0.00     0.163 HD
ENDBRANCH  11  13
ENDBRANCH   8  11
ENDBRANCH   3   5
ENDBRANCH   2   3
ENDBRANCH   1   2
BRANCH   1  23
ATOM     23  C   UNL A   1      31.753  30.111  25.565  1.00  0.00     0.275 C 
BRANCH  23  24
ATOM     24  O   UNL A   1      32.517  30.115  26.783  1.00  0.00    -0.458 OA
BRANCH  24  25
ATOM     25  C   UNL A   1      33.070  31.302  27.114  1.00  0.00     0.338 C 
ATOM     26  O   UNL A   1      32.574  32.412  27.035  1.00  0.00    -0.246 OA
BRANCH  25  27
ATOM     27  C   UNL A   1      34.395  31.059  27.691  1.00  0.00     0.060 A 
ATOM     28  C   UNL A   1      34.745  29.752  28.027  1.00  0.00     0.016 A 
ATOM     29  C   UNL A   1      35.234  32.125  28.006  1.00  0.00     0.016 A 
ATOM     30  C   UNL A   1      35.894  29.510  28.767  1.00  0.00     0.010 A 
ATOM     31  C   UNL A   1      36.443  31.866  28.656  1.00  0.00     0.010 A 
ATOM     32  C   UNL A   1      36.773  30.559  29.063  1.00  0.00    -0.014 A 
BRANCH  32  33
ATOM     33  C   UNL A   1      38.044  30.300  29.784  1.00  0.00     0.031 A 
ATOM     34  C   UNL A   1      39.119  29.476  29.138  1.00  0.00     0.074 A 
ATOM     35  C   UNL A   1      38.219  30.776  31.033  1.00  0.00     0.049 A 
ATOM     36  N   UNL A   1      40.162  28.907  29.684  1.00  0.00    -0.248 NA
ATOM     37  C   UNL A   1      38.997  29.249  27.688  1.00  0.00     0.031 C 
ATOM     38  C   UNL A   1      37.287  31.647  31.753  1.00  0.00     0.029 A 
ATOM     39  N   UNL A   1      39.244  30.580  31.924  1.00  0.00    -0.354 N 
ATOM     40  C   UNL A   1      40.786  28.203  28.662  1.00  0.00     0.074 A 
ATOM     41  C   UNL A   1      40.013  28.428  27.458  1.00  0.00     0.031 C 
ATOM     42  C   UNL A   1      37.790  31.924  32.965  1.00  0.00     0.029 A 
ATOM     43  C   UNL A   1      39.025  31.172  33.144  1.00  0.00     0.049 A 
ATOM     44  H   UNL A   1      40.056  30.066  31.710  1.00  0.00     0.167 HD
ATOM     45  C   UNL A   1      41.892  27.427  28.731  1.00  0.00     0.031 A 
ATOM     46  C   UNL A   1      39.702  31.071  34.301  1.00  0.00     0.031 A 
ATOM     47  C   UNL A   1      42.671  27.238  29.926  1.00  0.00     0.049 A 
ATOM     48  C   UNL A   1      40.896  30.167  34.369  1.00  0.00     0.074 A 
ATOM     49  C   UNL A   1      43.807  26.469  30.106  1.00  0.00     0.029 A 
ATOM     50  N   UNL A   1      42.399  27.845  31.143  1.00  0.00    -0.354 N 
ATOM     51  N   UNL A   1      41.430  29.438  33.420  1.00  0.00    -0.248 NA
ATOM     52  C   UNL A   1      41.564  30.051  35.672  1.00  0.00     0.031 C 
ATOM     53  C   UNL A   1      44.206  26.587  31.441  1.00  0.00     0.029 A 
ATOM     54  C   UNL A   1      43.341  27.461  32.081  1.00  0.00     0.049 A 
ATOM     55  H   UNL A   1      41.647  28.457  31.314  1.00  0.00     0.167 HD
ATOM     56  C   UNL A   1      42.504  28.785  34.006  1.00  0.00     0.074 A 
ATOM     57  C   UNL A   1      42.553  29.213  35.390  1.00  0.00     0.031 C 
ATOM     58  C   UNL A   1      43.371  27.906  33.449  1.00  0.00     0.031 A 
BRANCH  45  59
ATOM     59  C   UNL A   1      42.295  26.680  27.493  1.00  0.00    -0.014 A 
ATOM     60  C   UNL A   1      43.191  27.226  26.562  1.00  0.00     0.009 A 
ATOM     61  C   UNL A   1      41.791  25.386  27.275  1.00  0.00     0.009 A 
ATOM     62  C   UNL A   1      43.553  26.501  25.424  1.00  0.00     0.001 A 
ATOM     63  C   UNL A   1      42.172  24.656  26.149  1.00  0.00     0.001 A 
ATOM     64  C   UNL A   1      43.047  25.217  25.219  1.00  0.00     0.000 A 
ENDBRANCH  45  59
BRANCH  46  65
ATOM     65  C   UNL A   1      39.214  31.795  35.502  1.00  0.00    -0.014 A 
ATOM     66  C   UNL A   1      39.650  33.099  35.774  1.00  0.00     0.009 A 
ATOM     67  C   UNL A   1      38.277  31.197  36.361  1.00  0.00     0.009 A 
ATOM     68  C   UNL A   1      39.163  33.787  36.888  1.00  0.00     0.001 A 
ATOM     69  C   UNL A   1      37.771  31.897  37.456  1.00  0.00     0.001 A 
ATOM     70  C   UNL A   1      38.219  33.190  37.723  1.00  0.00     0.000 A 
ENDBRANCH  46  65
BRANCH  58  71
ATOM     71  C   UNL A   1      44.467  27.385  34.327  1.00  0.00    -0.014 A 
ATOM     72  C   UNL A   1      45.680  28.076  34.457  1.00  0.00     0.009 A 
ATOM     73  C   UNL A   1      44.261  26.212  35.069  1.00  0.00     0.009 A 
ATOM     74  C   UNL A   1      46.677  27.589  35.303  1.00  0.00     0.001 A 
ATOM     75  C   UNL A   1      45.252  25.738  35.927  1.00  0.00     0.001 A 
ATOM     76  C   UNL A   1      46.462  26.424  36.039  1.00  0.00     0.000 A 
ENDBRANCH  58  71
ENDBRANCH  32  33
ENDBRANCH  25  27
ENDBRANCH  24  25
ENDBRANCH  23  24
ENDBRANCH   1  23
TORSDOF 13
ENDMDL
