MODEL 1
REMARK VINA RESULT:      -9.5      0.000      0.000
REMARK SMILES N#Cc1ccc(/C=C/C(=O)N2C[C@@H](O)C[C@H]2C(=O)OCCOC(=O)c2ccc(-c3c4nc(c(-c5ccccc5)c5ccc([nH]5)c(-c5ccccc5)c5nc(c(-c6ccccc6)c6ccc3[nH]6)C=C5)C=C4)cc2)cc1
REMARK SMILES IDX 20 1 19 2 17 3 18 4 16 5 11 6 12 7 13 8 15 9 9 10 10 11 8 12
REMARK SMILES IDX 7 13 6 14 3 15 4 16 74 17 5 18 73 19 2 20 1 21 14 22 21 24
REMARK SMILES IDX 22 25 23 26 24 27 25 28 26 29 72 30 27 31 71 32 28 33 29 34
REMARK SMILES IDX 30 35 65 36 31 37 70 38 64 39 66 40 32 41 69 42 63 43 62 44
REMARK SMILES IDX 33 46 55 47 40 48 54 49 41 50 44 51 53 52 67 53 42 54 43 55
REMARK SMILES IDX 52 57 68 58 45 59 34 60 35 61 39 62 36 63 38 64 37 65 56 66
REMARK SMILES IDX 57 67 61 68 58 69 60 70 59 71 46 72 47 73 51 74 48 75 50 76
REMARK SMILES IDX 49 77
REMARK H PARENT 14 23 66 45 44 56
REMARK Flexibility Score: inf
ROOT
ATOM      1  C   UNL A   1      33.866  33.983  28.280  1.00  0.00     0.274 C 
ENDROOT
BRANCH   1   2
ATOM      2  O   UNL A   1      32.776  34.393  29.138  1.00  0.00    -0.461 OA
BRANCH   2   3
ATOM      3  C   UNL A   1      33.030  35.489  29.901  1.00  0.00     0.329 C 
ATOM      4  O   UNL A   1      33.197  36.621  29.451  1.00  0.00    -0.250 OA
BRANCH   3   5
ATOM      5  C   UNL A   1      33.220  35.197  31.396  1.00  0.00     0.198 C 
ATOM      6  N   UNL A   1      34.536  34.840  31.934  1.00  0.00    -0.323 N 
ATOM      7  C   UNL A   1      35.066  35.936  32.719  1.00  0.00     0.152 C 
ATOM      8  C   UNL A   1      33.798  36.535  33.320  1.00  0.00     0.136 C 
ATOM      9  C   UNL A   1      32.804  36.455  32.167  1.00  0.00     0.071 C 
BRANCH   6  10
ATOM     10  C   UNL A   1      34.885  33.510  31.997  1.00  0.00     0.247 C 
ATOM     11  O   UNL A   1      34.070  32.603  31.858  1.00  0.00    -0.270 OA
BRANCH  10  12
ATOM     12  C   UNL A   1      36.265  33.138  32.389  1.00  0.00     0.072 C 
ATOM     13  C   UNL A   1      36.406  32.205  33.346  1.00  0.00     0.014 C 
BRANCH  13  14
ATOM     14  C   UNL A   1      37.641  31.485  33.691  1.00  0.00    -0.025 A 
ATOM     15  C   UNL A   1      40.084  30.113  34.010  1.00  0.00     0.052 A 
ATOM     16  C   UNL A   1      39.959  31.440  34.432  1.00  0.00     0.020 A 
ATOM     17  C   UNL A   1      38.983  29.465  33.446  1.00  0.00     0.020 A 
ATOM     18  C   UNL A   1      38.746  32.122  34.270  1.00  0.00     0.009 A 
ATOM     19  C   UNL A   1      37.773  30.149  33.285  1.00  0.00     0.009 A 
BRANCH  15  20
ATOM     20  C   UNL A   1      41.337  29.430  34.131  1.00  0.00     0.099 C 
ATOM     21  N   UNL A   1      42.354  28.875  34.237  1.00  0.00    -0.192 NA
ENDBRANCH  15  20
ENDBRANCH  13  14
ENDBRANCH  10  12
ENDBRANCH   6  10
BRANCH   8  22
ATOM     22  O   UNL A   1      33.962  37.861  33.780  1.00  0.00    -0.391 OA
ATOM     23  H   UNL A   1      34.521  38.352  33.158  1.00  0.00     0.211 HD
ENDBRANCH   8  22
ENDBRANCH   3   5
ENDBRANCH   2   3
ENDBRANCH   1   2
BRANCH   1  24
ATOM     24  C   UNL A   1      33.603  32.612  27.656  1.00  0.00     0.275 C 
BRANCH  24  25
ATOM     25  O   UNL A   1      34.068  31.565  28.527  1.00  0.00    -0.458 OA
BRANCH  25  26
ATOM     26  C   UNL A   1      34.562  30.483  27.877  1.00  0.00     0.338 C 
ATOM     27  O   UNL A   1      33.972  29.783  27.072  1.00  0.00    -0.246 OA
BRANCH  26  28
ATOM     28  C   UNL A   1      35.949  30.233  28.299  1.00  0.00     0.060 A 
ATOM     29  C   UNL A   1      36.997  30.392  27.394  1.00  0.00     0.016 A 
ATOM     30  C   UNL A   1      36.189  29.682  29.553  1.00  0.00     0.016 A 
ATOM     31  C   UNL A   1      38.267  29.910  27.693  1.00  0.00     0.010 A 
ATOM     32  C   UNL A   1      37.487  29.287  29.892  1.00  0.00     0.010 A 
ATOM     33  C   UNL A   1      38.533  29.367  28.954  1.00  0.00    -0.014 A 
BRANCH  33  34
ATOM     34  C   UNL A   1      39.897  28.886  29.292  1.00  0.00     0.031 A 
ATOM     35  C   UNL A   1      40.861  29.774  30.032  1.00  0.00     0.074 A 
ATOM     36  C   UNL A   1      40.277  27.649  28.917  1.00  0.00     0.049 A 
ATOM     37  N   UNL A   1      42.130  29.581  30.292  1.00  0.00    -0.248 NA
ATOM     38  C   UNL A   1      40.333  31.052  30.536  1.00  0.00     0.031 C 
ATOM     39  C   UNL A   1      39.429  26.668  28.237  1.00  0.00     0.029 A 
ATOM     40  N   UNL A   1      41.481  27.004  29.053  1.00  0.00    -0.354 N 
ATOM     41  C   UNL A   1      42.559  30.721  30.960  1.00  0.00     0.074 A 
ATOM     42  C   UNL A   1      41.423  31.614  31.039  1.00  0.00     0.031 C 
ATOM     43  C   UNL A   1      40.130  25.543  28.033  1.00  0.00     0.029 A 
ATOM     44  C   UNL A   1      41.497  25.750  28.494  1.00  0.00     0.049 A 
ATOM     45  H   UNL A   1      42.259  27.402  29.508  1.00  0.00     0.167 HD
ATOM     46  C   UNL A   1      43.787  30.997  31.463  1.00  0.00     0.031 A 
ATOM     47  C   UNL A   1      42.507  24.875  28.329  1.00  0.00     0.031 A 
ATOM     48  C   UNL A   1      44.915  30.104  31.380  1.00  0.00     0.049 A 
ATOM     49  C   UNL A   1      43.880  25.246  28.814  1.00  0.00     0.074 A 
ATOM     50  C   UNL A   1      46.198  30.288  31.868  1.00  0.00     0.029 A 
ATOM     51  N   UNL A   1      44.898  28.861  30.766  1.00  0.00    -0.354 N 
ATOM     52  N   UNL A   1      44.272  26.326  29.444  1.00  0.00    -0.248 NA
ATOM     53  C   UNL A   1      44.950  24.271  28.566  1.00  0.00     0.031 C 
ATOM     54  C   UNL A   1      46.973  29.187  31.491  1.00  0.00     0.029 A 
ATOM     55  C   UNL A   1      46.155  28.280  30.838  1.00  0.00     0.049 A 
ATOM     56  H   UNL A   1      44.110  28.451  30.342  1.00  0.00     0.167 HD
ATOM     57  C   UNL A   1      45.625  26.145  29.699  1.00  0.00     0.074 A 
ATOM     58  C   UNL A   1      45.979  24.843  29.173  1.00  0.00     0.031 C 
ATOM     59  C   UNL A   1      46.495  26.982  30.314  1.00  0.00     0.031 A 
BRANCH  46  60
ATOM     60  C   UNL A   1      43.987  32.336  32.121  1.00  0.00    -0.014 A 
ATOM     61  C   UNL A   1      44.403  33.461  31.391  1.00  0.00     0.009 A 
ATOM     62  C   UNL A   1      43.712  32.486  33.491  1.00  0.00     0.009 A 
ATOM     63  C   UNL A   1      44.575  34.695  32.024  1.00  0.00     0.001 A 
ATOM     64  C   UNL A   1      43.851  33.728  34.114  1.00  0.00     0.001 A 
ATOM     65  C   UNL A   1      44.294  34.828  33.382  1.00  0.00     0.000 A 
ENDBRANCH  46  60
BRANCH  47  66
ATOM     66  C   UNL A   1      42.269  23.574  27.647  1.00  0.00    -0.014 A 
ATOM     67  C   UNL A   1      41.883  22.444  28.383  1.00  0.00     0.009 A 
ATOM     68  C   UNL A   1      42.451  23.450  26.260  1.00  0.00     0.009 A 
ATOM     69  C   UNL A   1      41.722  21.209  27.751  1.00  0.00     0.001 A 
ATOM     70  C   UNL A   1      42.251  22.224  25.625  1.00  0.00     0.001 A 
ATOM     71  C   UNL A   1      41.901  21.100  26.372  1.00  0.00     0.000 A 
ENDBRANCH  47  66
BRANCH  59  72
ATOM     72  C   UNL A   1      47.905  26.488  30.503  1.00  0.00    -0.014 A 
ATOM     73  C   UNL A   1      48.283  25.749  31.634  1.00  0.00     0.009 A 
ATOM     74  C   UNL A   1      48.866  26.750  29.512  1.00  0.00     0.009 A 
ATOM     75  C   UNL A   1      49.603  25.322  31.791  1.00  0.00     0.001 A 
ATOM     76  C   UNL A   1      50.175  26.290  29.652  1.00  0.00     0.001 A 
ATOM     77  C   UNL A   1      50.545  25.587  30.797  1.00  0.00     0.000 A 
ENDBRANCH  59  72
ENDBRANCH  33  34
ENDBRANCH  26  28
ENDBRANCH  25  26
ENDBRANCH  24  25
ENDBRANCH   1  24
TORSDOF 16
ENDMDL
MODEL 2
REMARK VINA RESULT:      -9.3      3.638      8.932
REMARK SMILES N#Cc1ccc(/C=C/C(=O)N2C[C@@H](O)C[C@H]2C(=O)OCCOC(=O)c2ccc(-c3c4nc(c(-c5ccccc5)c5ccc([nH]5)c(-c5ccccc5)c5nc(c(-c6ccccc6)c6ccc3[nH]6)C=C5)C=C4)cc2)cc1
REMARK SMILES IDX 20 1 19 2 17 3 18 4 16 5 11 6 12 7 13 8 15 9 9 10 10 11 8 12
REMARK SMILES IDX 7 13 6 14 3 15 4 16 74 17 5 18 73 19 2 20 1 21 14 22 21 24
REMARK SMILES IDX 22 25 23 26 24 27 25 28 26 29 72 30 27 31 71 32 28 33 29 34
REMARK SMILES IDX 30 35 65 36 31 37 70 38 64 39 66 40 32 41 69 42 63 43 62 44
REMARK SMILES IDX 33 46 55 47 40 48 54 49 41 50 44 51 53 52 67 53 42 54 43 55
REMARK SMILES IDX 52 57 68 58 45 59 34 60 35 61 39 62 36 63 38 64 37 65 56 66
REMARK SMILES IDX 57 67 61 68 58 69 60 70 59 71 46 72 47 73 51 74 48 75 50 76
REMARK SMILES IDX 49 77
REMARK H PARENT 14 23 66 45 44 56
REMARK Flexibility Score: inf
ROOT
ATOM      1  C   UNL A   1      32.640  28.342  25.040  1.00  0.00     0.274 C 
ENDROOT
BRANCH   1   2
ATOM      2  O   UNL A   1      31.411  27.581  25.005  1.00  0.00    -0.461 OA
BRANCH   2   3
ATOM      3  C   UNL A   1      31.244  26.715  26.040  1.00  0.00     0.329 C 
ATOM      4  O   UNL A   1      31.051  27.060  27.204  1.00  0.00    -0.250 OA
BRANCH   3   5
ATOM      5  C   UNL A   1      31.439  25.237  25.675  1.00  0.00     0.198 C 
ATOM      6  N   UNL A   1      32.585  24.478  26.186  1.00  0.00    -0.323 N 
ATOM      7  C   UNL A   1      32.145  23.528  27.187  1.00  0.00     0.152 C 
ATOM      8  C   UNL A   1      30.760  23.146  26.673  1.00  0.00     0.136 C 
ATOM      9  C   UNL A   1      30.205  24.475  26.171  1.00  0.00     0.071 C 
BRANCH   6  10
ATOM     10  C   UNL A   1      33.740  24.444  25.438  1.00  0.00     0.247 C 
ATOM     11  O   UNL A   1      33.804  24.886  24.295  1.00  0.00    -0.270 OA
BRANCH  10  12
ATOM     12  C   UNL A   1      34.923  23.720  25.961  1.00  0.00     0.072 C 
ATOM     13  C   UNL A   1      36.054  23.780  25.238  1.00  0.00     0.014 C 
BRANCH  13  14
ATOM     14  C   UNL A   1      37.400  23.390  25.684  1.00  0.00    -0.025 A 
ATOM     15  C   UNL A   1      39.841  22.611  26.861  1.00  0.00     0.052 A 
ATOM     16  C   UNL A   1      39.148  21.731  26.024  1.00  0.00     0.020 A 
ATOM     17  C   UNL A   1      39.324  23.887  27.095  1.00  0.00     0.020 A 
ATOM     18  C   UNL A   1      37.934  22.118  25.443  1.00  0.00     0.009 A 
ATOM     19  C   UNL A   1      38.111  24.270  26.513  1.00  0.00     0.009 A 
BRANCH  15  20
ATOM     20  C   UNL A   1      41.059  22.201  27.495  1.00  0.00     0.099 C 
ATOM     21  N   UNL A   1      42.051  21.876  28.008  1.00  0.00    -0.192 NA
ENDBRANCH  15  20
ENDBRANCH  13  14
ENDBRANCH  10  12
ENDBRANCH   6  10
BRANCH   8  22
ATOM     22  O   UNL A   1      29.930  22.569  27.659  1.00  0.00    -0.391 OA
ATOM     23  H   UNL A   1      29.399  21.861  27.262  1.00  0.00     0.211 HD
ENDBRANCH   8  22
ENDBRANCH   3   5
ENDBRANCH   2   3
ENDBRANCH   1   2
BRANCH   1  24
ATOM     24  C   UNL A   1      32.372  29.827  25.290  1.00  0.00     0.275 C 
BRANCH  24  25
ATOM     25  O   UNL A   1      32.304  30.096  26.702  1.00  0.00    -0.458 OA
BRANCH  25  26
ATOM     26  C   UNL A   1      32.866  31.273  27.069  1.00  0.00     0.338 C 
ATOM     27  O   UNL A   1      32.360  32.379  26.990  1.00  0.00    -0.246 OA
BRANCH  26  28
ATOM     28  C   UNL A   1      34.228  31.043  27.575  1.00  0.00     0.060 A 
ATOM     29  C   UNL A   1      34.623  29.767  27.975  1.00  0.00     0.016 A 
ATOM     30  C   UNL A   1      35.061  32.134  27.805  1.00  0.00     0.016 A 
ATOM     31  C   UNL A   1      35.799  29.585  28.694  1.00  0.00     0.010 A 
ATOM     32  C   UNL A   1      36.290  31.936  28.441  1.00  0.00     0.010 A 
ATOM     33  C   UNL A   1      36.657  30.666  28.922  1.00  0.00    -0.014 A 
BRANCH  33  34
ATOM     34  C   UNL A   1      37.933  30.469  29.656  1.00  0.00     0.031 A 
ATOM     35  C   UNL A   1      39.067  29.703  29.031  1.00  0.00     0.074 A 
ATOM     36  C   UNL A   1      38.067  30.969  30.901  1.00  0.00     0.049 A 
ATOM     37  N   UNL A   1      40.197  29.313  29.567  1.00  0.00    -0.248 NA
ATOM     38  C   UNL A   1      38.906  29.313  27.621  1.00  0.00     0.031 C 
ATOM     39  C   UNL A   1      37.066  31.770  31.608  1.00  0.00     0.029 A 
ATOM     40  N   UNL A   1      39.103  30.872  31.796  1.00  0.00    -0.354 N 
ATOM     41  C   UNL A   1      40.866  28.608  28.573  1.00  0.00     0.074 A 
ATOM     42  C   UNL A   1      40.003  28.598  27.412  1.00  0.00     0.031 C 
ATOM     43  C   UNL A   1      37.542  32.108  32.815  1.00  0.00     0.029 A 
ATOM     44  C   UNL A   1      38.846  31.482  32.999  1.00  0.00     0.049 A 
ATOM     45  H   UNL A   1      39.950  30.411  31.595  1.00  0.00     0.167 HD
ATOM     46  C   UNL A   1      42.088  28.026  28.625  1.00  0.00     0.031 A 
ATOM     47  C   UNL A   1      39.557  31.504  34.142  1.00  0.00     0.031 A 
ATOM     48  C   UNL A   1      42.943  28.038  29.786  1.00  0.00     0.049 A 
ATOM     49  C   UNL A   1      40.867  30.770  34.200  1.00  0.00     0.074 A 
ATOM     50  C   UNL A   1      44.204  27.485  29.935  1.00  0.00     0.029 A 
ATOM     51  N   UNL A   1      42.624  28.630  30.998  1.00  0.00    -0.354 N 
ATOM     52  N   UNL A   1      41.488  30.108  33.255  1.00  0.00    -0.248 NA
ATOM     53  C   UNL A   1      41.575  30.791  35.487  1.00  0.00     0.031 C 
ATOM     54  C   UNL A   1      44.618  27.684  31.255  1.00  0.00     0.029 A 
ATOM     55  C   UNL A   1      43.651  28.431  31.907  1.00  0.00     0.049 A 
ATOM     56  H   UNL A   1      41.791  29.121  31.186  1.00  0.00     0.167 HD
ATOM     57  C   UNL A   1      42.675  29.664  33.821  1.00  0.00     0.074 A 
ATOM     58  C   UNL A   1      42.695  30.150  35.186  1.00  0.00     0.031 C 
ATOM     59  C   UNL A   1      43.661  28.922  33.262  1.00  0.00     0.031 A 
BRANCH  46  60
ATOM     60  C   UNL A   1      42.565  27.293  27.399  1.00  0.00    -0.014 A 
ATOM     61  C   UNL A   1      43.306  27.938  26.397  1.00  0.00     0.009 A 
ATOM     62  C   UNL A   1      42.304  25.919  27.266  1.00  0.00     0.009 A 
ATOM     63  C   UNL A   1      43.742  27.233  25.271  1.00  0.00     0.001 A 
ATOM     64  C   UNL A   1      42.770  25.209  26.157  1.00  0.00     0.001 A 
ATOM     65  C   UNL A   1      43.478  25.870  25.156  1.00  0.00     0.000 A 
ENDBRANCH  46  60
BRANCH  47  66
ATOM     66  C   UNL A   1      39.033  32.217  35.338  1.00  0.00    -0.014 A 
ATOM     67  C   UNL A   1      39.358  33.563  35.564  1.00  0.00     0.009 A 
ATOM     68  C   UNL A   1      38.226  31.549  36.273  1.00  0.00     0.009 A 
ATOM     69  C   UNL A   1      38.919  34.213  36.719  1.00  0.00     0.001 A 
ATOM     70  C   UNL A   1      37.756  32.212  37.407  1.00  0.00     0.001 A 
ATOM     71  C   UNL A   1      38.114  33.540  37.638  1.00  0.00     0.000 A 
ENDBRANCH  47  66
BRANCH  59  72
ATOM     72  C   UNL A   1      44.873  28.639  34.110  1.00  0.00    -0.014 A 
ATOM     73  C   UNL A   1      45.965  29.519  34.153  1.00  0.00     0.009 A 
ATOM     74  C   UNL A   1      44.906  27.478  34.899  1.00  0.00     0.009 A 
ATOM     75  C   UNL A   1      47.084  29.219  34.935  1.00  0.00     0.001 A 
ATOM     76  C   UNL A   1      46.008  27.199  35.708  1.00  0.00     0.001 A 
ATOM     77  C   UNL A   1      47.101  28.064  35.715  1.00  0.00     0.000 A 
ENDBRANCH  59  72
ENDBRANCH  33  34
ENDBRANCH  26  28
ENDBRANCH  25  26
ENDBRANCH  24  25
ENDBRANCH   1  24
TORSDOF 16
ENDMDL
MODEL 3
REMARK VINA RESULT:      -9.3      4.798     10.042
REMARK SMILES N#Cc1ccc(/C=C/C(=O)N2C[C@@H](O)C[C@H]2C(=O)OCCOC(=O)c2ccc(-c3c4nc(c(-c5ccccc5)c5ccc([nH]5)c(-c5ccccc5)c5nc(c(-c6ccccc6)c6ccc3[nH]6)C=C5)C=C4)cc2)cc1
REMARK SMILES IDX 20 1 19 2 17 3 18 4 16 5 11 6 12 7 13 8 15 9 9 10 10 11 8 12
REMARK SMILES IDX 7 13 6 14 3 15 4 16 74 17 5 18 73 19 2 20 1 21 14 22 21 24
REMARK SMILES IDX 22 25 23 26 24 27 25 28 26 29 72 30 27 31 71 32 28 33 29 34
REMARK SMILES IDX 30 35 65 36 31 37 70 38 64 39 66 40 32 41 69 42 63 43 62 44
REMARK SMILES IDX 33 46 55 47 40 48 54 49 41 50 44 51 53 52 67 53 42 54 43 55
REMARK SMILES IDX 52 57 68 58 45 59 34 60 35 61 39 62 36 63 38 64 37 65 56 66
REMARK SMILES IDX 57 67 61 68 58 69 60 70 59 71 46 72 47 73 51 74 48 75 50 76
REMARK SMILES IDX 49 77
REMARK H PARENT 14 23 66 45 44 56
REMARK Flexibility Score: inf
ROOT
ATOM      1  C   UNL A   1      38.145  21.298  25.364  1.00  0.00     0.274 C 
ENDROOT
BRANCH   1   2
ATOM      2  O   UNL A   1      36.725  21.154  25.124  1.00  0.00    -0.461 OA
BRANCH   2   3
ATOM      3  C   UNL A   1      36.214  22.002  24.192  1.00  0.00     0.329 C 
ATOM      4  O   UNL A   1      36.852  22.451  23.243  1.00  0.00    -0.250 OA
BRANCH   3   5
ATOM      5  C   UNL A   1      34.781  22.473  24.475  1.00  0.00     0.198 C 
ATOM      6  N   UNL A   1      33.769  22.490  23.414  1.00  0.00    -0.323 N 
ATOM      7  C   UNL A   1      32.800  21.436  23.636  1.00  0.00     0.152 C 
ATOM      8  C   UNL A   1      32.743  21.374  25.160  1.00  0.00     0.136 C 
ATOM      9  C   UNL A   1      34.203  21.560  25.562  1.00  0.00     0.071 C 
BRANCH   6  10
ATOM     10  C   UNL A   1      33.615  23.635  22.666  1.00  0.00     0.247 C 
ATOM     11  O   UNL A   1      33.231  23.619  21.501  1.00  0.00    -0.270 OA
BRANCH  10  12
ATOM     12  C   UNL A   1      34.063  24.933  23.224  1.00  0.00     0.072 C 
ATOM     13  C   UNL A   1      33.112  25.805  23.600  1.00  0.00     0.014 C 
BRANCH  13  14
ATOM     14  C   UNL A   1      33.305  27.009  24.423  1.00  0.00    -0.025 A 
ATOM     15  C   UNL A   1      33.327  29.317  26.043  1.00  0.00     0.052 A 
ATOM     16  C   UNL A   1      33.799  28.100  26.542  1.00  0.00     0.020 A 
ATOM     17  C   UNL A   1      32.860  29.386  24.728  1.00  0.00     0.020 A 
ATOM     18  C   UNL A   1      33.785  26.953  25.738  1.00  0.00     0.009 A 
ATOM     19  C   UNL A   1      32.847  28.239  23.928  1.00  0.00     0.009 A 
BRANCH  15  20
ATOM     20  C   UNL A   1      33.295  30.480  26.879  1.00  0.00     0.099 C 
ATOM     21  N   UNL A   1      33.260  31.425  27.556  1.00  0.00    -0.192 NA
ENDBRANCH  15  20
ENDBRANCH  13  14
ENDBRANCH  10  12
ENDBRANCH   6  10
BRANCH   8  22
ATOM     22  O   UNL A   1      32.212  20.164  25.657  1.00  0.00    -0.391 OA
ATOM     23  H   UNL A   1      32.937  19.565  25.893  1.00  0.00     0.211 HD
ENDBRANCH   8  22
ENDBRANCH   3   5
ENDBRANCH   2   3
ENDBRANCH   1   2
BRANCH   1  24
ATOM     24  C   UNL A   1      38.879  19.968  25.189  1.00  0.00     0.275 C 
BRANCH  24  25
ATOM     25  O   UNL A   1      39.715  19.700  26.329  1.00  0.00    -0.458 OA
BRANCH  25  26
ATOM     26  C   UNL A   1      41.043  19.712  26.058  1.00  0.00     0.338 C 
ATOM     27  O   UNL A   1      41.678  18.844  25.486  1.00  0.00    -0.246 OA
BRANCH  26  28
ATOM     28  C   UNL A   1      41.653  20.944  26.584  1.00  0.00     0.060 A 
ATOM     29  C   UNL A   1      41.775  21.134  27.960  1.00  0.00     0.016 A 
ATOM     30  C   UNL A   1      41.954  21.980  25.707  1.00  0.00     0.016 A 
ATOM     31  C   UNL A   1      42.098  22.386  28.473  1.00  0.00     0.010 A 
ATOM     32  C   UNL A   1      42.375  23.211  26.220  1.00  0.00     0.010 A 
ATOM     33  C   UNL A   1      42.420  23.437  27.608  1.00  0.00    -0.014 A 
BRANCH  33  34
ATOM     34  C   UNL A   1      42.803  24.765  28.152  1.00  0.00     0.031 A 
ATOM     35  C   UNL A   1      41.757  25.810  28.430  1.00  0.00     0.074 A 
ATOM     36  C   UNL A   1      44.103  25.039  28.382  1.00  0.00     0.049 A 
ATOM     37  N   UNL A   1      41.912  27.064  28.773  1.00  0.00    -0.248 NA
ATOM     38  C   UNL A   1      40.352  25.394  28.294  1.00  0.00     0.031 C 
ATOM     39  C   UNL A   1      45.214  24.103  28.201  1.00  0.00     0.029 A 
ATOM     40  N   UNL A   1      44.710  26.191  28.816  1.00  0.00    -0.354 N 
ATOM     41  C   UNL A   1      40.631  27.595  28.863  1.00  0.00     0.074 A 
ATOM     42  C   UNL A   1      39.711  26.535  28.511  1.00  0.00     0.031 C 
ATOM     43  C   UNL A   1      46.362  24.708  28.539  1.00  0.00     0.029 A 
ATOM     44  C   UNL A   1      46.078  26.096  28.883  1.00  0.00     0.049 A 
ATOM     45  H   UNL A   1      44.213  27.006  29.057  1.00  0.00     0.167 HD
ATOM     46  C   UNL A   1      40.256  28.850  29.212  1.00  0.00     0.031 A 
ATOM     47  C   UNL A   1      47.011  27.030  29.149  1.00  0.00     0.031 A 
ATOM     48  C   UNL A   1      41.177  29.903  29.560  1.00  0.00     0.049 A 
ATOM     49  C   UNL A   1      46.571  28.438  29.441  1.00  0.00     0.074 A 
ATOM     50  C   UNL A   1      40.896  31.205  29.938  1.00  0.00     0.029 A 
ATOM     51  N   UNL A   1      42.558  29.776  29.573  1.00  0.00    -0.354 N 
ATOM     52  N   UNL A   1      45.358  28.926  29.523  1.00  0.00    -0.248 NA
ATOM     53  C   UNL A   1      47.635  29.422  29.679  1.00  0.00     0.031 C 
ATOM     54  C   UNL A   1      42.105  31.884  30.112  1.00  0.00     0.029 A 
ATOM     55  C   UNL A   1      43.141  30.983  29.922  1.00  0.00     0.049 A 
ATOM     56  H   UNL A   1      43.051  28.949  29.365  1.00  0.00     0.167 HD
ATOM     57  C   UNL A   1      45.511  30.265  29.858  1.00  0.00     0.074 A 
ATOM     58  C   UNL A   1      46.934  30.505  29.982  1.00  0.00     0.031 C 
ATOM     59  C   UNL A   1      44.559  31.210  30.046  1.00  0.00     0.031 A 
BRANCH  46  60
ATOM     60  C   UNL A   1      38.784  29.168  29.199  1.00  0.00    -0.014 A 
ATOM     61  C   UNL A   1      38.000  29.071  30.359  1.00  0.00     0.009 A 
ATOM     62  C   UNL A   1      38.181  29.616  28.012  1.00  0.00     0.009 A 
ATOM     63  C   UNL A   1      36.637  29.378  30.323  1.00  0.00     0.001 A 
ATOM     64  C   UNL A   1      36.826  29.955  27.986  1.00  0.00     0.001 A 
ATOM     65  C   UNL A   1      36.054  29.825  29.138  1.00  0.00     0.000 A 
ENDBRANCH  46  60
BRANCH  47  66
ATOM     66  C   UNL A   1      48.456  26.677  29.122  1.00  0.00    -0.014 A 
ATOM     67  C   UNL A   1      49.185  26.755  27.926  1.00  0.00     0.009 A 
ATOM     68  C   UNL A   1      49.107  26.237  30.285  1.00  0.00     0.009 A 
ATOM     69  C   UNL A   1      50.526  26.363  27.888  1.00  0.00     0.001 A 
ATOM     70  C   UNL A   1      50.457  25.883  30.253  1.00  0.00     0.001 A 
ATOM     71  C   UNL A   1      51.162  25.932  29.051  1.00  0.00     0.000 A 
ENDBRANCH  47  66
BRANCH  59  72
ATOM     72  C   UNL A   1      45.024  32.580  30.464  1.00  0.00    -0.014 A 
ATOM     73  C   UNL A   1      45.209  32.917  31.813  1.00  0.00     0.009 A 
ATOM     74  C   UNL A   1      45.307  33.542  29.480  1.00  0.00     0.009 A 
ATOM     75  C   UNL A   1      45.623  34.202  32.171  1.00  0.00     0.001 A 
ATOM     76  C   UNL A   1      45.756  34.813  29.837  1.00  0.00     0.001 A 
ATOM     77  C   UNL A   1      45.902  35.146  31.183  1.00  0.00     0.000 A 
ENDBRANCH  59  72
ENDBRANCH  33  34
ENDBRANCH  26  28
ENDBRANCH  25  26
ENDBRANCH  24  25
ENDBRANCH   1  24
TORSDOF 16
ENDMDL
