MODEL 1
REMARK VINA RESULT:      -9.8      0.000      0.000
REMARK SMILES CC[C@](C)(NS(=O)(=O)Cc1cc(C)on1)C(=O)OCCOC(=O)c1ccc(-c2c3nc(c(-c4ccccc4)c4ccc([nH]4)c(-c4ccccc4)c4nc(c(-c5ccccc5)c5ccc2[nH]5)C=C4)C=C3)cc1
REMARK SMILES IDX 19 1 18 2 16 3 17 4 3 5 4 6 2 7 1 8 5 9 6 11 7 12 8 13 9 14
REMARK SMILES IDX 10 15 11 16 15 17 12 18 14 19 13 20 20 21 21 22 22 23 23 24
REMARK SMILES IDX 24 25 25 26 71 27 26 28 70 29 27 30 28 31 29 32 64 33 30 34
REMARK SMILES IDX 69 35 63 36 65 37 31 38 68 39 62 40 61 41 32 43 54 44 39 45
REMARK SMILES IDX 53 46 40 47 43 48 52 49 66 50 41 51 42 52 51 54 67 55 44 56
REMARK SMILES IDX 33 57 34 58 38 59 35 60 37 61 36 62 55 63 56 64 60 65 57 66
REMARK SMILES IDX 59 67 58 68 45 69 46 70 50 71 47 72 49 73 48 74
REMARK H PARENT 5 10 65 42 43 53
REMARK Flexibility Score: inf
ROOT
ATOM      1  C   UNL A   1      32.589  29.818  25.672  1.00  0.00     0.274 C 
ENDROOT
BRANCH   1   2
ATOM      2  O   UNL A   1      31.380  29.229  25.143  1.00  0.00    -0.461 OA
BRANCH   2   3
ATOM      3  C   UNL A   1      31.484  28.581  23.955  1.00  0.00     0.327 C 
ATOM      4  O   UNL A   1      31.978  29.082  22.948  1.00  0.00    -0.250 OA
BRANCH   3   5
ATOM      5  C   UNL A   1      30.985  27.127  24.002  1.00  0.00     0.127 C 
ATOM      6  C   UNL A   1      29.515  27.186  23.517  1.00  0.00     0.042 C 
BRANCH   5   7
ATOM      7  C   UNL A   1      31.029  26.654  25.484  1.00  0.00     0.032 C 
ATOM      8  C   UNL A   1      30.545  25.234  25.759  1.00  0.00     0.006 C 
ENDBRANCH   5   7
BRANCH   5   9
ATOM      9  N   UNL A   1      31.627  26.150  23.073  1.00  0.00    -0.198 NA
ATOM     10  H   UNL A   1      31.295  26.404  22.143  1.00  0.00     0.142 HD
BRANCH   9  11
ATOM     11  S   UNL A   1      33.263  25.908  22.905  1.00  0.00     0.218 S 
ATOM     12  O   UNL A   1      33.654  26.300  21.570  1.00  0.00    -0.212 OA
ATOM     13  O   UNL A   1      33.812  26.595  24.057  1.00  0.00    -0.212 OA
BRANCH  11  14
ATOM     14  C   UNL A   1      33.639  24.169  23.097  1.00  0.00     0.213 C 
BRANCH  14  15
ATOM     15  C   UNL A   1      34.953  23.764  23.644  1.00  0.00     0.100 A 
ATOM     16  C   UNL A   1      35.524  23.862  24.935  1.00  0.00     0.073 A 
ATOM     17  N   UNL A   1      35.827  23.210  22.784  1.00  0.00    -0.084 NA
ATOM     18  C   UNL A   1      36.756  23.265  24.814  1.00  0.00     0.133 A 
ATOM     19  O   UNL A   1      36.944  22.887  23.524  1.00  0.00    -0.361 OA
ATOM     20  C   UNL A   1      37.838  22.919  25.750  1.00  0.00     0.091 C 
ENDBRANCH  14  15
ENDBRANCH  11  14
ENDBRANCH   9  11
ENDBRANCH   5   9
ENDBRANCH   3   5
ENDBRANCH   2   3
ENDBRANCH   1   2
BRANCH   1  21
ATOM     21  C   UNL A   1      32.642  29.689  27.192  1.00  0.00     0.275 C 
BRANCH  21  22
ATOM     22  O   UNL A   1      33.982  29.393  27.626  1.00  0.00    -0.458 OA
BRANCH  22  23
ATOM     23  C   UNL A   1      34.668  30.446  28.112  1.00  0.00     0.338 C 
ATOM     24  O   UNL A   1      34.257  31.560  28.387  1.00  0.00    -0.246 OA
BRANCH  23  25
ATOM     25  C   UNL A   1      36.060  30.074  28.350  1.00  0.00     0.060 A 
ATOM     26  C   UNL A   1      36.958  30.132  27.287  1.00  0.00     0.016 A 
ATOM     27  C   UNL A   1      36.424  29.510  29.572  1.00  0.00     0.016 A 
ATOM     28  C   UNL A   1      38.211  29.552  27.416  1.00  0.00     0.010 A 
ATOM     29  C   UNL A   1      37.721  29.026  29.732  1.00  0.00     0.010 A 
ATOM     30  C   UNL A   1      38.620  29.028  28.651  1.00  0.00    -0.014 A 
BRANCH  30  31
ATOM     31  C   UNL A   1      40.006  28.536  28.839  1.00  0.00     0.031 A 
ATOM     32  C   UNL A   1      41.104  29.478  29.235  1.00  0.00     0.074 A 
ATOM     33  C   UNL A   1      40.281  27.242  28.588  1.00  0.00     0.049 A 
ATOM     34  N   UNL A   1      42.398  29.294  29.197  1.00  0.00    -0.248 NA
ATOM     35  C   UNL A   1      40.695  30.806  29.720  1.00  0.00     0.031 C 
ATOM     36  C   UNL A   1      39.297  26.221  28.220  1.00  0.00     0.029 A 
ATOM     37  N   UNL A   1      41.476  26.569  28.589  1.00  0.00    -0.354 N 
ATOM     38  C   UNL A   1      42.961  30.502  29.589  1.00  0.00     0.074 A 
ATOM     39  C   UNL A   1      41.868  31.405  29.880  1.00  0.00     0.031 C 
ATOM     40  C   UNL A   1      39.924  25.050  28.046  1.00  0.00     0.029 A 
ATOM     41  C   UNL A   1      41.357  25.259  28.199  1.00  0.00     0.049 A 
ATOM     42  H   UNL A   1      42.331  26.984  28.841  1.00  0.00     0.167 HD
ATOM     43  C   UNL A   1      44.273  30.827  29.673  1.00  0.00     0.031 A 
ATOM     44  C   UNL A   1      42.297  24.335  27.930  1.00  0.00     0.031 A 
ATOM     45  C   UNL A   1      45.351  29.911  29.410  1.00  0.00     0.049 A 
ATOM     46  C   UNL A   1      43.740  24.718  28.027  1.00  0.00     0.074 A 
ATOM     47  C   UNL A   1      46.715  30.135  29.486  1.00  0.00     0.029 A 
ATOM     48  N   UNL A   1      45.184  28.587  29.032  1.00  0.00    -0.354 N 
ATOM     49  N   UNL A   1      44.262  25.877  28.346  1.00  0.00    -0.248 NA
ATOM     50  C   UNL A   1      44.721  23.674  27.706  1.00  0.00     0.031 C 
ATOM     51  C   UNL A   1      47.373  28.954  29.125  1.00  0.00     0.029 A 
ATOM     52  C   UNL A   1      46.418  27.985  28.858  1.00  0.00     0.049 A 
ATOM     53  H   UNL A   1      44.315  28.142  28.906  1.00  0.00     0.167 HD
ATOM     54  C   UNL A   1      45.635  25.706  28.260  1.00  0.00     0.074 A 
ATOM     55  C   UNL A   1      45.864  24.325  27.880  1.00  0.00     0.031 C 
ATOM     56  C   UNL A   1      46.618  26.614  28.469  1.00  0.00     0.031 A 
BRANCH  43  57
ATOM     57  C   UNL A   1      44.609  32.251  30.010  1.00  0.00    -0.014 A 
ATOM     58  C   UNL A   1      44.823  32.664  31.333  1.00  0.00     0.009 A 
ATOM     59  C   UNL A   1      44.730  33.192  28.973  1.00  0.00     0.009 A 
ATOM     60  C   UNL A   1      45.123  34.001  31.614  1.00  0.00     0.001 A 
ATOM     61  C   UNL A   1      45.047  34.521  29.256  1.00  0.00     0.001 A 
ATOM     62  C   UNL A   1      45.236  34.926  30.576  1.00  0.00     0.000 A 
ENDBRANCH  43  57
BRANCH  44  63
ATOM     63  C   UNL A   1      41.873  22.990  27.476  1.00  0.00    -0.014 A 
ATOM     64  C   UNL A   1      41.911  22.653  26.117  1.00  0.00     0.009 A 
ATOM     65  C   UNL A   1      41.509  22.010  28.414  1.00  0.00     0.009 A 
ATOM     66  C   UNL A   1      41.594  21.357  25.705  1.00  0.00     0.001 A 
ATOM     67  C   UNL A   1      41.215  20.710  28.001  1.00  0.00     0.001 A 
ATOM     68  C   UNL A   1      41.255  20.385  26.647  1.00  0.00     0.000 A 
ENDBRANCH  44  63
BRANCH  56  69
ATOM     69  C   UNL A   1      48.026  26.132  28.301  1.00  0.00    -0.014 A 
ATOM     70  C   UNL A   1      48.760  25.667  29.402  1.00  0.00     0.009 A 
ATOM     71  C   UNL A   1      48.611  26.116  27.027  1.00  0.00     0.009 A 
ATOM     72  C   UNL A   1      50.069  25.213  29.231  1.00  0.00     0.001 A 
ATOM     73  C   UNL A   1      49.914  25.648  26.857  1.00  0.00     0.001 A 
ATOM     74  C   UNL A   1      50.643  25.202  27.960  1.00  0.00     0.000 A 
ENDBRANCH  56  69
ENDBRANCH  30  31
ENDBRANCH  23  25
ENDBRANCH  22  23
ENDBRANCH  21  22
ENDBRANCH   1  21
TORSDOF 16
ENDMDL
MODEL 2
REMARK VINA RESULT:      -9.7      3.768      7.351
REMARK SMILES CC[C@](C)(NS(=O)(=O)Cc1cc(C)on1)C(=O)OCCOC(=O)c1ccc(-c2c3nc(c(-c4ccccc4)c4ccc([nH]4)c(-c4ccccc4)c4nc(c(-c5ccccc5)c5ccc2[nH]5)C=C4)C=C3)cc1
REMARK SMILES IDX 19 1 18 2 16 3 17 4 3 5 4 6 2 7 1 8 5 9 6 11 7 12 8 13 9 14
REMARK SMILES IDX 10 15 11 16 15 17 12 18 14 19 13 20 20 21 21 22 22 23 23 24
REMARK SMILES IDX 24 25 25 26 71 27 26 28 70 29 27 30 28 31 29 32 64 33 30 34
REMARK SMILES IDX 69 35 63 36 65 37 31 38 68 39 62 40 61 41 32 43 54 44 39 45
REMARK SMILES IDX 53 46 40 47 43 48 52 49 66 50 41 51 42 52 51 54 67 55 44 56
REMARK SMILES IDX 33 57 34 58 38 59 35 60 37 61 36 62 55 63 56 64 60 65 57 66
REMARK SMILES IDX 59 67 58 68 45 69 46 70 50 71 47 72 49 73 48 74
REMARK H PARENT 5 10 65 42 43 53
REMARK Flexibility Score: inf
ROOT
ATOM      1  C   UNL A   1      31.789  28.224  26.683  1.00  0.00     0.274 C 
ENDROOT
BRANCH   1   2
ATOM      2  O   UNL A   1      32.478  27.188  25.947  1.00  0.00    -0.461 OA
BRANCH   2   3
ATOM      3  C   UNL A   1      31.760  26.080  25.635  1.00  0.00     0.327 C 
ATOM      4  O   UNL A   1      30.633  25.854  26.071  1.00  0.00    -0.250 OA
BRANCH   3   5
ATOM      5  C   UNL A   1      32.461  25.156  24.625  1.00  0.00     0.127 C 
ATOM      6  C   UNL A   1      32.094  23.718  25.066  1.00  0.00     0.042 C 
BRANCH   5   7
ATOM      7  C   UNL A   1      33.997  25.372  24.767  1.00  0.00     0.032 C 
ATOM      8  C   UNL A   1      34.709  24.514  25.808  1.00  0.00     0.006 C 
ENDBRANCH   5   7
BRANCH   5   9
ATOM      9  N   UNL A   1      32.007  25.220  23.204  1.00  0.00    -0.198 NA
ATOM     10  H   UNL A   1      30.999  25.363  23.250  1.00  0.00     0.142 HD
BRANCH   9  11
ATOM     11  S   UNL A   1      32.552  26.298  22.063  1.00  0.00     0.218 S 
ATOM     12  O   UNL A   1      33.994  26.219  22.002  1.00  0.00    -0.212 OA
ATOM     13  O   UNL A   1      31.755  25.969  20.898  1.00  0.00    -0.212 OA
BRANCH  11  14
ATOM     14  C   UNL A   1      32.117  27.964  22.548  1.00  0.00     0.213 C 
BRANCH  14  15
ATOM     15  C   UNL A   1      30.699  28.388  22.509  1.00  0.00     0.100 A 
ATOM     16  C   UNL A   1      29.553  27.962  23.221  1.00  0.00     0.073 A 
ATOM     17  N   UNL A   1      30.373  29.347  21.624  1.00  0.00    -0.084 NA
ATOM     18  C   UNL A   1      28.542  28.774  22.766  1.00  0.00     0.133 A 
ATOM     19  O   UNL A   1      29.029  29.594  21.800  1.00  0.00    -0.361 OA
ATOM     20  C   UNL A   1      27.127  28.970  23.123  1.00  0.00     0.091 C 
ENDBRANCH  14  15
ENDBRANCH  11  14
ENDBRANCH   9  11
ENDBRANCH   5   9
ENDBRANCH   3   5
ENDBRANCH   2   3
ENDBRANCH   1   2
BRANCH   1  21
ATOM     21  C   UNL A   1      31.785  29.538  25.906  1.00  0.00     0.275 C 
BRANCH  21  22
ATOM     22  O   UNL A   1      33.080  30.163  25.966  1.00  0.00    -0.458 OA
BRANCH  22  23
ATOM     23  C   UNL A   1      33.203  31.129  26.899  1.00  0.00     0.338 C 
ATOM     24  O   UNL A   1      32.457  32.064  27.126  1.00  0.00    -0.246 OA
BRANCH  23  25
ATOM     25  C   UNL A   1      34.391  30.892  27.714  1.00  0.00     0.060 A 
ATOM     26  C   UNL A   1      35.251  31.957  27.966  1.00  0.00     0.016 A 
ATOM     27  C   UNL A   1      34.730  29.590  28.077  1.00  0.00     0.016 A 
ATOM     28  C   UNL A   1      36.502  31.714  28.516  1.00  0.00     0.010 A 
ATOM     29  C   UNL A   1      35.940  29.364  28.729  1.00  0.00     0.010 A 
ATOM     30  C   UNL A   1      36.843  30.421  28.939  1.00  0.00    -0.014 A 
BRANCH  30  31
ATOM     31  C   UNL A   1      38.116  30.176  29.658  1.00  0.00     0.031 A 
ATOM     32  C   UNL A   1      39.199  29.345  29.036  1.00  0.00     0.074 A 
ATOM     33  C   UNL A   1      38.266  30.659  30.906  1.00  0.00     0.049 A 
ATOM     34  N   UNL A   1      40.253  28.814  29.598  1.00  0.00    -0.248 NA
ATOM     35  C   UNL A   1      39.069  29.056  27.599  1.00  0.00     0.031 C 
ATOM     36  C   UNL A   1      37.299  31.501  31.613  1.00  0.00     0.029 A 
ATOM     37  N   UNL A   1      39.285  30.493  31.809  1.00  0.00    -0.354 N 
ATOM     38  C   UNL A   1      40.879  28.075  28.602  1.00  0.00     0.074 A 
ATOM     39  C   UNL A   1      40.097  28.242  27.396  1.00  0.00     0.031 C 
ATOM     40  C   UNL A   1      37.775  31.792  32.831  1.00  0.00     0.029 A 
ATOM     41  C   UNL A   1      39.032  31.083  33.022  1.00  0.00     0.049 A 
ATOM     42  H   UNL A   1      40.112  29.999  31.608  1.00  0.00     0.167 HD
ATOM     43  C   UNL A   1      41.992  27.310  28.699  1.00  0.00     0.031 A 
ATOM     44  C   UNL A   1      39.702  31.016  34.187  1.00  0.00     0.031 A 
ATOM     45  C   UNL A   1      42.778  27.176  29.896  1.00  0.00     0.049 A 
ATOM     46  C   UNL A   1      40.928  30.162  34.271  1.00  0.00     0.074 A 
ATOM     47  C   UNL A   1      43.934  26.441  30.095  1.00  0.00     0.029 A 
ATOM     48  N   UNL A   1      42.493  27.805  31.099  1.00  0.00    -0.354 N 
ATOM     49  N   UNL A   1      41.480  29.425  33.340  1.00  0.00    -0.248 NA
ATOM     50  C   UNL A   1      41.608  30.113  35.572  1.00  0.00     0.031 C 
ATOM     51  C   UNL A   1      44.332  26.603  31.427  1.00  0.00     0.029 A 
ATOM     52  C   UNL A   1      43.442  27.465  32.048  1.00  0.00     0.049 A 
ATOM     53  H   UNL A   1      41.727  28.404  31.255  1.00  0.00     0.167 HD
ATOM     54  C   UNL A   1      42.573  28.818  33.939  1.00  0.00     0.074 A 
ATOM     55  C   UNL A   1      42.616  29.290  35.310  1.00  0.00     0.031 C 
ATOM     56  C   UNL A   1      43.456  27.941  33.406  1.00  0.00     0.031 A 
BRANCH  43  57
ATOM     57  C   UNL A   1      42.388  26.515  27.489  1.00  0.00    -0.014 A 
ATOM     58  C   UNL A   1      41.889  25.225  27.259  1.00  0.00     0.009 A 
ATOM     59  C   UNL A   1      43.267  27.083  26.551  1.00  0.00     0.009 A 
ATOM     60  C   UNL A   1      42.288  24.506  26.128  1.00  0.00     0.001 A 
ATOM     61  C   UNL A   1      43.648  26.370  25.414  1.00  0.00     0.001 A 
ATOM     62  C   UNL A   1      43.165  25.080  25.207  1.00  0.00     0.000 A 
ENDBRANCH  43  57
BRANCH  44  63
ATOM     63  C   UNL A   1      39.164  31.731  35.368  1.00  0.00    -0.014 A 
ATOM     64  C   UNL A   1      39.447  33.088  35.568  1.00  0.00     0.009 A 
ATOM     65  C   UNL A   1      38.294  31.075  36.254  1.00  0.00     0.009 A 
ATOM     66  C   UNL A   1      38.866  33.777  36.635  1.00  0.00     0.001 A 
ATOM     67  C   UNL A   1      37.697  31.772  37.306  1.00  0.00     0.001 A 
ATOM     68  C   UNL A   1      37.986  33.122  37.496  1.00  0.00     0.000 A 
ENDBRANCH  44  63
BRANCH  56  69
ATOM     69  C   UNL A   1      44.546  27.451  34.308  1.00  0.00    -0.014 A 
ATOM     70  C   UNL A   1      45.781  28.115  34.367  1.00  0.00     0.009 A 
ATOM     71  C   UNL A   1      44.326  26.334  35.127  1.00  0.00     0.009 A 
ATOM     72  C   UNL A   1      46.786  27.653  35.217  1.00  0.00     0.001 A 
ATOM     73  C   UNL A   1      45.327  25.884  35.988  1.00  0.00     0.001 A 
ATOM     74  C   UNL A   1      46.558  26.541  36.028  1.00  0.00     0.000 A 
ENDBRANCH  56  69
ENDBRANCH  30  31
ENDBRANCH  23  25
ENDBRANCH  22  23
ENDBRANCH  21  22
ENDBRANCH   1  21
TORSDOF 16
ENDMDL
MODEL 3
REMARK VINA RESULT:      -9.5      3.867      6.970
REMARK SMILES CC[C@](C)(NS(=O)(=O)Cc1cc(C)on1)C(=O)OCCOC(=O)c1ccc(-c2c3nc(c(-c4ccccc4)c4ccc([nH]4)c(-c4ccccc4)c4nc(c(-c5ccccc5)c5ccc2[nH]5)C=C4)C=C3)cc1
REMARK SMILES IDX 19 1 18 2 16 3 17 4 3 5 4 6 2 7 1 8 5 9 6 11 7 12 8 13 9 14
REMARK SMILES IDX 10 15 11 16 15 17 12 18 14 19 13 20 20 21 21 22 22 23 23 24
REMARK SMILES IDX 24 25 25 26 71 27 26 28 70 29 27 30 28 31 29 32 64 33 30 34
REMARK SMILES IDX 69 35 63 36 65 37 31 38 68 39 62 40 61 41 32 43 54 44 39 45
REMARK SMILES IDX 53 46 40 47 43 48 52 49 66 50 41 51 42 52 51 54 67 55 44 56
REMARK SMILES IDX 33 57 34 58 38 59 35 60 37 61 36 62 55 63 56 64 60 65 57 66
REMARK SMILES IDX 59 67 58 68 45 69 46 70 50 71 47 72 49 73 48 74
REMARK H PARENT 5 10 65 42 43 53
REMARK Flexibility Score: inf
ROOT
ATOM      1  C   UNL A   1      31.636  28.874  24.028  1.00  0.00     0.274 C 
ENDROOT
BRANCH   1   2
ATOM      2  O   UNL A   1      30.845  27.684  24.245  1.00  0.00    -0.461 OA
BRANCH   2   3
ATOM      3  C   UNL A   1      31.463  26.493  24.040  1.00  0.00     0.327 C 
ATOM      4  O   UNL A   1      31.931  26.147  22.958  1.00  0.00    -0.250 OA
BRANCH   3   5
ATOM      5  C   UNL A   1      31.585  25.637  25.312  1.00  0.00     0.127 C 
ATOM      6  C   UNL A   1      30.278  25.890  26.100  1.00  0.00     0.042 C 
BRANCH   5   7
ATOM      7  C   UNL A   1      32.801  26.167  26.128  1.00  0.00     0.032 C 
ATOM      8  C   UNL A   1      34.182  25.734  25.649  1.00  0.00     0.006 C 
ENDBRANCH   5   7
BRANCH   5   9
ATOM      9  N   UNL A   1      31.617  24.154  25.141  1.00  0.00    -0.198 NA
ATOM     10  H   UNL A   1      32.510  23.953  24.691  1.00  0.00     0.142 HD
BRANCH   9  11
ATOM     11  S   UNL A   1      31.481  23.037  26.365  1.00  0.00     0.218 S 
ATOM     12  O   UNL A   1      31.773  23.689  27.622  1.00  0.00    -0.212 OA
ATOM     13  O   UNL A   1      30.173  22.457  26.131  1.00  0.00    -0.212 OA
BRANCH  11  14
ATOM     14  C   UNL A   1      32.687  21.736  26.133  1.00  0.00     0.213 C 
BRANCH  14  15
ATOM     15  C   UNL A   1      33.971  22.043  25.462  1.00  0.00     0.100 A 
ATOM     16  C   UNL A   1      34.318  22.244  24.105  1.00  0.00     0.073 A 
ATOM     17  N   UNL A   1      35.060  22.137  26.245  1.00  0.00    -0.084 NA
ATOM     18  C   UNL A   1      35.660  22.540  24.132  1.00  0.00     0.133 A 
ATOM     19  O   UNL A   1      36.108  22.462  25.411  1.00  0.00    -0.361 OA
ATOM     20  C   UNL A   1      36.652  22.953  23.127  1.00  0.00     0.091 C 
ENDBRANCH  14  15
ENDBRANCH  11  14
ENDBRANCH   9  11
ENDBRANCH   5   9
ENDBRANCH   3   5
ENDBRANCH   2   3
ENDBRANCH   1   2
BRANCH   1  21
ATOM     21  C   UNL A   1      31.585  29.795  25.244  1.00  0.00     0.275 C 
BRANCH  21  22
ATOM     22  O   UNL A   1      32.912  30.048  25.740  1.00  0.00    -0.458 OA
BRANCH  22  23
ATOM     23  C   UNL A   1      32.995  31.015  26.676  1.00  0.00     0.338 C 
ATOM     24  O   UNL A   1      32.220  31.929  26.894  1.00  0.00    -0.246 OA
BRANCH  23  25
ATOM     25  C   UNL A   1      34.178  30.809  27.507  1.00  0.00     0.060 A 
ATOM     26  C   UNL A   1      34.968  31.910  27.827  1.00  0.00     0.016 A 
ATOM     27  C   UNL A   1      34.586  29.513  27.819  1.00  0.00     0.016 A 
ATOM     28  C   UNL A   1      36.219  31.714  28.395  1.00  0.00     0.010 A 
ATOM     29  C   UNL A   1      35.793  29.328  28.488  1.00  0.00     0.010 A 
ATOM     30  C   UNL A   1      36.627  30.424  28.767  1.00  0.00    -0.014 A 
BRANCH  30  31
ATOM     31  C   UNL A   1      37.897  30.221  29.504  1.00  0.00     0.031 A 
ATOM     32  C   UNL A   1      39.005  29.403  28.908  1.00  0.00     0.074 A 
ATOM     33  C   UNL A   1      38.022  30.727  30.746  1.00  0.00     0.049 A 
ATOM     34  N   UNL A   1      40.065  28.906  29.491  1.00  0.00    -0.248 NA
ATOM     35  C   UNL A   1      38.898  29.088  27.475  1.00  0.00     0.031 C 
ATOM     36  C   UNL A   1      37.028  31.559  31.427  1.00  0.00     0.029 A 
ATOM     37  N   UNL A   1      39.034  30.599  31.662  1.00  0.00    -0.354 N 
ATOM     38  C   UNL A   1      40.718  28.165  28.515  1.00  0.00     0.074 A 
ATOM     39  C   UNL A   1      39.946  28.294  27.297  1.00  0.00     0.031 C 
ATOM     40  C   UNL A   1      37.484  31.881  32.645  1.00  0.00     0.029 A 
ATOM     41  C   UNL A   1      38.754  31.204  32.862  1.00  0.00     0.049 A 
ATOM     42  H   UNL A   1      39.874  30.121  31.479  1.00  0.00     0.167 HD
ATOM     43  C   UNL A   1      41.847  27.427  28.637  1.00  0.00     0.031 A 
ATOM     44  C   UNL A   1      39.412  31.171  34.035  1.00  0.00     0.031 A 
ATOM     45  C   UNL A   1      42.622  27.330  29.845  1.00  0.00     0.049 A 
ATOM     46  C   UNL A   1      40.656  30.346  34.148  1.00  0.00     0.074 A 
ATOM     47  C   UNL A   1      43.792  26.625  30.069  1.00  0.00     0.029 A 
ATOM     48  N   UNL A   1      42.309  27.972  31.034  1.00  0.00    -0.354 N 
ATOM     49  N   UNL A   1      41.235  29.606  33.235  1.00  0.00    -0.248 NA
ATOM     50  C   UNL A   1      41.322  30.334  35.456  1.00  0.00     0.031 C 
ATOM     51  C   UNL A   1      44.171  26.818  31.402  1.00  0.00     0.029 A 
ATOM     52  C   UNL A   1      43.255  27.671  31.998  1.00  0.00     0.049 A 
ATOM     53  H   UNL A   1      41.528  28.556  31.171  1.00  0.00     0.167 HD
ATOM     54  C   UNL A   1      42.334  29.035  33.857  1.00  0.00     0.074 A 
ATOM     55  C   UNL A   1      42.351  29.531  35.220  1.00  0.00     0.031 C 
ATOM     56  C   UNL A   1      43.243  28.169  33.348  1.00  0.00     0.031 A 
BRANCH  43  57
ATOM     57  C   UNL A   1      42.274  26.621  27.445  1.00  0.00    -0.014 A 
ATOM     58  C   UNL A   1      41.823  25.309  27.242  1.00  0.00     0.009 A 
ATOM     59  C   UNL A   1      43.134  27.200  26.496  1.00  0.00     0.009 A 
ATOM     60  C   UNL A   1      42.251  24.581  26.127  1.00  0.00     0.001 A 
ATOM     61  C   UNL A   1      43.543  26.477  25.375  1.00  0.00     0.001 A 
ATOM     62  C   UNL A   1      43.108  25.166  25.196  1.00  0.00     0.000 A 
ENDBRANCH  43  57
BRANCH  44  63
ATOM     63  C   UNL A   1      38.845  31.893  35.198  1.00  0.00    -0.014 A 
ATOM     64  C   UNL A   1      38.153  31.198  36.199  1.00  0.00     0.009 A 
ATOM     65  C   UNL A   1      39.067  33.271  35.350  1.00  0.00     0.009 A 
ATOM     66  C   UNL A   1      37.697  31.871  37.334  1.00  0.00     0.001 A 
ATOM     67  C   UNL A   1      38.629  33.936  36.497  1.00  0.00     0.001 A 
ATOM     68  C   UNL A   1      37.943  33.236  37.486  1.00  0.00     0.000 A 
ENDBRANCH  44  63
BRANCH  56  69
ATOM     69  C   UNL A   1      44.333  27.719  34.271  1.00  0.00    -0.014 A 
ATOM     70  C   UNL A   1      44.186  26.557  35.041  1.00  0.00     0.009 A 
ATOM     71  C   UNL A   1      45.528  28.449  34.348  1.00  0.00     0.009 A 
ATOM     72  C   UNL A   1      45.212  26.144  35.892  1.00  0.00     0.001 A 
ATOM     73  C   UNL A   1      46.558  28.026  35.187  1.00  0.00     0.001 A 
ATOM     74  C   UNL A   1      46.397  26.877  35.962  1.00  0.00     0.000 A 
ENDBRANCH  56  69
ENDBRANCH  30  31
ENDBRANCH  23  25
ENDBRANCH  22  23
ENDBRANCH  21  22
ENDBRANCH   1  21
TORSDOF 16
ENDMDL
