MODEL 1
REMARK VINA RESULT:     -11.4      0.000      0.000
REMARK SMILES Cc1cc(C)cc(N(C)S(=O)(=O)c2ccc(F)c(C(=O)OCCOC(=O)c3ccc(-c4c5nc(c(-c6ccccc6)c6ccc([nH]6)c(-c6ccccc6)c6nc(c(-c7ccccc7)c7ccc4[nH]7)C=C6)C=C5)cc3)c2)c1
REMARK SMILES IDX 22 1 21 2 19 3 20 4 18 5 13 6 14 7 75 8 15 9 16 10 17 11
REMARK SMILES IDX 10 12 11 13 12 14 8 15 9 16 7 17 1 18 2 19 3 20 76 21 4 22
REMARK SMILES IDX 5 23 6 24 23 25 24 26 25 27 26 28 27 29 28 30 74 31 29 32
REMARK SMILES IDX 73 33 30 34 31 35 32 36 67 37 33 38 72 39 66 40 68 41 34 42
REMARK SMILES IDX 71 43 65 44 64 45 35 47 57 48 42 49 56 50 43 51 46 52 55 53
REMARK SMILES IDX 69 54 44 55 45 56 54 58 70 59 47 60 36 61 37 62 41 63 38 64
REMARK SMILES IDX 40 65 39 66 58 67 59 68 63 69 60 70 62 71 61 72 48 73 49 74
REMARK SMILES IDX 53 75 50 76 52 77 51 78
REMARK H PARENT 68 46 46 57
REMARK Flexibility Score: inf
ROOT
ATOM      1  C   UNL A   1      35.879  20.392  25.204  1.00  0.00     0.275 C 
ENDROOT
BRANCH   1   2
ATOM      2  O   UNL A   1      35.358  21.708  25.484  1.00  0.00    -0.458 OA
BRANCH   2   3
ATOM      3  C   UNL A   1      34.114  21.763  26.007  1.00  0.00     0.341 C 
ATOM      4  O   UNL A   1      33.749  21.299  27.077  1.00  0.00    -0.246 OA
BRANCH   3   5
ATOM      5  C   UNL A   1      33.197  22.548  25.157  1.00  0.00     0.097 A 
ATOM      6  C   UNL A   1      31.855  24.544  24.867  1.00  0.00     0.089 A 
ATOM      7  C   UNL A   1      31.295  23.984  23.708  1.00  0.00     0.025 A 
ATOM      8  C   UNL A   1      32.808  23.831  25.585  1.00  0.00     0.041 A 
ATOM      9  C   UNL A   1      31.687  22.714  23.278  1.00  0.00     0.041 A 
ATOM     10  C   UNL A   1      32.632  21.997  24.008  1.00  0.00     0.137 A 
ATOM     11  F   UNL A   1      32.936  20.754  23.607  1.00  0.00    -0.206 F 
BRANCH   6  12
ATOM     12  S   UNL A   1      31.254  26.152  25.348  1.00  0.00     0.264 S 
ATOM     13  O   UNL A   1      31.382  26.179  26.794  1.00  0.00    -0.201 OA
ATOM     14  O   UNL A   1      29.958  26.275  24.712  1.00  0.00    -0.201 OA
BRANCH  12  15
ATOM     15  N   UNL A   1      32.294  27.381  24.716  1.00  0.00    -0.269 N 
ATOM     16  C   UNL A   1      33.479  26.891  23.953  1.00  0.00     0.164 C 
BRANCH  15  17
ATOM     17  C   UNL A   1      32.647  28.438  25.682  1.00  0.00     0.052 A 
ATOM     18  C   UNL A   1      35.487  29.499  28.020  1.00  0.00     0.044 C 
ATOM     19  C   UNL A   1      34.212  29.518  27.230  1.00  0.00    -0.049 A 
ATOM     20  C   UNL A   1      33.385  30.634  27.297  1.00  0.00     0.007 A 
ATOM     21  C   UNL A   1      33.852  28.444  26.402  1.00  0.00     0.030 A 
ATOM     22  C   UNL A   1      32.198  30.675  26.566  1.00  0.00    -0.049 A 
ATOM     23  C   UNL A   1      31.369  31.920  26.602  1.00  0.00     0.044 C 
ATOM     24  C   UNL A   1      31.836  29.580  25.760  1.00  0.00     0.030 A 
ENDBRANCH  15  17
ENDBRANCH  12  15
ENDBRANCH   6  12
ENDBRANCH   3   5
ENDBRANCH   2   3
ENDBRANCH   1   2
BRANCH   1  25
ATOM     25  C   UNL A   1      37.317  20.458  24.689  1.00  0.00     0.275 C 
BRANCH  25  26
ATOM     26  O   UNL A   1      38.020  21.570  25.275  1.00  0.00    -0.458 OA
BRANCH  26  27
ATOM     27  C   UNL A   1      39.108  21.245  26.008  1.00  0.00     0.338 C 
ATOM     28  O   UNL A   1      39.673  20.167  26.074  1.00  0.00    -0.246 OA
BRANCH  27  29
ATOM     29  C   UNL A   1      39.630  22.452  26.662  1.00  0.00     0.060 A 
ATOM     30  C   UNL A   1      39.117  23.675  26.247  1.00  0.00     0.016 A 
ATOM     31  C   UNL A   1      40.700  22.406  27.553  1.00  0.00     0.016 A 
ATOM     32  C   UNL A   1      39.713  24.861  26.650  1.00  0.00     0.010 A 
ATOM     33  C   UNL A   1      41.258  23.606  28.018  1.00  0.00     0.010 A 
ATOM     34  C   UNL A   1      40.791  24.846  27.545  1.00  0.00    -0.014 A 
BRANCH  34  35
ATOM     35  C   UNL A   1      41.455  26.129  27.903  1.00  0.00     0.031 A 
ATOM     36  C   UNL A   1      42.762  26.499  27.247  1.00  0.00     0.074 A 
ATOM     37  C   UNL A   1      40.818  27.030  28.682  1.00  0.00     0.049 A 
ATOM     38  N   UNL A   1      43.498  27.571  27.413  1.00  0.00    -0.248 NA
ATOM     39  C   UNL A   1      43.298  25.556  26.252  1.00  0.00     0.031 C 
ATOM     40  C   UNL A   1      39.463  26.874  29.216  1.00  0.00     0.029 A 
ATOM     41  N   UNL A   1      41.182  28.294  29.080  1.00  0.00    -0.354 N 
ATOM     42  C   UNL A   1      44.589  27.418  26.568  1.00  0.00     0.074 A 
ATOM     43  C   UNL A   1      44.432  26.144  25.901  1.00  0.00     0.031 C 
ATOM     44  C   UNL A   1      39.063  28.042  29.743  1.00  0.00     0.029 A 
ATOM     45  C   UNL A   1      40.162  29.000  29.677  1.00  0.00     0.049 A 
ATOM     46  H   UNL A   1      42.088  28.659  28.952  1.00  0.00     0.167 HD
ATOM     47  C   UNL A   1      45.627  28.263  26.357  1.00  0.00     0.031 A 
ATOM     48  C   UNL A   1      40.110  30.280  30.097  1.00  0.00     0.031 A 
ATOM     49  C   UNL A   1      45.755  29.562  26.960  1.00  0.00     0.049 A 
ATOM     50  C   UNL A   1      41.330  31.151  29.957  1.00  0.00     0.074 A 
ATOM     51  C   UNL A   1      46.801  30.462  26.857  1.00  0.00     0.029 A 
ATOM     52  N   UNL A   1      44.788  30.160  27.752  1.00  0.00    -0.354 N 
ATOM     53  N   UNL A   1      42.434  30.925  29.288  1.00  0.00    -0.248 NA
ATOM     54  C   UNL A   1      41.295  32.451  30.644  1.00  0.00     0.031 C 
ATOM     55  C   UNL A   1      46.484  31.590  27.621  1.00  0.00     0.029 A 
ATOM     56  C   UNL A   1      45.218  31.413  28.154  1.00  0.00     0.049 A 
ATOM     57  H   UNL A   1      43.925  29.754  27.993  1.00  0.00     0.167 HD
ATOM     58  C   UNL A   1      43.215  32.062  29.456  1.00  0.00     0.074 A 
ATOM     59  C   UNL A   1      42.453  32.983  30.271  1.00  0.00     0.031 C 
ATOM     60  C   UNL A   1      44.457  32.317  28.975  1.00  0.00     0.031 A 
BRANCH  47  61
ATOM     61  C   UNL A   1      46.753  27.773  25.493  1.00  0.00    -0.014 A 
ATOM     62  C   UNL A   1      46.804  28.037  24.116  1.00  0.00     0.009 A 
ATOM     63  C   UNL A   1      47.803  27.056  26.089  1.00  0.00     0.009 A 
ATOM     64  C   UNL A   1      47.874  27.564  23.350  1.00  0.00     0.001 A 
ATOM     65  C   UNL A   1      48.880  26.607  25.327  1.00  0.00     0.001 A 
ATOM     66  C   UNL A   1      48.911  26.854  23.956  1.00  0.00     0.000 A 
ENDBRANCH  47  61
BRANCH  48  67
ATOM     67  C   UNL A   1      38.854  30.842  30.666  1.00  0.00    -0.014 A 
ATOM     68  C   UNL A   1      37.962  31.551  29.844  1.00  0.00     0.009 A 
ATOM     69  C   UNL A   1      38.550  30.702  32.028  1.00  0.00     0.009 A 
ATOM     70  C   UNL A   1      36.804  32.122  30.379  1.00  0.00     0.001 A 
ATOM     71  C   UNL A   1      37.373  31.243  32.553  1.00  0.00     0.001 A 
ATOM     72  C   UNL A   1      36.508  31.961  31.731  1.00  0.00     0.000 A 
ENDBRANCH  48  67
BRANCH  60  73
ATOM     73  C   UNL A   1      45.078  33.642  29.318  1.00  0.00    -0.014 A 
ATOM     74  C   UNL A   1      44.768  34.795  28.582  1.00  0.00     0.009 A 
ATOM     75  C   UNL A   1      45.924  33.752  30.433  1.00  0.00     0.009 A 
ATOM     76  C   UNL A   1      45.309  36.030  28.944  1.00  0.00     0.001 A 
ATOM     77  C   UNL A   1      46.443  34.994  30.807  1.00  0.00     0.001 A 
ATOM     78  C   UNL A   1      46.140  36.130  30.059  1.00  0.00     0.000 A 
ENDBRANCH  60  73
ENDBRANCH  34  35
ENDBRANCH  27  29
ENDBRANCH  26  27
ENDBRANCH  25  26
ENDBRANCH   1  25
TORSDOF 14
ENDMDL
MODEL 2
REMARK VINA RESULT:     -11.2      1.527      2.167
REMARK SMILES Cc1cc(C)cc(N(C)S(=O)(=O)c2ccc(F)c(C(=O)OCCOC(=O)c3ccc(-c4c5nc(c(-c6ccccc6)c6ccc([nH]6)c(-c6ccccc6)c6nc(c(-c7ccccc7)c7ccc4[nH]7)C=C6)C=C5)cc3)c2)c1
REMARK SMILES IDX 22 1 21 2 19 3 20 4 18 5 13 6 14 7 75 8 15 9 16 10 17 11
REMARK SMILES IDX 10 12 11 13 12 14 8 15 9 16 7 17 1 18 2 19 3 20 76 21 4 22
REMARK SMILES IDX 5 23 6 24 23 25 24 26 25 27 26 28 27 29 28 30 74 31 29 32
REMARK SMILES IDX 73 33 30 34 31 35 32 36 67 37 33 38 72 39 66 40 68 41 34 42
REMARK SMILES IDX 71 43 65 44 64 45 35 47 57 48 42 49 56 50 43 51 46 52 55 53
REMARK SMILES IDX 69 54 44 55 45 56 54 58 70 59 47 60 36 61 37 62 41 63 38 64
REMARK SMILES IDX 40 65 39 66 58 67 59 68 63 69 60 70 62 71 61 72 48 73 49 74
REMARK SMILES IDX 53 75 50 76 52 77 51 78
REMARK H PARENT 68 46 46 57
REMARK Flexibility Score: inf
ROOT
ATOM      1  C   UNL A   1      36.343  21.089  25.585  1.00  0.00     0.275 C 
ENDROOT
BRANCH   1   2
ATOM      2  O   UNL A   1      35.623  22.236  26.080  1.00  0.00    -0.458 OA
BRANCH   2   3
ATOM      3  C   UNL A   1      34.361  22.015  26.511  1.00  0.00     0.341 C 
ATOM      4  O   UNL A   1      34.029  21.456  27.546  1.00  0.00    -0.246 OA
BRANCH   3   5
ATOM      5  C   UNL A   1      33.360  22.610  25.604  1.00  0.00     0.097 A 
ATOM      6  C   UNL A   1      31.846  24.439  25.120  1.00  0.00     0.089 A 
ATOM      7  C   UNL A   1      31.308  23.695  24.058  1.00  0.00     0.025 A 
ATOM      8  C   UNL A   1      32.874  23.901  25.886  1.00  0.00     0.041 A 
ATOM      9  C   UNL A   1      31.795  22.418  23.773  1.00  0.00     0.041 A 
ATOM     10  C   UNL A   1      32.816  21.877  24.551  1.00  0.00     0.137 A 
ATOM     11  F   UNL A   1      33.214  20.623  24.295  1.00  0.00    -0.206 F 
BRANCH   6  12
ATOM     12  S   UNL A   1      31.123  26.040  25.422  1.00  0.00     0.264 S 
ATOM     13  O   UNL A   1      31.171  26.203  26.865  1.00  0.00    -0.201 OA
ATOM     14  O   UNL A   1      29.859  26.021  24.716  1.00  0.00    -0.201 OA
BRANCH  12  15
ATOM     15  N   UNL A   1      32.120  27.275  24.732  1.00  0.00    -0.269 N 
ATOM     16  C   UNL A   1      33.290  26.790  23.943  1.00  0.00     0.164 C 
BRANCH  15  17
ATOM     17  C   UNL A   1      32.481  28.359  25.663  1.00  0.00     0.052 A 
ATOM     18  C   UNL A   1      35.328  29.471  27.969  1.00  0.00     0.044 C 
ATOM     19  C   UNL A   1      34.054  29.475  27.177  1.00  0.00    -0.049 A 
ATOM     20  C   UNL A   1      33.237  30.600  27.205  1.00  0.00     0.007 A 
ATOM     21  C   UNL A   1      33.685  28.378  26.385  1.00  0.00     0.030 A 
ATOM     22  C   UNL A   1      32.052  30.628  26.472  1.00  0.00    -0.049 A 
ATOM     23  C   UNL A   1      31.234  31.882  26.466  1.00  0.00     0.044 C 
ATOM     24  C   UNL A   1      31.680  29.511  25.702  1.00  0.00     0.030 A 
ENDBRANCH  15  17
ENDBRANCH  12  15
ENDBRANCH   6  12
ENDBRANCH   3   5
ENDBRANCH   2   3
ENDBRANCH   1   2
BRANCH   1  25
ATOM     25  C   UNL A   1      37.754  21.467  25.133  1.00  0.00     0.275 C 
BRANCH  25  26
ATOM     26  O   UNL A   1      38.269  22.556  25.922  1.00  0.00    -0.458 OA
BRANCH  26  27
ATOM     27  C   UNL A   1      39.471  22.334  26.499  1.00  0.00     0.338 C 
ATOM     28  O   UNL A   1      40.052  21.271  26.637  1.00  0.00    -0.246 OA
BRANCH  27  29
ATOM     29  C   UNL A   1      40.083  23.621  26.856  1.00  0.00     0.060 A 
ATOM     30  C   UNL A   1      40.743  23.697  28.076  1.00  0.00     0.016 A 
ATOM     31  C   UNL A   1      39.893  24.767  26.088  1.00  0.00     0.016 A 
ATOM     32  C   UNL A   1      41.148  24.924  28.581  1.00  0.00     0.010 A 
ATOM     33  C   UNL A   1      40.367  25.999  26.564  1.00  0.00     0.010 A 
ATOM     34  C   UNL A   1      40.970  26.094  27.832  1.00  0.00    -0.014 A 
BRANCH  34  35
ATOM     35  C   UNL A   1      41.349  27.403  28.430  1.00  0.00     0.031 A 
ATOM     36  C   UNL A   1      42.785  27.863  28.366  1.00  0.00     0.074 A 
ATOM     37  C   UNL A   1      40.395  28.245  28.883  1.00  0.00     0.049 A 
ATOM     38  N   UNL A   1      43.320  28.970  28.818  1.00  0.00    -0.248 NA
ATOM     39  C   UNL A   1      43.736  26.978  27.675  1.00  0.00     0.031 C 
ATOM     40  C   UNL A   1      38.953  28.000  28.817  1.00  0.00     0.029 A 
ATOM     41  N   UNL A   1      40.487  29.517  29.396  1.00  0.00    -0.354 N 
ATOM     42  C   UNL A   1      44.669  28.901  28.491  1.00  0.00     0.074 A 
ATOM     43  C   UNL A   1      44.876  27.639  27.818  1.00  0.00     0.031 C 
ATOM     44  C   UNL A   1      38.301  29.130  29.137  1.00  0.00     0.029 A 
ATOM     45  C   UNL A   1      39.270  30.149  29.525  1.00  0.00     0.049 A 
ATOM     46  H   UNL A   1      41.341  29.937  29.649  1.00  0.00     0.167 HD
ATOM     47  C   UNL A   1      45.648  29.808  28.724  1.00  0.00     0.031 A 
ATOM     48  C   UNL A   1      38.972  31.412  29.889  1.00  0.00     0.031 A 
ATOM     49  C   UNL A   1      45.437  31.097  29.327  1.00  0.00     0.049 A 
ATOM     50  C   UNL A   1      40.087  32.354  30.260  1.00  0.00     0.074 A 
ATOM     51  C   UNL A   1      46.377  32.056  29.661  1.00  0.00     0.029 A 
ATOM     52  N   UNL A   1      44.198  31.618  29.656  1.00  0.00    -0.354 N 
ATOM     53  N   UNL A   1      41.379  32.209  30.099  1.00  0.00    -0.248 NA
ATOM     54  C   UNL A   1      39.695  33.632  30.873  1.00  0.00     0.031 C 
ATOM     55  C   UNL A   1      45.707  33.144  30.230  1.00  0.00     0.029 A 
ATOM     56  C   UNL A   1      44.347  32.883  30.200  1.00  0.00     0.049 A 
ATOM     57  H   UNL A   1      43.338  31.158  29.524  1.00  0.00     0.167 HD
ATOM     58  C   UNL A   1      41.952  33.383  30.572  1.00  0.00     0.074 A 
ATOM     59  C   UNL A   1      40.868  34.238  31.006  1.00  0.00     0.031 C 
ATOM     60  C   UNL A   1      43.264  33.721  30.640  1.00  0.00     0.031 A 
BRANCH  47  61
ATOM     61  C   UNL A   1      47.056  29.406  28.393  1.00  0.00    -0.014 A 
ATOM     62  C   UNL A   1      47.655  29.728  27.167  1.00  0.00     0.009 A 
ATOM     63  C   UNL A   1      47.806  28.713  29.357  1.00  0.00     0.009 A 
ATOM     64  C   UNL A   1      48.970  29.336  26.903  1.00  0.00     0.001 A 
ATOM     65  C   UNL A   1      49.126  28.344  29.100  1.00  0.00     0.001 A 
ATOM     66  C   UNL A   1      49.705  28.648  27.870  1.00  0.00     0.000 A 
ENDBRANCH  47  61
BRANCH  48  67
ATOM     67  C   UNL A   1      37.561  31.888  29.896  1.00  0.00    -0.014 A 
ATOM     68  C   UNL A   1      36.720  31.593  30.982  1.00  0.00     0.009 A 
ATOM     69  C   UNL A   1      37.037  32.612  28.814  1.00  0.00     0.009 A 
ATOM     70  C   UNL A   1      35.382  31.996  30.975  1.00  0.00     0.001 A 
ATOM     71  C   UNL A   1      35.708  33.045  28.826  1.00  0.00     0.001 A 
ATOM     72  C   UNL A   1      34.880  32.728  29.900  1.00  0.00     0.000 A 
ENDBRANCH  48  67
BRANCH  60  73
ATOM     73  C   UNL A   1      43.607  35.069  31.208  1.00  0.00    -0.014 A 
ATOM     74  C   UNL A   1      43.761  36.184  30.372  1.00  0.00     0.009 A 
ATOM     75  C   UNL A   1      43.706  35.240  32.597  1.00  0.00     0.009 A 
ATOM     76  C   UNL A   1      44.027  37.443  30.915  1.00  0.00     0.001 A 
ATOM     77  C   UNL A   1      43.946  36.505  33.139  1.00  0.00     0.001 A 
ATOM     78  C   UNL A   1      44.113  37.603  32.297  1.00  0.00     0.000 A 
ENDBRANCH  60  73
ENDBRANCH  34  35
ENDBRANCH  27  29
ENDBRANCH  26  27
ENDBRANCH  25  26
ENDBRANCH   1  25
TORSDOF 14
ENDMDL
MODEL 3
REMARK VINA RESULT:     -11.2      1.312      6.088
REMARK SMILES Cc1cc(C)cc(N(C)S(=O)(=O)c2ccc(F)c(C(=O)OCCOC(=O)c3ccc(-c4c5nc(c(-c6ccccc6)c6ccc([nH]6)c(-c6ccccc6)c6nc(c(-c7ccccc7)c7ccc4[nH]7)C=C6)C=C5)cc3)c2)c1
REMARK SMILES IDX 22 1 21 2 19 3 20 4 18 5 13 6 14 7 75 8 15 9 16 10 17 11
REMARK SMILES IDX 10 12 11 13 12 14 8 15 9 16 7 17 1 18 2 19 3 20 76 21 4 22
REMARK SMILES IDX 5 23 6 24 23 25 24 26 25 27 26 28 27 29 28 30 74 31 29 32
REMARK SMILES IDX 73 33 30 34 31 35 32 36 67 37 33 38 72 39 66 40 68 41 34 42
REMARK SMILES IDX 71 43 65 44 64 45 35 47 57 48 42 49 56 50 43 51 46 52 55 53
REMARK SMILES IDX 69 54 44 55 45 56 54 58 70 59 47 60 36 61 37 62 41 63 38 64
REMARK SMILES IDX 40 65 39 66 58 67 59 68 63 69 60 70 62 71 61 72 48 73 49 74
REMARK SMILES IDX 53 75 50 76 52 77 51 78
REMARK H PARENT 68 46 46 57
REMARK Flexibility Score: inf
ROOT
ATOM      1  C   UNL A   1      34.880  21.380  24.631  1.00  0.00     0.275 C 
ENDROOT
BRANCH   1   2
ATOM      2  O   UNL A   1      34.249  22.660  24.841  1.00  0.00    -0.458 OA
BRANCH   2   3
ATOM      3  C   UNL A   1      34.426  23.584  23.871  1.00  0.00     0.341 C 
ATOM      4  O   UNL A   1      35.353  23.644  23.077  1.00  0.00    -0.246 OA
BRANCH   3   5
ATOM      5  C   UNL A   1      33.292  24.527  23.799  1.00  0.00     0.097 A 
ATOM      6  C   UNL A   1      32.382  26.703  24.353  1.00  0.00     0.089 A 
ATOM      7  C   UNL A   1      31.124  26.279  23.895  1.00  0.00     0.025 A 
ATOM      8  C   UNL A   1      33.464  25.832  24.298  1.00  0.00     0.041 A 
ATOM      9  C   UNL A   1      30.956  24.988  23.392  1.00  0.00     0.041 A 
ATOM     10  C   UNL A   1      32.039  24.113  23.352  1.00  0.00     0.137 A 
ATOM     11  F   UNL A   1      31.828  22.859  22.927  1.00  0.00    -0.206 F 
BRANCH   6  12
ATOM     12  S   UNL A   1      32.478  28.357  25.012  1.00  0.00     0.264 S 
ATOM     13  O   UNL A   1      31.140  28.898  24.853  1.00  0.00    -0.201 OA
ATOM     14  O   UNL A   1      33.612  28.963  24.345  1.00  0.00    -0.201 OA
BRANCH  12  15
ATOM     15  N   UNL A   1      32.809  28.294  26.709  1.00  0.00    -0.269 N 
ATOM     16  C   UNL A   1      31.612  28.220  27.596  1.00  0.00     0.164 C 
BRANCH  15  17
ATOM     17  C   UNL A   1      33.793  29.288  27.176  1.00  0.00     0.052 A 
ATOM     18  C   UNL A   1      37.572  29.802  27.507  1.00  0.00     0.044 C 
ATOM     19  C   UNL A   1      36.096  30.065  27.500  1.00  0.00    -0.049 A 
ATOM     20  C   UNL A   1      35.628  31.338  27.811  1.00  0.00     0.007 A 
ATOM     21  C   UNL A   1      35.178  29.062  27.157  1.00  0.00     0.030 A 
ATOM     22  C   UNL A   1      34.260  31.606  27.805  1.00  0.00    -0.049 A 
ATOM     23  C   UNL A   1      33.795  33.004  28.071  1.00  0.00     0.044 C 
ATOM     24  C   UNL A   1      33.349  30.583  27.484  1.00  0.00     0.030 A 
ENDBRANCH  15  17
ENDBRANCH  12  15
ENDBRANCH   6  12
ENDBRANCH   3   5
ENDBRANCH   2   3
ENDBRANCH   1   2
BRANCH   1  25
ATOM     25  C   UNL A   1      36.058  21.175  25.583  1.00  0.00     0.275 C 
BRANCH  25  26
ATOM     26  O   UNL A   1      37.308  21.408  24.907  1.00  0.00    -0.458 OA
BRANCH  26  27
ATOM     27  C   UNL A   1      38.415  21.063  25.602  1.00  0.00     0.338 C 
ATOM     28  O   UNL A   1      38.923  19.960  25.703  1.00  0.00    -0.246 OA
BRANCH  27  29
ATOM     29  C   UNL A   1      39.037  22.273  26.156  1.00  0.00     0.060 A 
ATOM     30  C   UNL A   1      38.435  23.490  25.863  1.00  0.00     0.016 A 
ATOM     31  C   UNL A   1      40.259  22.236  26.823  1.00  0.00     0.016 A 
ATOM     32  C   UNL A   1      39.081  24.683  26.157  1.00  0.00     0.010 A 
ATOM     33  C   UNL A   1      40.879  23.442  27.186  1.00  0.00     0.010 A 
ATOM     34  C   UNL A   1      40.311  24.678  26.826  1.00  0.00    -0.014 A 
BRANCH  34  35
ATOM     35  C   UNL A   1      41.013  25.969  27.064  1.00  0.00     0.031 A 
ATOM     36  C   UNL A   1      40.505  26.907  28.131  1.00  0.00     0.074 A 
ATOM     37  C   UNL A   1      42.185  26.229  26.446  1.00  0.00     0.049 A 
ATOM     38  N   UNL A   1      40.975  28.073  28.499  1.00  0.00    -0.248 NA
ATOM     39  C   UNL A   1      39.334  26.463  28.905  1.00  0.00     0.031 C 
ATOM     40  C   UNL A   1      42.883  25.312  25.542  1.00  0.00     0.029 A 
ATOM     41  N   UNL A   1      43.046  27.295  26.559  1.00  0.00    -0.354 N 
ATOM     42  C   UNL A   1      40.145  28.510  29.525  1.00  0.00     0.074 A 
ATOM     43  C   UNL A   1      39.133  27.495  29.711  1.00  0.00     0.031 C 
ATOM     44  C   UNL A   1      44.115  25.790  25.300  1.00  0.00     0.029 A 
ATOM     45  C   UNL A   1      44.261  27.089  25.947  1.00  0.00     0.049 A 
ATOM     46  H   UNL A   1      42.815  28.126  27.033  1.00  0.00     0.167 HD
ATOM     47  C   UNL A   1      40.221  29.650  30.253  1.00  0.00     0.031 A 
ATOM     48  C   UNL A   1      45.375  27.849  25.930  1.00  0.00     0.031 A 
ATOM     49  C   UNL A   1      41.266  30.630  30.125  1.00  0.00     0.049 A 
ATOM     50  C   UNL A   1      45.375  29.171  26.651  1.00  0.00     0.074 A 
ATOM     51  C   UNL A   1      41.391  31.847  30.773  1.00  0.00     0.029 A 
ATOM     52  N   UNL A   1      42.380  30.490  29.315  1.00  0.00    -0.354 N 
ATOM     53  N   UNL A   1      44.497  29.651  27.497  1.00  0.00    -0.248 NA
ATOM     54  C   UNL A   1      46.521  30.059  26.403  1.00  0.00     0.031 C 
ATOM     55  C   UNL A   1      42.566  32.460  30.325  1.00  0.00     0.029 A 
ATOM     56  C   UNL A   1      43.196  31.602  29.439  1.00  0.00     0.049 A 
ATOM     57  H   UNL A   1      42.566  29.715  28.738  1.00  0.00     0.167 HD
ATOM     58  C   UNL A   1      44.993  30.885  27.897  1.00  0.00     0.074 A 
ATOM     59  C   UNL A   1      46.258  31.072  27.218  1.00  0.00     0.031 C 
ATOM     60  C   UNL A   1      44.446  31.785  28.751  1.00  0.00     0.031 A 
BRANCH  47  61
ATOM     61  C   UNL A   1      39.096  29.939  31.204  1.00  0.00    -0.014 A 
ATOM     62  C   UNL A   1      39.082  29.440  32.515  1.00  0.00     0.009 A 
ATOM     63  C   UNL A   1      38.041  30.762  30.777  1.00  0.00     0.009 A 
ATOM     64  C   UNL A   1      38.015  29.737  33.368  1.00  0.00     0.001 A 
ATOM     65  C   UNL A   1      36.991  31.076  31.638  1.00  0.00     0.001 A 
ATOM     66  C   UNL A   1      36.974  30.557  32.931  1.00  0.00     0.000 A 
ENDBRANCH  47  61
BRANCH  48  67
ATOM     67  C   UNL A   1      46.606  27.379  25.236  1.00  0.00    -0.014 A 
ATOM     68  C   UNL A   1      47.493  26.504  25.884  1.00  0.00     0.009 A 
ATOM     69  C   UNL A   1      46.918  27.818  23.940  1.00  0.00     0.009 A 
ATOM     70  C   UNL A   1      48.673  26.095  25.258  1.00  0.00     0.001 A 
ATOM     71  C   UNL A   1      48.081  27.378  23.302  1.00  0.00     0.001 A 
ATOM     72  C   UNL A   1      48.962  26.527  23.964  1.00  0.00     0.000 A 
ENDBRANCH  48  67
BRANCH  60  73
ATOM     73  C   UNL A   1      45.204  33.057  29.003  1.00  0.00    -0.014 A 
ATOM     74  C   UNL A   1      44.983  34.195  28.214  1.00  0.00     0.009 A 
ATOM     75  C   UNL A   1      46.096  33.141  30.084  1.00  0.00     0.009 A 
ATOM     76  C   UNL A   1      45.654  35.388  28.491  1.00  0.00     0.001 A 
ATOM     77  C   UNL A   1      46.745  34.342  30.374  1.00  0.00     0.001 A 
ATOM     78  C   UNL A   1      46.529  35.462  29.574  1.00  0.00     0.000 A 
ENDBRANCH  60  73
ENDBRANCH  34  35
ENDBRANCH  27  29
ENDBRANCH  26  27
ENDBRANCH  25  26
ENDBRANCH   1  25
TORSDOF 14
ENDMDL
