MODEL 1
REMARK VINA RESULT:     -12.5      0.000      0.000
REMARK SMILES C=CCN1C(=O)/C(=C/c2ccccn2)S/C1=[NH+]\c1ccc(C(=O)OCCOC(=O)c2ccc(-c3c4nc(c(-c5ccccc5)c5ccc([nH]5)c(-c5ccccc5)c5nc(c(-c6ccccc6)c6ccc3[nH]6)C=C5)C=C4)cc2)cc1
REMARK SMILES IDX 25 1 24 2 22 3 23 4 21 5 18 6 19 7 79 8 20 9 78 10 17 11
REMARK SMILES IDX 4 12 5 13 16 14 6 15 7 16 15 17 8 18 3 20 2 21 1 22 9 23
REMARK SMILES IDX 10 24 14 25 11 26 13 27 12 28 26 29 27 30 28 31 29 32 30 33
REMARK SMILES IDX 31 34 77 35 32 36 76 37 33 38 34 39 35 40 70 41 36 42 75 43
REMARK SMILES IDX 69 44 71 45 37 46 74 47 68 48 67 49 38 51 60 52 45 53 59 54
REMARK SMILES IDX 46 55 49 56 58 57 72 58 47 59 48 60 57 62 73 63 50 64 39 65
REMARK SMILES IDX 40 66 44 67 41 68 43 69 42 70 61 71 62 72 66 73 63 74 65 75
REMARK SMILES IDX 64 76 51 77 52 78 56 79 53 80 55 81 54 82
REMARK H PARENT 17 19 71 50 49 61
REMARK Flexibility Score: inf
ROOT
ATOM      1  C   UNL A   1      42.673  20.516  26.246  1.00  0.00     0.275 C 
ENDROOT
BRANCH   1   2
ATOM      2  O   UNL A   1      41.341  20.797  25.771  1.00  0.00    -0.458 OA
BRANCH   2   3
ATOM      3  C   UNL A   1      40.448  21.158  26.724  1.00  0.00     0.338 C 
ATOM      4  O   UNL A   1      40.587  21.037  27.931  1.00  0.00    -0.246 OA
BRANCH   3   5
ATOM      5  C   UNL A   1      39.265  21.824  26.126  1.00  0.00     0.060 A 
ATOM      6  C   UNL A   1      36.964  23.127  25.201  1.00  0.00     0.125 A 
ATOM      7  C   UNL A   1      37.813  23.766  26.102  1.00  0.00     0.052 A 
ATOM      8  C   UNL A   1      37.306  21.860  24.708  1.00  0.00     0.052 A 
ATOM      9  C   UNL A   1      38.936  23.106  26.588  1.00  0.00     0.020 A 
ATOM     10  C   UNL A   1      38.456  21.206  25.169  1.00  0.00     0.020 A 
BRANCH   6  11
ATOM     11  N   UNL A   1      35.747  23.748  24.888  1.00  0.00    -0.234 N 
ATOM     12  N   UNL A   1      33.424  23.527  24.639  1.00  0.00    -0.182 N 
ATOM     13  C   UNL A   1      32.404  22.615  24.457  1.00  0.00     0.349 C 
ATOM     14  C   UNL A   1      34.680  23.016  24.838  1.00  0.00     0.324 C 
ATOM     15  O   UNL A   1      31.227  22.874  24.246  1.00  0.00    -0.240 OA
ATOM     16  C   UNL A   1      32.933  21.229  24.577  1.00  0.00     0.111 C 
ATOM     17  S   UNL A   1      34.592  21.274  25.014  1.00  0.00     0.007 SA
ATOM     18  C   UNL A   1      32.194  20.140  24.332  1.00  0.00     0.052 C 
ATOM     19  H   UNL A   1      35.706  24.716  24.711  1.00  0.00     0.313 HD
BRANCH  12  20
ATOM     20  C   UNL A   1      33.152  24.949  24.675  1.00  0.00     0.275 C 
BRANCH  20  21
ATOM     21  C   UNL A   1      32.752  25.317  26.081  1.00  0.00     0.011 C 
ATOM     22  C   UNL A   1      31.551  25.793  26.437  1.00  0.00     0.008 C 
ENDBRANCH  20  21
ENDBRANCH  12  20
BRANCH  18  23
ATOM     23  C   UNL A   1      32.680  18.764  24.430  1.00  0.00     0.064 A 
ATOM     24  C   UNL A   1      33.269  18.118  23.346  1.00  0.00     0.028 A 
ATOM     25  N   UNL A   1      32.527  18.182  25.639  1.00  0.00    -0.257 NA
ATOM     26  C   UNL A   1      33.690  16.800  23.501  1.00  0.00     0.004 A 
ATOM     27  C   UNL A   1      32.940  16.900  25.757  1.00  0.00     0.111 A 
ATOM     28  C   UNL A   1      33.518  16.174  24.729  1.00  0.00     0.020 A 
ENDBRANCH  18  23
ENDBRANCH   6  11
ENDBRANCH   3   5
ENDBRANCH   2   3
ENDBRANCH   1   2
BRANCH   1  29
ATOM     29  C   UNL A   1      43.694  21.446  25.594  1.00  0.00     0.275 C 
BRANCH  29  30
ATOM     30  O   UNL A   1      43.026  22.562  24.975  1.00  0.00    -0.458 OA
BRANCH  30  31
ATOM     31  C   UNL A   1      43.690  23.739  25.016  1.00  0.00     0.338 C 
ATOM     32  O   UNL A   1      44.678  24.062  24.380  1.00  0.00    -0.246 OA
BRANCH  31  33
ATOM     33  C   UNL A   1      43.025  24.653  25.959  1.00  0.00     0.060 A 
ATOM     34  C   UNL A   1      43.257  26.021  25.854  1.00  0.00     0.016 A 
ATOM     35  C   UNL A   1      42.298  24.149  27.035  1.00  0.00     0.016 A 
ATOM     36  C   UNL A   1      42.852  26.883  26.871  1.00  0.00     0.010 A 
ATOM     37  C   UNL A   1      41.805  25.030  28.006  1.00  0.00     0.010 A 
ATOM     38  C   UNL A   1      42.111  26.403  27.960  1.00  0.00    -0.014 A 
BRANCH  38  39
ATOM     39  C   UNL A   1      41.707  27.317  29.067  1.00  0.00     0.031 A 
ATOM     40  C   UNL A   1      42.505  27.358  30.348  1.00  0.00     0.074 A 
ATOM     41  C   UNL A   1      40.641  28.134  28.937  1.00  0.00     0.049 A 
ATOM     42  N   UNL A   1      42.221  27.947  31.483  1.00  0.00    -0.248 NA
ATOM     43  C   UNL A   1      43.784  26.631  30.356  1.00  0.00     0.031 C 
ATOM     44  C   UNL A   1      39.802  28.257  27.743  1.00  0.00     0.029 A 
ATOM     45  N   UNL A   1      40.086  29.028  29.821  1.00  0.00    -0.354 N 
ATOM     46  C   UNL A   1      43.249  27.608  32.356  1.00  0.00     0.074 A 
ATOM     47  C   UNL A   1      44.164  26.763  31.619  1.00  0.00     0.031 C 
ATOM     48  C   UNL A   1      38.875  29.204  27.951  1.00  0.00     0.029 A 
ATOM     49  C   UNL A   1      38.990  29.689  29.322  1.00  0.00     0.049 A 
ATOM     50  H   UNL A   1      40.441  29.181  30.728  1.00  0.00     0.167 HD
ATOM     51  C   UNL A   1      43.417  27.965  33.653  1.00  0.00     0.031 A 
ATOM     52  C   UNL A   1      38.142  30.556  29.906  1.00  0.00     0.031 A 
ATOM     53  C   UNL A   1      42.538  28.844  34.377  1.00  0.00     0.049 A 
ATOM     54  C   UNL A   1      38.323  30.905  31.355  1.00  0.00     0.074 A 
ATOM     55  C   UNL A   1      42.631  29.268  35.693  1.00  0.00     0.029 A 
ATOM     56  N   UNL A   1      41.415  29.453  33.841  1.00  0.00    -0.354 N 
ATOM     57  N   UNL A   1      39.261  30.520  32.185  1.00  0.00    -0.248 NA
ATOM     58  C   UNL A   1      37.314  31.791  31.951  1.00  0.00     0.031 C 
ATOM     59  C   UNL A   1      41.542  30.105  35.963  1.00  0.00     0.029 A 
ATOM     60  C   UNL A   1      40.799  30.238  34.802  1.00  0.00     0.049 A 
ATOM     61  H   UNL A   1      41.100  29.343  32.914  1.00  0.00     0.167 HD
ATOM     62  C   UNL A   1      38.960  31.123  33.399  1.00  0.00     0.074 A 
ATOM     63  C   UNL A   1      37.767  31.917  33.191  1.00  0.00     0.031 C 
ATOM     64  C   UNL A   1      39.612  31.021  34.582  1.00  0.00     0.031 A 
BRANCH  51  65
ATOM     65  C   UNL A   1      44.580  27.362  34.392  1.00  0.00    -0.014 A 
ATOM     66  C   UNL A   1      45.831  27.996  34.440  1.00  0.00     0.009 A 
ATOM     67  C   UNL A   1      44.406  26.151  35.081  1.00  0.00     0.009 A 
ATOM     68  C   UNL A   1      46.893  27.411  35.134  1.00  0.00     0.001 A 
ATOM     69  C   UNL A   1      45.460  25.582  35.797  1.00  0.00     0.001 A 
ATOM     70  C   UNL A   1      46.707  26.207  35.815  1.00  0.00     0.000 A 
ENDBRANCH  51  65
BRANCH  52  71
ATOM     71  C   UNL A   1      37.005  31.119  29.129  1.00  0.00    -0.014 A 
ATOM     72  C   UNL A   1      37.015  32.460  28.721  1.00  0.00     0.009 A 
ATOM     73  C   UNL A   1      35.907  30.313  28.789  1.00  0.00     0.009 A 
ATOM     74  C   UNL A   1      35.942  32.988  27.999  1.00  0.00     0.001 A 
ATOM     75  C   UNL A   1      34.850  30.833  28.040  1.00  0.00     0.001 A 
ATOM     76  C   UNL A   1      34.864  32.172  27.653  1.00  0.00     0.000 A 
ENDBRANCH  52  71
BRANCH  64  77
ATOM     77  C   UNL A   1      39.064  31.815  35.733  1.00  0.00    -0.014 A 
ATOM     78  C   UNL A   1      38.158  31.246  36.641  1.00  0.00     0.009 A 
ATOM     79  C   UNL A   1      39.480  33.142  35.923  1.00  0.00     0.009 A 
ATOM     80  C   UNL A   1      37.653  32.003  37.700  1.00  0.00     0.001 A 
ATOM     81  C   UNL A   1      38.992  33.888  36.997  1.00  0.00     0.001 A 
ATOM     82  C   UNL A   1      38.072  33.321  37.879  1.00  0.00     0.000 A 
ENDBRANCH  64  77
ENDBRANCH  38  39
ENDBRANCH  31  33
ENDBRANCH  30  31
ENDBRANCH  29  30
ENDBRANCH   1  29
TORSDOF 15
ENDMDL
MODEL 2
REMARK VINA RESULT:     -12.2      5.036     10.268
REMARK SMILES C=CCN1C(=O)/C(=C/c2ccccn2)S/C1=[NH+]\c1ccc(C(=O)OCCOC(=O)c2ccc(-c3c4nc(c(-c5ccccc5)c5ccc([nH]5)c(-c5ccccc5)c5nc(c(-c6ccccc6)c6ccc3[nH]6)C=C5)C=C4)cc2)cc1
REMARK SMILES IDX 25 1 24 2 22 3 23 4 21 5 18 6 19 7 79 8 20 9 78 10 17 11
REMARK SMILES IDX 4 12 5 13 16 14 6 15 7 16 15 17 8 18 3 20 2 21 1 22 9 23
REMARK SMILES IDX 10 24 14 25 11 26 13 27 12 28 26 29 27 30 28 31 29 32 30 33
REMARK SMILES IDX 31 34 77 35 32 36 76 37 33 38 34 39 35 40 70 41 36 42 75 43
REMARK SMILES IDX 69 44 71 45 37 46 74 47 68 48 67 49 38 51 60 52 45 53 59 54
REMARK SMILES IDX 46 55 49 56 58 57 72 58 47 59 48 60 57 62 73 63 50 64 39 65
REMARK SMILES IDX 40 66 44 67 41 68 43 69 42 70 61 71 62 72 66 73 63 74 65 75
REMARK SMILES IDX 64 76 51 77 52 78 56 79 53 80 55 81 54 82
REMARK H PARENT 17 19 71 50 49 61
REMARK Flexibility Score: inf
ROOT
ATOM      1  C   UNL A   1      34.175  34.091  30.098  1.00  0.00     0.275 C 
ENDROOT
BRANCH   1   2
ATOM      2  O   UNL A   1      33.945  32.810  29.476  1.00  0.00    -0.458 OA
BRANCH   2   3
ATOM      3  C   UNL A   1      34.492  32.654  28.247  1.00  0.00     0.338 C 
ATOM      4  O   UNL A   1      35.196  33.461  27.658  1.00  0.00    -0.246 OA
BRANCH   3   5
ATOM      5  C   UNL A   1      34.205  31.306  27.699  1.00  0.00     0.060 A 
ATOM      6  C   UNL A   1      33.488  28.753  26.794  1.00  0.00     0.125 A 
ATOM      7  C   UNL A   1      32.555  29.787  26.777  1.00  0.00     0.052 A 
ATOM      8  C   UNL A   1      34.804  29.017  27.198  1.00  0.00     0.052 A 
ATOM      9  C   UNL A   1      32.900  31.045  27.259  1.00  0.00     0.020 A 
ATOM     10  C   UNL A   1      35.165  30.292  27.652  1.00  0.00     0.020 A 
BRANCH   6  11
ATOM     11  N   UNL A   1      33.045  27.460  26.483  1.00  0.00    -0.234 N 
ATOM     12  N   UNL A   1      31.758  26.102  25.066  1.00  0.00    -0.182 N 
ATOM     13  C   UNL A   1      30.729  26.110  24.145  1.00  0.00     0.349 C 
ATOM     14  C   UNL A   1      32.187  27.321  25.523  1.00  0.00     0.324 C 
ATOM     15  O   UNL A   1      30.200  25.130  23.640  1.00  0.00    -0.240 OA
ATOM     16  C   UNL A   1      30.351  27.512  23.818  1.00  0.00     0.111 C 
ATOM     17  S   UNL A   1      31.409  28.603  24.614  1.00  0.00     0.007 SA
ATOM     18  C   UNL A   1      29.306  27.825  23.041  1.00  0.00     0.052 C 
ATOM     19  H   UNL A   1      33.379  26.679  26.980  1.00  0.00     0.313 HD
BRANCH  12  20
ATOM     20  C   UNL A   1      32.381  24.860  25.473  1.00  0.00     0.275 C 
BRANCH  20  21
ATOM     21  C   UNL A   1      33.697  24.734  24.749  1.00  0.00     0.011 C 
ATOM     22  C   UNL A   1      34.879  24.508  25.340  1.00  0.00     0.008 C 
ENDBRANCH  20  21
ENDBRANCH  12  20
BRANCH  18  23
ATOM     23  C   UNL A   1      28.899  29.188  22.704  1.00  0.00     0.064 A 
ATOM     24  C   UNL A   1      27.947  29.873  23.456  1.00  0.00     0.028 A 
ATOM     25  N   UNL A   1      29.516  29.728  21.631  1.00  0.00    -0.257 NA
ATOM     26  C   UNL A   1      27.587  31.160  23.068  1.00  0.00     0.004 A 
ATOM     27  C   UNL A   1      29.142  30.977  21.275  1.00  0.00     0.111 A 
ATOM     28  C   UNL A   1      28.191  31.724  21.951  1.00  0.00     0.020 A 
ENDBRANCH  18  23
ENDBRANCH   6  11
ENDBRANCH   3   5
ENDBRANCH   2   3
ENDBRANCH   1   2
BRANCH   1  29
ATOM     29  C   UNL A   1      34.402  33.936  31.600  1.00  0.00     0.275 C 
BRANCH  29  30
ATOM     30  O   UNL A   1      34.654  32.556  31.925  1.00  0.00    -0.458 OA
BRANCH  30  31
ATOM     31  C   UNL A   1      35.729  32.325  32.714  1.00  0.00     0.338 C 
ATOM     32  O   UNL A   1      35.874  32.625  33.885  1.00  0.00    -0.246 OA
BRANCH  31  33
ATOM     33  C   UNL A   1      36.759  31.603  31.950  1.00  0.00     0.060 A 
ATOM     34  C   UNL A   1      37.661  30.790  32.631  1.00  0.00     0.016 A 
ATOM     35  C   UNL A   1      36.929  31.847  30.589  1.00  0.00     0.016 A 
ATOM     36  C   UNL A   1      38.791  30.297  31.982  1.00  0.00     0.010 A 
ATOM     37  C   UNL A   1      38.012  31.268  29.915  1.00  0.00     0.010 A 
ATOM     38  C   UNL A   1      38.981  30.520  30.611  1.00  0.00    -0.014 A 
BRANCH  38  39
ATOM     39  C   UNL A   1      40.208  30.024  29.922  1.00  0.00     0.031 A 
ATOM     40  C   UNL A   1      41.405  30.927  29.758  1.00  0.00     0.074 A 
ATOM     41  C   UNL A   1      40.276  28.759  29.455  1.00  0.00     0.049 A 
ATOM     42  N   UNL A   1      42.488  30.747  29.043  1.00  0.00    -0.248 NA
ATOM     43  C   UNL A   1      41.374  32.208  30.483  1.00  0.00     0.031 C 
ATOM     44  C   UNL A   1      39.229  27.744  29.587  1.00  0.00     0.029 A 
ATOM     45  N   UNL A   1      41.282  28.108  28.783  1.00  0.00    -0.354 N 
ATOM     46  C   UNL A   1      43.234  31.913  29.180  1.00  0.00     0.074 A 
ATOM     47  C   UNL A   1      42.480  32.794  30.046  1.00  0.00     0.031 C 
ATOM     48  C   UNL A   1      39.665  26.590  29.060  1.00  0.00     0.029 A 
ATOM     49  C   UNL A   1      40.981  26.805  28.469  1.00  0.00     0.049 A 
ATOM     50  H   UNL A   1      42.139  28.535  28.549  1.00  0.00     0.167 HD
ATOM     51  C   UNL A   1      44.435  32.225  28.634  1.00  0.00     0.031 A 
ATOM     52  C   UNL A   1      41.661  25.891  27.750  1.00  0.00     0.031 A 
ATOM     53  C   UNL A   1      45.212  31.335  27.812  1.00  0.00     0.049 A 
ATOM     54  C   UNL A   1      42.970  26.271  27.121  1.00  0.00     0.074 A 
ATOM     55  C   UNL A   1      46.444  31.560  27.220  1.00  0.00     0.029 A 
ATOM     56  N   UNL A   1      44.843  30.040  27.485  1.00  0.00    -0.354 N 
ATOM     57  N   UNL A   1      43.627  27.402  27.202  1.00  0.00    -0.248 NA
ATOM     58  C   UNL A   1      43.618  25.254  26.281  1.00  0.00     0.031 C 
ATOM     59  C   UNL A   1      46.803  30.414  26.503  1.00  0.00     0.029 A 
ATOM     60  C   UNL A   1      45.817  29.459  26.688  1.00  0.00     0.049 A 
ATOM     61  H   UNL A   1      44.012  29.598  27.775  1.00  0.00     0.167 HD
ATOM     62  C   UNL A   1      44.769  27.230  26.432  1.00  0.00     0.074 A 
ATOM     63  C   UNL A   1      44.728  25.880  25.912  1.00  0.00     0.031 C 
ATOM     64  C   UNL A   1      45.761  28.116  26.176  1.00  0.00     0.031 A 
BRANCH  51  65
ATOM     65  C   UNL A   1      44.965  33.611  28.872  1.00  0.00    -0.014 A 
ATOM     66  C   UNL A   1      45.862  33.889  29.915  1.00  0.00     0.009 A 
ATOM     67  C   UNL A   1      44.581  34.652  28.011  1.00  0.00     0.009 A 
ATOM     68  C   UNL A   1      46.336  35.189  30.111  1.00  0.00     0.001 A 
ATOM     69  C   UNL A   1      45.078  35.944  28.192  1.00  0.00     0.001 A 
ATOM     70  C   UNL A   1      45.948  36.214  29.248  1.00  0.00     0.000 A 
ENDBRANCH  51  65
BRANCH  52  71
ATOM     71  C   UNL A   1      41.088  24.535  27.543  1.00  0.00    -0.014 A 
ATOM     72  C   UNL A   1      41.628  23.423  28.206  1.00  0.00     0.009 A 
ATOM     73  C   UNL A   1      39.994  24.348  26.683  1.00  0.00     0.009 A 
ATOM     74  C   UNL A   1      41.092  22.149  28.002  1.00  0.00     0.001 A 
ATOM     75  C   UNL A   1      39.440  23.079  26.505  1.00  0.00     0.001 A 
ATOM     76  C   UNL A   1      39.995  21.980  27.158  1.00  0.00     0.000 A 
ENDBRANCH  52  71
BRANCH  64  77
ATOM     77  C   UNL A   1      46.897  27.638  25.318  1.00  0.00    -0.014 A 
ATOM     78  C   UNL A   1      47.964  26.908  25.865  1.00  0.00     0.009 A 
ATOM     79  C   UNL A   1      46.887  27.901  23.939  1.00  0.00     0.009 A 
ATOM     80  C   UNL A   1      49.015  26.479  25.053  1.00  0.00     0.001 A 
ATOM     81  C   UNL A   1      47.927  27.450  23.125  1.00  0.00     0.001 A 
ATOM     82  C   UNL A   1      48.994  26.748  23.684  1.00  0.00     0.000 A 
ENDBRANCH  64  77
ENDBRANCH  38  39
ENDBRANCH  31  33
ENDBRANCH  30  31
ENDBRANCH  29  30
ENDBRANCH   1  29
TORSDOF 15
ENDMDL
MODEL 3
REMARK VINA RESULT:     -12.1      4.520      9.741
REMARK SMILES C=CCN1C(=O)/C(=C/c2ccccn2)S/C1=[NH+]\c1ccc(C(=O)OCCOC(=O)c2ccc(-c3c4nc(c(-c5ccccc5)c5ccc([nH]5)c(-c5ccccc5)c5nc(c(-c6ccccc6)c6ccc3[nH]6)C=C5)C=C4)cc2)cc1
REMARK SMILES IDX 25 1 24 2 22 3 23 4 21 5 18 6 19 7 79 8 20 9 78 10 17 11
REMARK SMILES IDX 4 12 5 13 16 14 6 15 7 16 15 17 8 18 3 20 2 21 1 22 9 23
REMARK SMILES IDX 10 24 14 25 11 26 13 27 12 28 26 29 27 30 28 31 29 32 30 33
REMARK SMILES IDX 31 34 77 35 32 36 76 37 33 38 34 39 35 40 70 41 36 42 75 43
REMARK SMILES IDX 69 44 71 45 37 46 74 47 68 48 67 49 38 51 60 52 45 53 59 54
REMARK SMILES IDX 46 55 49 56 58 57 72 58 47 59 48 60 57 62 73 63 50 64 39 65
REMARK SMILES IDX 40 66 44 67 41 68 43 69 42 70 61 71 62 72 66 73 63 74 65 75
REMARK SMILES IDX 64 76 51 77 52 78 56 79 53 80 55 81 54 82
REMARK H PARENT 17 19 71 50 49 61
REMARK Flexibility Score: inf
ROOT
ATOM      1  C   UNL A   1      34.028  35.269  28.787  1.00  0.00     0.275 C 
ENDROOT
BRANCH   1   2
ATOM      2  O   UNL A   1      33.598  33.936  28.443  1.00  0.00    -0.458 OA
BRANCH   2   3
ATOM      3  C   UNL A   1      34.553  33.137  27.911  1.00  0.00     0.338 C 
ATOM      4  O   UNL A   1      35.715  33.443  27.691  1.00  0.00    -0.246 OA
BRANCH   3   5
ATOM      5  C   UNL A   1      34.041  31.762  27.692  1.00  0.00     0.060 A 
ATOM      6  C   UNL A   1      33.239  29.136  27.136  1.00  0.00     0.125 A 
ATOM      7  C   UNL A   1      34.555  29.399  27.508  1.00  0.00     0.052 A 
ATOM      8  C   UNL A   1      32.305  30.181  27.112  1.00  0.00     0.052 A 
ATOM      9  C   UNL A   1      34.962  30.706  27.749  1.00  0.00     0.020 A 
ATOM     10  C   UNL A   1      32.704  31.496  27.388  1.00  0.00     0.020 A 
BRANCH   6  11
ATOM     11  N   UNL A   1      32.920  27.838  26.715  1.00  0.00    -0.234 N 
ATOM     12  N   UNL A   1      31.862  26.486  25.115  1.00  0.00    -0.182 N 
ATOM     13  C   UNL A   1      30.919  26.481  24.106  1.00  0.00     0.349 C 
ATOM     14  C   UNL A   1      32.160  27.700  25.675  1.00  0.00     0.324 C 
ATOM     15  O   UNL A   1      30.508  25.500  23.501  1.00  0.00    -0.240 OA
ATOM     16  C   UNL A   1      30.470  27.871  23.824  1.00  0.00     0.111 C 
ATOM     17  S   UNL A   1      31.373  28.980  24.772  1.00  0.00     0.007 SA
ATOM     18  C   UNL A   1      29.476  28.160  22.974  1.00  0.00     0.052 C 
ATOM     19  H   UNL A   1      33.266  27.052  27.197  1.00  0.00     0.313 HD
BRANCH  12  20
ATOM     20  C   UNL A   1      32.537  25.265  25.507  1.00  0.00     0.275 C 
BRANCH  20  21
ATOM     21  C   UNL A   1      33.873  25.221  24.810  1.00  0.00     0.011 C 
ATOM     22  C   UNL A   1      34.928  24.502  25.220  1.00  0.00     0.008 C 
ENDBRANCH  20  21
ENDBRANCH  12  20
BRANCH  18  23
ATOM     23  C   UNL A   1      29.001  29.511  22.678  1.00  0.00     0.064 A 
ATOM     24  C   UNL A   1      28.085  30.160  23.501  1.00  0.00     0.028 A 
ATOM     25  N   UNL A   1      29.520  30.075  21.566  1.00  0.00    -0.257 NA
ATOM     26  C   UNL A   1      27.656  31.437  23.150  1.00  0.00     0.004 A 
ATOM     27  C   UNL A   1      29.081  31.313  21.247  1.00  0.00     0.111 A 
ATOM     28  C   UNL A   1      28.159  32.026  21.996  1.00  0.00     0.020 A 
ENDBRANCH  18  23
ENDBRANCH   6  11
ENDBRANCH   3   5
ENDBRANCH   2   3
ENDBRANCH   1   2
BRANCH   1  29
ATOM     29  C   UNL A   1      32.898  36.054  29.451  1.00  0.00     0.275 C 
BRANCH  29  30
ATOM     30  O   UNL A   1      32.392  35.330  30.589  1.00  0.00    -0.458 OA
BRANCH  30  31
ATOM     31  C   UNL A   1      32.687  35.858  31.799  1.00  0.00     0.338 C 
ATOM     32  O   UNL A   1      32.130  36.779  32.369  1.00  0.00    -0.246 OA
BRANCH  31  33
ATOM     33  C   UNL A   1      33.818  35.129  32.397  1.00  0.00     0.060 A 
ATOM     34  C   UNL A   1      35.086  35.700  32.362  1.00  0.00     0.016 A 
ATOM     35  C   UNL A   1      33.652  33.822  32.850  1.00  0.00     0.016 A 
ATOM     36  C   UNL A   1      36.208  34.940  32.686  1.00  0.00     0.010 A 
ATOM     37  C   UNL A   1      34.772  33.093  33.271  1.00  0.00     0.010 A 
ATOM     38  C   UNL A   1      36.069  33.627  33.155  1.00  0.00    -0.014 A 
BRANCH  38  39
ATOM     39  C   UNL A   1      37.271  32.799  33.469  1.00  0.00     0.031 A 
ATOM     40  C   UNL A   1      37.982  32.962  34.790  1.00  0.00     0.074 A 
ATOM     41  C   UNL A   1      37.728  31.882  32.590  1.00  0.00     0.049 A 
ATOM     42  N   UNL A   1      39.133  32.471  35.178  1.00  0.00    -0.248 NA
ATOM     43  C   UNL A   1      37.316  33.797  35.803  1.00  0.00     0.031 C 
ATOM     44  C   UNL A   1      37.120  31.563  31.297  1.00  0.00     0.029 A 
ATOM     45  N   UNL A   1      38.811  31.038  32.662  1.00  0.00    -0.354 N 
ATOM     46  C   UNL A   1      39.358  32.987  36.450  1.00  0.00     0.074 A 
ATOM     47  C   UNL A   1      38.225  33.830  36.767  1.00  0.00     0.031 C 
ATOM     48  C   UNL A   1      37.806  30.564  30.722  1.00  0.00     0.029 A 
ATOM     49  C   UNL A   1      38.956  30.235  31.557  1.00  0.00     0.049 A 
ATOM     50  H   UNL A   1      39.424  31.012  33.432  1.00  0.00     0.167 HD
ATOM     51  C   UNL A   1      40.412  32.783  37.277  1.00  0.00     0.031 A 
ATOM     52  C   UNL A   1      39.925  29.361  31.224  1.00  0.00     0.031 A 
ATOM     53  C   UNL A   1      41.518  31.908  36.988  1.00  0.00     0.049 A 
ATOM     54  C   UNL A   1      41.103  29.181  32.137  1.00  0.00     0.074 A 
ATOM     55  C   UNL A   1      42.628  31.633  37.768  1.00  0.00     0.029 A 
ATOM     56  N   UNL A   1      41.643  31.151  35.835  1.00  0.00    -0.354 N 
ATOM     57  N   UNL A   1      41.335  29.731  33.303  1.00  0.00    -0.248 NA
ATOM     58  C   UNL A   1      42.164  28.274  31.674  1.00  0.00     0.031 C 
ATOM     59  C   UNL A   1      43.444  30.735  37.071  1.00  0.00     0.029 A 
ATOM     60  C   UNL A   1      42.817  30.417  35.877  1.00  0.00     0.049 A 
ATOM     61  H   UNL A   1      40.993  31.135  35.095  1.00  0.00     0.167 HD
ATOM     62  C   UNL A   1      42.563  29.232  33.718  1.00  0.00     0.074 A 
ATOM     63  C   UNL A   1      43.015  28.318  32.690  1.00  0.00     0.031 C 
ATOM     64  C   UNL A   1      43.256  29.513  34.847  1.00  0.00     0.031 A 
BRANCH  51  65
ATOM     65  C   UNL A   1      40.442  33.559  38.564  1.00  0.00    -0.014 A 
ATOM     66  C   UNL A   1      39.883  33.050  39.746  1.00  0.00     0.009 A 
ATOM     67  C   UNL A   1      41.075  34.813  38.598  1.00  0.00     0.009 A 
ATOM     68  C   UNL A   1      39.927  33.795  40.927  1.00  0.00     0.001 A 
ATOM     69  C   UNL A   1      41.142  35.544  39.786  1.00  0.00     0.001 A 
ATOM     70  C   UNL A   1      40.559  35.039  40.947  1.00  0.00     0.000 A 
ENDBRANCH  51  65
BRANCH  52  71
ATOM     71  C   UNL A   1      39.847  28.622  29.936  1.00  0.00    -0.014 A 
ATOM     72  C   UNL A   1      40.290  29.217  28.745  1.00  0.00     0.009 A 
ATOM     73  C   UNL A   1      39.332  27.317  29.893  1.00  0.00     0.009 A 
ATOM     74  C   UNL A   1      40.207  28.523  27.535  1.00  0.00     0.001 A 
ATOM     75  C   UNL A   1      39.278  26.614  28.688  1.00  0.00     0.001 A 
ATOM     76  C   UNL A   1      39.708  27.221  27.509  1.00  0.00     0.000 A 
ENDBRANCH  52  71
BRANCH  64  77
ATOM     77  C   UNL A   1      44.561  28.797  35.042  1.00  0.00    -0.014 A 
ATOM     78  C   UNL A   1      44.615  27.545  35.674  1.00  0.00     0.009 A 
ATOM     79  C   UNL A   1      45.748  29.372  34.564  1.00  0.00     0.009 A 
ATOM     80  C   UNL A   1      45.840  26.898  35.854  1.00  0.00     0.001 A 
ATOM     81  C   UNL A   1      46.968  28.713  34.724  1.00  0.00     0.001 A 
ATOM     82  C   UNL A   1      47.014  27.481  35.376  1.00  0.00     0.000 A 
ENDBRANCH  64  77
ENDBRANCH  38  39
ENDBRANCH  31  33
ENDBRANCH  30  31
ENDBRANCH  29  30
ENDBRANCH   1  29
TORSDOF 15
ENDMDL
