MODEL 1
REMARK VINA RESULT:     -11.3      0.000      0.000
REMARK SMILES C=C(C(=O)OCCOC(=O)c1ccc(-c2c3nc(c(-c4ccccc4)c4ccc([nH]4)c(-c4ccccc4)c4nc(c(-c5ccccc5)c5ccc2[nH]5)C=C4)C=C3)cc1)[C@@H]1CC[C@]2(C)CCCC(=C)[C@H]2[C@H]1O
REMARK SMILES IDX 6 1 5 2 3 3 4 4 2 5 1 6 59 7 60 8 70 9 61 10 69 11 62 12
REMARK SMILES IDX 67 13 63 14 64 15 66 16 68 17 65 18 71 19 7 21 8 22 9 23
REMARK SMILES IDX 10 24 11 25 12 26 58 27 13 28 57 29 14 30 15 31 16 32 51 33
REMARK SMILES IDX 17 34 56 35 50 36 52 37 18 38 55 39 49 40 48 41 19 43 41 44
REMARK SMILES IDX 26 45 40 46 27 47 30 48 39 49 53 50 28 51 29 52 38 54 54 55
REMARK SMILES IDX 31 56 20 57 21 58 25 59 22 60 24 61 23 62 42 63 43 64 47 65
REMARK SMILES IDX 44 66 46 67 45 68 32 69 33 70 37 71 34 72 36 73 35 74
REMARK H PARENT 71 20 52 42 30 53
REMARK Flexibility Score: inf
ROOT
ATOM      1  C   UNL A   1      34.506  21.054  25.190  1.00  0.00     0.275 C 
ENDROOT
BRANCH   1   2
ATOM      2  O   UNL A   1      33.797  21.688  24.109  1.00  0.00    -0.459 OA
BRANCH   2   3
ATOM      3  C   UNL A   1      34.160  22.954  23.782  1.00  0.00     0.333 C 
ATOM      4  O   UNL A   1      34.736  23.278  22.756  1.00  0.00    -0.247 OA
BRANCH   3   5
ATOM      5  C   UNL A   1      33.655  23.918  24.815  1.00  0.00     0.036 C 
ATOM      6  C   UNL A   1      34.591  24.699  25.396  1.00  0.00     0.020 C 
BRANCH   5   7
ATOM      7  C   UNL A   1      32.159  23.923  25.196  1.00  0.00     0.055 C 
ATOM      8  C   UNL A   1      31.111  23.782  24.055  1.00  0.00     0.012 C 
ATOM      9  C   UNL A   1      31.728  25.146  26.055  1.00  0.00     0.129 C 
ATOM     10  C   UNL A   1      30.980  25.023  23.175  1.00  0.00     0.008 C 
ATOM     11  C   UNL A   1      31.709  26.416  25.158  1.00  0.00     0.050 C 
ATOM     12  C   UNL A   1      30.696  26.321  23.972  1.00  0.00    -0.024 C 
ATOM     13  C   UNL A   1      31.637  27.768  25.849  1.00  0.00    -0.071 C 
ATOM     14  C   UNL A   1      29.215  26.334  24.427  1.00  0.00     0.012 C 
ATOM     15  C   UNL A   1      30.919  27.529  23.016  1.00  0.00     0.008 C 
ATOM     16  C   UNL A   1      31.896  28.917  24.901  1.00  0.00     0.031 C 
ATOM     17  C   UNL A   1      31.399  27.975  27.154  1.00  0.00     0.008 C 
ATOM     18  C   UNL A   1      30.916  28.883  23.731  1.00  0.00     0.005 C 
BRANCH   9  19
ATOM     19  O   UNL A   1      30.453  24.894  26.658  1.00  0.00    -0.392 OA
ATOM     20  H   UNL A   1      29.754  25.281  26.109  1.00  0.00     0.211 HD
ENDBRANCH   9  19
ENDBRANCH   5   7
ENDBRANCH   3   5
ENDBRANCH   2   3
ENDBRANCH   1   2
BRANCH   1  21
ATOM     21  C   UNL A   1      35.959  20.856  24.769  1.00  0.00     0.275 C 
BRANCH  21  22
ATOM     22  O   UNL A   1      36.818  21.462  25.755  1.00  0.00    -0.458 OA
BRANCH  22  23
ATOM     23  C   UNL A   1      38.119  21.090  25.741  1.00  0.00     0.338 C 
ATOM     24  O   UNL A   1      38.597  20.035  25.370  1.00  0.00    -0.246 OA
BRANCH  23  25
ATOM     25  C   UNL A   1      38.927  22.231  26.198  1.00  0.00     0.060 A 
ATOM     26  C   UNL A   1      38.484  23.513  25.891  1.00  0.00     0.016 A 
ATOM     27  C   UNL A   1      40.140  22.056  26.854  1.00  0.00     0.016 A 
ATOM     28  C   UNL A   1      39.263  24.628  26.186  1.00  0.00     0.010 A 
ATOM     29  C   UNL A   1      40.880  23.184  27.240  1.00  0.00     0.010 A 
ATOM     30  C   UNL A   1      40.454  24.485  26.903  1.00  0.00    -0.014 A 
BRANCH  30  31
ATOM     31  C   UNL A   1      41.232  25.688  27.311  1.00  0.00     0.031 A 
ATOM     32  C   UNL A   1      40.635  26.700  28.251  1.00  0.00     0.074 A 
ATOM     33  C   UNL A   1      42.483  25.884  26.841  1.00  0.00     0.049 A 
ATOM     34  N   UNL A   1      41.068  27.896  28.561  1.00  0.00    -0.248 NA
ATOM     35  C   UNL A   1      39.389  26.316  28.934  1.00  0.00     0.031 C 
ATOM     36  C   UNL A   1      43.229  24.960  25.982  1.00  0.00     0.029 A 
ATOM     37  N   UNL A   1      43.352  26.936  27.020  1.00  0.00    -0.354 N 
ATOM     38  C   UNL A   1      40.124  28.429  29.430  1.00  0.00     0.074 A 
ATOM     39  C   UNL A   1      39.098  27.423  29.606  1.00  0.00     0.031 C 
ATOM     40  C   UNL A   1      44.442  25.472  25.728  1.00  0.00     0.029 A 
ATOM     41  C   UNL A   1      44.527  26.801  26.319  1.00  0.00     0.049 A 
ATOM     42  H   UNL A   1      43.151  27.709  27.595  1.00  0.00     0.167 HD
ATOM     43  C   UNL A   1      40.109  29.648  30.019  1.00  0.00     0.031 A 
ATOM     44  C   UNL A   1      45.537  27.670  26.116  1.00  0.00     0.031 A 
ATOM     45  C   UNL A   1      41.144  30.638  29.869  1.00  0.00     0.049 A 
ATOM     46  C   UNL A   1      45.450  29.049  26.703  1.00  0.00     0.074 A 
ATOM     47  C   UNL A   1      41.216  31.898  30.439  1.00  0.00     0.029 A 
ATOM     48  N   UNL A   1      42.285  30.480  29.101  1.00  0.00    -0.354 N 
ATOM     49  N   UNL A   1      44.530  29.557  27.486  1.00  0.00    -0.248 NA
ATOM     50  C   UNL A   1      46.530  29.984  26.357  1.00  0.00     0.031 C 
ATOM     51  C   UNL A   1      42.377  32.524  29.971  1.00  0.00     0.029 A 
ATOM     52  C   UNL A   1      43.052  31.632  29.154  1.00  0.00     0.049 A 
ATOM     53  H   UNL A   1      42.517  29.669  28.593  1.00  0.00     0.167 HD
ATOM     54  C   UNL A   1      44.925  30.865  27.733  1.00  0.00     0.074 A 
ATOM     55  C   UNL A   1      46.181  31.065  27.041  1.00  0.00     0.031 C 
ATOM     56  C   UNL A   1      44.296  31.820  28.459  1.00  0.00     0.031 A 
BRANCH  43  57
ATOM     57  C   UNL A   1      38.909  30.014  30.844  1.00  0.00    -0.014 A 
ATOM     58  C   UNL A   1      37.770  30.597  30.271  1.00  0.00     0.009 A 
ATOM     59  C   UNL A   1      38.898  29.699  32.213  1.00  0.00     0.009 A 
ATOM     60  C   UNL A   1      36.649  30.873  31.059  1.00  0.00     0.001 A 
ATOM     61  C   UNL A   1      37.769  29.955  32.992  1.00  0.00     0.001 A 
ATOM     62  C   UNL A   1      36.647  30.547  32.415  1.00  0.00     0.000 A 
ENDBRANCH  43  57
BRANCH  44  63
ATOM     63  C   UNL A   1      46.676  27.302  25.232  1.00  0.00    -0.014 A 
ATOM     64  C   UNL A   1      47.703  26.463  25.690  1.00  0.00     0.009 A 
ATOM     65  C   UNL A   1      46.761  27.824  23.930  1.00  0.00     0.009 A 
ATOM     66  C   UNL A   1      48.801  26.178  24.875  1.00  0.00     0.001 A 
ATOM     67  C   UNL A   1      47.841  27.508  23.105  1.00  0.00     0.001 A 
ATOM     68  C   UNL A   1      48.867  26.695  23.582  1.00  0.00     0.000 A 
ENDBRANCH  44  63
BRANCH  56  69
ATOM     69  C   UNL A   1      44.971  33.159  28.558  1.00  0.00    -0.014 A 
ATOM     70  C   UNL A   1      44.664  34.192  27.659  1.00  0.00     0.009 A 
ATOM     71  C   UNL A   1      45.900  33.398  29.582  1.00  0.00     0.009 A 
ATOM     72  C   UNL A   1      45.299  35.430  27.766  1.00  0.00     0.001 A 
ATOM     73  C   UNL A   1      46.514  34.646  29.702  1.00  0.00     0.001 A 
ATOM     74  C   UNL A   1      46.219  35.657  28.790  1.00  0.00     0.000 A 
ENDBRANCH  56  69
ENDBRANCH  30  31
ENDBRANCH  23  25
ENDBRANCH  22  23
ENDBRANCH  21  22
ENDBRANCH   1  21
TORSDOF 13
ENDMDL
MODEL 2
REMARK VINA RESULT:     -11.2      2.439      6.824
REMARK SMILES C=C(C(=O)OCCOC(=O)c1ccc(-c2c3nc(c(-c4ccccc4)c4ccc([nH]4)c(-c4ccccc4)c4nc(c(-c5ccccc5)c5ccc2[nH]5)C=C4)C=C3)cc1)[C@@H]1CC[C@]2(C)CCCC(=C)[C@H]2[C@H]1O
REMARK SMILES IDX 6 1 5 2 3 3 4 4 2 5 1 6 59 7 60 8 70 9 61 10 69 11 62 12
REMARK SMILES IDX 67 13 63 14 64 15 66 16 68 17 65 18 71 19 7 21 8 22 9 23
REMARK SMILES IDX 10 24 11 25 12 26 58 27 13 28 57 29 14 30 15 31 16 32 51 33
REMARK SMILES IDX 17 34 56 35 50 36 52 37 18 38 55 39 49 40 48 41 19 43 41 44
REMARK SMILES IDX 26 45 40 46 27 47 30 48 39 49 53 50 28 51 29 52 38 54 54 55
REMARK SMILES IDX 31 56 20 57 21 58 25 59 22 60 24 61 23 62 42 63 43 64 47 65
REMARK SMILES IDX 44 66 46 67 45 68 32 69 33 70 37 71 34 72 36 73 35 74
REMARK H PARENT 71 20 52 42 30 53
REMARK Flexibility Score: inf
ROOT
ATOM      1  C   UNL A   1      32.405  30.103  25.722  1.00  0.00     0.275 C 
ENDROOT
BRANCH   1   2
ATOM      2  O   UNL A   1      31.300  29.263  25.342  1.00  0.00    -0.459 OA
BRANCH   2   3
ATOM      3  C   UNL A   1      31.538  28.294  24.421  1.00  0.00     0.333 C 
ATOM      4  O   UNL A   1      32.228  28.426  23.424  1.00  0.00    -0.247 OA
BRANCH   3   5
ATOM      5  C   UNL A   1      30.916  27.001  24.860  1.00  0.00     0.036 C 
ATOM      6  C   UNL A   1      29.821  26.613  24.173  1.00  0.00     0.020 C 
BRANCH   5   7
ATOM      7  C   UNL A   1      31.497  26.242  26.073  1.00  0.00     0.055 C 
ATOM      8  C   UNL A   1      32.960  26.554  26.501  1.00  0.00     0.012 C 
ATOM      9  C   UNL A   1      31.380  24.694  25.967  1.00  0.00     0.129 C 
ATOM     10  C   UNL A   1      34.017  26.010  25.543  1.00  0.00     0.008 C 
ATOM     11  C   UNL A   1      32.391  24.179  24.905  1.00  0.00     0.050 C 
ATOM     12  C   UNL A   1      33.880  24.492  25.265  1.00  0.00    -0.024 C 
ATOM     13  C   UNL A   1      32.225  22.754  24.403  1.00  0.00    -0.071 C 
ATOM     14  C   UNL A   1      34.396  23.694  26.488  1.00  0.00     0.012 C 
ATOM     15  C   UNL A   1      34.781  24.145  24.044  1.00  0.00     0.008 C 
ATOM     16  C   UNL A   1      33.085  22.461  23.195  1.00  0.00     0.031 C 
ATOM     17  C   UNL A   1      31.403  21.827  24.921  1.00  0.00     0.008 C 
ATOM     18  C   UNL A   1      34.556  22.732  23.501  1.00  0.00     0.005 C 
BRANCH   9  19
ATOM     19  O   UNL A   1      31.597  24.099  27.251  1.00  0.00    -0.392 OA
ATOM     20  H   UNL A   1      31.692  23.139  27.150  1.00  0.00     0.211 HD
ENDBRANCH   9  19
ENDBRANCH   5   7
ENDBRANCH   3   5
ENDBRANCH   2   3
ENDBRANCH   1   2
BRANCH   1  21
ATOM     21  C   UNL A   1      32.550  30.057  27.240  1.00  0.00     0.275 C 
BRANCH  21  22
ATOM     22  O   UNL A   1      33.919  29.750  27.570  1.00  0.00    -0.458 OA
BRANCH  22  23
ATOM     23  C   UNL A   1      34.646  30.737  28.140  1.00  0.00     0.338 C 
ATOM     24  O   UNL A   1      34.275  31.843  28.485  1.00  0.00    -0.246 OA
BRANCH  23  25
ATOM     25  C   UNL A   1      36.009  30.233  28.365  1.00  0.00     0.060 A 
ATOM     26  C   UNL A   1      36.898  30.246  27.295  1.00  0.00     0.016 A 
ATOM     27  C   UNL A   1      36.399  29.687  29.582  1.00  0.00     0.016 A 
ATOM     28  C   UNL A   1      38.160  29.672  27.407  1.00  0.00     0.010 A 
ATOM     29  C   UNL A   1      37.706  29.196  29.727  1.00  0.00     0.010 A 
ATOM     30  C   UNL A   1      38.600  29.175  28.638  1.00  0.00    -0.014 A 
BRANCH  30  31
ATOM     31  C   UNL A   1      39.990  28.658  28.783  1.00  0.00     0.031 A 
ATOM     32  C   UNL A   1      41.108  29.580  29.191  1.00  0.00     0.074 A 
ATOM     33  C   UNL A   1      40.262  27.356  28.550  1.00  0.00     0.049 A 
ATOM     34  N   UNL A   1      42.400  29.369  29.174  1.00  0.00    -0.248 NA
ATOM     35  C   UNL A   1      40.723  30.913  29.682  1.00  0.00     0.031 C 
ATOM     36  C   UNL A   1      39.278  26.322  28.220  1.00  0.00     0.029 A 
ATOM     37  N   UNL A   1      41.459  26.678  28.554  1.00  0.00    -0.354 N 
ATOM     38  C   UNL A   1      42.984  30.555  29.600  1.00  0.00     0.074 A 
ATOM     39  C   UNL A   1      41.906  31.481  29.876  1.00  0.00     0.031 C 
ATOM     40  C   UNL A   1      39.903  25.145  28.075  1.00  0.00     0.029 A 
ATOM     41  C   UNL A   1      41.340  25.354  28.201  1.00  0.00     0.049 A 
ATOM     42  H   UNL A   1      42.318  27.099  28.787  1.00  0.00     0.167 HD
ATOM     43  C   UNL A   1      44.299  30.848  29.739  1.00  0.00     0.031 A 
ATOM     44  C   UNL A   1      42.278  24.422  27.942  1.00  0.00     0.031 A 
ATOM     45  C   UNL A   1      45.372  29.920  29.496  1.00  0.00     0.049 A 
ATOM     46  C   UNL A   1      43.730  24.801  28.012  1.00  0.00     0.074 A 
ATOM     47  C   UNL A   1      46.735  30.128  29.622  1.00  0.00     0.029 A 
ATOM     48  N   UNL A   1      45.205  28.609  29.082  1.00  0.00    -0.354 N 
ATOM     49  N   UNL A   1      44.269  25.939  28.372  1.00  0.00    -0.248 NA
ATOM     50  C   UNL A   1      44.701  23.772  27.615  1.00  0.00     0.031 C 
ATOM     51  C   UNL A   1      47.395  28.958  29.232  1.00  0.00     0.029 A 
ATOM     52  C   UNL A   1      46.440  28.006  28.914  1.00  0.00     0.049 A 
ATOM     53  H   UNL A   1      44.336  28.170  28.929  1.00  0.00     0.167 HD
ATOM     54  C   UNL A   1      45.641  25.760  28.254  1.00  0.00     0.074 A 
ATOM     55  C   UNL A   1      45.854  24.397  27.817  1.00  0.00     0.031 C 
ATOM     56  C   UNL A   1      46.637  26.651  28.476  1.00  0.00     0.031 A 
BRANCH  43  57
ATOM     57  C   UNL A   1      44.667  32.252  30.125  1.00  0.00    -0.014 A 
ATOM     58  C   UNL A   1      44.820  33.265  29.167  1.00  0.00     0.009 A 
ATOM     59  C   UNL A   1      44.793  32.577  31.486  1.00  0.00     0.009 A 
ATOM     60  C   UNL A   1      45.108  34.573  29.566  1.00  0.00     0.001 A 
ATOM     61  C   UNL A   1      45.058  33.889  31.882  1.00  0.00     0.001 A 
ATOM     62  C   UNL A   1      45.221  34.884  30.921  1.00  0.00     0.000 A 
ENDBRANCH  43  57
BRANCH  44  63
ATOM     63  C   UNL A   1      41.879  23.061  27.491  1.00  0.00    -0.014 A 
ATOM     64  C   UNL A   1      41.758  22.762  26.126  1.00  0.00     0.009 A 
ATOM     65  C   UNL A   1      41.579  22.062  28.431  1.00  0.00     0.009 A 
ATOM     66  C   UNL A   1      41.318  21.501  25.714  1.00  0.00     0.001 A 
ATOM     67  C   UNL A   1      41.175  20.792  28.017  1.00  0.00     0.001 A 
ATOM     68  C   UNL A   1      41.033  20.516  26.660  1.00  0.00     0.000 A 
ENDBRANCH  44  63
BRANCH  56  69
ATOM     69  C   UNL A   1      48.045  26.169  28.270  1.00  0.00    -0.014 A 
ATOM     70  C   UNL A   1      48.792  25.641  29.336  1.00  0.00     0.009 A 
ATOM     71  C   UNL A   1      48.619  26.214  26.990  1.00  0.00     0.009 A 
ATOM     72  C   UNL A   1      50.098  25.196  29.128  1.00  0.00     0.001 A 
ATOM     73  C   UNL A   1      49.916  25.744  26.781  1.00  0.00     0.001 A 
ATOM     74  C   UNL A   1      50.657  25.243  27.850  1.00  0.00     0.000 A 
ENDBRANCH  56  69
ENDBRANCH  30  31
ENDBRANCH  23  25
ENDBRANCH  22  23
ENDBRANCH  21  22
ENDBRANCH   1  21
TORSDOF 13
ENDMDL
MODEL 3
REMARK VINA RESULT:     -11.1      3.669      8.731
REMARK SMILES C=C(C(=O)OCCOC(=O)c1ccc(-c2c3nc(c(-c4ccccc4)c4ccc([nH]4)c(-c4ccccc4)c4nc(c(-c5ccccc5)c5ccc2[nH]5)C=C4)C=C3)cc1)[C@@H]1CC[C@]2(C)CCCC(=C)[C@H]2[C@H]1O
REMARK SMILES IDX 6 1 5 2 3 3 4 4 2 5 1 6 59 7 60 8 70 9 61 10 69 11 62 12
REMARK SMILES IDX 67 13 63 14 64 15 66 16 68 17 65 18 71 19 7 21 8 22 9 23
REMARK SMILES IDX 10 24 11 25 12 26 58 27 13 28 57 29 14 30 15 31 16 32 51 33
REMARK SMILES IDX 17 34 56 35 50 36 52 37 18 38 55 39 49 40 48 41 19 43 41 44
REMARK SMILES IDX 26 45 40 46 27 47 30 48 39 49 53 50 28 51 29 52 38 54 54 55
REMARK SMILES IDX 31 56 20 57 21 58 25 59 22 60 24 61 23 62 42 63 43 64 47 65
REMARK SMILES IDX 44 66 46 67 45 68 32 69 33 70 37 71 34 72 36 73 35 74
REMARK H PARENT 71 20 52 42 30 53
REMARK Flexibility Score: inf
ROOT
ATOM      1  C   UNL A   1      31.098  29.355  24.460  1.00  0.00     0.275 C 
ENDROOT
BRANCH   1   2
ATOM      2  O   UNL A   1      31.070  27.951  24.142  1.00  0.00    -0.459 OA
BRANCH   2   3
ATOM      3  C   UNL A   1      31.031  27.608  22.829  1.00  0.00     0.333 C 
ATOM      4  O   UNL A   1      30.271  28.080  22.000  1.00  0.00    -0.247 OA
BRANCH   3   5
ATOM      5  C   UNL A   1      32.134  26.639  22.517  1.00  0.00     0.036 C 
ATOM      6  C   UNL A   1      33.354  27.181  22.318  1.00  0.00     0.020 C 
BRANCH   5   7
ATOM      7  C   UNL A   1      31.817  25.134  22.379  1.00  0.00     0.055 C 
ATOM      8  C   UNL A   1      30.782  24.509  23.358  1.00  0.00     0.012 C 
ATOM      9  C   UNL A   1      33.074  24.217  22.408  1.00  0.00     0.129 C 
ATOM     10  C   UNL A   1      31.292  24.359  24.790  1.00  0.00     0.008 C 
ATOM     11  C   UNL A   1      33.636  24.171  23.857  1.00  0.00     0.050 C 
ATOM     12  C   UNL A   1      32.627  23.581  24.895  1.00  0.00    -0.024 C 
ATOM     13  C   UNL A   1      35.035  23.608  24.055  1.00  0.00    -0.071 C 
ATOM     14  C   UNL A   1      32.359  22.068  24.698  1.00  0.00     0.012 C 
ATOM     15  C   UNL A   1      33.193  23.791  26.329  1.00  0.00     0.008 C 
ATOM     16  C   UNL A   1      35.570  23.862  25.445  1.00  0.00     0.031 C 
ATOM     17  C   UNL A   1      35.766  22.971  23.126  1.00  0.00     0.008 C 
ATOM     18  C   UNL A   1      34.628  23.285  26.500  1.00  0.00     0.005 C 
BRANCH   9  19
ATOM     19  O   UNL A   1      32.739  22.913  21.919  1.00  0.00    -0.392 OA
ATOM     20  H   UNL A   1      32.770  22.276  22.650  1.00  0.00     0.211 HD
ENDBRANCH   9  19
ENDBRANCH   5   7
ENDBRANCH   3   5
ENDBRANCH   2   3
ENDBRANCH   1   2
BRANCH   1  21
ATOM     21  C   UNL A   1      32.464  29.692  25.051  1.00  0.00     0.275 C 
BRANCH  21  22
ATOM     22  O   UNL A   1      32.316  29.928  26.465  1.00  0.00    -0.458 OA
BRANCH  22  23
ATOM     23  C   UNL A   1      32.702  31.139  26.925  1.00  0.00     0.338 C 
ATOM     24  O   UNL A   1      32.100  32.195  26.865  1.00  0.00    -0.246 OA
BRANCH  23  25
ATOM     25  C   UNL A   1      33.993  30.980  27.612  1.00  0.00     0.060 A 
ATOM     26  C   UNL A   1      34.394  29.696  27.965  1.00  0.00     0.016 A 
ATOM     27  C   UNL A   1      34.772  32.073  27.974  1.00  0.00     0.016 A 
ATOM     28  C   UNL A   1      35.542  29.489  28.723  1.00  0.00     0.010 A 
ATOM     29  C   UNL A   1      35.981  31.858  28.654  1.00  0.00     0.010 A 
ATOM     30  C   UNL A   1      36.377  30.563  29.043  1.00  0.00    -0.014 A 
BRANCH  30  31
ATOM     31  C   UNL A   1      37.660  30.326  29.763  1.00  0.00     0.031 A 
ATOM     32  C   UNL A   1      38.761  29.528  29.116  1.00  0.00     0.074 A 
ATOM     33  C   UNL A   1      37.850  30.824  31.003  1.00  0.00     0.049 A 
ATOM     34  N   UNL A   1      39.856  29.047  29.650  1.00  0.00    -0.248 NA
ATOM     35  C   UNL A   1      38.612  29.233  27.682  1.00  0.00     0.031 C 
ATOM     36  C   UNL A   1      36.911  31.678  31.735  1.00  0.00     0.029 A 
ATOM     37  N   UNL A   1      38.906  30.680  31.874  1.00  0.00    -0.354 N 
ATOM     38  C   UNL A   1      40.499  28.350  28.635  1.00  0.00     0.074 A 
ATOM     39  C   UNL A   1      39.677  28.476  27.450  1.00  0.00     0.031 C 
ATOM     40  C   UNL A   1      37.437  31.997  32.927  1.00  0.00     0.029 A 
ATOM     41  C   UNL A   1      38.703  31.293  33.088  1.00  0.00     0.049 A 
ATOM     42  H   UNL A   1      39.726  30.185  31.649  1.00  0.00     0.167 HD
ATOM     43  C   UNL A   1      41.663  27.661  28.689  1.00  0.00     0.031 A 
ATOM     44  C   UNL A   1      39.416  31.245  34.230  1.00  0.00     0.031 A 
ATOM     45  C   UNL A   1      42.498  27.560  29.857  1.00  0.00     0.049 A 
ATOM     46  C   UNL A   1      40.653  30.396  34.290  1.00  0.00     0.074 A 
ATOM     47  C   UNL A   1      43.701  26.890  29.999  1.00  0.00     0.029 A 
ATOM     48  N   UNL A   1      42.221  28.147  31.080  1.00  0.00    -0.354 N 
ATOM     49  N   UNL A   1      41.226  29.704  33.336  1.00  0.00    -0.248 NA
ATOM     50  C   UNL A   1      41.328  30.301  35.593  1.00  0.00     0.031 C 
ATOM     51  C   UNL A   1      44.126  27.027  31.325  1.00  0.00     0.029 A 
ATOM     52  C   UNL A   1      43.213  27.827  31.992  1.00  0.00     0.049 A 
ATOM     53  H   UNL A   1      41.435  28.709  31.273  1.00  0.00     0.167 HD
ATOM     54  C   UNL A   1      42.332  29.101  33.921  1.00  0.00     0.074 A 
ATOM     55  C   UNL A   1      42.366  29.529  35.303  1.00  0.00     0.031 C 
ATOM     56  C   UNL A   1      43.233  28.256  33.364  1.00  0.00     0.031 A 
BRANCH  43  57
ATOM     57  C   UNL A   1      42.089  26.907  27.462  1.00  0.00    -0.014 A 
ATOM     58  C   UNL A   1      42.921  27.485  26.493  1.00  0.00     0.009 A 
ATOM     59  C   UNL A   1      41.701  25.565  27.314  1.00  0.00     0.009 A 
ATOM     60  C   UNL A   1      43.343  26.736  25.390  1.00  0.00     0.001 A 
ATOM     61  C   UNL A   1      42.144  24.813  26.224  1.00  0.00     0.001 A 
ATOM     62  C   UNL A   1      42.959  25.402  25.260  1.00  0.00     0.000 A 
ENDBRANCH  43  57
BRANCH  44  63
ATOM     63  C   UNL A   1      38.927  31.944  35.450  1.00  0.00    -0.014 A 
ATOM     64  C   UNL A   1      39.254  33.286  35.692  1.00  0.00     0.009 A 
ATOM     65  C   UNL A   1      38.158  31.254  36.402  1.00  0.00     0.009 A 
ATOM     66  C   UNL A   1      38.845  33.913  36.872  1.00  0.00     0.001 A 
ATOM     67  C   UNL A   1      37.720  31.892  37.562  1.00  0.00     0.001 A 
ATOM     68  C   UNL A   1      38.074  33.218  37.803  1.00  0.00     0.000 A 
ENDBRANCH  44  63
BRANCH  56  69
ATOM     69  C   UNL A   1      44.342  27.760  34.248  1.00  0.00    -0.014 A 
ATOM     70  C   UNL A   1      44.250  26.519  34.897  1.00  0.00     0.009 A 
ATOM     71  C   UNL A   1      45.505  28.529  34.407  1.00  0.00     0.009 A 
ATOM     72  C   UNL A   1      45.290  26.072  35.714  1.00  0.00     0.001 A 
ATOM     73  C   UNL A   1      46.554  28.068  35.203  1.00  0.00     0.001 A 
ATOM     74  C   UNL A   1      46.443  26.844  35.862  1.00  0.00     0.000 A 
ENDBRANCH  56  69
ENDBRANCH  30  31
ENDBRANCH  23  25
ENDBRANCH  22  23
ENDBRANCH  21  22
ENDBRANCH   1  21
TORSDOF 13
ENDMDL
