MODEL 1
REMARK VINA RESULT:      -8.6      0.000      0.000
REMARK SMILES CC(C)(C)NS(=O)(=O)c1ccc(C(=O)NCC(=O)OCCOC(=O)c2ccc(-c3c4nc(c(-c5ccccc5)c5ccc([nH]5)c(-c5ccccc5)c5nc(c(-c6ccccc6)c6ccc3[nH]6)C=C5)C=C4)cc2)cc1
REMARK SMILES IDX 19 1 17 2 18 3 16 4 15 5 13 6 14 7 12 9 9 10 10 11 74 12
REMARK SMILES IDX 11 13 73 14 6 15 7 16 8 17 5 18 2 20 1 21 3 22 4 23 20 24
REMARK SMILES IDX 21 25 22 26 23 27 24 28 25 29 26 30 72 31 27 32 71 33 28 34
REMARK SMILES IDX 29 35 30 36 65 37 31 38 70 39 64 40 66 41 32 42 69 43 63 44
REMARK SMILES IDX 62 45 33 47 55 48 40 49 54 50 41 51 44 52 53 53 67 54 42 55
REMARK SMILES IDX 43 56 52 58 68 59 45 60 34 61 35 62 39 63 36 64 38 65 37 66
REMARK SMILES IDX 56 67 57 68 61 69 58 70 60 71 59 72 46 73 47 74 51 75 48 76
REMARK SMILES IDX 50 77 49 78
REMARK H PARENT 15 8 5 19 66 46 44 57
REMARK Flexibility Score: inf
ROOT
ATOM      1  O   UNL A   1      45.965  21.519  25.395  1.00  0.00    -0.461 OA
ENDROOT
BRANCH   1   2
ATOM      2  C   UNL A   1      45.983  22.648  24.639  1.00  0.00     0.325 C 
ATOM      3  O   UNL A   1      45.345  22.808  23.603  1.00  0.00    -0.250 OA
BRANCH   2   4
ATOM      4  C   UNL A   1      46.757  23.783  25.315  1.00  0.00     0.239 C 
BRANCH   4   5
ATOM      5  N   UNL A   1      47.522  24.603  24.408  1.00  0.00    -0.341 N 
ATOM      6  C   UNL A   1      47.633  25.956  24.268  1.00  0.00     0.251 C 
ATOM      7  O   UNL A   1      48.413  26.356  23.401  1.00  0.00    -0.269 OA
ATOM      8  H   UNL A   1      48.065  24.090  23.767  1.00  0.00     0.164 HD
BRANCH   6   9
ATOM      9  C   UNL A   1      46.899  26.959  25.104  1.00  0.00     0.039 A 
ATOM     10  C   UNL A   1      45.276  28.797  26.481  1.00  0.00     0.082 A 
ATOM     11  C   UNL A   1      44.691  27.711  25.837  1.00  0.00     0.022 A 
ATOM     12  C   UNL A   1      46.660  28.936  26.510  1.00  0.00     0.022 A 
ATOM     13  C   UNL A   1      45.500  26.817  25.134  1.00  0.00     0.015 A 
ATOM     14  C   UNL A   1      47.465  28.003  25.846  1.00  0.00     0.015 A 
BRANCH  10  15
ATOM     15  S   UNL A   1      44.280  30.069  27.199  1.00  0.00     0.241 S 
ATOM     16  O   UNL A   1      44.897  30.474  28.441  1.00  0.00    -0.207 OA
ATOM     17  O   UNL A   1      42.916  29.590  27.154  1.00  0.00    -0.207 OA
BRANCH  15  18
ATOM     18  N   UNL A   1      44.351  31.338  26.113  1.00  0.00    -0.206 NA
ATOM     19  H   UNL A   1      44.999  31.027  25.389  1.00  0.00     0.141 HD
BRANCH  18  20
ATOM     20  C   UNL A   1      44.740  32.738  26.394  1.00  0.00     0.025 C 
ATOM     21  C   UNL A   1      44.285  33.691  25.287  1.00  0.00     0.028 C 
ATOM     22  C   UNL A   1      46.246  32.880  26.626  1.00  0.00     0.028 C 
ATOM     23  C   UNL A   1      44.004  33.124  27.692  1.00  0.00     0.028 C 
ENDBRANCH  18  20
ENDBRANCH  15  18
ENDBRANCH  10  15
ENDBRANCH   6   9
ENDBRANCH   4   5
ENDBRANCH   2   4
ENDBRANCH   1   2
BRANCH   1  24
ATOM     24  C   UNL A   1      45.888  20.272  24.683  1.00  0.00     0.274 C 
BRANCH  24  25
ATOM     25  C   UNL A   1      44.686  19.456  25.171  1.00  0.00     0.275 C 
BRANCH  25  26
ATOM     26  O   UNL A   1      43.439  20.024  24.718  1.00  0.00    -0.458 OA
BRANCH  26  27
ATOM     27  C   UNL A   1      42.442  20.027  25.630  1.00  0.00     0.338 C 
ATOM     28  O   UNL A   1      41.730  19.092  25.960  1.00  0.00    -0.246 OA
BRANCH  27  29
ATOM     29  C   UNL A   1      42.385  21.323  26.318  1.00  0.00     0.060 A 
ATOM     30  C   UNL A   1      42.524  22.487  25.560  1.00  0.00     0.016 A 
ATOM     31  C   UNL A   1      42.370  21.386  27.710  1.00  0.00     0.016 A 
ATOM     32  C   UNL A   1      42.720  23.710  26.182  1.00  0.00     0.010 A 
ATOM     33  C   UNL A   1      42.494  22.630  28.337  1.00  0.00     0.010 A 
ATOM     34  C   UNL A   1      42.697  23.796  27.577  1.00  0.00    -0.014 A 
BRANCH  34  35
ATOM     35  C   UNL A   1      42.910  25.113  28.224  1.00  0.00     0.031 A 
ATOM     36  C   UNL A   1      44.275  25.499  28.713  1.00  0.00     0.074 A 
ATOM     37  C   UNL A   1      41.877  25.972  28.339  1.00  0.00     0.049 A 
ATOM     38  N   UNL A   1      44.634  26.546  29.412  1.00  0.00    -0.248 NA
ATOM     39  C   UNL A   1      45.382  24.588  28.381  1.00  0.00     0.031 C 
ATOM     40  C   UNL A   1      40.519  25.736  27.845  1.00  0.00     0.029 A 
ATOM     41  N   UNL A   1      41.814  27.220  28.901  1.00  0.00    -0.354 N 
ATOM     42  C   UNL A   1      45.995  26.394  29.646  1.00  0.00     0.074 A 
ATOM     43  C   UNL A   1      46.399  25.156  29.014  1.00  0.00     0.031 C 
ATOM     44  C   UNL A   1      39.763  26.813  28.107  1.00  0.00     0.029 A 
ATOM     45  C   UNL A   1      40.561  27.778  28.853  1.00  0.00     0.049 A 
ATOM     46  H   UNL A   1      42.592  27.673  29.301  1.00  0.00     0.167 HD
ATOM     47  C   UNL A   1      46.826  27.211  30.334  1.00  0.00     0.031 A 
ATOM     48  C   UNL A   1      40.093  28.920  29.387  1.00  0.00     0.031 A 
ATOM     49  C   UNL A   1      46.422  28.454  30.935  1.00  0.00     0.049 A 
ATOM     50  C   UNL A   1      41.025  29.785  30.184  1.00  0.00     0.074 A 
ATOM     51  C   UNL A   1      47.191  29.363  31.640  1.00  0.00     0.029 A 
ATOM     52  N   UNL A   1      45.134  28.967  30.892  1.00  0.00    -0.354 N 
ATOM     53  N   UNL A   1      42.302  29.613  30.427  1.00  0.00    -0.248 NA
ATOM     54  C   UNL A   1      40.449  30.991  30.790  1.00  0.00     0.031 C 
ATOM     55  C   UNL A   1      46.358  30.405  32.062  1.00  0.00     0.029 A 
ATOM     56  C   UNL A   1      45.082  30.168  31.577  1.00  0.00     0.049 A 
ATOM     57  H   UNL A   1      44.370  28.540  30.442  1.00  0.00     0.167 HD
ATOM     58  C   UNL A   1      42.687  30.697  31.203  1.00  0.00     0.074 A 
ATOM     59  C   UNL A   1      41.512  31.529  31.372  1.00  0.00     0.031 C 
ATOM     60  C   UNL A   1      43.902  30.977  31.734  1.00  0.00     0.031 A 
BRANCH  47  61
ATOM     61  C   UNL A   1      48.248  26.760  30.517  1.00  0.00    -0.014 A 
ATOM     62  C   UNL A   1      48.629  25.942  31.591  1.00  0.00     0.009 A 
ATOM     63  C   UNL A   1      49.216  27.139  29.574  1.00  0.00     0.009 A 
ATOM     64  C   UNL A   1      49.960  25.538  31.732  1.00  0.00     0.001 A 
ATOM     65  C   UNL A   1      50.539  26.714  29.702  1.00  0.00     0.001 A 
ATOM     66  C   UNL A   1      50.912  25.920  30.786  1.00  0.00     0.000 A 
ENDBRANCH  47  61
BRANCH  48  67
ATOM     67  C   UNL A   1      38.659  29.278  29.234  1.00  0.00    -0.014 A 
ATOM     68  C   UNL A   1      38.178  29.810  28.028  1.00  0.00     0.009 A 
ATOM     69  C   UNL A   1      37.761  29.080  30.295  1.00  0.00     0.009 A 
ATOM     70  C   UNL A   1      36.831  30.153  27.896  1.00  0.00     0.001 A 
ATOM     71  C   UNL A   1      36.409  29.396  30.149  1.00  0.00     0.001 A 
ATOM     72  C   UNL A   1      35.947  29.941  28.953  1.00  0.00     0.000 A 
ENDBRANCH  48  67
BRANCH  60  73
ATOM     73  C   UNL A   1      44.021  32.250  32.518  1.00  0.00    -0.014 A 
ATOM     74  C   UNL A   1      44.336  33.463  31.886  1.00  0.00     0.009 A 
ATOM     75  C   UNL A   1      43.786  32.239  33.901  1.00  0.00     0.009 A 
ATOM     76  C   UNL A   1      44.444  34.637  32.633  1.00  0.00     0.001 A 
ATOM     77  C   UNL A   1      43.870  33.420  34.640  1.00  0.00     0.001 A 
ATOM     78  C   UNL A   1      44.207  34.615  34.007  1.00  0.00     0.000 A 
ENDBRANCH  60  73
ENDBRANCH  34  35
ENDBRANCH  27  29
ENDBRANCH  26  27
ENDBRANCH  25  26
ENDBRANCH  24  25
ENDBRANCH   1  24
TORSDOF 16
ENDMDL
MODEL 2
REMARK VINA RESULT:      -8.6      4.989     11.433
REMARK SMILES CC(C)(C)NS(=O)(=O)c1ccc(C(=O)NCC(=O)OCCOC(=O)c2ccc(-c3c4nc(c(-c5ccccc5)c5ccc([nH]5)c(-c5ccccc5)c5nc(c(-c6ccccc6)c6ccc3[nH]6)C=C5)C=C4)cc2)cc1
REMARK SMILES IDX 19 1 17 2 18 3 16 4 15 5 13 6 14 7 12 9 9 10 10 11 74 12
REMARK SMILES IDX 11 13 73 14 6 15 7 16 8 17 5 18 2 20 1 21 3 22 4 23 20 24
REMARK SMILES IDX 21 25 22 26 23 27 24 28 25 29 26 30 72 31 27 32 71 33 28 34
REMARK SMILES IDX 29 35 30 36 65 37 31 38 70 39 64 40 66 41 32 42 69 43 63 44
REMARK SMILES IDX 62 45 33 47 55 48 40 49 54 50 41 51 44 52 53 53 67 54 42 55
REMARK SMILES IDX 43 56 52 58 68 59 45 60 34 61 35 62 39 63 36 64 38 65 37 66
REMARK SMILES IDX 56 67 57 68 61 69 58 70 60 71 59 72 46 73 47 74 51 75 48 76
REMARK SMILES IDX 50 77 49 78
REMARK H PARENT 15 8 5 19 66 46 44 57
REMARK Flexibility Score: inf
ROOT
ATOM      1  O   UNL A   1      34.558  36.311  33.776  1.00  0.00    -0.461 OA
ENDROOT
BRANCH   1   2
ATOM      2  C   UNL A   1      33.918  37.098  32.872  1.00  0.00     0.325 C 
ATOM      3  O   UNL A   1      33.906  38.324  32.893  1.00  0.00    -0.250 OA
BRANCH   2   4
ATOM      4  C   UNL A   1      33.349  36.287  31.703  1.00  0.00     0.239 C 
BRANCH   4   5
ATOM      5  N   UNL A   1      33.275  37.013  30.458  1.00  0.00    -0.341 N 
ATOM      6  C   UNL A   1      33.469  36.631  29.163  1.00  0.00     0.251 C 
ATOM      7  O   UNL A   1      33.294  37.497  28.303  1.00  0.00    -0.269 OA
ATOM      8  H   UNL A   1      33.042  37.963  30.563  1.00  0.00     0.164 HD
BRANCH   6   9
ATOM      9  C   UNL A   1      33.849  35.248  28.733  1.00  0.00     0.039 A 
ATOM     10  C   UNL A   1      34.280  32.559  28.030  1.00  0.00     0.082 A 
ATOM     11  C   UNL A   1      32.988  33.075  28.016  1.00  0.00     0.022 A 
ATOM     12  C   UNL A   1      35.364  33.384  28.317  1.00  0.00     0.022 A 
ATOM     13  C   UNL A   1      32.777  34.403  28.390  1.00  0.00     0.015 A 
ATOM     14  C   UNL A   1      35.146  34.728  28.639  1.00  0.00     0.015 A 
BRANCH  10  15
ATOM     15  S   UNL A   1      34.571  30.834  27.773  1.00  0.00     0.241 S 
ATOM     16  O   UNL A   1      35.268  30.320  28.930  1.00  0.00    -0.207 OA
ATOM     17  O   UNL A   1      35.121  30.710  26.441  1.00  0.00    -0.207 OA
BRANCH  15  18
ATOM     18  N   UNL A   1      33.049  30.146  27.701  1.00  0.00    -0.206 NA
ATOM     19  H   UNL A   1      32.849  29.853  28.658  1.00  0.00     0.141 HD
BRANCH  18  20
ATOM     20  C   UNL A   1      32.619  29.008  26.859  1.00  0.00     0.025 C 
ATOM     21  C   UNL A   1      33.764  28.030  26.590  1.00  0.00     0.028 C 
ATOM     22  C   UNL A   1      32.002  29.473  25.538  1.00  0.00     0.028 C 
ATOM     23  C   UNL A   1      31.538  28.270  27.673  1.00  0.00     0.028 C 
ENDBRANCH  18  20
ENDBRANCH  15  18
ENDBRANCH  10  15
ENDBRANCH   6   9
ENDBRANCH   4   5
ENDBRANCH   2   4
ENDBRANCH   1   2
BRANCH   1  24
ATOM     24  C   UNL A   1      35.203  35.134  33.258  1.00  0.00     0.274 C 
BRANCH  24  25
ATOM     25  C   UNL A   1      34.754  33.896  34.040  1.00  0.00     0.275 C 
BRANCH  25  26
ATOM     26  O   UNL A   1      35.602  32.759  33.765  1.00  0.00    -0.458 OA
BRANCH  26  27
ATOM     27  C   UNL A   1      35.481  32.237  32.524  1.00  0.00     0.338 C 
ATOM     28  O   UNL A   1      34.473  32.166  31.840  1.00  0.00    -0.246 OA
BRANCH  27  29
ATOM     29  C   UNL A   1      36.800  31.857  32.002  1.00  0.00     0.060 A 
ATOM     30  C   UNL A   1      37.196  32.363  30.763  1.00  0.00     0.016 A 
ATOM     31  C   UNL A   1      37.560  30.879  32.640  1.00  0.00     0.016 A 
ATOM     32  C   UNL A   1      38.312  31.849  30.120  1.00  0.00     0.010 A 
ATOM     33  C   UNL A   1      38.726  30.414  32.025  1.00  0.00     0.010 A 
ATOM     34  C   UNL A   1      39.095  30.877  30.749  1.00  0.00    -0.014 A 
BRANCH  34  35
ATOM     35  C   UNL A   1      40.283  30.339  30.044  1.00  0.00     0.031 A 
ATOM     36  C   UNL A   1      41.528  31.170  29.927  1.00  0.00     0.074 A 
ATOM     37  C   UNL A   1      40.248  29.090  29.540  1.00  0.00     0.049 A 
ATOM     38  N   UNL A   1      42.618  30.927  29.246  1.00  0.00    -0.248 NA
ATOM     39  C   UNL A   1      41.549  32.442  30.666  1.00  0.00     0.031 C 
ATOM     40  C   UNL A   1      39.119  28.164  29.646  1.00  0.00     0.029 A 
ATOM     41  N   UNL A   1      41.194  28.383  28.843  1.00  0.00    -0.354 N 
ATOM     42  C   UNL A   1      43.433  32.037  29.432  1.00  0.00     0.074 A 
ATOM     43  C   UNL A   1      42.714  32.953  30.290  1.00  0.00     0.031 C 
ATOM     44  C   UNL A   1      39.446  27.004  29.056  1.00  0.00     0.029 A 
ATOM     45  C   UNL A   1      40.772  27.132  28.465  1.00  0.00     0.049 A 
ATOM     46  H   UNL A   1      42.089  28.737  28.635  1.00  0.00     0.167 HD
ATOM     47  C   UNL A   1      44.666  32.270  28.923  1.00  0.00     0.031 A 
ATOM     48  C   UNL A   1      41.367  26.207  27.691  1.00  0.00     0.031 A 
ATOM     49  C   UNL A   1      45.385  31.341  28.092  1.00  0.00     0.049 A 
ATOM     50  C   UNL A   1      42.713  26.510  27.102  1.00  0.00     0.074 A 
ATOM     51  C   UNL A   1      46.647  31.476  27.539  1.00  0.00     0.029 A 
ATOM     52  N   UNL A   1      44.908  30.099  27.704  1.00  0.00    -0.354 N 
ATOM     53  N   UNL A   1      43.459  27.577  27.258  1.00  0.00    -0.248 NA
ATOM     54  C   UNL A   1      43.293  25.488  26.222  1.00  0.00     0.031 C 
ATOM     55  C   UNL A   1      46.914  30.332  26.778  1.00  0.00     0.029 A 
ATOM     56  C   UNL A   1      45.839  29.466  26.900  1.00  0.00     0.049 A 
ATOM     57  H   UNL A   1      44.035  29.723  27.962  1.00  0.00     0.167 HD
ATOM     58  C   UNL A   1      44.603  27.350  26.506  1.00  0.00     0.074 A 
ATOM     59  C   UNL A   1      44.460  26.036  25.913  1.00  0.00     0.031 C 
ATOM     60  C   UNL A   1      45.674  28.159  26.319  1.00  0.00     0.031 A 
BRANCH  47  61
ATOM     61  C   UNL A   1      45.293  33.605  29.209  1.00  0.00    -0.014 A 
ATOM     62  C   UNL A   1      46.022  33.841  30.383  1.00  0.00     0.009 A 
ATOM     63  C   UNL A   1      45.176  34.636  28.263  1.00  0.00     0.009 A 
ATOM     64  C   UNL A   1      46.595  35.094  30.619  1.00  0.00     0.001 A 
ATOM     65  C   UNL A   1      45.770  35.879  28.488  1.00  0.00     0.001 A 
ATOM     66  C   UNL A   1      46.473  36.109  29.670  1.00  0.00     0.000 A 
ENDBRANCH  47  61
BRANCH  48  67
ATOM     67  C   UNL A   1      40.665  24.934  27.384  1.00  0.00    -0.014 A 
ATOM     68  C   UNL A   1      39.535  24.922  26.553  1.00  0.00     0.009 A 
ATOM     69  C   UNL A   1      41.129  23.721  27.918  1.00  0.00     0.009 A 
ATOM     70  C   UNL A   1      38.874  23.722  26.278  1.00  0.00     0.001 A 
ATOM     71  C   UNL A   1      40.484  22.520  27.618  1.00  0.00     0.001 A 
ATOM     72  C   UNL A   1      39.352  22.523  26.805  1.00  0.00     0.000 A 
ENDBRANCH  48  67
BRANCH  60  73
ATOM     73  C   UNL A   1      46.783  27.626  25.461  1.00  0.00    -0.014 A 
ATOM     74  C   UNL A   1      46.864  27.948  24.098  1.00  0.00     0.009 A 
ATOM     75  C   UNL A   1      47.775  26.816  26.034  1.00  0.00     0.009 A 
ATOM     76  C   UNL A   1      47.902  27.440  23.316  1.00  0.00     0.001 A 
ATOM     77  C   UNL A   1      48.826  26.331  25.254  1.00  0.00     0.001 A 
ATOM     78  C   UNL A   1      48.884  26.636  23.895  1.00  0.00     0.000 A 
ENDBRANCH  60  73
ENDBRANCH  34  35
ENDBRANCH  27  29
ENDBRANCH  26  27
ENDBRANCH  25  26
ENDBRANCH  24  25
ENDBRANCH   1  24
TORSDOF 16
ENDMDL
MODEL 3
REMARK VINA RESULT:      -8.6      5.719     10.342
REMARK SMILES CC(C)(C)NS(=O)(=O)c1ccc(C(=O)NCC(=O)OCCOC(=O)c2ccc(-c3c4nc(c(-c5ccccc5)c5ccc([nH]5)c(-c5ccccc5)c5nc(c(-c6ccccc6)c6ccc3[nH]6)C=C5)C=C4)cc2)cc1
REMARK SMILES IDX 19 1 17 2 18 3 16 4 15 5 13 6 14 7 12 9 9 10 10 11 74 12
REMARK SMILES IDX 11 13 73 14 6 15 7 16 8 17 5 18 2 20 1 21 3 22 4 23 20 24
REMARK SMILES IDX 21 25 22 26 23 27 24 28 25 29 26 30 72 31 27 32 71 33 28 34
REMARK SMILES IDX 29 35 30 36 65 37 31 38 70 39 64 40 66 41 32 42 69 43 63 44
REMARK SMILES IDX 62 45 33 47 55 48 40 49 54 50 41 51 44 52 53 53 67 54 42 55
REMARK SMILES IDX 43 56 52 58 68 59 45 60 34 61 35 62 39 63 36 64 38 65 37 66
REMARK SMILES IDX 56 67 57 68 61 69 58 70 60 71 59 72 46 73 47 74 51 75 48 76
REMARK SMILES IDX 50 77 49 78
REMARK H PARENT 15 8 5 19 66 46 44 57
REMARK Flexibility Score: inf
ROOT
ATOM      1  O   UNL A   1      34.130  20.297  24.736  1.00  0.00    -0.461 OA
ENDROOT
BRANCH   1   2
ATOM      2  C   UNL A   1      32.782  20.279  24.908  1.00  0.00     0.325 C 
ATOM      3  O   UNL A   1      32.126  19.284  25.200  1.00  0.00    -0.250 OA
BRANCH   2   4
ATOM      4  C   UNL A   1      32.177  21.685  24.874  1.00  0.00     0.239 C 
BRANCH   4   5
ATOM      5  N   UNL A   1      31.333  21.997  26.001  1.00  0.00    -0.341 N 
ATOM      6  C   UNL A   1      30.737  23.155  26.407  1.00  0.00     0.251 C 
ATOM      7  O   UNL A   1      30.034  23.086  27.417  1.00  0.00    -0.269 OA
ATOM      8  H   UNL A   1      31.154  21.229  26.590  1.00  0.00     0.164 HD
BRANCH   6   9
ATOM      9  C   UNL A   1      30.865  24.469  25.700  1.00  0.00     0.039 A 
ATOM     10  C   UNL A   1      31.107  27.069  24.656  1.00  0.00     0.082 A 
ATOM     11  C   UNL A   1      31.652  26.775  25.902  1.00  0.00     0.022 A 
ATOM     12  C   UNL A   1      30.511  26.069  23.895  1.00  0.00     0.022 A 
ATOM     13  C   UNL A   1      31.506  25.489  26.426  1.00  0.00     0.015 A 
ATOM     14  C   UNL A   1      30.418  24.770  24.407  1.00  0.00     0.015 A 
BRANCH  10  15
ATOM     15  S   UNL A   1      31.078  28.729  24.049  1.00  0.00     0.241 S 
ATOM     16  O   UNL A   1      31.868  28.779  22.840  1.00  0.00    -0.207 OA
ATOM     17  O   UNL A   1      31.372  29.580  25.181  1.00  0.00    -0.207 OA
BRANCH  15  18
ATOM     18  N   UNL A   1      29.476  29.021  23.667  1.00  0.00    -0.206 NA
ATOM     19  H   UNL A   1      29.207  28.247  23.058  1.00  0.00     0.141 HD
BRANCH  18  20
ATOM     20  C   UNL A   1      28.915  30.226  23.018  1.00  0.00     0.025 C 
ATOM     21  C   UNL A   1      29.502  30.451  21.623  1.00  0.00     0.028 C 
ATOM     22  C   UNL A   1      29.099  31.479  23.876  1.00  0.00     0.028 C 
ATOM     23  C   UNL A   1      27.405  29.953  22.864  1.00  0.00     0.028 C 
ENDBRANCH  18  20
ENDBRANCH  15  18
ENDBRANCH  10  15
ENDBRANCH   6   9
ENDBRANCH   4   5
ENDBRANCH   2   4
ENDBRANCH   1   2
BRANCH   1  24
ATOM     24  C   UNL A   1      34.795  21.539  25.025  1.00  0.00     0.274 C 
BRANCH  24  25
ATOM     25  C   UNL A   1      36.302  21.403  24.782  1.00  0.00     0.275 C 
BRANCH  25  26
ATOM     26  O   UNL A   1      37.048  21.476  26.017  1.00  0.00    -0.458 OA
BRANCH  26  27
ATOM     27  C   UNL A   1      38.390  21.393  25.885  1.00  0.00     0.338 C 
ATOM     28  O   UNL A   1      39.029  20.543  25.286  1.00  0.00    -0.246 OA
BRANCH  27  29
ATOM     29  C   UNL A   1      39.034  22.579  26.465  1.00  0.00     0.060 A 
ATOM     30  C   UNL A   1      38.589  23.840  26.066  1.00  0.00     0.016 A 
ATOM     31  C   UNL A   1      40.172  22.450  27.257  1.00  0.00     0.016 A 
ATOM     32  C   UNL A   1      39.315  24.975  26.393  1.00  0.00     0.010 A 
ATOM     33  C   UNL A   1      40.863  23.602  27.649  1.00  0.00     0.010 A 
ATOM     34  C   UNL A   1      40.454  24.869  27.197  1.00  0.00    -0.014 A 
BRANCH  34  35
ATOM     35  C   UNL A   1      41.216  26.095  27.534  1.00  0.00     0.031 A 
ATOM     36  C   UNL A   1      40.625  27.118  28.460  1.00  0.00     0.074 A 
ATOM     37  C   UNL A   1      42.454  26.267  27.030  1.00  0.00     0.049 A 
ATOM     38  N   UNL A   1      41.080  28.304  28.774  1.00  0.00    -0.248 NA
ATOM     39  C   UNL A   1      39.354  26.766  29.113  1.00  0.00     0.031 C 
ATOM     40  C   UNL A   1      43.161  25.314  26.171  1.00  0.00     0.029 A 
ATOM     41  N   UNL A   1      43.340  27.302  27.177  1.00  0.00    -0.354 N 
ATOM     42  C   UNL A   1      40.128  28.860  29.619  1.00  0.00     0.074 A 
ATOM     43  C   UNL A   1      39.072  27.883  29.771  1.00  0.00     0.031 C 
ATOM     44  C   UNL A   1      44.378  25.800  25.885  1.00  0.00     0.029 A 
ATOM     45  C   UNL A   1      44.507  27.126  26.474  1.00  0.00     0.049 A 
ATOM     46  H   UNL A   1      43.159  28.095  27.732  1.00  0.00     0.167 HD
ATOM     47  C   UNL A   1      40.134  30.080  30.207  1.00  0.00     0.031 A 
ATOM     48  C   UNL A   1      45.547  27.958  26.288  1.00  0.00     0.031 A 
ATOM     49  C   UNL A   1      41.202  31.035  30.072  1.00  0.00     0.049 A 
ATOM     50  C   UNL A   1      45.508  29.322  26.912  1.00  0.00     0.074 A 
ATOM     51  C   UNL A   1      41.313  32.292  30.640  1.00  0.00     0.029 A 
ATOM     52  N   UNL A   1      42.351  30.830  29.323  1.00  0.00    -0.354 N 
ATOM     53  N   UNL A   1      44.587  29.849  27.682  1.00  0.00    -0.248 NA
ATOM     54  C   UNL A   1      46.644  30.208  26.632  1.00  0.00     0.031 C 
ATOM     55  C   UNL A   1      42.509  32.867  30.197  1.00  0.00     0.029 A 
ATOM     56  C   UNL A   1      43.165  31.947  29.395  1.00  0.00     0.049 A 
ATOM     57  H   UNL A   1      42.557  30.013  28.815  1.00  0.00     0.167 HD
ATOM     58  C   UNL A   1      45.038  31.125  27.990  1.00  0.00     0.074 A 
ATOM     59  C   UNL A   1      46.324  31.282  27.340  1.00  0.00     0.031 C 
ATOM     60  C   UNL A   1      44.439  32.083  28.738  1.00  0.00     0.031 A 
BRANCH  47  61
ATOM     61  C   UNL A   1      38.924  30.471  31.007  1.00  0.00    -0.014 A 
ATOM     62  C   UNL A   1      38.846  30.237  32.387  1.00  0.00     0.009 A 
ATOM     63  C   UNL A   1      37.855  31.117  30.365  1.00  0.00     0.009 A 
ATOM     64  C   UNL A   1      37.707  30.615  33.103  1.00  0.00     0.001 A 
ATOM     65  C   UNL A   1      36.729  31.516  31.086  1.00  0.00     0.001 A 
ATOM     66  C   UNL A   1      36.652  31.257  32.454  1.00  0.00     0.000 A 
ENDBRANCH  47  61
BRANCH  48  67
ATOM     67  C   UNL A   1      46.684  27.542  25.426  1.00  0.00    -0.014 A 
ATOM     68  C   UNL A   1      46.717  27.891  24.067  1.00  0.00     0.009 A 
ATOM     69  C   UNL A   1      47.747  26.798  25.962  1.00  0.00     0.009 A 
ATOM     70  C   UNL A   1      47.784  27.486  23.261  1.00  0.00     0.001 A 
ATOM     71  C   UNL A   1      48.826  26.421  25.161  1.00  0.00     0.001 A 
ATOM     72  C   UNL A   1      48.839  26.758  23.809  1.00  0.00     0.000 A 
ENDBRANCH  48  67
BRANCH  60  73
ATOM     73  C   UNL A   1      45.189  33.370  28.916  1.00  0.00    -0.014 A 
ATOM     74  C   UNL A   1      46.106  33.535  29.966  1.00  0.00     0.009 A 
ATOM     75  C   UNL A   1      44.996  34.417  28.003  1.00  0.00     0.009 A 
ATOM     76  C   UNL A   1      46.792  34.740  30.115  1.00  0.00     0.001 A 
ATOM     77  C   UNL A   1      45.704  35.612  28.142  1.00  0.00     0.001 A 
ATOM     78  C   UNL A   1      46.594  35.776  29.202  1.00  0.00     0.000 A 
ENDBRANCH  60  73
ENDBRANCH  34  35
ENDBRANCH  27  29
ENDBRANCH  26  27
ENDBRANCH  25  26
ENDBRANCH  24  25
ENDBRANCH   1  24
TORSDOF 16
ENDMDL
