MODEL 1
REMARK VINA RESULT:     -10.6      0.000      0.000
REMARK SMILES COc1ccc(-n2c(=S)[nH]cc(CC(=O)OCCOC(=O)c3ccc(-c4c5nc(c(-c6ccccc6)c6ccc([nH]6)c(-c6ccccc6)c6nc(c(-c7ccccc7)c7ccc4[nH]7)C=C6)C=C5)cc3)c2=O)cc1Cl
REMARK SMILES IDX 17 1 16 2 14 3 15 4 13 5 12 6 7 7 8 8 70 9 9 10 10 11 71 12
REMARK SMILES IDX 11 13 6 15 3 16 4 17 73 18 5 19 72 20 74 21 2 22 1 23 18 24
REMARK SMILES IDX 19 25 20 26 21 27 22 28 23 29 69 30 24 31 68 32 25 33 26 34
REMARK SMILES IDX 27 35 62 36 28 37 67 38 61 39 63 40 29 41 66 42 60 43 59 44
REMARK SMILES IDX 30 46 52 47 37 48 51 49 38 50 41 51 50 52 64 53 39 54 40 55
REMARK SMILES IDX 49 57 65 58 42 59 31 60 32 61 36 62 33 63 35 64 34 65 53 66
REMARK SMILES IDX 54 67 58 68 55 69 57 70 56 71 43 72 44 73 48 74 45 75 47 76
REMARK SMILES IDX 46 77
REMARK H PARENT 10 14 63 45 41 56
REMARK Flexibility Score: inf
ROOT
ATOM      1  C   UNL A   1      42.669  20.555  26.171  1.00  0.00     0.274 C 
ENDROOT
BRANCH   1   2
ATOM      2  O   UNL A   1      41.297  20.716  25.756  1.00  0.00    -0.462 OA
BRANCH   2   3
ATOM      3  C   UNL A   1      40.454  21.256  26.674  1.00  0.00     0.310 C 
ATOM      4  O   UNL A   1      40.412  20.941  27.858  1.00  0.00    -0.252 OA
BRANCH   3   5
ATOM      5  C   UNL A   1      39.531  22.314  26.094  1.00  0.00     0.165 C 
BRANCH   5   6
ATOM      6  C   UNL A   1      38.145  21.845  25.756  1.00  0.00     0.045 A 
ATOM      7  N   UNL A   1      35.797  22.428  25.295  1.00  0.00    -0.253 N 
ATOM      8  C   UNL A   1      35.490  21.074  25.086  1.00  0.00     0.184 A 
ATOM      9  C   UNL A   1      37.075  22.873  25.660  1.00  0.00     0.262 A 
ATOM     10  S   UNL A   1      34.025  20.391  24.628  1.00  0.00    -0.040 S 
ATOM     11  N   UNL A   1      36.545  20.204  25.213  1.00  0.00    -0.338 N 
ATOM     12  O   UNL A   1      37.362  24.043  25.914  1.00  0.00    -0.269 OA
ATOM     13  C   UNL A   1      37.819  20.575  25.508  1.00  0.00     0.095 A 
ATOM     14  H   UNL A   1      36.366  19.246  25.080  1.00  0.00     0.168 HD
BRANCH   7  15
ATOM     15  C   UNL A   1      34.812  23.446  25.107  1.00  0.00     0.053 A 
ATOM     16  C   UNL A   1      32.827  25.387  24.784  1.00  0.00     0.137 A 
ATOM     17  C   UNL A   1      33.089  24.867  26.053  1.00  0.00     0.050 A 
ATOM     18  C   UNL A   1      33.574  24.960  23.681  1.00  0.00     0.085 A 
ATOM     19  C   UNL A   1      34.065  23.885  26.210  1.00  0.00     0.031 A 
ATOM     20  C   UNL A   1      34.562  23.986  23.840  1.00  0.00     0.051 A 
ATOM     21  Cl  UNL A   1      33.314  25.609  22.102  1.00  0.00    -0.080 Cl
BRANCH  16  22
ATOM     22  O   UNL A   1      31.868  26.362  24.696  1.00  0.00    -0.495 OA
ATOM     23  C   UNL A   1      30.563  25.789  24.784  1.00  0.00     0.278 C 
ENDBRANCH  16  22
ENDBRANCH   7  15
ENDBRANCH   5   6
ENDBRANCH   3   5
ENDBRANCH   2   3
ENDBRANCH   1   2
BRANCH   1  24
ATOM     24  C   UNL A   1      43.599  21.447  25.349  1.00  0.00     0.275 C 
BRANCH  24  25
ATOM     25  O   UNL A   1      42.968  22.713  25.087  1.00  0.00    -0.458 OA
BRANCH  25  26
ATOM     26  C   UNL A   1      43.779  23.792  25.083  1.00  0.00     0.338 C 
ATOM     27  O   UNL A   1      44.643  24.085  24.276  1.00  0.00    -0.246 OA
BRANCH  26  28
ATOM     28  C   UNL A   1      43.410  24.663  26.205  1.00  0.00     0.060 A 
ATOM     29  C   UNL A   1      43.858  25.981  26.234  1.00  0.00     0.016 A 
ATOM     30  C   UNL A   1      42.539  24.181  27.187  1.00  0.00     0.016 A 
ATOM     31  C   UNL A   1      43.451  26.814  27.277  1.00  0.00     0.010 A 
ATOM     32  C   UNL A   1      42.101  25.025  28.204  1.00  0.00     0.010 A 
ATOM     33  C   UNL A   1      42.566  26.344  28.264  1.00  0.00    -0.014 A 
BRANCH  33  34
ATOM     34  C   UNL A   1      42.103  27.247  29.343  1.00  0.00     0.031 A 
ATOM     35  C   UNL A   1      40.848  28.053  29.183  1.00  0.00     0.074 A 
ATOM     36  C   UNL A   1      42.821  27.331  30.477  1.00  0.00     0.049 A 
ATOM     37  N   UNL A   1      40.231  28.790  30.070  1.00  0.00    -0.248 NA
ATOM     38  C   UNL A   1      40.208  28.037  27.859  1.00  0.00     0.031 C 
ATOM     39  C   UNL A   1      44.079  26.626  30.727  1.00  0.00     0.029 A 
ATOM     40  N   UNL A   1      42.585  28.023  31.637  1.00  0.00    -0.354 N 
ATOM     41  C   UNL A   1      39.115  29.302  29.421  1.00  0.00     0.074 A 
ATOM     42  C   UNL A   1      39.177  28.849  28.050  1.00  0.00     0.031 C 
ATOM     43  C   UNL A   1      44.476  26.880  31.984  1.00  0.00     0.029 A 
ATOM     44  C   UNL A   1      43.515  27.780  32.617  1.00  0.00     0.049 A 
ATOM     45  H   UNL A   1      41.823  28.635  31.755  1.00  0.00     0.167 HD
ATOM     46  C   UNL A   1      38.114  30.055  29.934  1.00  0.00     0.031 A 
ATOM     47  C   UNL A   1      43.576  28.209  33.891  1.00  0.00     0.031 A 
ATOM     48  C   UNL A   1      38.073  30.529  31.291  1.00  0.00     0.049 A 
ATOM     49  C   UNL A   1      42.481  29.085  34.428  1.00  0.00     0.074 A 
ATOM     50  C   UNL A   1      37.088  31.279  31.911  1.00  0.00     0.029 A 
ATOM     51  N   UNL A   1      39.064  30.310  32.235  1.00  0.00    -0.354 N 
ATOM     52  N   UNL A   1      41.395  29.504  33.824  1.00  0.00    -0.248 NA
ATOM     53  C   UNL A   1      42.611  29.537  35.819  1.00  0.00     0.031 C 
ATOM     54  C   UNL A   1      37.512  31.560  33.213  1.00  0.00     0.029 A 
ATOM     55  C   UNL A   1      38.729  30.934  33.425  1.00  0.00     0.049 A 
ATOM     56  H   UNL A   1      39.886  29.788  32.082  1.00  0.00     0.167 HD
ATOM     57  C   UNL A   1      40.706  30.258  34.763  1.00  0.00     0.074 A 
ATOM     58  C   UNL A   1      41.489  30.227  35.983  1.00  0.00     0.031 C 
ATOM     59  C   UNL A   1      39.527  30.913  34.625  1.00  0.00     0.031 A 
BRANCH  46  60
ATOM     60  C   UNL A   1      36.970  30.403  29.021  1.00  0.00    -0.014 A 
ATOM     61  C   UNL A   1      36.786  31.725  28.590  1.00  0.00     0.009 A 
ATOM     62  C   UNL A   1      36.037  29.426  28.637  1.00  0.00     0.009 A 
ATOM     63  C   UNL A   1      35.689  32.062  27.792  1.00  0.00     0.001 A 
ATOM     64  C   UNL A   1      34.958  29.761  27.816  1.00  0.00     0.001 A 
ATOM     65  C   UNL A   1      34.781  31.080  27.401  1.00  0.00     0.000 A 
ENDBRANCH  46  60
BRANCH  47  66
ATOM     66  C   UNL A   1      44.695  27.745  34.751  1.00  0.00    -0.014 A 
ATOM     67  C   UNL A   1      44.560  26.590  35.539  1.00  0.00     0.009 A 
ATOM     68  C   UNL A   1      45.865  28.510  34.861  1.00  0.00     0.009 A 
ATOM     69  C   UNL A   1      45.562  26.228  36.440  1.00  0.00     0.001 A 
ATOM     70  C   UNL A   1      46.876  28.133  35.747  1.00  0.00     0.001 A 
ATOM     71  C   UNL A   1      46.719  27.000  36.544  1.00  0.00     0.000 A 
ENDBRANCH  47  66
BRANCH  59  72
ATOM     72  C   UNL A   1      39.000  31.667  35.813  1.00  0.00    -0.014 A 
ATOM     73  C   UNL A   1      38.134  31.030  36.715  1.00  0.00     0.009 A 
ATOM     74  C   UNL A   1      39.267  33.035  35.974  1.00  0.00     0.009 A 
ATOM     75  C   UNL A   1      37.530  31.752  37.747  1.00  0.00     0.001 A 
ATOM     76  C   UNL A   1      38.681  33.748  37.022  1.00  0.00     0.001 A 
ATOM     77  C   UNL A   1      37.805  33.110  37.899  1.00  0.00     0.000 A 
ENDBRANCH  59  72
ENDBRANCH  33  34
ENDBRANCH  26  28
ENDBRANCH  25  26
ENDBRANCH  24  25
ENDBRANCH   1  24
TORSDOF 14
ENDMDL
MODEL 2
REMARK VINA RESULT:     -10.3      3.708      7.386
REMARK SMILES COc1ccc(-n2c(=S)[nH]cc(CC(=O)OCCOC(=O)c3ccc(-c4c5nc(c(-c6ccccc6)c6ccc([nH]6)c(-c6ccccc6)c6nc(c(-c7ccccc7)c7ccc4[nH]7)C=C6)C=C5)cc3)c2=O)cc1Cl
REMARK SMILES IDX 17 1 16 2 14 3 15 4 13 5 12 6 7 7 8 8 70 9 9 10 10 11 71 12
REMARK SMILES IDX 11 13 6 15 3 16 4 17 73 18 5 19 72 20 74 21 2 22 1 23 18 24
REMARK SMILES IDX 19 25 20 26 21 27 22 28 23 29 69 30 24 31 68 32 25 33 26 34
REMARK SMILES IDX 27 35 62 36 28 37 67 38 61 39 63 40 29 41 66 42 60 43 59 44
REMARK SMILES IDX 30 46 52 47 37 48 51 49 38 50 41 51 50 52 64 53 39 54 40 55
REMARK SMILES IDX 49 57 65 58 42 59 31 60 32 61 36 62 33 63 35 64 34 65 53 66
REMARK SMILES IDX 54 67 58 68 55 69 57 70 56 71 43 72 44 73 48 74 45 75 47 76
REMARK SMILES IDX 46 77
REMARK H PARENT 10 14 63 45 41 56
REMARK Flexibility Score: inf
ROOT
ATOM      1  C   UNL A   1      38.535  21.048  25.595  1.00  0.00     0.274 C 
ENDROOT
BRANCH   1   2
ATOM      2  O   UNL A   1      37.554  21.298  24.568  1.00  0.00    -0.462 OA
BRANCH   2   3
ATOM      3  C   UNL A   1      37.020  22.547  24.542  1.00  0.00     0.310 C 
ATOM      4  O   UNL A   1      37.458  23.510  25.163  1.00  0.00    -0.252 OA
BRANCH   3   5
ATOM      5  C   UNL A   1      35.790  22.658  23.658  1.00  0.00     0.165 C 
BRANCH   5   6
ATOM      6  C   UNL A   1      34.493  22.875  24.383  1.00  0.00     0.045 A 
ATOM      7  N   UNL A   1      32.596  24.369  24.869  1.00  0.00    -0.253 N 
ATOM      8  C   UNL A   1      32.013  23.384  25.682  1.00  0.00     0.184 A 
ATOM      9  C   UNL A   1      33.831  24.197  24.228  1.00  0.00     0.262 A 
ATOM     10  S   UNL A   1      30.543  23.431  26.494  1.00  0.00    -0.040 S 
ATOM     11  N   UNL A   1      32.712  22.205  25.771  1.00  0.00    -0.338 N 
ATOM     12  O   UNL A   1      34.400  25.063  23.562  1.00  0.00    -0.269 OA
ATOM     13  C   UNL A   1      33.883  21.952  25.131  1.00  0.00     0.095 A 
ATOM     14  H   UNL A   1      32.337  21.493  26.338  1.00  0.00     0.168 HD
BRANCH   7  15
ATOM     15  C   UNL A   1      31.931  25.609  24.619  1.00  0.00     0.053 A 
ATOM     16  C   UNL A   1      30.661  28.032  24.046  1.00  0.00     0.137 A 
ATOM     17  C   UNL A   1      30.457  26.928  23.216  1.00  0.00     0.050 A 
ATOM     18  C   UNL A   1      31.476  27.920  25.178  1.00  0.00     0.085 A 
ATOM     19  C   UNL A   1      31.106  25.727  23.491  1.00  0.00     0.031 A 
ATOM     20  C   UNL A   1      32.116  26.712  25.461  1.00  0.00     0.051 A 
ATOM     21  Cl  UNL A   1      31.720  29.247  26.255  1.00  0.00    -0.080 Cl
BRANCH  16  22
ATOM     22  O   UNL A   1      29.982  29.180  23.734  1.00  0.00    -0.495 OA
ATOM     23  C   UNL A   1      30.011  29.411  22.324  1.00  0.00     0.278 C 
ENDBRANCH  16  22
ENDBRANCH   7  15
ENDBRANCH   5   6
ENDBRANCH   3   5
ENDBRANCH   2   3
ENDBRANCH   1   2
BRANCH   1  24
ATOM     24  C   UNL A   1      39.301  19.755  25.317  1.00  0.00     0.275 C 
BRANCH  24  25
ATOM     25  O   UNL A   1      40.308  19.550  26.324  1.00  0.00    -0.458 OA
BRANCH  25  26
ATOM     26  C   UNL A   1      41.577  19.840  25.964  1.00  0.00     0.338 C 
ATOM     27  O   UNL A   1      42.317  19.212  25.228  1.00  0.00    -0.246 OA
BRANCH  26  28
ATOM     28  C   UNL A   1      41.947  21.134  26.549  1.00  0.00     0.060 A 
ATOM     29  C   UNL A   1      42.251  22.208  25.715  1.00  0.00     0.016 A 
ATOM     30  C   UNL A   1      41.905  21.295  27.937  1.00  0.00     0.016 A 
ATOM     31  C   UNL A   1      42.545  23.447  26.285  1.00  0.00     0.010 A 
ATOM     32  C   UNL A   1      42.157  22.542  28.501  1.00  0.00     0.010 A 
ATOM     33  C   UNL A   1      42.493  23.624  27.679  1.00  0.00    -0.014 A 
BRANCH  33  34
ATOM     34  C   UNL A   1      42.763  24.954  28.274  1.00  0.00     0.031 A 
ATOM     35  C   UNL A   1      44.161  25.368  28.623  1.00  0.00     0.074 A 
ATOM     36  C   UNL A   1      41.734  25.792  28.493  1.00  0.00     0.049 A 
ATOM     37  N   UNL A   1      44.591  26.536  29.027  1.00  0.00    -0.248 NA
ATOM     38  C   UNL A   1      45.210  24.343  28.511  1.00  0.00     0.031 C 
ATOM     39  C   UNL A   1      40.328  25.480  28.232  1.00  0.00     0.029 A 
ATOM     40  N   UNL A   1      41.713  27.082  28.959  1.00  0.00    -0.354 N 
ATOM     41  C   UNL A   1      45.963  26.395  29.190  1.00  0.00     0.074 A 
ATOM     42  C   UNL A   1      46.283  25.013  28.909  1.00  0.00     0.031 C 
ATOM     43  C   UNL A   1      39.586  26.568  28.491  1.00  0.00     0.029 A 
ATOM     44  C   UNL A   1      40.460  27.643  28.956  1.00  0.00     0.049 A 
ATOM     45  H   UNL A   1      42.518  27.558  29.266  1.00  0.00     0.167 HD
ATOM     46  C   UNL A   1      46.875  27.341  29.514  1.00  0.00     0.031 A 
ATOM     47  C   UNL A   1      40.060  28.890  29.265  1.00  0.00     0.031 A 
ATOM     48  C   UNL A   1      46.547  28.707  29.823  1.00  0.00     0.049 A 
ATOM     49  C   UNL A   1      41.081  29.913  29.670  1.00  0.00     0.074 A 
ATOM     50  C   UNL A   1      47.404  29.747  30.141  1.00  0.00     0.029 A 
ATOM     51  N   UNL A   1      45.260  29.221  29.867  1.00  0.00    -0.354 N 
ATOM     52  N   UNL A   1      42.383  29.785  29.752  1.00  0.00    -0.248 NA
ATOM     53  C   UNL A   1      40.583  31.252  30.013  1.00  0.00     0.031 C 
ATOM     54  C   UNL A   1      46.631  30.875  30.430  1.00  0.00     0.029 A 
ATOM     55  C   UNL A   1      45.297  30.555  30.233  1.00  0.00     0.049 A 
ATOM     56  H   UNL A   1      44.441  28.711  29.667  1.00  0.00     0.167 HD
ATOM     57  C   UNL A   1      42.863  31.028  30.143  1.00  0.00     0.074 A 
ATOM     58  C   UNL A   1      41.713  31.901  30.269  1.00  0.00     0.031 C 
ATOM     59  C   UNL A   1      44.144  31.408  30.374  1.00  0.00     0.031 A 
BRANCH  46  60
ATOM     60  C   UNL A   1      48.322  26.931  29.538  1.00  0.00    -0.014 A 
ATOM     61  C   UNL A   1      49.099  27.008  28.372  1.00  0.00     0.009 A 
ATOM     62  C   UNL A   1      48.900  26.409  30.706  1.00  0.00     0.009 A 
ATOM     63  C   UNL A   1      50.426  26.571  28.377  1.00  0.00     0.001 A 
ATOM     64  C   UNL A   1      50.234  25.999  30.715  1.00  0.00     0.001 A 
ATOM     65  C   UNL A   1      50.994  26.073  29.549  1.00  0.00     0.000 A 
ENDBRANCH  46  60
BRANCH  47  66
ATOM     66  C   UNL A   1      38.622  29.236  29.129  1.00  0.00    -0.014 A 
ATOM     67  C   UNL A   1      38.123  29.758  27.924  1.00  0.00     0.009 A 
ATOM     68  C   UNL A   1      37.764  29.136  30.234  1.00  0.00     0.009 A 
ATOM     69  C   UNL A   1      36.802  30.201  27.839  1.00  0.00     0.001 A 
ATOM     70  C   UNL A   1      36.437  29.559  30.139  1.00  0.00     0.001 A 
ATOM     71  C   UNL A   1      35.959  30.101  28.946  1.00  0.00     0.000 A 
ENDBRANCH  47  66
BRANCH  59  72
ATOM     72  C   UNL A   1      44.388  32.829  30.798  1.00  0.00    -0.014 A 
ATOM     73  C   UNL A   1      44.346  33.168  32.160  1.00  0.00     0.009 A 
ATOM     74  C   UNL A   1      44.546  33.847  29.846  1.00  0.00     0.009 A 
ATOM     75  C   UNL A   1      44.438  34.502  32.560  1.00  0.00     0.001 A 
ATOM     76  C   UNL A   1      44.664  35.178  30.252  1.00  0.00     0.001 A 
ATOM     77  C   UNL A   1      44.598  35.505  31.606  1.00  0.00     0.000 A 
ENDBRANCH  59  72
ENDBRANCH  33  34
ENDBRANCH  26  28
ENDBRANCH  25  26
ENDBRANCH  24  25
ENDBRANCH   1  24
TORSDOF 14
ENDMDL
MODEL 3
REMARK VINA RESULT:     -10.3      5.127     10.322
REMARK SMILES COc1ccc(-n2c(=S)[nH]cc(CC(=O)OCCOC(=O)c3ccc(-c4c5nc(c(-c6ccccc6)c6ccc([nH]6)c(-c6ccccc6)c6nc(c(-c7ccccc7)c7ccc4[nH]7)C=C6)C=C5)cc3)c2=O)cc1Cl
REMARK SMILES IDX 17 1 16 2 14 3 15 4 13 5 12 6 7 7 8 8 70 9 9 10 10 11 71 12
REMARK SMILES IDX 11 13 6 15 3 16 4 17 73 18 5 19 72 20 74 21 2 22 1 23 18 24
REMARK SMILES IDX 19 25 20 26 21 27 22 28 23 29 69 30 24 31 68 32 25 33 26 34
REMARK SMILES IDX 27 35 62 36 28 37 67 38 61 39 63 40 29 41 66 42 60 43 59 44
REMARK SMILES IDX 30 46 52 47 37 48 51 49 38 50 41 51 50 52 64 53 39 54 40 55
REMARK SMILES IDX 49 57 65 58 42 59 31 60 32 61 36 62 33 63 35 64 34 65 53 66
REMARK SMILES IDX 54 67 58 68 55 69 57 70 56 71 43 72 44 73 48 74 45 75 47 76
REMARK SMILES IDX 46 77
REMARK H PARENT 10 14 63 45 41 56
REMARK Flexibility Score: inf
ROOT
ATOM      1  C   UNL A   1      33.706  34.992  31.723  1.00  0.00     0.274 C 
ENDROOT
BRANCH   1   2
ATOM      2  O   UNL A   1      33.274  34.402  30.479  1.00  0.00    -0.462 OA
BRANCH   2   3
ATOM      3  C   UNL A   1      33.032  35.267  29.460  1.00  0.00     0.310 C 
ATOM      4  O   UNL A   1      32.950  36.485  29.578  1.00  0.00    -0.252 OA
BRANCH   3   5
ATOM      5  C   UNL A   1      32.857  34.581  28.117  1.00  0.00     0.165 C 
BRANCH   5   6
ATOM      6  C   UNL A   1      33.579  33.273  27.962  1.00  0.00     0.045 A 
ATOM      7  N   UNL A   1      33.514  30.924  27.222  1.00  0.00    -0.253 N 
ATOM      8  C   UNL A   1      34.857  30.758  27.593  1.00  0.00     0.184 A 
ATOM      9  C   UNL A   1      32.814  32.125  27.408  1.00  0.00     0.262 A 
ATOM     10  S   UNL A   1      35.831  29.400  27.418  1.00  0.00    -0.040 S 
ATOM     11  N   UNL A   1      35.469  31.874  28.109  1.00  0.00    -0.338 N 
ATOM     12  O   UNL A   1      31.619  32.285  27.154  1.00  0.00    -0.269 OA
ATOM     13  C   UNL A   1      34.866  33.082  28.262  1.00  0.00     0.095 A 
ATOM     14  H   UNL A   1      36.409  31.793  28.387  1.00  0.00     0.168 HD
BRANCH   7  15
ATOM     15  C   UNL A   1      32.785  29.869  26.591  1.00  0.00     0.053 A 
ATOM     16  C   UNL A   1      31.405  27.747  25.407  1.00  0.00     0.137 A 
ATOM     17  C   UNL A   1      31.471  27.841  26.798  1.00  0.00     0.050 A 
ATOM     18  C   UNL A   1      32.003  28.726  24.606  1.00  0.00     0.085 A 
ATOM     19  C   UNL A   1      32.175  28.888  27.387  1.00  0.00     0.031 A 
ATOM     20  C   UNL A   1      32.698  29.784  25.197  1.00  0.00     0.051 A 
ATOM     21  Cl  UNL A   1      31.907  28.673  22.883  1.00  0.00    -0.080 Cl
BRANCH  16  22
ATOM     22  O   UNL A   1      30.683  26.705  24.886  1.00  0.00    -0.495 OA
ATOM     23  C   UNL A   1      30.226  25.843  25.929  1.00  0.00     0.278 C 
ENDBRANCH  16  22
ENDBRANCH   7  15
ENDBRANCH   5   6
ENDBRANCH   3   5
ENDBRANCH   2   3
ENDBRANCH   1   2
BRANCH   1  24
ATOM     24  C   UNL A   1      35.151  34.609  32.038  1.00  0.00     0.275 C 
BRANCH  24  25
ATOM     25  O   UNL A   1      35.345  33.197  31.840  1.00  0.00    -0.458 OA
BRANCH  25  26
ATOM     26  C   UNL A   1      36.153  32.577  32.726  1.00  0.00     0.338 C 
ATOM     27  O   UNL A   1      36.004  32.457  33.929  1.00  0.00    -0.246 OA
BRANCH  26  28
ATOM     28  C   UNL A   1      37.267  31.960  31.996  1.00  0.00     0.060 A 
ATOM     29  C   UNL A   1      37.465  32.266  30.651  1.00  0.00     0.016 A 
ATOM     30  C   UNL A   1      38.165  31.140  32.684  1.00  0.00     0.016 A 
ATOM     31  C   UNL A   1      38.562  31.717  29.986  1.00  0.00     0.010 A 
ATOM     32  C   UNL A   1      39.281  30.627  32.030  1.00  0.00     0.010 A 
ATOM     33  C   UNL A   1      39.480  30.900  30.671  1.00  0.00    -0.014 A 
BRANCH  33  34
ATOM     34  C   UNL A   1      40.665  30.358  29.969  1.00  0.00     0.031 A 
ATOM     35  C   UNL A   1      40.644  28.977  29.383  1.00  0.00     0.074 A 
ATOM     36  C   UNL A   1      41.766  31.124  29.857  1.00  0.00     0.049 A 
ATOM     37  N   UNL A   1      41.541  28.395  28.628  1.00  0.00    -0.248 NA
ATOM     38  C   UNL A   1      39.474  28.140  29.686  1.00  0.00     0.031 C 
ATOM     39  C   UNL A   1      41.916  32.464  30.424  1.00  0.00     0.029 A 
ATOM     40  N   UNL A   1      42.953  30.895  29.210  1.00  0.00    -0.354 N 
ATOM     41  C   UNL A   1      41.030  27.136  28.342  1.00  0.00     0.074 A 
ATOM     42  C   UNL A   1      39.780  27.012  29.060  1.00  0.00     0.031 C 
ATOM     43  C   UNL A   1      43.106  32.961  30.054  1.00  0.00     0.029 A 
ATOM     44  C   UNL A   1      43.809  31.968  29.245  1.00  0.00     0.049 A 
ATOM     45  H   UNL A   1      43.171  30.045  28.764  1.00  0.00     0.167 HD
ATOM     46  C   UNL A   1      41.543  26.183  27.529  1.00  0.00     0.031 A 
ATOM     47  C   UNL A   1      45.012  32.147  28.670  1.00  0.00     0.031 A 
ATOM     48  C   UNL A   1      42.801  26.299  26.842  1.00  0.00     0.049 A 
ATOM     49  C   UNL A   1      45.588  31.058  27.811  1.00  0.00     0.074 A 
ATOM     50  C   UNL A   1      43.395  25.396  25.977  1.00  0.00     0.029 A 
ATOM     51  N   UNL A   1      43.665  27.378  26.951  1.00  0.00    -0.354 N 
ATOM     52  N   UNL A   1      45.062  29.900  27.492  1.00  0.00    -0.248 NA
ATOM     53  C   UNL A   1      46.912  31.303  27.224  1.00  0.00     0.031 C 
ATOM     54  C   UNL A   1      44.644  25.905  25.608  1.00  0.00     0.029 A 
ATOM     55  C   UNL A   1      44.800  27.152  26.192  1.00  0.00     0.049 A 
ATOM     56  H   UNL A   1      43.496  28.185  27.490  1.00  0.00     0.167 HD
ATOM     57  C   UNL A   1      45.983  29.282  26.658  1.00  0.00     0.074 A 
ATOM     58  C   UNL A   1      47.095  30.200  26.508  1.00  0.00     0.031 C 
ATOM     59  C   UNL A   1      45.909  28.064  26.068  1.00  0.00     0.031 A 
BRANCH  46  60
ATOM     60  C   UNL A   1      40.732  24.932  27.328  1.00  0.00    -0.014 A 
ATOM     61  C   UNL A   1      41.168  23.712  27.865  1.00  0.00     0.009 A 
ATOM     62  C   UNL A   1      39.562  24.954  26.551  1.00  0.00     0.009 A 
ATOM     63  C   UNL A   1      40.449  22.538  27.629  1.00  0.00     0.001 A 
ATOM     64  C   UNL A   1      38.830  23.784  26.339  1.00  0.00     0.001 A 
ATOM     65  C   UNL A   1      39.278  22.576  26.872  1.00  0.00     0.000 A 
ENDBRANCH  46  60
BRANCH  47  66
ATOM     66  C   UNL A   1      45.705  33.448  28.847  1.00  0.00    -0.014 A 
ATOM     67  C   UNL A   1      46.490  33.692  29.986  1.00  0.00     0.009 A 
ATOM     68  C   UNL A   1      45.506  34.485  27.924  1.00  0.00     0.009 A 
ATOM     69  C   UNL A   1      47.036  34.956  30.212  1.00  0.00     0.001 A 
ATOM     70  C   UNL A   1      46.072  35.743  28.141  1.00  0.00     0.001 A 
ATOM     71  C   UNL A   1      46.827  35.982  29.290  1.00  0.00     0.000 A 
ENDBRANCH  47  66
BRANCH  59  72
ATOM     72  C   UNL A   1      47.062  27.630  25.207  1.00  0.00    -0.014 A 
ATOM     73  C   UNL A   1      47.038  27.888  23.827  1.00  0.00     0.009 A 
ATOM     74  C   UNL A   1      48.112  26.867  25.741  1.00  0.00     0.009 A 
ATOM     75  C   UNL A   1      48.035  27.376  22.995  1.00  0.00     0.001 A 
ATOM     76  C   UNL A   1      49.120  26.377  24.908  1.00  0.00     0.001 A 
ATOM     77  C   UNL A   1      49.075  26.622  23.536  1.00  0.00     0.000 A 
ENDBRANCH  59  72
ENDBRANCH  33  34
ENDBRANCH  26  28
ENDBRANCH  25  26
ENDBRANCH  24  25
ENDBRANCH   1  24
TORSDOF 14
ENDMDL
