MODEL 1
REMARK VINA RESULT:     -10.9      0.000      0.000
REMARK SMILES COc1ccc([C@H](C)[N@H+]2CC[C@H](C(=O)OCCOC(=O)c3ccc(-c4c5nc(c(-c6ccccc6)c6ccc([nH]6)c(-c6ccccc6)c6nc(c(-c7ccccc7)c7ccc4[nH]7)C=C6)C=C5)cc3)[C@@H]2C)cc1
REMARK SMILES IDX 16 1 15 2 13 3 14 4 12 5 9 6 10 7 69 8 11 10 70 11 7 12 8 13
REMARK SMILES IDX 6 14 3 15 4 16 72 17 5 18 71 19 2 20 1 21 17 22 18 23 19 24
REMARK SMILES IDX 20 25 21 26 22 27 68 28 23 29 67 30 24 31 25 32 26 33 61 34
REMARK SMILES IDX 27 35 66 36 60 37 62 38 28 39 65 40 59 41 58 42 29 44 51 45
REMARK SMILES IDX 36 46 50 47 37 48 40 49 49 50 63 51 38 52 39 53 48 55 64 56
REMARK SMILES IDX 41 57 30 58 31 59 35 60 32 61 34 62 33 63 52 64 53 65 57 66
REMARK SMILES IDX 54 67 56 68 55 69 42 70 43 71 47 72 44 73 46 74 45 75
REMARK H PARENT 9 9 62 43 40 54
REMARK Flexibility Score: inf
ROOT
ATOM      1  C   UNL A   1      34.838  21.300  25.207  1.00  0.00     0.274 C 
ENDROOT
BRANCH   1   2
ATOM      2  O   UNL A   1      34.747  21.850  26.534  1.00  0.00    -0.462 OA
BRANCH   2   3
ATOM      3  C   UNL A   1      33.571  22.465  26.877  1.00  0.00     0.315 C 
ATOM      4  O   UNL A   1      33.153  22.578  28.011  1.00  0.00    -0.252 OA
BRANCH   3   5
ATOM      5  C   UNL A   1      32.837  22.860  25.603  1.00  0.00     0.162 C 
ATOM      6  N   UNL A   1      31.829  25.031  25.772  1.00  0.00    -0.326 N 
ATOM      7  C   UNL A   1      30.905  24.055  26.351  1.00  0.00     0.264 C 
ATOM      8  C   UNL A   1      32.930  24.309  25.120  1.00  0.00     0.196 C 
ATOM      9  H   UNL A   1      32.227  25.576  26.537  1.00  0.00     0.348 HD
ATOM     10  C   UNL A   1      31.342  22.695  25.834  1.00  0.00     0.083 C 
ATOM     11  C   UNL A   1      34.250  25.026  25.320  1.00  0.00     0.076 C 
BRANCH   6  12
ATOM     12  C   UNL A   1      31.235  26.158  25.032  1.00  0.00     0.212 C 
ATOM     13  C   UNL A   1      29.722  26.011  24.781  1.00  0.00     0.081 C 
BRANCH  12  14
ATOM     14  C   UNL A   1      31.615  27.497  25.672  1.00  0.00     0.009 A 
ATOM     15  C   UNL A   1      32.496  29.975  26.699  1.00  0.00     0.118 A 
ATOM     16  C   UNL A   1      31.827  29.916  25.477  1.00  0.00     0.047 A 
ATOM     17  C   UNL A   1      32.681  28.807  27.434  1.00  0.00     0.047 A 
ATOM     18  C   UNL A   1      31.400  28.689  24.961  1.00  0.00     0.013 A 
ATOM     19  C   UNL A   1      32.245  27.581  26.925  1.00  0.00     0.013 A 
BRANCH  15  20
ATOM     20  O   UNL A   1      32.913  31.217  27.091  1.00  0.00    -0.497 OA
ATOM     21  C   UNL A   1      34.022  31.226  27.986  1.00  0.00     0.278 C 
ENDBRANCH  15  20
ENDBRANCH  12  14
ENDBRANCH   6  12
ENDBRANCH   3   5
ENDBRANCH   2   3
ENDBRANCH   1   2
BRANCH   1  22
ATOM     22  C   UNL A   1      36.160  20.564  25.001  1.00  0.00     0.275 C 
BRANCH  22  23
ATOM     23  O   UNL A   1      37.241  21.503  24.866  1.00  0.00    -0.458 OA
BRANCH  23  24
ATOM     24  C   UNL A   1      38.389  21.143  25.480  1.00  0.00     0.338 C 
ATOM     25  O   UNL A   1      38.991  20.083  25.375  1.00  0.00    -0.246 OA
BRANCH  24  26
ATOM     26  C   UNL A   1      38.911  22.255  26.282  1.00  0.00     0.060 A 
ATOM     27  C   UNL A   1      38.320  23.501  26.125  1.00  0.00     0.016 A 
ATOM     28  C   UNL A   1      40.111  22.132  26.975  1.00  0.00     0.016 A 
ATOM     29  C   UNL A   1      39.014  24.651  26.495  1.00  0.00     0.010 A 
ATOM     30  C   UNL A   1      40.740  23.285  27.469  1.00  0.00     0.010 A 
ATOM     31  C   UNL A   1      40.241  24.567  27.169  1.00  0.00    -0.014 A 
BRANCH  31  32
ATOM     32  C   UNL A   1      41.038  25.799  27.465  1.00  0.00     0.031 A 
ATOM     33  C   UNL A   1      40.513  26.825  28.444  1.00  0.00     0.074 A 
ATOM     34  C   UNL A   1      42.252  26.005  26.911  1.00  0.00     0.049 A 
ATOM     35  N   UNL A   1      40.928  28.049  28.667  1.00  0.00    -0.248 NA
ATOM     36  C   UNL A   1      39.359  26.431  29.269  1.00  0.00     0.031 C 
ATOM     37  C   UNL A   1      42.948  25.089  26.006  1.00  0.00     0.029 A 
ATOM     38  N   UNL A   1      43.129  27.056  27.050  1.00  0.00    -0.354 N 
ATOM     39  C   UNL A   1      40.032  28.595  29.581  1.00  0.00     0.074 A 
ATOM     40  C   UNL A   1      39.059  27.567  29.881  1.00  0.00     0.031 C 
ATOM     41  C   UNL A   1      44.167  25.579  25.733  1.00  0.00     0.029 A 
ATOM     42  C   UNL A   1      44.296  26.896  26.342  1.00  0.00     0.049 A 
ATOM     43  H   UNL A   1      42.939  27.846  27.606  1.00  0.00     0.167 HD
ATOM     44  C   UNL A   1      40.013  29.840  30.117  1.00  0.00     0.031 A 
ATOM     45  C   UNL A   1      45.338  27.728  26.159  1.00  0.00     0.031 A 
ATOM     46  C   UNL A   1      41.024  30.840  29.886  1.00  0.00     0.049 A 
ATOM     47  C   UNL A   1      45.300  29.104  26.757  1.00  0.00     0.074 A 
ATOM     48  C   UNL A   1      41.086  32.135  30.372  1.00  0.00     0.029 A 
ATOM     49  N   UNL A   1      42.172  30.640  29.135  1.00  0.00    -0.354 N 
ATOM     50  N   UNL A   1      44.381  29.651  27.514  1.00  0.00    -0.248 NA
ATOM     51  C   UNL A   1      46.437  29.986  26.454  1.00  0.00     0.031 C 
ATOM     52  C   UNL A   1      42.261  32.727  29.896  1.00  0.00     0.029 A 
ATOM     53  C   UNL A   1      42.951  31.786  29.151  1.00  0.00     0.049 A 
ATOM     54  H   UNL A   1      42.398  29.809  28.661  1.00  0.00     0.167 HD
ATOM     55  C   UNL A   1      44.832  30.935  27.786  1.00  0.00     0.074 A 
ATOM     56  C   UNL A   1      46.118  31.078  27.135  1.00  0.00     0.031 C 
ATOM     57  C   UNL A   1      44.230  31.913  28.506  1.00  0.00     0.031 A 
BRANCH  44  58
ATOM     58  C   UNL A   1      38.830  30.214  30.968  1.00  0.00    -0.014 A 
ATOM     59  C   UNL A   1      37.640  30.706  30.411  1.00  0.00     0.009 A 
ATOM     60  C   UNL A   1      38.905  30.038  32.359  1.00  0.00     0.009 A 
ATOM     61  C   UNL A   1      36.564  31.048  31.236  1.00  0.00     0.001 A 
ATOM     62  C   UNL A   1      37.819  30.353  33.177  1.00  0.00     0.001 A 
ATOM     63  C   UNL A   1      36.653  30.869  32.615  1.00  0.00     0.000 A 
ENDBRANCH  44  58
BRANCH  45  64
ATOM     64  C   UNL A   1      46.490  27.301  25.319  1.00  0.00    -0.014 A 
ATOM     65  C   UNL A   1      47.415  26.364  25.801  1.00  0.00     0.009 A 
ATOM     66  C   UNL A   1      46.665  27.827  24.030  1.00  0.00     0.009 A 
ATOM     67  C   UNL A   1      48.501  25.973  25.013  1.00  0.00     0.001 A 
ATOM     68  C   UNL A   1      47.731  27.411  23.231  1.00  0.00     0.001 A 
ATOM     69  C   UNL A   1      48.653  26.490  23.727  1.00  0.00     0.000 A 
ENDBRANCH  45  64
BRANCH  57  70
ATOM     70  C   UNL A   1      44.983  33.203  28.663  1.00  0.00    -0.014 A 
ATOM     71  C   UNL A   1      44.795  34.272  27.774  1.00  0.00     0.009 A 
ATOM     72  C   UNL A   1      45.889  33.349  29.724  1.00  0.00     0.009 A 
ATOM     73  C   UNL A   1      45.532  35.449  27.922  1.00  0.00     0.001 A 
ATOM     74  C   UNL A   1      46.606  34.535  29.883  1.00  0.00     0.001 A 
ATOM     75  C   UNL A   1      46.436  35.579  28.975  1.00  0.00     0.000 A 
ENDBRANCH  57  70
ENDBRANCH  31  32
ENDBRANCH  24  26
ENDBRANCH  23  24
ENDBRANCH  22  23
ENDBRANCH   1  22
TORSDOF 14
ENDMDL
MODEL 2
REMARK VINA RESULT:     -10.9      3.603      9.071
REMARK SMILES COc1ccc([C@H](C)[N@H+]2CC[C@H](C(=O)OCCOC(=O)c3ccc(-c4c5nc(c(-c6ccccc6)c6ccc([nH]6)c(-c6ccccc6)c6nc(c(-c7ccccc7)c7ccc4[nH]7)C=C6)C=C5)cc3)[C@@H]2C)cc1
REMARK SMILES IDX 16 1 15 2 13 3 14 4 12 5 9 6 10 7 69 8 11 10 70 11 7 12 8 13
REMARK SMILES IDX 6 14 3 15 4 16 72 17 5 18 71 19 2 20 1 21 17 22 18 23 19 24
REMARK SMILES IDX 20 25 21 26 22 27 68 28 23 29 67 30 24 31 25 32 26 33 61 34
REMARK SMILES IDX 27 35 66 36 60 37 62 38 28 39 65 40 59 41 58 42 29 44 51 45
REMARK SMILES IDX 36 46 50 47 37 48 40 49 49 50 63 51 38 52 39 53 48 55 64 56
REMARK SMILES IDX 41 57 30 58 31 59 35 60 32 61 34 62 33 63 52 64 53 65 57 66
REMARK SMILES IDX 54 67 56 68 55 69 42 70 43 71 47 72 44 73 46 74 45 75
REMARK H PARENT 9 9 62 43 40 54
REMARK Flexibility Score: inf
ROOT
ATOM      1  C   UNL A   1      31.034  28.849  25.021  1.00  0.00     0.274 C 
ENDROOT
BRANCH   1   2
ATOM      2  O   UNL A   1      31.782  28.176  23.992  1.00  0.00    -0.462 OA
BRANCH   2   3
ATOM      3  C   UNL A   1      31.948  26.822  24.124  1.00  0.00     0.315 C 
ATOM      4  O   UNL A   1      31.046  26.024  24.275  1.00  0.00    -0.252 OA
BRANCH   3   5
ATOM      5  C   UNL A   1      33.439  26.516  24.175  1.00  0.00     0.162 C 
ATOM      6  N   UNL A   1      33.875  24.205  24.653  1.00  0.00    -0.326 N 
ATOM      7  C   UNL A   1      33.676  24.902  25.925  1.00  0.00     0.264 C 
ATOM      8  C   UNL A   1      33.940  25.200  23.574  1.00  0.00     0.196 C 
ATOM      9  H   UNL A   1      33.055  23.621  24.487  1.00  0.00     0.348 HD
ATOM     10  C   UNL A   1      33.857  26.382  25.632  1.00  0.00     0.083 C 
ATOM     11  C   UNL A   1      33.248  24.698  22.323  1.00  0.00     0.076 C 
BRANCH   6  12
ATOM     12  C   UNL A   1      34.878  23.125  24.632  1.00  0.00     0.212 C 
ATOM     13  C   UNL A   1      35.963  23.261  25.716  1.00  0.00     0.081 C 
BRANCH  12  14
ATOM     14  C   UNL A   1      34.204  21.749  24.619  1.00  0.00     0.009 A 
ATOM     15  C   UNL A   1      32.866  19.270  24.806  1.00  0.00     0.118 A 
ATOM     16  C   UNL A   1      32.160  20.430  24.489  1.00  0.00     0.047 A 
ATOM     17  C   UNL A   1      34.246  19.335  24.978  1.00  0.00     0.047 A 
ATOM     18  C   UNL A   1      32.818  21.661  24.408  1.00  0.00     0.013 A 
ATOM     19  C   UNL A   1      34.907  20.563  24.886  1.00  0.00     0.013 A 
BRANCH  15  20
ATOM     20  O   UNL A   1      32.121  18.128  24.906  1.00  0.00    -0.497 OA
ATOM     21  C   UNL A   1      32.866  16.915  24.836  1.00  0.00     0.278 C 
ENDBRANCH  15  20
ENDBRANCH  12  14
ENDBRANCH   6  12
ENDBRANCH   3   5
ENDBRANCH   2   3
ENDBRANCH   1   2
BRANCH   1  22
ATOM     22  C   UNL A   1      31.690  30.173  25.408  1.00  0.00     0.275 C 
BRANCH  22  23
ATOM     23  O   UNL A   1      32.391  30.038  26.656  1.00  0.00    -0.458 OA
BRANCH  23  24
ATOM     24  C   UNL A   1      32.966  31.172  27.113  1.00  0.00     0.338 C 
ATOM     25  O   UNL A   1      32.426  32.249  27.327  1.00  0.00    -0.246 OA
BRANCH  24  26
ATOM     26  C   UNL A   1      34.383  30.941  27.413  1.00  0.00     0.060 A 
ATOM     27  C   UNL A   1      34.814  29.629  27.536  1.00  0.00     0.016 A 
ATOM     28  C   UNL A   1      35.205  31.989  27.817  1.00  0.00     0.016 A 
ATOM     29  C   UNL A   1      35.988  29.344  28.231  1.00  0.00     0.010 A 
ATOM     30  C   UNL A   1      36.452  31.701  28.392  1.00  0.00     0.010 A 
ATOM     31  C   UNL A   1      36.828  30.374  28.678  1.00  0.00    -0.014 A 
BRANCH  31  32
ATOM     32  C   UNL A   1      38.028  30.072  29.521  1.00  0.00     0.031 A 
ATOM     33  C   UNL A   1      39.202  29.326  28.929  1.00  0.00     0.074 A 
ATOM     34  C   UNL A   1      38.116  30.493  30.801  1.00  0.00     0.049 A 
ATOM     35  N   UNL A   1      40.225  28.771  29.534  1.00  0.00    -0.248 NA
ATOM     36  C   UNL A   1      39.221  29.165  27.466  1.00  0.00     0.031 C 
ATOM     37  C   UNL A   1      37.116  31.290  31.512  1.00  0.00     0.029 A 
ATOM     38  N   UNL A   1      39.117  30.321  31.729  1.00  0.00    -0.354 N 
ATOM     39  C   UNL A   1      40.950  28.121  28.541  1.00  0.00     0.074 A 
ATOM     40  C   UNL A   1      40.258  28.359  27.292  1.00  0.00     0.031 C 
ATOM     41  C   UNL A   1      37.583  31.600  32.732  1.00  0.00     0.029 A 
ATOM     42  C   UNL A   1      38.859  30.926  32.936  1.00  0.00     0.049 A 
ATOM     43  H   UNL A   1      39.940  29.813  31.546  1.00  0.00     0.167 HD
ATOM     44  C   UNL A   1      42.082  27.384  28.656  1.00  0.00     0.031 A 
ATOM     45  C   UNL A   1      39.541  30.909  34.096  1.00  0.00     0.031 A 
ATOM     46  C   UNL A   1      42.820  27.212  29.881  1.00  0.00     0.049 A 
ATOM     47  C   UNL A   1      40.792  30.087  34.206  1.00  0.00     0.074 A 
ATOM     48  C   UNL A   1      43.971  26.474  30.101  1.00  0.00     0.029 A 
ATOM     49  N   UNL A   1      42.500  27.820  31.084  1.00  0.00    -0.354 N 
ATOM     50  N   UNL A   1      41.394  29.372  33.289  1.00  0.00    -0.248 NA
ATOM     51  C   UNL A   1      41.444  30.054  35.524  1.00  0.00     0.031 C 
ATOM     52  C   UNL A   1      44.334  26.617  31.445  1.00  0.00     0.029 A 
ATOM     53  C   UNL A   1      43.435  27.480  32.048  1.00  0.00     0.049 A 
ATOM     54  H   UNL A   1      41.723  28.406  31.232  1.00  0.00     0.167 HD
ATOM     55  C   UNL A   1      42.499  28.811  33.913  1.00  0.00     0.074 A 
ATOM     56  C   UNL A   1      42.500  29.291  35.280  1.00  0.00     0.031 C 
ATOM     57  C   UNL A   1      43.429  27.968  33.401  1.00  0.00     0.031 A 
BRANCH  44  58
ATOM     58  C   UNL A   1      42.569  26.661  27.430  1.00  0.00    -0.014 A 
ATOM     59  C   UNL A   1      43.505  27.231  26.554  1.00  0.00     0.009 A 
ATOM     60  C   UNL A   1      42.096  25.365  27.167  1.00  0.00     0.009 A 
ATOM     61  C   UNL A   1      43.928  26.530  25.420  1.00  0.00     0.001 A 
ATOM     62  C   UNL A   1      42.542  24.656  26.050  1.00  0.00     0.001 A 
ATOM     63  C   UNL A   1      43.451  25.244  25.172  1.00  0.00     0.000 A 
ENDBRANCH  44  58
BRANCH  45  64
ATOM     64  C   UNL A   1      39.020  31.655  35.274  1.00  0.00    -0.014 A 
ATOM     65  C   UNL A   1      38.233  31.007  36.237  1.00  0.00     0.009 A 
ATOM     66  C   UNL A   1      39.312  33.018  35.441  1.00  0.00     0.009 A 
ATOM     67  C   UNL A   1      37.737  31.714  37.336  1.00  0.00     0.001 A 
ATOM     68  C   UNL A   1      38.844  33.713  36.556  1.00  0.00     0.001 A 
ATOM     69  C   UNL A   1      38.050  33.062  37.499  1.00  0.00     0.000 A 
ENDBRANCH  45  64
BRANCH  57  70
ATOM     70  C   UNL A   1      44.547  27.553  34.314  1.00  0.00    -0.014 A 
ATOM     71  C   UNL A   1      44.454  26.397  35.103  1.00  0.00     0.009 A 
ATOM     72  C   UNL A   1      45.712  28.331  34.377  1.00  0.00     0.009 A 
ATOM     73  C   UNL A   1      45.494  26.050  35.969  1.00  0.00     0.001 A 
ATOM     74  C   UNL A   1      46.759  27.969  35.226  1.00  0.00     0.001 A 
ATOM     75  C   UNL A   1      46.644  26.836  36.029  1.00  0.00     0.000 A 
ENDBRANCH  57  70
ENDBRANCH  31  32
ENDBRANCH  24  26
ENDBRANCH  23  24
ENDBRANCH  22  23
ENDBRANCH   1  22
TORSDOF 14
ENDMDL
MODEL 3
REMARK VINA RESULT:     -10.9      1.300      2.025
REMARK SMILES COc1ccc([C@H](C)[N@H+]2CC[C@H](C(=O)OCCOC(=O)c3ccc(-c4c5nc(c(-c6ccccc6)c6ccc([nH]6)c(-c6ccccc6)c6nc(c(-c7ccccc7)c7ccc4[nH]7)C=C6)C=C5)cc3)[C@@H]2C)cc1
REMARK SMILES IDX 16 1 15 2 13 3 14 4 12 5 9 6 10 7 69 8 11 10 70 11 7 12 8 13
REMARK SMILES IDX 6 14 3 15 4 16 72 17 5 18 71 19 2 20 1 21 17 22 18 23 19 24
REMARK SMILES IDX 20 25 21 26 22 27 68 28 23 29 67 30 24 31 25 32 26 33 61 34
REMARK SMILES IDX 27 35 66 36 60 37 62 38 28 39 65 40 59 41 58 42 29 44 51 45
REMARK SMILES IDX 36 46 50 47 37 48 40 49 49 50 63 51 38 52 39 53 48 55 64 56
REMARK SMILES IDX 41 57 30 58 31 59 35 60 32 61 34 62 33 63 52 64 53 65 57 66
REMARK SMILES IDX 54 67 56 68 55 69 42 70 43 71 47 72 44 73 46 74 45 75
REMARK H PARENT 9 9 62 43 40 54
REMARK Flexibility Score: inf
ROOT
ATOM      1  C   UNL A   1      35.490  20.629  25.048  1.00  0.00     0.274 C 
ENDROOT
BRANCH   1   2
ATOM      2  O   UNL A   1      35.261  21.860  24.338  1.00  0.00    -0.462 OA
BRANCH   2   3
ATOM      3  C   UNL A   1      34.080  22.512  24.579  1.00  0.00     0.315 C 
ATOM      4  O   UNL A   1      33.045  22.317  23.977  1.00  0.00    -0.252 OA
BRANCH   3   5
ATOM      5  C   UNL A   1      34.323  23.590  25.627  1.00  0.00     0.162 C 
ATOM      6  N   UNL A   1      32.865  25.475  25.343  1.00  0.00    -0.326 N 
ATOM      7  C   UNL A   1      34.019  25.658  24.462  1.00  0.00     0.264 C 
ATOM      8  C   UNL A   1      33.117  24.324  26.220  1.00  0.00     0.196 C 
ATOM      9  H   UNL A   1      32.060  25.249  24.758  1.00  0.00     0.348 HD
ATOM     10  C   UNL A   1      35.102  24.726  24.981  1.00  0.00     0.083 C 
ATOM     11  C   UNL A   1      31.853  23.518  26.444  1.00  0.00     0.076 C 
BRANCH   6  12
ATOM     12  C   UNL A   1      32.303  26.685  25.969  1.00  0.00     0.212 C 
ATOM     13  C   UNL A   1      33.367  27.651  26.525  1.00  0.00     0.081 C 
BRANCH  12  14
ATOM     14  C   UNL A   1      31.294  27.367  25.039  1.00  0.00     0.009 A 
ATOM     15  C   UNL A   1      29.542  28.513  23.145  1.00  0.00     0.118 A 
ATOM     16  C   UNL A   1      29.407  27.174  23.511  1.00  0.00     0.047 A 
ATOM     17  C   UNL A   1      30.515  29.295  23.761  1.00  0.00     0.047 A 
ATOM     18  C   UNL A   1      30.281  26.601  24.440  1.00  0.00     0.013 A 
ATOM     19  C   UNL A   1      31.383  28.726  24.698  1.00  0.00     0.013 A 
BRANCH  15  20
ATOM     20  O   UNL A   1      28.667  28.963  22.195  1.00  0.00    -0.497 OA
ATOM     21  C   UNL A   1      28.120  30.255  22.444  1.00  0.00     0.278 C 
ENDBRANCH  15  20
ENDBRANCH  12  14
ENDBRANCH   6  12
ENDBRANCH   3   5
ENDBRANCH   2   3
ENDBRANCH   1   2
BRANCH   1  22
ATOM     22  C   UNL A   1      36.943  20.177  24.920  1.00  0.00     0.275 C 
BRANCH  22  23
ATOM     23  O   UNL A   1      37.831  21.300  25.053  1.00  0.00    -0.458 OA
BRANCH  23  24
ATOM     24  C   UNL A   1      38.955  21.057  25.763  1.00  0.00     0.338 C 
ATOM     25  O   UNL A   1      39.632  20.039  25.763  1.00  0.00    -0.246 OA
BRANCH  24  26
ATOM     26  C   UNL A   1      39.342  22.247  26.529  1.00  0.00     0.060 A 
ATOM     27  C   UNL A   1      38.779  23.462  26.168  1.00  0.00     0.016 A 
ATOM     28  C   UNL A   1      40.421  22.209  27.407  1.00  0.00     0.016 A 
ATOM     29  C   UNL A   1      39.403  24.653  26.532  1.00  0.00     0.010 A 
ATOM     30  C   UNL A   1      40.962  23.412  27.883  1.00  0.00     0.010 A 
ATOM     31  C   UNL A   1      40.511  24.653  27.392  1.00  0.00    -0.014 A 
BRANCH  31  32
ATOM     32  C   UNL A   1      41.248  25.920  27.692  1.00  0.00     0.031 A 
ATOM     33  C   UNL A   1      40.651  26.942  28.634  1.00  0.00     0.074 A 
ATOM     34  C   UNL A   1      42.472  26.165  27.175  1.00  0.00     0.049 A 
ATOM     35  N   UNL A   1      41.009  28.185  28.848  1.00  0.00    -0.248 NA
ATOM     36  C   UNL A   1      39.486  26.516  29.426  1.00  0.00     0.031 C 
ATOM     37  C   UNL A   1      43.234  25.261  26.312  1.00  0.00     0.029 A 
ATOM     38  N   UNL A   1      43.302  27.252  27.325  1.00  0.00    -0.354 N 
ATOM     39  C   UNL A   1      40.062  28.710  29.721  1.00  0.00     0.074 A 
ATOM     40  C   UNL A   1      39.120  27.649  30.007  1.00  0.00     0.031 C 
ATOM     41  C   UNL A   1      44.442  25.794  26.071  1.00  0.00     0.029 A 
ATOM     42  C   UNL A   1      44.498  27.126  26.660  1.00  0.00     0.049 A 
ATOM     43  H   UNL A   1      43.062  28.043  27.859  1.00  0.00     0.167 HD
ATOM     44  C   UNL A   1      39.977  29.963  30.232  1.00  0.00     0.031 A 
ATOM     45  C   UNL A   1      45.513  27.996  26.496  1.00  0.00     0.031 A 
ATOM     46  C   UNL A   1      40.955  30.998  30.018  1.00  0.00     0.049 A 
ATOM     47  C   UNL A   1      45.401  29.379  27.068  1.00  0.00     0.074 A 
ATOM     48  C   UNL A   1      40.950  32.302  30.482  1.00  0.00     0.029 A 
ATOM     49  N   UNL A   1      42.135  30.831  29.310  1.00  0.00    -0.354 N 
ATOM     50  N   UNL A   1      44.436  29.902  27.783  1.00  0.00    -0.248 NA
ATOM     51  C   UNL A   1      46.512  30.300  26.786  1.00  0.00     0.031 C 
ATOM     52  C   UNL A   1      42.117  32.932  30.034  1.00  0.00     0.029 A 
ATOM     53  C   UNL A   1      42.867  32.006  29.331  1.00  0.00     0.049 A 
ATOM     54  H   UNL A   1      42.410  30.001  28.859  1.00  0.00     0.167 HD
ATOM     55  C   UNL A   1      44.826  31.208  28.046  1.00  0.00     0.074 A 
ATOM     56  C   UNL A   1      46.128  31.390  27.436  1.00  0.00     0.031 C 
ATOM     57  C   UNL A   1      44.162  32.173  28.726  1.00  0.00     0.031 A 
BRANCH  44  58
ATOM     58  C   UNL A   1      38.751  30.304  31.036  1.00  0.00    -0.014 A 
ATOM     59  C   UNL A   1      37.529  30.626  30.427  1.00  0.00     0.009 A 
ATOM     60  C   UNL A   1      38.821  30.270  32.439  1.00  0.00     0.009 A 
ATOM     61  C   UNL A   1      36.414  30.944  31.208  1.00  0.00     0.001 A 
ATOM     62  C   UNL A   1      37.698  30.559  33.216  1.00  0.00     0.001 A 
ATOM     63  C   UNL A   1      36.498  30.906  32.599  1.00  0.00     0.000 A 
ENDBRANCH  44  58
BRANCH  45  64
ATOM     64  C   UNL A   1      46.708  27.600  25.703  1.00  0.00    -0.014 A 
ATOM     65  C   UNL A   1      47.806  26.988  26.326  1.00  0.00     0.009 A 
ATOM     66  C   UNL A   1      46.755  27.831  24.320  1.00  0.00     0.009 A 
ATOM     67  C   UNL A   1      48.931  26.627  25.579  1.00  0.00     0.001 A 
ATOM     68  C   UNL A   1      47.865  27.441  23.571  1.00  0.00     0.001 A 
ATOM     69  C   UNL A   1      48.956  26.846  24.203  1.00  0.00     0.000 A 
ENDBRANCH  45  64
BRANCH  57  70
ATOM     70  C   UNL A   1      44.858  33.494  28.885  1.00  0.00    -0.014 A 
ATOM     71  C   UNL A   1      44.690  34.526  27.950  1.00  0.00     0.009 A 
ATOM     72  C   UNL A   1      45.690  33.708  29.994  1.00  0.00     0.009 A 
ATOM     73  C   UNL A   1      45.374  35.733  28.102  1.00  0.00     0.001 A 
ATOM     74  C   UNL A   1      46.354  34.924  30.156  1.00  0.00     0.001 A 
ATOM     75  C   UNL A   1      46.205  35.931  29.204  1.00  0.00     0.000 A 
ENDBRANCH  57  70
ENDBRANCH  31  32
ENDBRANCH  24  26
ENDBRANCH  23  24
ENDBRANCH  22  23
ENDBRANCH   1  22
TORSDOF 14
ENDMDL
