MODEL 1
REMARK VINA RESULT:     -11.5      0.000      0.000
REMARK SMILES COc1ccc(C)cc1[C@@H](C)NC(=O)CC1(C(=O)OCCOC(=O)c2ccc(-c3c4nc(c(-c5ccccc5)c5ccc([nH]5)c(-c5ccccc5)c5nc(c(-c6ccccc6)c6ccc3[nH]6)C=C5)C=C4)cc2)CCCC1
REMARK SMILES IDX 19 1 17 2 18 3 16 4 73 5 76 6 74 7 75 8 15 9 13 10 12 11
REMARK SMILES IDX 14 13 10 14 11 15 9 16 3 17 4 18 5 19 8 20 6 21 7 22 2 23
REMARK SMILES IDX 1 24 20 25 21 26 22 27 23 28 24 29 25 30 26 31 72 32 27 33
REMARK SMILES IDX 71 34 28 35 29 36 30 37 65 38 31 39 70 40 64 41 66 42 32 43
REMARK SMILES IDX 69 44 63 45 62 46 33 48 55 49 40 50 54 51 41 52 44 53 53 54
REMARK SMILES IDX 67 55 42 56 43 57 52 59 68 60 45 61 34 62 35 63 39 64 36 65
REMARK SMILES IDX 38 66 37 67 56 68 57 69 61 70 58 71 60 72 59 73 46 74 47 75
REMARK SMILES IDX 51 76 48 77 50 78 49 79
REMARK H PARENT 12 12 66 47 44 58
REMARK Flexibility Score: inf
ROOT
ATOM      1  O   UNL A   1      33.132  28.163  26.798  1.00  0.00    -0.462 OA
ENDROOT
BRANCH   1   2
ATOM      2  C   UNL A   1      31.943  27.506  26.869  1.00  0.00     0.312 C 
ATOM      3  O   UNL A   1      31.057  27.841  27.650  1.00  0.00    -0.252 OA
BRANCH   2   4
ATOM      4  C   UNL A   1      31.826  26.290  25.914  1.00  0.00     0.077 C 
ATOM      5  C   UNL A   1      32.680  26.566  24.648  1.00  0.00     0.019 C 
ATOM      6  C   UNL A   1      30.427  26.252  25.285  1.00  0.00     0.019 C 
ATOM      7  C   UNL A   1      31.842  27.496  23.762  1.00  0.00     0.001 C 
ATOM      8  C   UNL A   1      30.410  27.395  24.276  1.00  0.00     0.001 C 
BRANCH   4   9
ATOM      9  C   UNL A   1      32.284  24.976  26.581  1.00  0.00     0.118 C 
BRANCH   9  10
ATOM     10  C   UNL A   1      31.410  23.759  26.403  1.00  0.00     0.221 C 
ATOM     11  N   UNL A   1      31.487  23.007  25.275  1.00  0.00    -0.349 N 
ATOM     12  H   UNL A   1      30.757  22.354  25.177  1.00  0.00     0.164 HD
ATOM     13  O   UNL A   1      30.576  23.454  27.259  1.00  0.00    -0.275 OA
BRANCH  11  14
ATOM     14  C   UNL A   1      32.466  22.986  24.168  1.00  0.00     0.113 C 
ATOM     15  C   UNL A   1      31.735  23.239  22.853  1.00  0.00     0.036 C 
BRANCH  14  16
ATOM     16  C   UNL A   1      33.245  21.672  24.191  1.00  0.00     0.016 A 
ATOM     17  C   UNL A   1      34.569  21.546  24.659  1.00  0.00     0.124 A 
ATOM     18  C   UNL A   1      35.068  20.280  24.998  1.00  0.00     0.047 A 
ATOM     19  C   UNL A   1      34.361  19.129  24.695  1.00  0.00     0.007 A 
ATOM     20  C   UNL A   1      32.580  20.487  23.814  1.00  0.00     0.013 A 
ATOM     21  C   UNL A   1      33.143  19.224  24.035  1.00  0.00    -0.051 A 
ATOM     22  C   UNL A   1      32.436  17.992  23.568  1.00  0.00     0.044 C 
BRANCH  17  23
ATOM     23  O   UNL A   1      35.355  22.662  24.763  1.00  0.00    -0.496 OA
ATOM     24  C   UNL A   1      36.162  22.944  23.609  1.00  0.00     0.278 C 
ENDBRANCH  17  23
ENDBRANCH  14  16
ENDBRANCH  11  14
ENDBRANCH   9  10
ENDBRANCH   4   9
ENDBRANCH   2   4
ENDBRANCH   1   2
BRANCH   1  25
ATOM     25  C   UNL A   1      33.022  29.577  26.601  1.00  0.00     0.274 C 
BRANCH  25  26
ATOM     26  C   UNL A   1      34.156  30.410  27.249  1.00  0.00     0.275 C 
BRANCH  26  27
ATOM     27  O   UNL A   1      35.429  29.777  27.548  1.00  0.00    -0.458 OA
BRANCH  27  28
ATOM     28  C   UNL A   1      36.561  30.381  27.997  1.00  0.00     0.338 C 
ATOM     29  O   UNL A   1      36.610  31.521  28.399  1.00  0.00    -0.246 OA
BRANCH  28  30
ATOM     30  C   UNL A   1      37.694  29.470  28.129  1.00  0.00     0.060 A 
ATOM     31  C   UNL A   1      38.629  29.463  27.090  1.00  0.00     0.016 A 
ATOM     32  C   UNL A   1      37.921  28.851  29.352  1.00  0.00     0.016 A 
ATOM     33  C   UNL A   1      39.888  28.939  27.319  1.00  0.00     0.010 A 
ATOM     34  C   UNL A   1      39.196  28.428  29.621  1.00  0.00     0.010 A 
ATOM     35  C   UNL A   1      40.159  28.441  28.593  1.00  0.00    -0.014 A 
BRANCH  35  36
ATOM     36  C   UNL A   1      41.232  27.492  28.811  1.00  0.00     0.031 A 
ATOM     37  C   UNL A   1      41.120  26.063  28.517  1.00  0.00     0.074 A 
ATOM     38  C   UNL A   1      42.327  28.138  29.263  1.00  0.00     0.049 A 
ATOM     39  N   UNL A   1      41.844  25.160  29.081  1.00  0.00    -0.248 NA
ATOM     40  C   UNL A   1      40.126  25.506  27.602  1.00  0.00     0.031 C 
ATOM     41  C   UNL A   1      43.707  27.733  29.391  1.00  0.00     0.029 A 
ATOM     42  N   UNL A   1      42.272  29.388  29.908  1.00  0.00    -0.354 N 
ATOM     43  C   UNL A   1      41.654  23.993  28.369  1.00  0.00     0.074 A 
ATOM     44  C   UNL A   1      40.469  24.211  27.579  1.00  0.00     0.031 C 
ATOM     45  C   UNL A   1      44.293  28.547  30.296  1.00  0.00     0.029 A 
ATOM     46  C   UNL A   1      43.233  29.362  30.901  1.00  0.00     0.049 A 
ATOM     47  H   UNL A   1      41.667  30.135  29.692  1.00  0.00     0.167 HD
ATOM     48  C   UNL A   1      42.650  23.062  28.352  1.00  0.00     0.031 A 
ATOM     49  C   UNL A   1      42.809  29.261  32.196  1.00  0.00     0.031 A 
ATOM     50  C   UNL A   1      43.762  23.505  29.188  1.00  0.00     0.049 A 
ATOM     51  C   UNL A   1      43.337  27.994  32.806  1.00  0.00     0.074 A 
ATOM     52  C   UNL A   1      44.915  24.202  28.868  1.00  0.00     0.029 A 
ATOM     53  N   UNL A   1      43.585  23.628  30.560  1.00  0.00    -0.354 N 
ATOM     54  N   UNL A   1      43.370  26.838  32.200  1.00  0.00    -0.248 NA
ATOM     55  C   UNL A   1      43.979  27.989  34.113  1.00  0.00     0.031 C 
ATOM     56  C   UNL A   1      45.378  24.835  30.050  1.00  0.00     0.029 A 
ATOM     57  C   UNL A   1      44.519  24.500  31.084  1.00  0.00     0.049 A 
ATOM     58  H   UNL A   1      42.892  23.163  31.083  1.00  0.00     0.167 HD
ATOM     59  C   UNL A   1      44.152  25.989  32.943  1.00  0.00     0.074 A 
ATOM     60  C   UNL A   1      44.467  26.740  34.149  1.00  0.00     0.031 C 
ATOM     61  C   UNL A   1      44.562  24.762  32.512  1.00  0.00     0.031 A 
BRANCH  48  62
ATOM     62  C   UNL A   1      42.778  21.992  27.293  1.00  0.00    -0.014 A 
ATOM     63  C   UNL A   1      41.955  20.850  27.368  1.00  0.00     0.009 A 
ATOM     64  C   UNL A   1      43.710  22.013  26.242  1.00  0.00     0.009 A 
ATOM     65  C   UNL A   1      42.119  19.752  26.513  1.00  0.00     0.001 A 
ATOM     66  C   UNL A   1      43.896  20.906  25.398  1.00  0.00     0.001 A 
ATOM     67  C   UNL A   1      43.110  19.770  25.542  1.00  0.00     0.000 A 
ENDBRANCH  48  62
BRANCH  49  68
ATOM     68  C   UNL A   1      41.482  29.873  32.555  1.00  0.00    -0.014 A 
ATOM     69  C   UNL A   1      41.230  31.233  32.261  1.00  0.00     0.009 A 
ATOM     70  C   UNL A   1      40.404  29.114  33.038  1.00  0.00     0.009 A 
ATOM     71  C   UNL A   1      39.950  31.793  32.385  1.00  0.00     0.001 A 
ATOM     72  C   UNL A   1      39.124  29.679  33.179  1.00  0.00     0.001 A 
ATOM     73  C   UNL A   1      38.894  31.012  32.843  1.00  0.00     0.000 A 
ENDBRANCH  49  68
BRANCH  61  74
ATOM     74  C   UNL A   1      45.155  23.690  33.388  1.00  0.00    -0.014 A 
ATOM     75  C   UNL A   1      46.453  23.742  33.907  1.00  0.00     0.009 A 
ATOM     76  C   UNL A   1      44.315  22.661  33.870  1.00  0.00     0.009 A 
ATOM     77  C   UNL A   1      46.903  22.792  34.828  1.00  0.00     0.001 A 
ATOM     78  C   UNL A   1      44.741  21.746  34.832  1.00  0.00     0.001 A 
ATOM     79  C   UNL A   1      46.044  21.806  35.303  1.00  0.00     0.000 A 
ENDBRANCH  61  74
ENDBRANCH  35  36
ENDBRANCH  28  30
ENDBRANCH  27  28
ENDBRANCH  26  27
ENDBRANCH  25  26
ENDBRANCH   1  25
TORSDOF 16
ENDMDL
MODEL 2
REMARK VINA RESULT:     -11.4      2.805      8.161
REMARK SMILES COc1ccc(C)cc1[C@@H](C)NC(=O)CC1(C(=O)OCCOC(=O)c2ccc(-c3c4nc(c(-c5ccccc5)c5ccc([nH]5)c(-c5ccccc5)c5nc(c(-c6ccccc6)c6ccc3[nH]6)C=C5)C=C4)cc2)CCCC1
REMARK SMILES IDX 19 1 17 2 18 3 16 4 73 5 76 6 74 7 75 8 15 9 13 10 12 11
REMARK SMILES IDX 14 13 10 14 11 15 9 16 3 17 4 18 5 19 8 20 6 21 7 22 2 23
REMARK SMILES IDX 1 24 20 25 21 26 22 27 23 28 24 29 25 30 26 31 72 32 27 33
REMARK SMILES IDX 71 34 28 35 29 36 30 37 65 38 31 39 70 40 64 41 66 42 32 43
REMARK SMILES IDX 69 44 63 45 62 46 33 48 55 49 40 50 54 51 41 52 44 53 53 54
REMARK SMILES IDX 67 55 42 56 43 57 52 59 68 60 45 61 34 62 35 63 39 64 36 65
REMARK SMILES IDX 38 66 37 67 56 68 57 69 61 70 58 71 60 72 59 73 46 74 47 75
REMARK SMILES IDX 51 76 48 77 50 78 49 79
REMARK H PARENT 12 12 66 47 44 58
REMARK Flexibility Score: inf
ROOT
ATOM      1  O   UNL A   1      36.622  21.098  25.345  1.00  0.00    -0.462 OA
ENDROOT
BRANCH   1   2
ATOM      2  C   UNL A   1      35.379  20.606  25.085  1.00  0.00     0.312 C 
ATOM      3  O   UNL A   1      35.172  19.407  24.926  1.00  0.00    -0.252 OA
BRANCH   2   4
ATOM      4  C   UNL A   1      34.275  21.689  24.975  1.00  0.00     0.077 C 
ATOM      5  C   UNL A   1      34.735  22.952  25.750  1.00  0.00     0.019 C 
ATOM      6  C   UNL A   1      33.061  21.286  25.824  1.00  0.00     0.019 C 
ATOM      7  C   UNL A   1      34.472  22.664  27.233  1.00  0.00     0.001 C 
ATOM      8  C   UNL A   1      33.501  21.489  27.270  1.00  0.00     0.001 C 
BRANCH   4   9
ATOM      9  C   UNL A   1      33.960  22.056  23.509  1.00  0.00     0.118 C 
BRANCH   9  10
ATOM     10  C   UNL A   1      34.637  23.275  22.932  1.00  0.00     0.221 C 
ATOM     11  N   UNL A   1      33.907  24.335  22.498  1.00  0.00    -0.349 N 
ATOM     12  H   UNL A   1      34.424  24.991  21.977  1.00  0.00     0.164 HD
ATOM     13  O   UNL A   1      35.863  23.310  22.802  1.00  0.00    -0.275 OA
BRANCH  11  14
ATOM     14  C   UNL A   1      32.481  24.685  22.663  1.00  0.00     0.113 C 
ATOM     15  C   UNL A   1      32.136  25.828  21.713  1.00  0.00     0.036 C 
BRANCH  14  16
ATOM     16  C   UNL A   1      32.195  25.002  24.130  1.00  0.00     0.016 A 
ATOM     17  C   UNL A   1      32.678  26.144  24.802  1.00  0.00     0.124 A 
ATOM     18  C   UNL A   1      32.075  26.553  26.000  1.00  0.00     0.047 A 
ATOM     19  C   UNL A   1      31.150  25.748  26.644  1.00  0.00     0.007 A 
ATOM     20  C   UNL A   1      31.318  24.159  24.844  1.00  0.00     0.013 A 
ATOM     21  C   UNL A   1      30.820  24.512  26.105  1.00  0.00    -0.051 A 
ATOM     22  C   UNL A   1      29.940  23.568  26.858  1.00  0.00     0.044 C 
BRANCH  17  23
ATOM     23  O   UNL A   1      33.739  26.834  24.278  1.00  0.00    -0.496 OA
ATOM     24  C   UNL A   1      33.734  28.245  24.544  1.00  0.00     0.278 C 
ENDBRANCH  17  23
ENDBRANCH  14  16
ENDBRANCH  11  14
ENDBRANCH   9  10
ENDBRANCH   4   9
ENDBRANCH   2   4
ENDBRANCH   1   2
BRANCH   1  25
ATOM     25  C   UNL A   1      37.690  20.383  24.713  1.00  0.00     0.274 C 
BRANCH  25  26
ATOM     26  C   UNL A   1      38.639  19.644  25.689  1.00  0.00     0.275 C 
BRANCH  26  27
ATOM     27  O   UNL A   1      39.980  19.290  25.255  1.00  0.00    -0.458 OA
BRANCH  27  28
ATOM     28  C   UNL A   1      41.142  19.492  25.929  1.00  0.00     0.338 C 
ATOM     29  O   UNL A   1      42.081  18.728  25.911  1.00  0.00    -0.246 OA
BRANCH  28  30
ATOM     30  C   UNL A   1      41.239  20.813  26.541  1.00  0.00     0.060 A 
ATOM     31  C   UNL A   1      41.224  20.872  27.937  1.00  0.00     0.016 A 
ATOM     32  C   UNL A   1      41.580  21.900  25.744  1.00  0.00     0.016 A 
ATOM     33  C   UNL A   1      41.694  22.007  28.570  1.00  0.00     0.010 A 
ATOM     34  C   UNL A   1      42.147  22.984  26.361  1.00  0.00     0.010 A 
ATOM     35  C   UNL A   1      42.166  23.046  27.768  1.00  0.00    -0.014 A 
BRANCH  35  36
ATOM     36  C   UNL A   1      42.248  24.401  28.274  1.00  0.00     0.031 A 
ATOM     37  C   UNL A   1      41.175  25.385  28.128  1.00  0.00     0.074 A 
ATOM     38  C   UNL A   1      43.418  24.576  28.923  1.00  0.00     0.049 A 
ATOM     39  N   UNL A   1      41.365  26.658  28.160  1.00  0.00    -0.248 NA
ATOM     40  C   UNL A   1      39.784  25.024  27.864  1.00  0.00     0.031 C 
ATOM     41  C   UNL A   1      43.888  25.612  29.811  1.00  0.00     0.029 A 
ATOM     42  N   UNL A   1      44.555  23.779  28.689  1.00  0.00    -0.354 N 
ATOM     43  C   UNL A   1      40.121  27.246  28.266  1.00  0.00     0.074 A 
ATOM     44  C   UNL A   1      39.176  26.217  27.913  1.00  0.00     0.031 C 
ATOM     45  C   UNL A   1      45.238  25.567  29.819  1.00  0.00     0.029 A 
ATOM     46  C   UNL A   1      45.649  24.618  28.778  1.00  0.00     0.049 A 
ATOM     47  H   UNL A   1      44.567  22.813  28.499  1.00  0.00     0.167 HD
ATOM     48  C   UNL A   1      40.018  28.466  28.866  1.00  0.00     0.031 A 
ATOM     49  C   UNL A   1      46.291  24.955  27.619  1.00  0.00     0.031 A 
ATOM     50  C   UNL A   1      41.342  28.948  29.251  1.00  0.00     0.049 A 
ATOM     51  C   UNL A   1      46.216  26.441  27.410  1.00  0.00     0.074 A 
ATOM     52  C   UNL A   1      42.037  28.833  30.443  1.00  0.00     0.029 A 
ATOM     53  N   UNL A   1      42.275  29.251  28.267  1.00  0.00    -0.354 N 
ATOM     54  N   UNL A   1      45.150  27.165  27.620  1.00  0.00    -0.248 NA
ATOM     55  C   UNL A   1      47.395  27.220  27.063  1.00  0.00     0.031 C 
ATOM     56  C   UNL A   1      43.419  28.972  30.150  1.00  0.00     0.029 A 
ATOM     57  C   UNL A   1      43.552  29.193  28.789  1.00  0.00     0.049 A 
ATOM     58  H   UNL A   1      42.057  29.475  27.333  1.00  0.00     0.167 HD
ATOM     59  C   UNL A   1      45.520  28.486  27.591  1.00  0.00     0.074 A 
ATOM     60  C   UNL A   1      46.920  28.468  27.192  1.00  0.00     0.031 C 
ATOM     61  C   UNL A   1      44.701  29.513  27.961  1.00  0.00     0.031 A 
BRANCH  48  62
ATOM     62  C   UNL A   1      38.733  29.006  29.450  1.00  0.00    -0.014 A 
ATOM     63  C   UNL A   1      38.493  28.864  30.831  1.00  0.00     0.009 A 
ATOM     64  C   UNL A   1      37.704  29.605  28.703  1.00  0.00     0.009 A 
ATOM     65  C   UNL A   1      37.266  29.203  31.417  1.00  0.00     0.001 A 
ATOM     66  C   UNL A   1      36.463  29.924  29.279  1.00  0.00     0.001 A 
ATOM     67  C   UNL A   1      36.240  29.710  30.633  1.00  0.00     0.000 A 
ENDBRANCH  48  62
BRANCH  49  68
ATOM     68  C   UNL A   1      46.297  23.951  26.497  1.00  0.00    -0.014 A 
ATOM     69  C   UNL A   1      45.751  22.663  26.701  1.00  0.00     0.009 A 
ATOM     70  C   UNL A   1      46.687  24.281  25.190  1.00  0.00     0.009 A 
ATOM     71  C   UNL A   1      45.546  21.769  25.640  1.00  0.00     0.001 A 
ATOM     72  C   UNL A   1      46.498  23.378  24.128  1.00  0.00     0.001 A 
ATOM     73  C   UNL A   1      45.918  22.130  24.350  1.00  0.00     0.000 A 
ENDBRANCH  49  68
BRANCH  61  74
ATOM     74  C   UNL A   1      44.950  30.968  27.666  1.00  0.00    -0.014 A 
ATOM     75  C   UNL A   1      45.837  31.767  28.395  1.00  0.00     0.009 A 
ATOM     76  C   UNL A   1      44.409  31.528  26.487  1.00  0.00     0.009 A 
ATOM     77  C   UNL A   1      46.136  33.072  27.992  1.00  0.00     0.001 A 
ATOM     78  C   UNL A   1      44.749  32.807  26.049  1.00  0.00     0.001 A 
ATOM     79  C   UNL A   1      45.607  33.584  26.812  1.00  0.00     0.000 A 
ENDBRANCH  61  74
ENDBRANCH  35  36
ENDBRANCH  28  30
ENDBRANCH  27  28
ENDBRANCH  26  27
ENDBRANCH  25  26
ENDBRANCH   1  25
TORSDOF 16
ENDMDL
MODEL 3
REMARK VINA RESULT:     -11.1      2.895      5.030
REMARK SMILES COc1ccc(C)cc1[C@@H](C)NC(=O)CC1(C(=O)OCCOC(=O)c2ccc(-c3c4nc(c(-c5ccccc5)c5ccc([nH]5)c(-c5ccccc5)c5nc(c(-c6ccccc6)c6ccc3[nH]6)C=C5)C=C4)cc2)CCCC1
REMARK SMILES IDX 19 1 17 2 18 3 16 4 73 5 76 6 74 7 75 8 15 9 13 10 12 11
REMARK SMILES IDX 14 13 10 14 11 15 9 16 3 17 4 18 5 19 8 20 6 21 7 22 2 23
REMARK SMILES IDX 1 24 20 25 21 26 22 27 23 28 24 29 25 30 26 31 72 32 27 33
REMARK SMILES IDX 71 34 28 35 29 36 30 37 65 38 31 39 70 40 64 41 66 42 32 43
REMARK SMILES IDX 69 44 63 45 62 46 33 48 55 49 40 50 54 51 41 52 44 53 53 54
REMARK SMILES IDX 67 55 42 56 43 57 52 59 68 60 45 61 34 62 35 63 39 64 36 65
REMARK SMILES IDX 38 66 37 67 56 68 57 69 61 70 58 71 60 72 59 73 46 74 47 75
REMARK SMILES IDX 51 76 48 77 50 78 49 79
REMARK H PARENT 12 12 66 47 44 58
REMARK Flexibility Score: inf
ROOT
ATOM      1  O   UNL A   1      32.366  29.577  26.681  1.00  0.00    -0.462 OA
ENDROOT
BRANCH   1   2
ATOM      2  C   UNL A   1      33.275  28.634  26.309  1.00  0.00     0.312 C 
ATOM      3  O   UNL A   1      34.452  28.692  26.651  1.00  0.00    -0.252 OA
BRANCH   2   4
ATOM      4  C   UNL A   1      32.701  27.519  25.398  1.00  0.00     0.077 C 
ATOM      5  C   UNL A   1      33.462  27.538  24.046  1.00  0.00     0.019 C 
ATOM      6  C   UNL A   1      31.297  27.907  24.916  1.00  0.00     0.019 C 
ATOM      7  C   UNL A   1      32.853  28.685  23.229  1.00  0.00     0.001 C 
ATOM      8  C   UNL A   1      31.518  29.013  23.890  1.00  0.00     0.001 C 
BRANCH   4   9
ATOM      9  C   UNL A   1      32.812  26.121  26.044  1.00  0.00     0.118 C 
BRANCH   9  10
ATOM     10  C   UNL A   1      31.916  25.031  25.511  1.00  0.00     0.221 C 
ATOM     11  N   UNL A   1      32.272  24.311  24.416  1.00  0.00    -0.349 N 
ATOM     12  H   UNL A   1      31.547  23.759  24.044  1.00  0.00     0.164 HD
ATOM     13  O   UNL A   1      30.821  24.806  26.033  1.00  0.00    -0.275 OA
BRANCH  11  14
ATOM     14  C   UNL A   1      33.549  24.202  23.680  1.00  0.00     0.113 C 
ATOM     15  C   UNL A   1      33.262  23.754  22.250  1.00  0.00     0.036 C 
BRANCH  14  16
ATOM     16  C   UNL A   1      34.501  23.274  24.432  1.00  0.00     0.016 A 
ATOM     17  C   UNL A   1      34.324  21.879  24.543  1.00  0.00     0.124 A 
ATOM     18  C   UNL A   1      35.407  21.068  24.908  1.00  0.00     0.047 A 
ATOM     19  C   UNL A   1      36.594  21.622  25.359  1.00  0.00     0.007 A 
ATOM     20  C   UNL A   1      35.684  23.817  24.974  1.00  0.00     0.013 A 
ATOM     21  C   UNL A   1      36.713  23.001  25.462  1.00  0.00    -0.051 A 
ATOM     22  C   UNL A   1      37.928  23.611  26.084  1.00  0.00     0.044 C 
BRANCH  17  23
ATOM     23  O   UNL A   1      33.089  21.338  24.302  1.00  0.00    -0.496 OA
ATOM     24  C   UNL A   1      32.704  20.287  25.204  1.00  0.00     0.278 C 
ENDBRANCH  17  23
ENDBRANCH  14  16
ENDBRANCH  11  14
ENDBRANCH   9  10
ENDBRANCH   4   9
ENDBRANCH   2   4
ENDBRANCH   1   2
BRANCH   1  25
ATOM     25  C   UNL A   1      32.875  30.915  26.717  1.00  0.00     0.274 C 
BRANCH  25  26
ATOM     26  C   UNL A   1      31.890  31.966  27.287  1.00  0.00     0.275 C 
BRANCH  26  27
ATOM     27  O   UNL A   1      32.321  33.345  27.436  1.00  0.00    -0.458 OA
BRANCH  27  28
ATOM     28  C   UNL A   1      33.027  33.878  28.468  1.00  0.00     0.338 C 
ATOM     29  O   UNL A   1      32.586  34.697  29.243  1.00  0.00    -0.246 OA
BRANCH  28  30
ATOM     30  C   UNL A   1      34.322  33.239  28.680  1.00  0.00     0.060 A 
ATOM     31  C   UNL A   1      35.382  33.667  27.877  1.00  0.00     0.016 A 
ATOM     32  C   UNL A   1      34.500  32.437  29.801  1.00  0.00     0.016 A 
ATOM     33  C   UNL A   1      36.679  33.401  28.274  1.00  0.00     0.010 A 
ATOM     34  C   UNL A   1      35.780  32.263  30.258  1.00  0.00     0.010 A 
ATOM     35  C   UNL A   1      36.860  32.714  29.474  1.00  0.00    -0.014 A 
BRANCH  35  36
ATOM     36  C   UNL A   1      38.094  32.005  29.750  1.00  0.00     0.031 A 
ATOM     37  C   UNL A   1      38.307  30.595  29.423  1.00  0.00     0.074 A 
ATOM     38  C   UNL A   1      38.994  32.852  30.291  1.00  0.00     0.049 A 
ATOM     39  N   UNL A   1      39.169  29.847  30.019  1.00  0.00    -0.248 NA
ATOM     40  C   UNL A   1      37.517  29.872  28.429  1.00  0.00     0.031 C 
ATOM     41  C   UNL A   1      40.417  32.744  30.509  1.00  0.00     0.029 A 
ATOM     42  N   UNL A   1      38.632  34.041  30.953  1.00  0.00    -0.354 N 
ATOM     43  C   UNL A   1      39.278  28.690  29.274  1.00  0.00     0.074 A 
ATOM     44  C   UNL A   1      38.128  28.680  28.407  1.00  0.00     0.031 C 
ATOM     45  C   UNL A   1      40.756  33.632  31.468  1.00  0.00     0.029 A 
ATOM     46  C   UNL A   1      39.510  34.185  32.012  1.00  0.00     0.049 A 
ATOM     47  H   UNL A   1      37.899  34.650  30.709  1.00  0.00     0.167 HD
ATOM     48  C   UNL A   1      40.448  27.992  29.311  1.00  0.00     0.031 A 
ATOM     49  C   UNL A   1      39.033  33.954  33.271  1.00  0.00     0.031 A 
ATOM     50  C   UNL A   1      41.384  28.631  30.232  1.00  0.00     0.049 A 
ATOM     51  C   UNL A   1      39.778  32.807  33.894  1.00  0.00     0.074 A 
ATOM     52  C   UNL A   1      42.381  29.566  30.007  1.00  0.00     0.029 A 
ATOM     53  N   UNL A   1      41.094  28.669  31.591  1.00  0.00    -0.354 N 
ATOM     54  N   UNL A   1      40.095  31.704  33.270  1.00  0.00    -0.248 NA
ATOM     55  C   UNL A   1      40.318  32.894  35.242  1.00  0.00     0.031 C 
ATOM     56  C   UNL A   1      42.620  30.243  31.232  1.00  0.00     0.029 A 
ATOM     57  C   UNL A   1      41.785  29.699  32.195  1.00  0.00     0.049 A 
ATOM     58  H   UNL A   1      40.483  28.050  32.054  1.00  0.00     0.167 HD
ATOM     59  C   UNL A   1      40.989  31.016  34.051  1.00  0.00     0.074 A 
ATOM     60  C   UNL A   1      41.058  31.776  35.290  1.00  0.00     0.031 C 
ATOM     61  C   UNL A   1      41.679  29.918  33.627  1.00  0.00     0.031 A 
BRANCH  48  62
ATOM     62  C   UNL A   1      40.869  27.008  28.244  1.00  0.00    -0.014 A 
ATOM     63  C   UNL A   1      41.211  27.489  26.965  1.00  0.00     0.009 A 
ATOM     64  C   UNL A   1      40.897  25.613  28.407  1.00  0.00     0.009 A 
ATOM     65  C   UNL A   1      41.466  26.631  25.886  1.00  0.00     0.001 A 
ATOM     66  C   UNL A   1      41.127  24.747  27.325  1.00  0.00     0.001 A 
ATOM     67  C   UNL A   1      41.398  25.257  26.061  1.00  0.00     0.000 A 
ENDBRANCH  48  62
BRANCH  49  68
ATOM     68  C   UNL A   1      37.585  34.260  33.546  1.00  0.00    -0.014 A 
ATOM     69  C   UNL A   1      36.818  34.959  32.585  1.00  0.00     0.009 A 
ATOM     70  C   UNL A   1      36.902  33.749  34.661  1.00  0.00     0.009 A 
ATOM     71  C   UNL A   1      35.426  35.087  32.701  1.00  0.00     0.001 A 
ATOM     72  C   UNL A   1      35.509  33.892  34.786  1.00  0.00     0.001 A 
ATOM     73  C   UNL A   1      34.770  34.549  33.803  1.00  0.00     0.000 A 
ENDBRANCH  49  68
BRANCH  61  74
ATOM     74  C   UNL A   1      42.427  28.967  34.523  1.00  0.00    -0.014 A 
ATOM     75  C   UNL A   1      43.822  28.899  34.590  1.00  0.00     0.009 A 
ATOM     76  C   UNL A   1      41.705  28.223  35.484  1.00  0.00     0.009 A 
ATOM     77  C   UNL A   1      44.464  28.099  35.540  1.00  0.00     0.001 A 
ATOM     78  C   UNL A   1      42.341  27.471  36.470  1.00  0.00     0.001 A 
ATOM     79  C   UNL A   1      43.726  27.400  36.489  1.00  0.00     0.000 A 
ENDBRANCH  61  74
ENDBRANCH  35  36
ENDBRANCH  28  30
ENDBRANCH  27  28
ENDBRANCH  26  27
ENDBRANCH  25  26
ENDBRANCH   1  25
TORSDOF 16
ENDMDL
