MODEL 1
REMARK VINA RESULT:     -10.9      0.000      0.000
REMARK SMILES Cc1nc([C@]2(C)CCCO2)nc(C)c1C(=O)OCCOC(=O)c1ccc(-c2c3nc(c(-c4ccccc4)c4ccc([nH]4)c(-c4ccccc4)c4nc(c(-c5ccccc5)c5ccc2[nH]5)C=C4)C=C3)cc1
REMARK SMILES IDX 19 1 18 2 17 3 15 4 16 5 14 6 1 7 2 8 3 9 4 10 12 11 11 12
REMARK SMILES IDX 13 13 5 14 7 15 10 16 6 17 8 18 9 19 20 20 21 21 22 22 23 23
REMARK SMILES IDX 24 24 70 25 25 26 69 27 26 28 27 29 28 30 63 31 29 32 68 33
REMARK SMILES IDX 62 34 64 35 30 36 67 37 61 38 60 39 31 41 53 42 38 43 52 44
REMARK SMILES IDX 39 45 42 46 51 47 65 48 40 49 41 50 50 52 66 53 43 54 32 55
REMARK SMILES IDX 33 56 37 57 34 58 36 59 35 60 54 61 55 62 59 63 56 64 58 65
REMARK SMILES IDX 57 66 44 67 45 68 49 69 46 70 48 71 47 72
REMARK H PARENT 64 40 42 51
REMARK Flexibility Score: inf
ROOT
ATOM      1  C   UNL A   1      43.589  21.530  25.197  1.00  0.00     0.275 C 
ENDROOT
BRANCH   1   2
ATOM      2  C   UNL A   1      42.424  20.930  25.980  1.00  0.00     0.275 C 
BRANCH   2   3
ATOM      3  O   UNL A   1      41.171  21.555  25.613  1.00  0.00    -0.458 OA
BRANCH   3   4
ATOM      4  C   UNL A   1      40.212  21.592  26.575  1.00  0.00     0.341 C 
ATOM      5  O   UNL A   1      40.401  21.426  27.763  1.00  0.00    -0.246 OA
BRANCH   4   6
ATOM      6  C   UNL A   1      38.870  21.884  26.016  1.00  0.00     0.102 A 
ATOM      7  C   UNL A   1      38.481  19.524  25.157  1.00  0.00     0.068 C 
ATOM      8  C   UNL A   1      38.059  20.947  25.386  1.00  0.00     0.056 A 
ATOM      9  N   UNL A   1      36.816  21.257  24.914  1.00  0.00    -0.234 NA
ATOM     10  C   UNL A   1      36.367  22.517  25.088  1.00  0.00     0.160 A 
ATOM     11  C   UNL A   1      38.301  23.141  26.174  1.00  0.00     0.056 A 
ATOM     12  N   UNL A   1      37.062  23.446  25.748  1.00  0.00    -0.234 NA
ATOM     13  C   UNL A   1      39.028  24.353  26.634  1.00  0.00     0.068 C 
BRANCH  10  14
ATOM     14  C   UNL A   1      35.020  22.967  24.510  1.00  0.00     0.125 C 
ATOM     15  C   UNL A   1      34.423  24.130  25.297  1.00  0.00     0.046 C 
ATOM     16  O   UNL A   1      34.043  21.907  24.606  1.00  0.00    -0.367 OA
ATOM     17  C   UNL A   1      35.159  23.330  23.022  1.00  0.00     0.051 C 
ATOM     18  C   UNL A   1      33.684  23.434  26.414  1.00  0.00     0.032 C 
ATOM     19  C   UNL A   1      33.277  22.106  25.801  1.00  0.00     0.161 C 
ENDBRANCH  10  14
ENDBRANCH   4   6
ENDBRANCH   3   4
ENDBRANCH   2   3
ENDBRANCH   1   2
BRANCH   1  20
ATOM     20  O   UNL A   1      43.183  22.780  24.610  1.00  0.00    -0.458 OA
BRANCH  20  21
ATOM     21  C   UNL A   1      43.862  23.872  25.026  1.00  0.00     0.338 C 
ATOM     22  O   UNL A   1      44.969  24.241  24.664  1.00  0.00    -0.246 OA
BRANCH  21  23
ATOM     23  C   UNL A   1      43.028  24.666  25.943  1.00  0.00     0.060 A 
ATOM     24  C   UNL A   1      42.815  26.001  25.644  1.00  0.00     0.016 A 
ATOM     25  C   UNL A   1      42.664  24.176  27.195  1.00  0.00     0.016 A 
ATOM     26  C   UNL A   1      42.435  26.880  26.658  1.00  0.00     0.010 A 
ATOM     27  C   UNL A   1      42.117  25.046  28.156  1.00  0.00     0.010 A 
ATOM     28  C   UNL A   1      42.064  26.434  27.934  1.00  0.00    -0.014 A 
BRANCH  28  29
ATOM     29  C   UNL A   1      41.699  27.411  29.020  1.00  0.00     0.031 A 
ATOM     30  C   UNL A   1      42.547  27.533  30.274  1.00  0.00     0.074 A 
ATOM     31  C   UNL A   1      40.641  28.247  28.902  1.00  0.00     0.049 A 
ATOM     32  N   UNL A   1      42.257  28.099  31.421  1.00  0.00    -0.248 NA
ATOM     33  C   UNL A   1      43.889  26.927  30.239  1.00  0.00     0.031 C 
ATOM     34  C   UNL A   1      39.749  28.351  27.744  1.00  0.00     0.029 A 
ATOM     35  N   UNL A   1      40.142  29.195  29.771  1.00  0.00    -0.354 N 
ATOM     36  C   UNL A   1      43.332  27.835  32.266  1.00  0.00     0.074 A 
ATOM     37  C   UNL A   1      44.287  27.066  31.497  1.00  0.00     0.031 C 
ATOM     38  C   UNL A   1      38.885  29.357  27.932  1.00  0.00     0.029 A 
ATOM     39  C   UNL A   1      39.035  29.856  29.289  1.00  0.00     0.049 A 
ATOM     40  H   UNL A   1      40.541  29.381  30.652  1.00  0.00     0.167 HD
ATOM     41  C   UNL A   1      43.504  28.189  33.564  1.00  0.00     0.031 A 
ATOM     42  C   UNL A   1      38.169  30.702  29.879  1.00  0.00     0.031 A 
ATOM     43  C   UNL A   1      42.595  29.022  34.309  1.00  0.00     0.049 A 
ATOM     44  C   UNL A   1      38.336  31.025  31.334  1.00  0.00     0.074 A 
ATOM     45  C   UNL A   1      42.683  29.429  35.631  1.00  0.00     0.029 A 
ATOM     46  N   UNL A   1      41.450  29.603  33.790  1.00  0.00    -0.354 N 
ATOM     47  N   UNL A   1      39.285  30.656  32.157  1.00  0.00    -0.248 NA
ATOM     48  C   UNL A   1      37.290  31.854  31.949  1.00  0.00     0.031 C 
ATOM     49  C   UNL A   1      41.565  30.217  35.924  1.00  0.00     0.029 A 
ATOM     50  C   UNL A   1      40.815  30.352  34.769  1.00  0.00     0.049 A 
ATOM     51  H   UNL A   1      41.133  29.500  32.864  1.00  0.00     0.167 HD
ATOM     52  C   UNL A   1      38.956  31.216  33.384  1.00  0.00     0.074 A 
ATOM     53  C   UNL A   1      37.736  31.972  33.191  1.00  0.00     0.031 C 
ATOM     54  C   UNL A   1      39.604  31.103  34.568  1.00  0.00     0.031 A 
BRANCH  41  55
ATOM     55  C   UNL A   1      44.700  27.633  34.294  1.00  0.00    -0.014 A 
ATOM     56  C   UNL A   1      45.920  28.322  34.365  1.00  0.00     0.009 A 
ATOM     57  C   UNL A   1      44.574  26.410  34.978  1.00  0.00     0.009 A 
ATOM     58  C   UNL A   1      46.996  27.783  35.077  1.00  0.00     0.001 A 
ATOM     59  C   UNL A   1      45.639  25.889  35.714  1.00  0.00     0.001 A 
ATOM     60  C   UNL A   1      46.854  26.571  35.756  1.00  0.00     0.000 A 
ENDBRANCH  41  55
BRANCH  42  61
ATOM     61  C   UNL A   1      36.991  31.210  29.122  1.00  0.00    -0.014 A 
ATOM     62  C   UNL A   1      35.911  30.368  28.817  1.00  0.00     0.009 A 
ATOM     63  C   UNL A   1      36.946  32.547  28.692  1.00  0.00     0.009 A 
ATOM     64  C   UNL A   1      34.820  30.853  28.089  1.00  0.00     0.001 A 
ATOM     65  C   UNL A   1      35.836  33.040  28.004  1.00  0.00     0.001 A 
ATOM     66  C   UNL A   1      34.779  32.189  27.693  1.00  0.00     0.000 A 
ENDBRANCH  42  61
BRANCH  54  67
ATOM     67  C   UNL A   1      39.032  31.856  35.734  1.00  0.00    -0.014 A 
ATOM     68  C   UNL A   1      39.345  33.206  35.958  1.00  0.00     0.009 A 
ATOM     69  C   UNL A   1      38.151  31.206  36.614  1.00  0.00     0.009 A 
ATOM     70  C   UNL A   1      38.816  33.878  37.063  1.00  0.00     0.001 A 
ATOM     71  C   UNL A   1      37.601  31.889  37.699  1.00  0.00     0.001 A 
ATOM     72  C   UNL A   1      37.942  33.221  37.928  1.00  0.00     0.000 A 
ENDBRANCH  54  67
ENDBRANCH  28  29
ENDBRANCH  21  23
ENDBRANCH  20  21
ENDBRANCH   1  20
TORSDOF 12
ENDMDL
MODEL 2
REMARK VINA RESULT:     -10.8      4.553      9.421
REMARK SMILES Cc1nc([C@]2(C)CCCO2)nc(C)c1C(=O)OCCOC(=O)c1ccc(-c2c3nc(c(-c4ccccc4)c4ccc([nH]4)c(-c4ccccc4)c4nc(c(-c5ccccc5)c5ccc2[nH]5)C=C4)C=C3)cc1
REMARK SMILES IDX 19 1 18 2 17 3 15 4 16 5 14 6 1 7 2 8 3 9 4 10 12 11 11 12
REMARK SMILES IDX 13 13 5 14 7 15 10 16 6 17 8 18 9 19 20 20 21 21 22 22 23 23
REMARK SMILES IDX 24 24 70 25 25 26 69 27 26 28 27 29 28 30 63 31 29 32 68 33
REMARK SMILES IDX 62 34 64 35 30 36 67 37 61 38 60 39 31 41 53 42 38 43 52 44
REMARK SMILES IDX 39 45 42 46 51 47 65 48 40 49 41 50 50 52 66 53 43 54 32 55
REMARK SMILES IDX 33 56 37 57 34 58 36 59 35 60 54 61 55 62 59 63 56 64 58 65
REMARK SMILES IDX 57 66 44 67 45 68 49 69 46 70 48 71 47 72
REMARK H PARENT 64 40 42 51
REMARK Flexibility Score: inf
ROOT
ATOM      1  C   UNL A   1      33.231  35.561  28.838  1.00  0.00     0.275 C 
ENDROOT
BRANCH   1   2
ATOM      2  C   UNL A   1      34.487  34.757  28.508  1.00  0.00     0.275 C 
BRANCH   2   3
ATOM      3  O   UNL A   1      34.163  33.578  27.733  1.00  0.00    -0.458 OA
BRANCH   3   4
ATOM      4  C   UNL A   1      34.133  32.401  28.410  1.00  0.00     0.341 C 
ATOM      5  O   UNL A   1      34.334  32.269  29.600  1.00  0.00    -0.246 OA
BRANCH   4   6
ATOM      6  C   UNL A   1      33.802  31.256  27.527  1.00  0.00     0.102 A 
ATOM      7  C   UNL A   1      36.055  30.114  27.809  1.00  0.00     0.068 C 
ATOM      8  C   UNL A   1      34.660  30.194  27.261  1.00  0.00     0.056 A 
ATOM      9  N   UNL A   1      34.298  29.146  26.465  1.00  0.00    -0.234 NA
ATOM     10  C   UNL A   1      33.055  29.147  25.939  1.00  0.00     0.160 A 
ATOM     11  C   UNL A   1      32.537  31.144  26.967  1.00  0.00     0.056 A 
ATOM     12  N   UNL A   1      32.157  30.096  26.213  1.00  0.00    -0.234 NA
ATOM     13  C   UNL A   1      31.518  32.226  26.942  1.00  0.00     0.068 C 
BRANCH  10  14
ATOM     14  C   UNL A   1      32.603  28.052  24.966  1.00  0.00     0.125 C 
ATOM     15  C   UNL A   1      33.777  27.457  24.195  1.00  0.00     0.046 C 
ATOM     16  O   UNL A   1      31.726  28.597  23.955  1.00  0.00    -0.367 OA
ATOM     17  C   UNL A   1      31.823  26.952  25.706  1.00  0.00     0.051 C 
ATOM     18  C   UNL A   1      33.923  28.401  23.026  1.00  0.00     0.032 C 
ATOM     19  C   UNL A   1      32.510  28.908  22.797  1.00  0.00     0.161 C 
ENDBRANCH  10  14
ENDBRANCH   4   6
ENDBRANCH   3   4
ENDBRANCH   2   3
ENDBRANCH   1   2
BRANCH   1  20
ATOM     20  O   UNL A   1      32.613  35.026  30.023  1.00  0.00    -0.458 OA
BRANCH  20  21
ATOM     21  C   UNL A   1      32.787  35.748  31.152  1.00  0.00     0.338 C 
ATOM     22  O   UNL A   1      32.180  36.750  31.495  1.00  0.00    -0.246 OA
BRANCH  21  23
ATOM     23  C   UNL A   1      33.782  35.095  32.019  1.00  0.00     0.060 A 
ATOM     24  C   UNL A   1      35.047  35.653  32.099  1.00  0.00     0.016 A 
ATOM     25  C   UNL A   1      33.555  33.828  32.552  1.00  0.00     0.016 A 
ATOM     26  C   UNL A   1      36.119  34.866  32.520  1.00  0.00     0.010 A 
ATOM     27  C   UNL A   1      34.618  33.112  33.134  1.00  0.00     0.010 A 
ATOM     28  C   UNL A   1      35.940  33.585  33.060  1.00  0.00    -0.014 A 
BRANCH  28  29
ATOM     29  C   UNL A   1      37.122  32.744  33.467  1.00  0.00     0.031 A 
ATOM     30  C   UNL A   1      37.761  32.912  34.834  1.00  0.00     0.074 A 
ATOM     31  C   UNL A   1      37.624  31.781  32.659  1.00  0.00     0.049 A 
ATOM     32  N   UNL A   1      38.928  32.493  35.261  1.00  0.00    -0.248 NA
ATOM     33  C   UNL A   1      36.998  33.660  35.846  1.00  0.00     0.031 C 
ATOM     34  C   UNL A   1      37.103  31.400  31.343  1.00  0.00     0.029 A 
ATOM     35  N   UNL A   1      38.686  30.921  32.839  1.00  0.00    -0.354 N 
ATOM     36  C   UNL A   1      39.076  33.005  36.547  1.00  0.00     0.074 A 
ATOM     37  C   UNL A   1      37.875  33.758  36.836  1.00  0.00     0.031 C 
ATOM     38  C   UNL A   1      37.777  30.338  30.883  1.00  0.00     0.029 A 
ATOM     39  C   UNL A   1      38.892  30.068  31.778  1.00  0.00     0.049 A 
ATOM     40  H   UNL A   1      39.245  30.916  33.650  1.00  0.00     0.167 HD
ATOM     41  C   UNL A   1      40.119  32.871  37.405  1.00  0.00     0.031 A 
ATOM     42  C   UNL A   1      39.900  29.223  31.488  1.00  0.00     0.031 A 
ATOM     43  C   UNL A   1      41.281  32.057  37.154  1.00  0.00     0.049 A 
ATOM     44  C   UNL A   1      41.077  29.143  32.414  1.00  0.00     0.074 A 
ATOM     45  C   UNL A   1      42.391  31.864  37.961  1.00  0.00     0.029 A 
ATOM     46  N   UNL A   1      41.468  31.274  36.027  1.00  0.00    -0.354 N 
ATOM     47  N   UNL A   1      41.264  29.740  33.564  1.00  0.00    -0.248 NA
ATOM     48  C   UNL A   1      42.198  28.297  31.981  1.00  0.00     0.031 C 
ATOM     49  C   UNL A   1      43.272  31.002  37.299  1.00  0.00     0.029 A 
ATOM     50  C   UNL A   1      42.683  30.609  36.111  1.00  0.00     0.049 A 
ATOM     51  H   UNL A   1      40.835  31.200  35.278  1.00  0.00     0.167 HD
ATOM     52  C   UNL A   1      42.519  29.334  33.997  1.00  0.00     0.074 A 
ATOM     53  C   UNL A   1      43.035  28.420  33.001  1.00  0.00     0.031 C 
ATOM     54  C   UNL A   1      43.188  29.698  35.118  1.00  0.00     0.031 A 
BRANCH  41  55
ATOM     55  C   UNL A   1      40.087  33.667  38.684  1.00  0.00    -0.014 A 
ATOM     56  C   UNL A   1      40.561  34.984  38.759  1.00  0.00     0.009 A 
ATOM     57  C   UNL A   1      39.507  33.092  39.830  1.00  0.00     0.009 A 
ATOM     58  C   UNL A   1      40.487  35.696  39.961  1.00  0.00     0.001 A 
ATOM     59  C   UNL A   1      39.405  33.815  41.020  1.00  0.00     0.001 A 
ATOM     60  C   UNL A   1      39.904  35.114  41.087  1.00  0.00     0.000 A 
ENDBRANCH  41  55
BRANCH  42  61
ATOM     61  C   UNL A   1      39.896  28.473  30.201  1.00  0.00    -0.014 A 
ATOM     62  C   UNL A   1      39.350  27.184  30.119  1.00  0.00     0.009 A 
ATOM     63  C   UNL A   1      40.450  29.047  29.044  1.00  0.00     0.009 A 
ATOM     64  C   UNL A   1      39.371  26.484  28.908  1.00  0.00     0.001 A 
ATOM     65  C   UNL A   1      40.429  28.364  27.827  1.00  0.00     0.001 A 
ATOM     66  C   UNL A   1      39.900  27.078  27.763  1.00  0.00     0.000 A 
ENDBRANCH  42  61
BRANCH  54  67
ATOM     67  C   UNL A   1      44.529  29.065  35.348  1.00  0.00    -0.014 A 
ATOM     68  C   UNL A   1      44.651  27.823  35.991  1.00  0.00     0.009 A 
ATOM     69  C   UNL A   1      45.689  29.717  34.900  1.00  0.00     0.009 A 
ATOM     70  C   UNL A   1      45.912  27.266  36.213  1.00  0.00     0.001 A 
ATOM     71  C   UNL A   1      46.946  29.142  35.096  1.00  0.00     0.001 A 
ATOM     72  C   UNL A   1      47.057  27.923  35.762  1.00  0.00     0.000 A 
ENDBRANCH  54  67
ENDBRANCH  28  29
ENDBRANCH  21  23
ENDBRANCH  20  21
ENDBRANCH   1  20
TORSDOF 12
ENDMDL
MODEL 3
REMARK VINA RESULT:     -10.6      2.612      7.899
REMARK SMILES Cc1nc([C@]2(C)CCCO2)nc(C)c1C(=O)OCCOC(=O)c1ccc(-c2c3nc(c(-c4ccccc4)c4ccc([nH]4)c(-c4ccccc4)c4nc(c(-c5ccccc5)c5ccc2[nH]5)C=C4)C=C3)cc1
REMARK SMILES IDX 19 1 18 2 17 3 15 4 16 5 14 6 1 7 2 8 3 9 4 10 12 11 11 12
REMARK SMILES IDX 13 13 5 14 7 15 10 16 6 17 8 18 9 19 20 20 21 21 22 22 23 23
REMARK SMILES IDX 24 24 70 25 25 26 69 27 26 28 27 29 28 30 63 31 29 32 68 33
REMARK SMILES IDX 62 34 64 35 30 36 67 37 61 38 60 39 31 41 53 42 38 43 52 44
REMARK SMILES IDX 39 45 42 46 51 47 65 48 40 49 41 50 50 52 66 53 43 54 32 55
REMARK SMILES IDX 33 56 37 57 34 58 36 59 35 60 54 61 55 62 59 63 56 64 58 65
REMARK SMILES IDX 57 66 44 67 45 68 49 69 46 70 48 71 47 72
REMARK H PARENT 64 40 42 51
REMARK Flexibility Score: inf
ROOT
ATOM      1  C   UNL A   1      31.795  29.932  25.385  1.00  0.00     0.275 C 
ENDROOT
BRANCH   1   2
ATOM      2  C   UNL A   1      32.796  29.238  24.465  1.00  0.00     0.275 C 
BRANCH   2   3
ATOM      3  O   UNL A   1      32.124  28.559  23.379  1.00  0.00    -0.458 OA
BRANCH   3   4
ATOM      4  C   UNL A   1      31.358  27.489  23.718  1.00  0.00     0.341 C 
ATOM      5  O   UNL A   1      30.144  27.484  23.778  1.00  0.00    -0.246 OA
BRANCH   4   6
ATOM      6  C   UNL A   1      32.173  26.283  24.001  1.00  0.00     0.102 A 
ATOM      7  C   UNL A   1      31.858  26.401  26.520  1.00  0.00     0.068 C 
ATOM      8  C   UNL A   1      32.392  25.761  25.271  1.00  0.00     0.056 A 
ATOM      9  N   UNL A   1      33.126  24.629  25.478  1.00  0.00    -0.234 NA
ATOM     10  C   UNL A   1      33.636  23.997  24.400  1.00  0.00     0.160 A 
ATOM     11  C   UNL A   1      32.711  25.539  22.959  1.00  0.00     0.056 A 
ATOM     12  N   UNL A   1      33.403  24.401  23.150  1.00  0.00    -0.234 NA
ATOM     13  C   UNL A   1      32.782  25.984  21.543  1.00  0.00     0.068 C 
BRANCH  10  14
ATOM     14  C   UNL A   1      34.543  22.771  24.555  1.00  0.00     0.125 C 
ATOM     15  C   UNL A   1      35.360  22.826  25.842  1.00  0.00     0.046 C 
ATOM     16  O   UNL A   1      35.520  22.721  23.491  1.00  0.00    -0.367 OA
ATOM     17  C   UNL A   1      33.722  21.472  24.486  1.00  0.00     0.051 C 
ATOM     18  C   UNL A   1      36.567  23.638  25.438  1.00  0.00     0.032 C 
ATOM     19  C   UNL A   1      36.731  23.324  23.962  1.00  0.00     0.161 C 
ENDBRANCH  10  14
ENDBRANCH   4   6
ENDBRANCH   3   4
ENDBRANCH   2   3
ENDBRANCH   1   2
BRANCH   1  20
ATOM     20  O   UNL A   1      32.316  29.968  26.726  1.00  0.00    -0.458 OA
BRANCH  20  21
ATOM     21  C   UNL A   1      32.892  31.131  27.101  1.00  0.00     0.338 C 
ATOM     22  O   UNL A   1      32.350  32.215  27.250  1.00  0.00    -0.246 OA
BRANCH  21  23
ATOM     23  C   UNL A   1      34.311  30.910  27.423  1.00  0.00     0.060 A 
ATOM     24  C   UNL A   1      34.738  29.611  27.642  1.00  0.00     0.016 A 
ATOM     25  C   UNL A   1      35.154  31.973  27.742  1.00  0.00     0.016 A 
ATOM     26  C   UNL A   1      35.909  29.386  28.367  1.00  0.00     0.010 A 
ATOM     27  C   UNL A   1      36.413  31.721  28.316  1.00  0.00     0.010 A 
ATOM     28  C   UNL A   1      36.786  30.424  28.712  1.00  0.00    -0.014 A 
BRANCH  28  29
ATOM     29  C   UNL A   1      38.021  30.153  29.530  1.00  0.00     0.031 A 
ATOM     30  C   UNL A   1      39.189  29.381  28.942  1.00  0.00     0.074 A 
ATOM     31  C   UNL A   1      38.160  30.626  30.791  1.00  0.00     0.049 A 
ATOM     32  N   UNL A   1      40.202  28.816  29.554  1.00  0.00    -0.248 NA
ATOM     33  C   UNL A   1      39.213  29.207  27.480  1.00  0.00     0.031 C 
ATOM     34  C   UNL A   1      37.194  31.460  31.511  1.00  0.00     0.029 A 
ATOM     35  N   UNL A   1      39.191  30.486  31.695  1.00  0.00    -0.354 N 
ATOM     36  C   UNL A   1      40.924  28.146  28.569  1.00  0.00     0.074 A 
ATOM     37  C   UNL A   1      40.238  28.382  27.317  1.00  0.00     0.031 C 
ATOM     38  C   UNL A   1      37.711  31.831  32.689  1.00  0.00     0.029 A 
ATOM     39  C   UNL A   1      38.963  31.122  32.894  1.00  0.00     0.049 A 
ATOM     40  H   UNL A   1      40.014  29.979  31.501  1.00  0.00     0.167 HD
ATOM     41  C   UNL A   1      42.046  27.395  28.696  1.00  0.00     0.031 A 
ATOM     42  C   UNL A   1      39.621  31.083  34.069  1.00  0.00     0.031 A 
ATOM     43  C   UNL A   1      42.778  27.223  29.925  1.00  0.00     0.049 A 
ATOM     44  C   UNL A   1      40.818  30.191  34.210  1.00  0.00     0.074 A 
ATOM     45  C   UNL A   1      43.922  26.475  30.152  1.00  0.00     0.029 A 
ATOM     46  N   UNL A   1      42.457  27.832  31.127  1.00  0.00    -0.354 N 
ATOM     47  N   UNL A   1      41.410  29.455  33.302  1.00  0.00    -0.248 NA
ATOM     48  C   UNL A   1      41.417  30.098  35.549  1.00  0.00     0.031 C 
ATOM     49  C   UNL A   1      44.265  26.594  31.503  1.00  0.00     0.029 A 
ATOM     50  C   UNL A   1      43.372  27.464  32.102  1.00  0.00     0.049 A 
ATOM     51  H   UNL A   1      41.692  28.436  31.269  1.00  0.00     0.167 HD
ATOM     52  C   UNL A   1      42.455  28.820  33.958  1.00  0.00     0.074 A 
ATOM     53  C   UNL A   1      42.435  29.278  35.330  1.00  0.00     0.031 C 
ATOM     54  C   UNL A   1      43.347  27.927  33.464  1.00  0.00     0.031 A 
BRANCH  41  55
ATOM     55  C   UNL A   1      42.535  26.647  27.482  1.00  0.00    -0.014 A 
ATOM     56  C   UNL A   1      42.063  25.368  27.150  1.00  0.00     0.009 A 
ATOM     57  C   UNL A   1      43.452  27.273  26.619  1.00  0.00     0.009 A 
ATOM     58  C   UNL A   1      42.523  24.721  25.999  1.00  0.00     0.001 A 
ATOM     59  C   UNL A   1      43.886  26.639  25.454  1.00  0.00     0.001 A 
ATOM     60  C   UNL A   1      43.429  25.359  25.149  1.00  0.00     0.000 A 
ENDBRANCH  41  55
BRANCH  42  61
ATOM     61  C   UNL A   1      39.088  31.824  35.246  1.00  0.00    -0.014 A 
ATOM     62  C   UNL A   1      39.393  33.178  35.446  1.00  0.00     0.009 A 
ATOM     63  C   UNL A   1      38.270  31.171  36.185  1.00  0.00     0.009 A 
ATOM     64  C   UNL A   1      38.901  33.857  36.565  1.00  0.00     0.001 A 
ATOM     65  C   UNL A   1      37.744  31.862  37.277  1.00  0.00     0.001 A 
ATOM     66  C   UNL A   1      38.069  33.201  37.473  1.00  0.00     0.000 A 
ENDBRANCH  42  61
BRANCH  54  67
ATOM     67  C   UNL A   1      44.404  27.427  34.406  1.00  0.00    -0.014 A 
ATOM     68  C   UNL A   1      44.218  26.258  35.160  1.00  0.00     0.009 A 
ATOM     69  C   UNL A   1      45.613  28.131  34.528  1.00  0.00     0.009 A 
ATOM     70  C   UNL A   1      45.208  25.826  36.046  1.00  0.00     0.001 A 
ATOM     71  C   UNL A   1      46.612  27.680  35.390  1.00  0.00     0.001 A 
ATOM     72  C   UNL A   1      46.405  26.533  36.156  1.00  0.00     0.000 A 
ENDBRANCH  54  67
ENDBRANCH  28  29
ENDBRANCH  21  23
ENDBRANCH  20  21
ENDBRANCH   1  20
TORSDOF 12
ENDMDL
