MODEL 1
REMARK VINA RESULT:     -12.2      0.000      0.000
REMARK SMILES C[NH+]1CCC(C(=O)N2C[C@@H](C(=O)OCCOC(=O)c3ccc(-c4c5nc(c(-c6ccccc6)c6ccc([nH]6)c(-c6ccccc6)c6nc(c(-c7ccccc7)c7ccc4[nH]7)C=C6)C=C5)cc3)[C@H](c3ccc4c(c3)OCO4)C2)CC1
REMARK SMILES IDX 14 1 13 2 11 3 12 4 10 5 8 6 9 7 77 8 67 9 6 10 7 11 5 12
REMARK SMILES IDX 1 13 2 14 3 15 79 16 4 18 78 19 68 20 69 21 73 22 70 23
REMARK SMILES IDX 72 24 71 25 74 26 76 27 75 28 15 29 16 30 17 31 18 32 19 33
REMARK SMILES IDX 20 34 66 35 21 36 65 37 22 38 23 39 24 40 59 41 25 42 64 43
REMARK SMILES IDX 58 44 60 45 26 46 63 47 57 48 56 49 27 51 49 52 34 53 48 54
REMARK SMILES IDX 35 55 38 56 47 57 61 58 36 59 37 60 46 62 62 63 39 64 28 65
REMARK SMILES IDX 29 66 33 67 30 68 32 69 31 70 50 71 51 72 55 73 52 74 54 75
REMARK SMILES IDX 53 76 40 77 41 78 45 79 42 80 44 81 43 82
REMARK H PARENT 2 17 60 50 38 61
REMARK Flexibility Score: inf
ROOT
ATOM      1  C   UNL A   1      35.877  20.262  24.975  1.00  0.00     0.274 C 
ENDROOT
BRANCH   1   2
ATOM      2  O   UNL A   1      35.449  21.589  24.610  1.00  0.00    -0.462 OA
BRANCH   2   3
ATOM      3  C   UNL A   1      34.770  22.294  25.554  1.00  0.00     0.311 C 
ATOM      4  O   UNL A   1      35.207  22.607  26.654  1.00  0.00    -0.252 OA
BRANCH   3   5
ATOM      5  C   UNL A   1      33.368  22.600  25.089  1.00  0.00     0.128 C 
ATOM      6  N   UNL A   1      31.510  23.921  25.633  1.00  0.00    -0.341 N 
ATOM      7  C   UNL A   1      32.937  23.997  25.444  1.00  0.00     0.135 C 
ATOM      8  C   UNL A   1      31.116  22.572  26.021  1.00  0.00     0.128 C 
ATOM      9  C   UNL A   1      32.335  21.665  25.764  1.00  0.00     0.055 C 
BRANCH   6  10
ATOM     10  C   UNL A   1      30.655  24.991  25.790  1.00  0.00     0.226 C 
ATOM     11  O   UNL A   1      29.859  25.025  26.734  1.00  0.00    -0.275 OA
BRANCH  10  12
ATOM     12  C   UNL A   1      30.541  26.039  24.676  1.00  0.00     0.090 C 
ATOM     13  C   UNL A   1      29.972  29.855  22.780  1.00  0.00     0.332 C 
ATOM     14  N   UNL A   1      29.967  28.719  23.701  1.00  0.00    -0.337 N 
ATOM     15  C   UNL A   1      31.343  28.348  24.042  1.00  0.00     0.262 C 
ATOM     16  C   UNL A   1      29.246  27.573  23.125  1.00  0.00     0.262 C 
ATOM     17  H   UNL A   1      29.477  28.994  24.552  1.00  0.00     0.347 HD
ATOM     18  C   UNL A   1      31.332  27.276  25.119  1.00  0.00     0.075 C 
ATOM     19  C   UNL A   1      29.159  26.404  24.122  1.00  0.00     0.075 C 
ENDBRANCH  10  12
ENDBRANCH   6  10
BRANCH   9  20
ATOM     20  C   UNL A   1      32.230  20.451  24.848  1.00  0.00    -0.038 A 
ATOM     21  C   UNL A   1      32.166  20.554  23.442  1.00  0.00     0.008 A 
ATOM     22  C   UNL A   1      32.500  19.194  25.433  1.00  0.00     0.054 A 
ATOM     23  C   UNL A   1      32.459  19.451  22.629  1.00  0.00     0.051 A 
ATOM     24  C   UNL A   1      32.857  18.153  24.608  1.00  0.00     0.166 A 
ATOM     25  C   UNL A   1      32.851  18.282  23.243  1.00  0.00     0.165 A 
ATOM     26  O   UNL A   1      33.345  16.952  25.019  1.00  0.00    -0.454 OA
ATOM     27  O   UNL A   1      33.326  17.169  22.621  1.00  0.00    -0.454 OA
ATOM     28  C   UNL A   1      33.798  16.416  23.759  1.00  0.00     0.468 C 
ENDBRANCH   9  20
ENDBRANCH   3   5
ENDBRANCH   2   3
ENDBRANCH   1   2
BRANCH   1  29
ATOM     29  C   UNL A   1      37.385  20.112  24.801  1.00  0.00     0.275 C 
BRANCH  29  30
ATOM     30  O   UNL A   1      38.054  21.261  25.353  1.00  0.00    -0.458 OA
BRANCH  30  31
ATOM     31  C   UNL A   1      39.193  21.000  26.029  1.00  0.00     0.338 C 
ATOM     32  O   UNL A   1      39.803  19.948  26.096  1.00  0.00    -0.246 OA
BRANCH  31  33
ATOM     33  C   UNL A   1      39.694  22.242  26.635  1.00  0.00     0.060 A 
ATOM     34  C   UNL A   1      39.139  23.445  26.214  1.00  0.00     0.016 A 
ATOM     35  C   UNL A   1      40.802  22.237  27.473  1.00  0.00     0.016 A 
ATOM     36  C   UNL A   1      39.753  24.653  26.523  1.00  0.00     0.010 A 
ATOM     37  C   UNL A   1      41.354  23.459  27.879  1.00  0.00     0.010 A 
ATOM     38  C   UNL A   1      40.865  24.679  27.371  1.00  0.00    -0.014 A 
BRANCH  38  39
ATOM     39  C   UNL A   1      41.547  25.967  27.677  1.00  0.00     0.031 A 
ATOM     40  C   UNL A   1      40.897  26.957  28.609  1.00  0.00     0.074 A 
ATOM     41  C   UNL A   1      42.753  26.254  27.147  1.00  0.00     0.049 A 
ATOM     42  N   UNL A   1      41.218  28.204  28.844  1.00  0.00    -0.248 NA
ATOM     43  C   UNL A   1      39.723  26.488  29.364  1.00  0.00     0.031 C 
ATOM     44  C   UNL A   1      43.540  25.372  26.282  1.00  0.00     0.029 A 
ATOM     45  N   UNL A   1      43.537  27.376  27.270  1.00  0.00    -0.354 N 
ATOM     46  C   UNL A   1      40.241  28.690  29.705  1.00  0.00     0.074 A 
ATOM     47  C   UNL A   1      39.327  27.600  29.967  1.00  0.00     0.031 C 
ATOM     48  C   UNL A   1      44.709  25.965  25.991  1.00  0.00     0.029 A 
ATOM     49  C   UNL A   1      44.716  27.303  26.569  1.00  0.00     0.049 A 
ATOM     50  H   UNL A   1      43.278  28.158  27.809  1.00  0.00     0.167 HD
ATOM     51  C   UNL A   1      40.111  29.936  30.218  1.00  0.00     0.031 A 
ATOM     52  C   UNL A   1      45.678  28.224  26.372  1.00  0.00     0.031 A 
ATOM     53  C   UNL A   1      41.058  31.000  30.017  1.00  0.00     0.049 A 
ATOM     54  C   UNL A   1      45.510  29.599  26.948  1.00  0.00     0.074 A 
ATOM     55  C   UNL A   1      41.020  32.293  30.511  1.00  0.00     0.029 A 
ATOM     56  N   UNL A   1      42.227  30.885  29.284  1.00  0.00    -0.354 N 
ATOM     57  N   UNL A   1      44.541  30.067  27.698  1.00  0.00    -0.248 NA
ATOM     58  C   UNL A   1      46.557  30.581  26.632  1.00  0.00     0.031 C 
ATOM     59  C   UNL A   1      42.155  32.970  30.053  1.00  0.00     0.029 A 
ATOM     60  C   UNL A   1      42.915  32.086  29.306  1.00  0.00     0.049 A 
ATOM     61  H   UNL A   1      42.524  30.072  28.816  1.00  0.00     0.167 HD
ATOM     62  C   UNL A   1      44.868  31.392  27.950  1.00  0.00     0.074 A 
ATOM     63  C   UNL A   1      46.133  31.649  27.293  1.00  0.00     0.031 C 
ATOM     64  C   UNL A   1      44.177  32.318  28.656  1.00  0.00     0.031 A 
BRANCH  51  65
ATOM     65  C   UNL A   1      38.873  30.237  31.011  1.00  0.00    -0.014 A 
ATOM     66  C   UNL A   1      37.734  30.800  30.417  1.00  0.00     0.009 A 
ATOM     67  C   UNL A   1      38.836  29.899  32.374  1.00  0.00     0.009 A 
ATOM     68  C   UNL A   1      36.589  31.040  31.181  1.00  0.00     0.001 A 
ATOM     69  C   UNL A   1      37.683  30.119  33.129  1.00  0.00     0.001 A 
ATOM     70  C   UNL A   1      36.563  30.695  32.533  1.00  0.00     0.000 A 
ENDBRANCH  51  65
BRANCH  52  71
ATOM     71  C   UNL A   1      46.865  27.898  25.537  1.00  0.00    -0.014 A 
ATOM     72  C   UNL A   1      46.794  27.970  24.138  1.00  0.00     0.009 A 
ATOM     73  C   UNL A   1      48.069  27.498  26.136  1.00  0.00     0.009 A 
ATOM     74  C   UNL A   1      47.899  27.627  23.355  1.00  0.00     0.001 A 
ATOM     75  C   UNL A   1      49.182  27.185  25.353  1.00  0.00     0.001 A 
ATOM     76  C   UNL A   1      49.092  27.240  23.964  1.00  0.00     0.000 A 
ENDBRANCH  52  71
BRANCH  64  77
ATOM     77  C   UNL A   1      44.795  33.677  28.783  1.00  0.00    -0.014 A 
ATOM     78  C   UNL A   1      44.497  34.697  27.866  1.00  0.00     0.009 A 
ATOM     79  C   UNL A   1      45.665  33.949  29.850  1.00  0.00     0.009 A 
ATOM     80  C   UNL A   1      45.083  35.957  28.000  1.00  0.00     0.001 A 
ATOM     81  C   UNL A   1      46.232  35.215  29.992  1.00  0.00     0.001 A 
ATOM     82  C   UNL A   1      45.948  36.215  29.064  1.00  0.00     0.000 A 
ENDBRANCH  64  77
ENDBRANCH  38  39
ENDBRANCH  31  33
ENDBRANCH  30  31
ENDBRANCH  29  30
ENDBRANCH   1  29
TORSDOF 14
ENDMDL
MODEL 2
REMARK VINA RESULT:     -12.2      0.563      5.816
REMARK SMILES C[NH+]1CCC(C(=O)N2C[C@@H](C(=O)OCCOC(=O)c3ccc(-c4c5nc(c(-c6ccccc6)c6ccc([nH]6)c(-c6ccccc6)c6nc(c(-c7ccccc7)c7ccc4[nH]7)C=C6)C=C5)cc3)[C@H](c3ccc4c(c3)OCO4)C2)CC1
REMARK SMILES IDX 14 1 13 2 11 3 12 4 10 5 8 6 9 7 77 8 67 9 6 10 7 11 5 12
REMARK SMILES IDX 1 13 2 14 3 15 79 16 4 18 78 19 68 20 69 21 73 22 70 23
REMARK SMILES IDX 72 24 71 25 74 26 76 27 75 28 15 29 16 30 17 31 18 32 19 33
REMARK SMILES IDX 20 34 66 35 21 36 65 37 22 38 23 39 24 40 59 41 25 42 64 43
REMARK SMILES IDX 58 44 60 45 26 46 63 47 57 48 56 49 27 51 49 52 34 53 48 54
REMARK SMILES IDX 35 55 38 56 47 57 61 58 36 59 37 60 46 62 62 63 39 64 28 65
REMARK SMILES IDX 29 66 33 67 30 68 32 69 31 70 50 71 51 72 55 73 52 74 54 75
REMARK SMILES IDX 53 76 40 77 41 78 45 79 42 80 44 81 43 82
REMARK H PARENT 2 17 60 50 38 61
REMARK Flexibility Score: inf
ROOT
ATOM      1  C   UNL A   1      36.175  19.932  24.951  1.00  0.00     0.274 C 
ENDROOT
BRANCH   1   2
ATOM      2  O   UNL A   1      35.756  21.263  24.587  1.00  0.00    -0.462 OA
BRANCH   2   3
ATOM      3  C   UNL A   1      35.116  21.986  25.544  1.00  0.00     0.311 C 
ATOM      4  O   UNL A   1      35.561  22.236  26.657  1.00  0.00    -0.252 OA
BRANCH   3   5
ATOM      5  C   UNL A   1      33.744  22.401  25.074  1.00  0.00     0.128 C 
ATOM      6  N   UNL A   1      32.022  23.910  25.573  1.00  0.00    -0.341 N 
ATOM      7  C   UNL A   1      33.447  23.846  25.373  1.00  0.00     0.135 C 
ATOM      8  C   UNL A   1      31.508  22.620  26.020  1.00  0.00     0.128 C 
ATOM      9  C   UNL A   1      32.636  21.594  25.794  1.00  0.00     0.055 C 
BRANCH   6  10
ATOM     10  C   UNL A   1      31.271  25.060  25.691  1.00  0.00     0.226 C 
ATOM     11  O   UNL A   1      30.393  25.152  26.555  1.00  0.00    -0.275 OA
BRANCH  10  12
ATOM     12  C   UNL A   1      31.377  26.147  24.614  1.00  0.00     0.090 C 
ATOM     13  C   UNL A   1      30.325  29.558  22.216  1.00  0.00     0.332 C 
ATOM     14  N   UNL A   1      30.311  28.382  23.086  1.00  0.00    -0.337 N 
ATOM     15  C   UNL A   1      31.117  28.637  24.283  1.00  0.00     0.262 C 
ATOM     16  C   UNL A   1      30.799  27.190  22.374  1.00  0.00     0.262 C 
ATOM     17  H   UNL A   1      29.348  28.199  23.367  1.00  0.00     0.347 HD
ATOM     18  C   UNL A   1      30.969  27.479  25.256  1.00  0.00     0.075 C 
ATOM     19  C   UNL A   1      30.703  25.931  23.254  1.00  0.00     0.075 C 
ENDBRANCH  10  12
ENDBRANCH   6  10
BRANCH   9  20
ATOM     20  C   UNL A   1      32.410  20.360  24.929  1.00  0.00    -0.038 A 
ATOM     21  C   UNL A   1      32.218  20.425  23.532  1.00  0.00     0.008 A 
ATOM     22  C   UNL A   1      32.696  19.111  25.525  1.00  0.00     0.054 A 
ATOM     23  C   UNL A   1      32.402  19.291  22.731  1.00  0.00     0.051 A 
ATOM     24  C   UNL A   1      32.944  18.037  24.704  1.00  0.00     0.166 A 
ATOM     25  C   UNL A   1      32.815  18.127  23.341  1.00  0.00     0.165 A 
ATOM     26  O   UNL A   1      33.433  16.833  25.104  1.00  0.00    -0.454 OA
ATOM     27  O   UNL A   1      33.197  16.983  22.713  1.00  0.00    -0.454 OA
ATOM     28  C   UNL A   1      33.751  16.247  23.826  1.00  0.00     0.468 C 
ENDBRANCH   9  20
ENDBRANCH   3   5
ENDBRANCH   2   3
ENDBRANCH   1   2
BRANCH   1  29
ATOM     29  C   UNL A   1      37.694  19.806  24.891  1.00  0.00     0.275 C 
BRANCH  29  30
ATOM     30  O   UNL A   1      38.300  21.021  25.367  1.00  0.00    -0.458 OA
BRANCH  30  31
ATOM     31  C   UNL A   1      39.386  20.858  26.152  1.00  0.00     0.338 C 
ATOM     32  O   UNL A   1      40.030  19.842  26.343  1.00  0.00    -0.246 OA
BRANCH  31  33
ATOM     33  C   UNL A   1      39.783  22.159  26.709  1.00  0.00     0.060 A 
ATOM     34  C   UNL A   1      39.082  23.287  26.300  1.00  0.00     0.016 A 
ATOM     35  C   UNL A   1      40.928  22.290  27.487  1.00  0.00     0.016 A 
ATOM     36  C   UNL A   1      39.580  24.560  26.554  1.00  0.00     0.010 A 
ATOM     37  C   UNL A   1      41.368  23.572  27.841  1.00  0.00     0.010 A 
ATOM     38  C   UNL A   1      40.725  24.722  27.340  1.00  0.00    -0.014 A 
BRANCH  38  39
ATOM     39  C   UNL A   1      41.281  26.081  27.587  1.00  0.00     0.031 A 
ATOM     40  C   UNL A   1      42.569  26.497  26.924  1.00  0.00     0.074 A 
ATOM     41  C   UNL A   1      40.635  26.959  28.381  1.00  0.00     0.049 A 
ATOM     42  N   UNL A   1      43.321  27.542  27.161  1.00  0.00    -0.248 NA
ATOM     43  C   UNL A   1      43.091  25.612  25.869  1.00  0.00     0.031 C 
ATOM     44  C   UNL A   1      39.346  26.731  29.038  1.00  0.00     0.029 A 
ATOM     45  N   UNL A   1      40.975  28.235  28.761  1.00  0.00    -0.354 N 
ATOM     46  C   UNL A   1      44.439  27.397  26.348  1.00  0.00     0.074 A 
ATOM     47  C   UNL A   1      44.259  26.174  25.596  1.00  0.00     0.031 C 
ATOM     48  C   UNL A   1      38.985  27.841  29.700  1.00  0.00     0.029 A 
ATOM     49  C   UNL A   1      40.055  28.825  29.594  1.00  0.00     0.049 A 
ATOM     50  H   UNL A   1      41.800  28.684  28.465  1.00  0.00     0.167 HD
ATOM     51  C   UNL A   1      45.521  28.204  26.248  1.00  0.00     0.031 A 
ATOM     52  C   UNL A   1      40.085  30.006  30.239  1.00  0.00     0.031 A 
ATOM     53  C   UNL A   1      45.667  29.456  26.940  1.00  0.00     0.049 A 
ATOM     54  C   UNL A   1      41.298  30.881  30.115  1.00  0.00     0.074 A 
ATOM     55  C   UNL A   1      46.722  30.352  26.888  1.00  0.00     0.029 A 
ATOM     56  N   UNL A   1      44.719  30.003  27.787  1.00  0.00    -0.354 N 
ATOM     57  N   UNL A   1      42.381  30.694  29.400  1.00  0.00    -0.248 NA
ATOM     58  C   UNL A   1      41.302  32.121  30.905  1.00  0.00     0.031 C 
ATOM     59  C   UNL A   1      46.422  31.429  27.728  1.00  0.00     0.029 A 
ATOM     60  C   UNL A   1      45.166  31.220  28.271  1.00  0.00     0.049 A 
ATOM     61  H   UNL A   1      43.855  29.587  28.013  1.00  0.00     0.167 HD
ATOM     62  C   UNL A   1      43.189  31.796  29.647  1.00  0.00     0.074 A 
ATOM     63  C   UNL A   1      42.464  32.656  30.560  1.00  0.00     0.031 C 
ATOM     64  C   UNL A   1      44.426  32.066  29.168  1.00  0.00     0.031 A 
BRANCH  51  65
ATOM     65  C   UNL A   1      46.662  27.735  25.393  1.00  0.00    -0.014 A 
ATOM     66  C   UNL A   1      47.669  26.900  25.897  1.00  0.00     0.009 A 
ATOM     67  C   UNL A   1      46.695  28.102  24.037  1.00  0.00     0.009 A 
ATOM     68  C   UNL A   1      48.700  26.460  25.064  1.00  0.00     0.001 A 
ATOM     69  C   UNL A   1      47.714  27.643  23.202  1.00  0.00     0.001 A 
ATOM     70  C   UNL A   1      48.719  26.828  23.718  1.00  0.00     0.000 A 
ENDBRANCH  51  65
BRANCH  52  71
ATOM     71  C   UNL A   1      38.954  30.407  31.115  1.00  0.00    -0.014 A 
ATOM     72  C   UNL A   1      38.898  29.976  32.449  1.00  0.00     0.009 A 
ATOM     73  C   UNL A   1      37.917  31.211  30.617  1.00  0.00     0.009 A 
ATOM     74  C   UNL A   1      37.814  30.324  33.260  1.00  0.00     0.001 A 
ATOM     75  C   UNL A   1      36.850  31.584  31.438  1.00  0.00     0.001 A 
ATOM     76  C   UNL A   1      36.795  31.131  32.755  1.00  0.00     0.000 A 
ENDBRANCH  52  71
BRANCH  64  77
ATOM     77  C   UNL A   1      45.052  33.360  29.593  1.00  0.00    -0.014 A 
ATOM     78  C   UNL A   1      45.871  33.429  30.730  1.00  0.00     0.009 A 
ATOM     79  C   UNL A   1      44.841  34.518  28.830  1.00  0.00     0.009 A 
ATOM     80  C   UNL A   1      46.445  34.643  31.111  1.00  0.00     0.001 A 
ATOM     81  C   UNL A   1      45.433  35.725  29.201  1.00  0.00     0.001 A 
ATOM     82  C   UNL A   1      46.227  35.789  30.345  1.00  0.00     0.000 A 
ENDBRANCH  64  77
ENDBRANCH  38  39
ENDBRANCH  31  33
ENDBRANCH  30  31
ENDBRANCH  29  30
ENDBRANCH   1  29
TORSDOF 14
ENDMDL
MODEL 3
REMARK VINA RESULT:     -12.0      2.597      6.013
REMARK SMILES C[NH+]1CCC(C(=O)N2C[C@@H](C(=O)OCCOC(=O)c3ccc(-c4c5nc(c(-c6ccccc6)c6ccc([nH]6)c(-c6ccccc6)c6nc(c(-c7ccccc7)c7ccc4[nH]7)C=C6)C=C5)cc3)[C@H](c3ccc4c(c3)OCO4)C2)CC1
REMARK SMILES IDX 14 1 13 2 11 3 12 4 10 5 8 6 9 7 77 8 67 9 6 10 7 11 5 12
REMARK SMILES IDX 1 13 2 14 3 15 79 16 4 18 78 19 68 20 69 21 73 22 70 23
REMARK SMILES IDX 72 24 71 25 74 26 76 27 75 28 15 29 16 30 17 31 18 32 19 33
REMARK SMILES IDX 20 34 66 35 21 36 65 37 22 38 23 39 24 40 59 41 25 42 64 43
REMARK SMILES IDX 58 44 60 45 26 46 63 47 57 48 56 49 27 51 49 52 34 53 48 54
REMARK SMILES IDX 35 55 38 56 47 57 61 58 36 59 37 60 46 62 62 63 39 64 28 65
REMARK SMILES IDX 29 66 33 67 30 68 32 69 31 70 50 71 51 72 55 73 52 74 54 75
REMARK SMILES IDX 53 76 40 77 41 78 45 79 42 80 44 81 43 82
REMARK H PARENT 2 17 60 50 38 61
REMARK Flexibility Score: inf
ROOT
ATOM      1  C   UNL A   1      38.220  21.168  25.306  1.00  0.00     0.274 C 
ENDROOT
BRANCH   1   2
ATOM      2  O   UNL A   1      36.964  21.092  24.603  1.00  0.00    -0.462 OA
BRANCH   2   3
ATOM      3  C   UNL A   1      35.874  21.598  25.239  1.00  0.00     0.311 C 
ATOM      4  O   UNL A   1      35.672  21.545  26.446  1.00  0.00    -0.252 OA
BRANCH   3   5
ATOM      5  C   UNL A   1      34.904  22.194  24.249  1.00  0.00     0.128 C 
ATOM      6  N   UNL A   1      33.893  24.230  23.684  1.00  0.00    -0.341 N 
ATOM      7  C   UNL A   1      35.177  23.650  23.984  1.00  0.00     0.135 C 
ATOM      8  C   UNL A   1      32.823  23.461  24.309  1.00  0.00     0.128 C 
ATOM      9  C   UNL A   1      33.452  22.135  24.781  1.00  0.00     0.055 C 
BRANCH   6  10
ATOM     10  C   UNL A   1      33.672  25.501  23.198  1.00  0.00     0.226 C 
ATOM     11  O   UNL A   1      33.982  25.795  22.040  1.00  0.00    -0.275 OA
BRANCH  10  12
ATOM     12  C   UNL A   1      33.237  26.614  24.161  1.00  0.00     0.090 C 
ATOM     13  C   UNL A   1      33.324  30.328  26.326  1.00  0.00     0.332 C 
ATOM     14  N   UNL A   1      33.666  29.124  25.569  1.00  0.00    -0.337 N 
ATOM     15  C   UNL A   1      32.953  29.120  24.289  1.00  0.00     0.262 C 
ATOM     16  C   UNL A   1      33.359  27.909  26.340  1.00  0.00     0.262 C 
ATOM     17  H   UNL A   1      34.670  29.128  25.389  1.00  0.00     0.347 HD
ATOM     18  C   UNL A   1      33.431  27.954  23.440  1.00  0.00     0.075 C 
ATOM     19  C   UNL A   1      33.797  26.639  25.587  1.00  0.00     0.075 C 
ENDBRANCH  10  12
ENDBRANCH   6  10
BRANCH   9  20
ATOM     20  C   UNL A   1      32.902  20.795  24.307  1.00  0.00    -0.038 A 
ATOM     21  C   UNL A   1      32.439  20.576  22.992  1.00  0.00     0.008 A 
ATOM     22  C   UNL A   1      33.147  19.682  25.143  1.00  0.00     0.054 A 
ATOM     23  C   UNL A   1      32.313  19.277  22.484  1.00  0.00     0.051 A 
ATOM     24  C   UNL A   1      33.086  18.424  24.589  1.00  0.00     0.166 A 
ATOM     25  C   UNL A   1      32.693  18.228  23.290  1.00  0.00     0.165 A 
ATOM     26  O   UNL A   1      33.492  17.276  25.193  1.00  0.00    -0.454 OA
ATOM     27  O   UNL A   1      32.794  16.924  22.916  1.00  0.00    -0.454 OA
ATOM     28  C   UNL A   1      33.468  16.373  24.069  1.00  0.00     0.468 C 
ENDBRANCH   9  20
ENDBRANCH   3   5
ENDBRANCH   2   3
ENDBRANCH   1   2
BRANCH   1  29
ATOM     29  C   UNL A   1      38.958  19.834  25.246  1.00  0.00     0.275 C 
BRANCH  29  30
ATOM     30  O   UNL A   1      39.840  19.717  26.377  1.00  0.00    -0.458 OA
BRANCH  30  31
ATOM     31  C   UNL A   1      41.158  19.725  26.087  1.00  0.00     0.338 C 
ATOM     32  O   UNL A   1      41.795  18.897  25.462  1.00  0.00    -0.246 OA
BRANCH  31  33
ATOM     33  C   UNL A   1      41.753  20.982  26.563  1.00  0.00     0.060 A 
ATOM     34  C   UNL A   1      41.743  21.234  27.930  1.00  0.00     0.016 A 
ATOM     35  C   UNL A   1      42.159  21.969  25.672  1.00  0.00     0.016 A 
ATOM     36  C   UNL A   1      42.019  22.506  28.416  1.00  0.00     0.010 A 
ATOM     37  C   UNL A   1      42.547  23.219  26.171  1.00  0.00     0.010 A 
ATOM     38  C   UNL A   1      42.437  23.517  27.544  1.00  0.00    -0.014 A 
BRANCH  38  39
ATOM     39  C   UNL A   1      42.700  24.890  28.056  1.00  0.00     0.031 A 
ATOM     40  C   UNL A   1      44.107  25.306  28.398  1.00  0.00     0.074 A 
ATOM     41  C   UNL A   1      41.696  25.780  28.197  1.00  0.00     0.049 A 
ATOM     42  N   UNL A   1      44.521  26.369  29.042  1.00  0.00    -0.248 NA
ATOM     43  C   UNL A   1      45.190  24.402  27.978  1.00  0.00     0.031 C 
ATOM     44  C   UNL A   1      40.293  25.551  27.844  1.00  0.00     0.029 A 
ATOM     45  N   UNL A   1      41.709  27.070  28.669  1.00  0.00    -0.354 N 
ATOM     46  C   UNL A   1      45.896  26.218  29.176  1.00  0.00     0.074 A 
ATOM     47  C   UNL A   1      46.251  24.973  28.530  1.00  0.00     0.031 C 
ATOM     48  C   UNL A   1      39.592  26.672  28.069  1.00  0.00     0.029 A 
ATOM     49  C   UNL A   1      40.471  27.668  28.668  1.00  0.00     0.049 A 
ATOM     50  H   UNL A   1      42.526  27.523  28.980  1.00  0.00     0.167 HD
ATOM     51  C   UNL A   1      46.780  27.037  29.792  1.00  0.00     0.031 A 
ATOM     52  C   UNL A   1      40.076  28.867  29.136  1.00  0.00     0.031 A 
ATOM     53  C   UNL A   1      46.440  28.310  30.371  1.00  0.00     0.049 A 
ATOM     54  C   UNL A   1      41.074  29.756  29.819  1.00  0.00     0.074 A 
ATOM     55  C   UNL A   1      47.272  29.219  31.003  1.00  0.00     0.029 A 
ATOM     56  N   UNL A   1      45.172  28.865  30.362  1.00  0.00    -0.354 N 
ATOM     57  N   UNL A   1      42.357  29.565  30.005  1.00  0.00    -0.248 NA
ATOM     58  C   UNL A   1      40.562  31.016  30.377  1.00  0.00     0.031 C 
ATOM     59  C   UNL A   1      46.499  30.314  31.402  1.00  0.00     0.029 A 
ATOM     60  C   UNL A   1      45.196  30.101  30.985  1.00  0.00     0.049 A 
ATOM     61  H   UNL A   1      44.373  28.444  29.973  1.00  0.00     0.167 HD
ATOM     62  C   UNL A   1      42.807  30.685  30.692  1.00  0.00     0.074 A 
ATOM     63  C   UNL A   1      41.666  31.559  30.871  1.00  0.00     0.031 C 
ATOM     64  C   UNL A   1      44.054  30.960  31.143  1.00  0.00     0.031 A 
BRANCH  51  65
ATOM     65  C   UNL A   1      48.198  26.562  29.920  1.00  0.00    -0.014 A 
ATOM     66  C   UNL A   1      48.610  25.744  30.981  1.00  0.00     0.009 A 
ATOM     67  C   UNL A   1      49.125  26.906  28.923  1.00  0.00     0.009 A 
ATOM     68  C   UNL A   1      49.932  25.298  31.052  1.00  0.00     0.001 A 
ATOM     69  C   UNL A   1      50.439  26.440  28.984  1.00  0.00     0.001 A 
ATOM     70  C   UNL A   1      50.843  25.642  30.052  1.00  0.00     0.000 A 
ENDBRANCH  51  65
BRANCH  52  71
ATOM     71  C   UNL A   1      38.651  29.275  29.033  1.00  0.00    -0.014 A 
ATOM     72  C   UNL A   1      37.781  29.108  30.121  1.00  0.00     0.009 A 
ATOM     73  C   UNL A   1      38.149  29.820  27.840  1.00  0.00     0.009 A 
ATOM     74  C   UNL A   1      36.433  29.458  30.009  1.00  0.00     0.001 A 
ATOM     75  C   UNL A   1      36.809  30.198  27.741  1.00  0.00     0.001 A 
ATOM     76  C   UNL A   1      35.950  30.007  28.821  1.00  0.00     0.000 A 
ENDBRANCH  52  71
BRANCH  64  77
ATOM     77  C   UNL A   1      44.251  32.274  31.837  1.00  0.00    -0.014 A 
ATOM     78  C   UNL A   1      44.578  33.432  31.115  1.00  0.00     0.009 A 
ATOM     79  C   UNL A   1      44.082  32.358  33.227  1.00  0.00     0.009 A 
ATOM     80  C   UNL A   1      44.759  34.646  31.779  1.00  0.00     0.001 A 
ATOM     81  C   UNL A   1      44.244  33.578  33.884  1.00  0.00     0.001 A 
ATOM     82  C   UNL A   1      44.590  34.719  33.162  1.00  0.00     0.000 A 
ENDBRANCH  64  77
ENDBRANCH  38  39
ENDBRANCH  31  33
ENDBRANCH  30  31
ENDBRANCH  29  30
ENDBRANCH   1  29
TORSDOF 14
ENDMDL
