MODEL 1
REMARK VINA RESULT:     -12.5      0.000      0.000
REMARK SMILES Cc1c(CC(=O)OCCOC(=O)c2ccc(-c3c4nc(c(-c5ccccc5)c5ccc([nH]5)c(-c5ccccc5)c5nc(c(-c6ccccc6)c6ccc3[nH]6)C=C5)C=C4)cc2)c2ccccc2n1C(=O)c1ccc(Cl)cc1
REMARK SMILES IDX 8 1 7 2 5 3 6 4 4 5 3 6 1 7 2 8 67 9 61 10 66 11 62 12 65 13
REMARK SMILES IDX 63 14 64 15 68 16 69 17 70 18 71 19 76 20 72 21 75 22 73 23
REMARK SMILES IDX 74 24 9 25 10 26 11 27 12 28 13 29 14 30 60 31 15 32 59 33
REMARK SMILES IDX 16 34 17 35 18 36 53 37 19 38 58 39 52 40 54 41 20 42 57 43
REMARK SMILES IDX 51 44 50 45 21 47 43 48 28 49 42 50 29 51 32 52 41 53 55 54
REMARK SMILES IDX 30 55 31 56 40 58 56 59 33 60 22 61 23 62 27 63 24 64 26 65
REMARK SMILES IDX 25 66 44 67 45 68 49 69 46 70 48 71 47 72 34 73 35 74 39 75
REMARK SMILES IDX 36 76 38 77 37 78
REMARK H PARENT 54 46 32 57
REMARK Flexibility Score: inf
ROOT
ATOM      1  C   UNL A   1      34.162  21.988  26.730  1.00  0.00     0.274 C 
ENDROOT
BRANCH   1   2
ATOM      2  O   UNL A   1      32.722  21.874  26.786  1.00  0.00    -0.462 OA
BRANCH   2   3
ATOM      3  C   UNL A   1      32.045  23.038  26.651  1.00  0.00     0.310 C 
ATOM      4  O   UNL A   1      31.474  23.614  27.576  1.00  0.00    -0.252 OA
BRANCH   3   5
ATOM      5  C   UNL A   1      31.937  23.564  25.252  1.00  0.00     0.160 C 
BRANCH   5   6
ATOM      6  C   UNL A   1      31.906  25.034  24.937  1.00  0.00    -0.008 A 
ATOM      7  C   UNL A   1      34.481  25.259  24.877  1.00  0.00     0.065 C 
ATOM      8  C   UNL A   1      33.077  25.768  24.772  1.00  0.00     0.028 A 
ATOM      9  N   UNL A   1      32.749  27.094  24.509  1.00  0.00    -0.280 N 
ATOM     10  C   UNL A   1      30.836  25.895  24.527  1.00  0.00     0.004 A 
ATOM     11  C   UNL A   1      31.397  27.120  24.138  1.00  0.00     0.056 A 
ATOM     12  C   UNL A   1      29.437  25.755  24.387  1.00  0.00     0.010 A 
ATOM     13  C   UNL A   1      30.604  28.119  23.521  1.00  0.00     0.027 A 
ATOM     14  C   UNL A   1      28.654  26.740  23.774  1.00  0.00     0.001 A 
ATOM     15  C   UNL A   1      29.237  27.912  23.338  1.00  0.00     0.002 A 
BRANCH   9  16
ATOM     16  C   UNL A   1      33.631  28.202  24.595  1.00  0.00     0.262 C 
ATOM     17  O   UNL A   1      34.355  28.470  23.638  1.00  0.00    -0.268 OA
BRANCH  16  18
ATOM     18  C   UNL A   1      33.771  29.065  25.769  1.00  0.00     0.040 A 
ATOM     19  C   UNL A   1      32.835  30.073  26.021  1.00  0.00     0.015 A 
ATOM     20  C   UNL A   1      34.887  28.885  26.592  1.00  0.00     0.015 A 
ATOM     21  C   UNL A   1      33.055  30.949  27.084  1.00  0.00     0.021 A 
ATOM     22  C   UNL A   1      35.097  29.762  27.654  1.00  0.00     0.021 A 
ATOM     23  C   UNL A   1      34.186  30.795  27.888  1.00  0.00     0.041 A 
ATOM     24  Cl  UNL A   1      34.476  31.905  29.170  1.00  0.00    -0.084 Cl
ENDBRANCH  16  18
ENDBRANCH   9  16
ENDBRANCH   5   6
ENDBRANCH   3   5
ENDBRANCH   2   3
ENDBRANCH   1   2
BRANCH   1  25
ATOM     25  C   UNL A   1      34.716  21.245  25.511  1.00  0.00     0.275 C 
BRANCH  25  26
ATOM     26  O   UNL A   1      35.990  21.808  25.160  1.00  0.00    -0.458 OA
BRANCH  26  27
ATOM     27  C   UNL A   1      37.070  20.996  25.240  1.00  0.00     0.338 C 
ATOM     28  O   UNL A   1      37.191  19.869  24.790  1.00  0.00    -0.246 OA
BRANCH  27  29
ATOM     29  C   UNL A   1      38.189  21.871  25.633  1.00  0.00     0.060 A 
ATOM     30  C   UNL A   1      39.385  21.332  26.107  1.00  0.00     0.016 A 
ATOM     31  C   UNL A   1      37.912  23.234  25.776  1.00  0.00     0.016 A 
ATOM     32  C   UNL A   1      40.225  22.138  26.864  1.00  0.00     0.010 A 
ATOM     33  C   UNL A   1      38.714  24.015  26.583  1.00  0.00     0.010 A 
ATOM     34  C   UNL A   1      39.836  23.449  27.172  1.00  0.00    -0.014 A 
BRANCH  34  35
ATOM     35  C   UNL A   1      40.734  24.296  27.928  1.00  0.00     0.031 A 
ATOM     36  C   UNL A   1      40.201  25.656  28.146  1.00  0.00     0.074 A 
ATOM     37  C   UNL A   1      41.877  23.950  28.544  1.00  0.00     0.049 A 
ATOM     38  N   UNL A   1      40.567  26.732  27.538  1.00  0.00    -0.248 NA
ATOM     39  C   UNL A   1      39.057  25.822  29.050  1.00  0.00     0.031 C 
ATOM     40  C   UNL A   1      42.437  22.633  28.830  1.00  0.00     0.029 A 
ATOM     41  N   UNL A   1      42.763  24.802  29.128  1.00  0.00    -0.354 N 
ATOM     42  C   UNL A   1      39.786  27.750  28.061  1.00  0.00     0.074 A 
ATOM     43  C   UNL A   1      38.785  27.116  28.883  1.00  0.00     0.031 C 
ATOM     44  C   UNL A   1      43.462  22.772  29.711  1.00  0.00     0.029 A 
ATOM     45  C   UNL A   1      43.724  24.191  29.910  1.00  0.00     0.049 A 
ATOM     46  H   UNL A   1      42.722  25.778  29.004  1.00  0.00     0.167 HD
ATOM     47  C   UNL A   1      40.126  29.057  27.908  1.00  0.00     0.031 A 
ATOM     48  C   UNL A   1      44.623  24.837  30.693  1.00  0.00     0.031 A 
ATOM     49  C   UNL A   1      41.157  29.232  26.917  1.00  0.00     0.049 A 
ATOM     50  C   UNL A   1      44.758  26.224  30.176  1.00  0.00     0.074 A 
ATOM     51  C   UNL A   1      41.259  28.914  25.575  1.00  0.00     0.029 A 
ATOM     52  N   UNL A   1      42.449  29.412  27.355  1.00  0.00    -0.354 N 
ATOM     53  N   UNL A   1      45.284  26.521  29.020  1.00  0.00    -0.248 NA
ATOM     54  C   UNL A   1      43.936  27.268  30.769  1.00  0.00     0.031 C 
ATOM     55  C   UNL A   1      42.588  28.424  25.415  1.00  0.00     0.029 A 
ATOM     56  C   UNL A   1      43.232  28.530  26.651  1.00  0.00     0.049 A 
ATOM     57  H   UNL A   1      42.754  30.050  28.041  1.00  0.00     0.167 HD
ATOM     58  C   UNL A   1      44.530  27.586  28.546  1.00  0.00     0.074 A 
ATOM     59  C   UNL A   1      43.788  28.067  29.709  1.00  0.00     0.031 C 
ATOM     60  C   UNL A   1      44.361  27.809  27.207  1.00  0.00     0.031 A 
BRANCH  47  61
ATOM     61  C   UNL A   1      39.728  30.139  28.868  1.00  0.00    -0.014 A 
ATOM     62  C   UNL A   1      38.505  30.831  28.788  1.00  0.00     0.009 A 
ATOM     63  C   UNL A   1      40.492  30.329  30.031  1.00  0.00     0.009 A 
ATOM     64  C   UNL A   1      38.066  31.679  29.808  1.00  0.00     0.001 A 
ATOM     65  C   UNL A   1      40.034  31.142  31.074  1.00  0.00     0.001 A 
ATOM     66  C   UNL A   1      38.823  31.817  30.961  1.00  0.00     0.000 A 
ENDBRANCH  47  61
BRANCH  48  67
ATOM     67  C   UNL A   1      45.097  24.449  32.038  1.00  0.00    -0.014 A 
ATOM     68  C   UNL A   1      44.366  23.525  32.807  1.00  0.00     0.009 A 
ATOM     69  C   UNL A   1      46.096  25.194  32.688  1.00  0.00     0.009 A 
ATOM     70  C   UNL A   1      44.591  23.382  34.180  1.00  0.00     0.001 A 
ATOM     71  C   UNL A   1      46.317  25.054  34.065  1.00  0.00     0.001 A 
ATOM     72  C   UNL A   1      45.555  24.159  34.812  1.00  0.00     0.000 A 
ENDBRANCH  48  67
BRANCH  60  73
ATOM     73  C   UNL A   1      45.195  27.017  26.220  1.00  0.00    -0.014 A 
ATOM     74  C   UNL A   1      44.831  25.686  25.954  1.00  0.00     0.009 A 
ATOM     75  C   UNL A   1      46.422  27.476  25.710  1.00  0.00     0.009 A 
ATOM     76  C   UNL A   1      45.664  24.841  25.217  1.00  0.00     0.001 A 
ATOM     77  C   UNL A   1      47.245  26.639  24.946  1.00  0.00     0.001 A 
ATOM     78  C   UNL A   1      46.871  25.319  24.711  1.00  0.00     0.000 A 
ENDBRANCH  60  73
ENDBRANCH  34  35
ENDBRANCH  27  29
ENDBRANCH  26  27
ENDBRANCH  25  26
ENDBRANCH   1  25
TORSDOF 14
ENDMDL
MODEL 2
REMARK VINA RESULT:     -12.2      3.734      9.177
REMARK SMILES Cc1c(CC(=O)OCCOC(=O)c2ccc(-c3c4nc(c(-c5ccccc5)c5ccc([nH]5)c(-c5ccccc5)c5nc(c(-c6ccccc6)c6ccc3[nH]6)C=C5)C=C4)cc2)c2ccccc2n1C(=O)c1ccc(Cl)cc1
REMARK SMILES IDX 8 1 7 2 5 3 6 4 4 5 3 6 1 7 2 8 67 9 61 10 66 11 62 12 65 13
REMARK SMILES IDX 63 14 64 15 68 16 69 17 70 18 71 19 76 20 72 21 75 22 73 23
REMARK SMILES IDX 74 24 9 25 10 26 11 27 12 28 13 29 14 30 60 31 15 32 59 33
REMARK SMILES IDX 16 34 17 35 18 36 53 37 19 38 58 39 52 40 54 41 20 42 57 43
REMARK SMILES IDX 51 44 50 45 21 47 43 48 28 49 42 50 29 51 32 52 41 53 55 54
REMARK SMILES IDX 30 55 31 56 40 58 56 59 33 60 22 61 23 62 27 63 24 64 26 65
REMARK SMILES IDX 25 66 44 67 45 68 49 69 46 70 48 71 47 72 34 73 35 74 39 75
REMARK SMILES IDX 36 76 38 77 37 78
REMARK H PARENT 54 46 32 57
REMARK Flexibility Score: inf
ROOT
ATOM      1  C   UNL A   1      31.612  28.518  24.242  1.00  0.00     0.274 C 
ENDROOT
BRANCH   1   2
ATOM      2  O   UNL A   1      31.540  27.435  25.196  1.00  0.00    -0.462 OA
BRANCH   2   3
ATOM      3  C   UNL A   1      32.728  26.874  25.522  1.00  0.00     0.310 C 
ATOM      4  O   UNL A   1      33.819  27.400  25.311  1.00  0.00    -0.252 OA
BRANCH   3   5
ATOM      5  C   UNL A   1      32.653  25.488  26.088  1.00  0.00     0.160 C 
BRANCH   5   6
ATOM      6  C   UNL A   1      33.187  24.284  25.362  1.00  0.00    -0.008 A 
ATOM      7  C   UNL A   1      30.962  23.817  24.131  1.00  0.00     0.065 C 
ATOM      8  C   UNL A   1      32.394  23.554  24.482  1.00  0.00     0.028 A 
ATOM      9  N   UNL A   1      33.137  22.493  23.973  1.00  0.00    -0.280 N 
ATOM     10  C   UNL A   1      34.523  23.789  25.198  1.00  0.00     0.004 A 
ATOM     11  C   UNL A   1      34.487  22.772  24.233  1.00  0.00     0.056 A 
ATOM     12  C   UNL A   1      35.787  24.129  25.727  1.00  0.00     0.010 A 
ATOM     13  C   UNL A   1      35.683  22.203  23.731  1.00  0.00     0.027 A 
ATOM     14  C   UNL A   1      36.971  23.571  25.229  1.00  0.00     0.001 A 
ATOM     15  C   UNL A   1      36.917  22.619  24.232  1.00  0.00     0.002 A 
BRANCH   9  16
ATOM     16  C   UNL A   1      32.613  21.355  23.308  1.00  0.00     0.262 C 
ATOM     17  O   UNL A   1      32.134  21.482  22.183  1.00  0.00    -0.268 OA
BRANCH  16  18
ATOM     18  C   UNL A   1      32.576  20.005  23.875  1.00  0.00     0.040 A 
ATOM     19  C   UNL A   1      32.681  19.815  25.257  1.00  0.00     0.015 A 
ATOM     20  C   UNL A   1      32.486  18.922  22.995  1.00  0.00     0.015 A 
ATOM     21  C   UNL A   1      32.754  18.515  25.756  1.00  0.00     0.021 A 
ATOM     22  C   UNL A   1      32.555  17.627  23.503  1.00  0.00     0.021 A 
ATOM     23  C   UNL A   1      32.699  17.430  24.878  1.00  0.00     0.041 A 
ATOM     24  Cl  UNL A   1      32.834  15.830  25.496  1.00  0.00    -0.084 Cl
ENDBRANCH  16  18
ENDBRANCH   9  16
ENDBRANCH   5   6
ENDBRANCH   3   5
ENDBRANCH   2   3
ENDBRANCH   1   2
BRANCH   1  25
ATOM     25  C   UNL A   1      31.262  29.851  24.911  1.00  0.00     0.275 C 
BRANCH  25  26
ATOM     26  O   UNL A   1      32.384  30.289  25.694  1.00  0.00    -0.458 OA
BRANCH  26  27
ATOM     27  C   UNL A   1      32.190  31.348  26.515  1.00  0.00     0.338 C 
ATOM     28  O   UNL A   1      31.157  31.969  26.701  1.00  0.00    -0.246 OA
BRANCH  27  29
ATOM     29  C   UNL A   1      33.354  31.358  27.419  1.00  0.00     0.060 A 
ATOM     30  C   UNL A   1      33.830  32.555  27.957  1.00  0.00     0.016 A 
ATOM     31  C   UNL A   1      34.117  30.189  27.490  1.00  0.00     0.016 A 
ATOM     32  C   UNL A   1      35.137  32.604  28.421  1.00  0.00     0.010 A 
ATOM     33  C   UNL A   1      35.436  30.255  27.890  1.00  0.00     0.010 A 
ATOM     34  C   UNL A   1      35.959  31.474  28.299  1.00  0.00    -0.014 A 
BRANCH  34  35
ATOM     35  C   UNL A   1      37.308  31.519  28.820  1.00  0.00     0.031 A 
ATOM     36  C   UNL A   1      38.037  30.245  28.651  1.00  0.00     0.074 A 
ATOM     37  C   UNL A   1      37.981  32.585  29.287  1.00  0.00     0.049 A 
ATOM     38  N   UNL A   1      38.289  29.377  29.569  1.00  0.00    -0.248 NA
ATOM     39  C   UNL A   1      38.424  29.835  27.296  1.00  0.00     0.031 C 
ATOM     40  C   UNL A   1      37.669  34.008  29.211  1.00  0.00     0.029 A 
ATOM     41  N   UNL A   1      39.198  32.561  29.895  1.00  0.00    -0.354 N 
ATOM     42  C   UNL A   1      38.978  28.350  28.943  1.00  0.00     0.074 A 
ATOM     43  C   UNL A   1      38.913  28.618  27.528  1.00  0.00     0.031 C 
ATOM     44  C   UNL A   1      38.769  34.719  29.570  1.00  0.00     0.029 A 
ATOM     45  C   UNL A   1      39.790  33.800  30.054  1.00  0.00     0.049 A 
ATOM     46  H   UNL A   1      39.624  31.727  30.198  1.00  0.00     0.167 HD
ATOM     47  C   UNL A   1      39.695  27.438  29.652  1.00  0.00     0.031 A 
ATOM     48  C   UNL A   1      41.050  34.013  30.507  1.00  0.00     0.031 A 
ATOM     49  C   UNL A   1      39.390  27.491  31.060  1.00  0.00     0.049 A 
ATOM     50  C   UNL A   1      41.463  32.811  31.277  1.00  0.00     0.074 A 
ATOM     51  C   UNL A   1      38.228  27.341  31.794  1.00  0.00     0.029 A 
ATOM     52  N   UNL A   1      40.267  28.157  31.885  1.00  0.00    -0.354 N 
ATOM     53  N   UNL A   1      40.925  32.454  32.411  1.00  0.00    -0.248 NA
ATOM     54  C   UNL A   1      42.204  31.766  30.587  1.00  0.00     0.031 C 
ATOM     55  C   UNL A   1      38.294  28.353  32.796  1.00  0.00     0.029 A 
ATOM     56  C   UNL A   1      39.516  29.017  32.650  1.00  0.00     0.049 A 
ATOM     57  H   UNL A   1      41.244  28.041  31.921  1.00  0.00     0.167 HD
ATOM     58  C   UNL A   1      40.889  31.067  32.369  1.00  0.00     0.074 A 
ATOM     59  C   UNL A   1      41.784  30.701  31.274  1.00  0.00     0.031 C 
ATOM     60  C   UNL A   1      39.932  30.351  33.035  1.00  0.00     0.031 A 
BRANCH  47  61
ATOM     61  C   UNL A   1      40.883  26.705  29.105  1.00  0.00    -0.014 A 
ATOM     62  C   UNL A   1      40.787  25.472  28.434  1.00  0.00     0.009 A 
ATOM     63  C   UNL A   1      42.122  27.363  29.051  1.00  0.00     0.009 A 
ATOM     64  C   UNL A   1      41.871  24.913  27.751  1.00  0.00     0.001 A 
ATOM     65  C   UNL A   1      43.197  26.829  28.330  1.00  0.00     0.001 A 
ATOM     66  C   UNL A   1      43.070  25.605  27.682  1.00  0.00     0.000 A 
ENDBRANCH  47  61
BRANCH  48  67
ATOM     67  C   UNL A   1      42.025  35.017  30.032  1.00  0.00    -0.014 A 
ATOM     68  C   UNL A   1      42.105  35.335  28.664  1.00  0.00     0.009 A 
ATOM     69  C   UNL A   1      43.073  35.447  30.864  1.00  0.00     0.009 A 
ATOM     70  C   UNL A   1      43.207  36.016  28.138  1.00  0.00     0.001 A 
ATOM     71  C   UNL A   1      44.180  36.125  30.335  1.00  0.00     0.001 A 
ATOM     72  C   UNL A   1      44.253  36.395  28.971  1.00  0.00     0.000 A 
ENDBRANCH  48  67
BRANCH  60  73
ATOM     73  C   UNL A   1      39.033  31.069  34.021  1.00  0.00    -0.014 A 
ATOM     74  C   UNL A   1      37.864  31.681  33.536  1.00  0.00     0.009 A 
ATOM     75  C   UNL A   1      39.402  31.325  35.354  1.00  0.00     0.009 A 
ATOM     76  C   UNL A   1      37.099  32.525  34.345  1.00  0.00     0.001 A 
ATOM     77  C   UNL A   1      38.621  32.147  36.175  1.00  0.00     0.001 A 
ATOM     78  C   UNL A   1      37.477  32.756  35.666  1.00  0.00     0.000 A 
ENDBRANCH  60  73
ENDBRANCH  34  35
ENDBRANCH  27  29
ENDBRANCH  26  27
ENDBRANCH  25  26
ENDBRANCH   1  25
TORSDOF 14
ENDMDL
MODEL 3
REMARK VINA RESULT:     -11.9      4.957     10.105
REMARK SMILES Cc1c(CC(=O)OCCOC(=O)c2ccc(-c3c4nc(c(-c5ccccc5)c5ccc([nH]5)c(-c5ccccc5)c5nc(c(-c6ccccc6)c6ccc3[nH]6)C=C5)C=C4)cc2)c2ccccc2n1C(=O)c1ccc(Cl)cc1
REMARK SMILES IDX 8 1 7 2 5 3 6 4 4 5 3 6 1 7 2 8 67 9 61 10 66 11 62 12 65 13
REMARK SMILES IDX 63 14 64 15 68 16 69 17 70 18 71 19 76 20 72 21 75 22 73 23
REMARK SMILES IDX 74 24 9 25 10 26 11 27 12 28 13 29 14 30 60 31 15 32 59 33
REMARK SMILES IDX 16 34 17 35 18 36 53 37 19 38 58 39 52 40 54 41 20 42 57 43
REMARK SMILES IDX 51 44 50 45 21 47 43 48 28 49 42 50 29 51 32 52 41 53 55 54
REMARK SMILES IDX 30 55 31 56 40 58 56 59 33 60 22 61 23 62 27 63 24 64 26 65
REMARK SMILES IDX 25 66 44 67 45 68 49 69 46 70 48 71 47 72 34 73 35 74 39 75
REMARK SMILES IDX 36 76 38 77 37 78
REMARK H PARENT 54 46 32 57
REMARK Flexibility Score: inf
ROOT
ATOM      1  C   UNL A   1      43.762  21.383  25.410  1.00  0.00     0.274 C 
ENDROOT
BRANCH   1   2
ATOM      2  O   UNL A   1      43.440  22.494  24.543  1.00  0.00    -0.462 OA
BRANCH   2   3
ATOM      3  C   UNL A   1      44.339  23.505  24.542  1.00  0.00     0.310 C 
ATOM      4  O   UNL A   1      45.409  23.475  23.935  1.00  0.00    -0.252 OA
BRANCH   3   5
ATOM      5  C   UNL A   1      44.003  24.670  25.424  1.00  0.00     0.160 C 
BRANCH   5   6
ATOM      6  C   UNL A   1      45.033  25.381  26.258  1.00  0.00    -0.008 A 
ATOM      7  C   UNL A   1      45.562  23.300  27.699  1.00  0.00     0.065 C 
ATOM      8  C   UNL A   1      45.720  24.728  27.277  1.00  0.00     0.028 A 
ATOM      9  N   UNL A   1      46.589  25.628  27.887  1.00  0.00    -0.280 N 
ATOM     10  C   UNL A   1      45.679  26.650  26.092  1.00  0.00     0.004 A 
ATOM     11  C   UNL A   1      46.726  26.723  27.022  1.00  0.00     0.056 A 
ATOM     12  C   UNL A   1      45.526  27.741  25.208  1.00  0.00     0.010 A 
ATOM     13  C   UNL A   1      47.656  27.791  26.987  1.00  0.00     0.027 A 
ATOM     14  C   UNL A   1      46.448  28.795  25.169  1.00  0.00     0.001 A 
ATOM     15  C   UNL A   1      47.509  28.814  26.050  1.00  0.00     0.002 A 
BRANCH   9  16
ATOM     16  C   UNL A   1      47.221  25.450  29.145  1.00  0.00     0.262 C 
ATOM     17  O   UNL A   1      48.398  25.097  29.183  1.00  0.00    -0.268 OA
BRANCH  16  18
ATOM     18  C   UNL A   1      46.563  25.638  30.440  1.00  0.00     0.040 A 
ATOM     19  C   UNL A   1      47.296  26.077  31.548  1.00  0.00     0.015 A 
ATOM     20  C   UNL A   1      45.207  25.318  30.544  1.00  0.00     0.015 A 
ATOM     21  C   UNL A   1      46.667  26.139  32.791  1.00  0.00     0.021 A 
ATOM     22  C   UNL A   1      44.586  25.387  31.789  1.00  0.00     0.021 A 
ATOM     23  C   UNL A   1      45.321  25.787  32.907  1.00  0.00     0.041 A 
ATOM     24  Cl  UNL A   1      44.563  25.824  34.451  1.00  0.00    -0.084 Cl
ENDBRANCH  16  18
ENDBRANCH   9  16
ENDBRANCH   5   6
ENDBRANCH   3   5
ENDBRANCH   2   3
ENDBRANCH   1   2
BRANCH   1  25
ATOM     25  C   UNL A   1      42.496  20.821  26.061  1.00  0.00     0.275 C 
BRANCH  25  26
ATOM     26  O   UNL A   1      41.461  21.816  26.007  1.00  0.00    -0.458 OA
BRANCH  26  27
ATOM     27  C   UNL A   1      40.845  22.133  27.170  1.00  0.00     0.338 C 
ATOM     28  O   UNL A   1      40.443  21.371  28.033  1.00  0.00    -0.246 OA
BRANCH  27  29
ATOM     29  C   UNL A   1      41.099  23.571  27.367  1.00  0.00     0.060 A 
ATOM     30  C   UNL A   1      42.059  24.008  28.281  1.00  0.00     0.016 A 
ATOM     31  C   UNL A   1      40.169  24.463  26.826  1.00  0.00     0.016 A 
ATOM     32  C   UNL A   1      41.977  25.306  28.765  1.00  0.00     0.010 A 
ATOM     33  C   UNL A   1      40.047  25.732  27.356  1.00  0.00     0.010 A 
ATOM     34  C   UNL A   1      40.914  26.129  28.365  1.00  0.00    -0.014 A 
BRANCH  34  35
ATOM     35  C   UNL A   1      40.855  27.494  28.842  1.00  0.00     0.031 A 
ATOM     36  C   UNL A   1      41.864  28.371  28.215  1.00  0.00     0.074 A 
ATOM     37  C   UNL A   1      39.934  28.051  29.647  1.00  0.00     0.049 A 
ATOM     38  N   UNL A   1      42.952  28.801  28.755  1.00  0.00    -0.248 NA
ATOM     39  C   UNL A   1      41.709  28.712  26.795  1.00  0.00     0.031 C 
ATOM     40  C   UNL A   1      38.638  27.549  30.092  1.00  0.00     0.029 A 
ATOM     41  N   UNL A   1      39.989  29.300  30.183  1.00  0.00    -0.354 N 
ATOM     42  C   UNL A   1      43.578  29.573  27.790  1.00  0.00     0.074 A 
ATOM     43  C   UNL A   1      42.842  29.373  26.566  1.00  0.00     0.031 C 
ATOM     44  C   UNL A   1      37.944  28.568  30.662  1.00  0.00     0.029 A 
ATOM     45  C   UNL A   1      38.812  29.733  30.765  1.00  0.00     0.049 A 
ATOM     46  H   UNL A   1      40.803  29.854  30.159  1.00  0.00     0.167 HD
ATOM     47  C   UNL A   1      44.563  30.453  28.111  1.00  0.00     0.031 A 
ATOM     48  C   UNL A   1      38.586  30.982  31.240  1.00  0.00     0.031 A 
ATOM     49  C   UNL A   1      45.055  30.244  29.450  1.00  0.00     0.049 A 
ATOM     50  C   UNL A   1      39.907  31.604  31.520  1.00  0.00     0.074 A 
ATOM     51  C   UNL A   1      45.625  29.167  30.103  1.00  0.00     0.029 A 
ATOM     52  N   UNL A   1      44.599  31.082  30.443  1.00  0.00    -0.354 N 
ATOM     53  N   UNL A   1      40.716  31.200  32.460  1.00  0.00    -0.248 NA
ATOM     54  C   UNL A   1      40.519  32.427  30.488  1.00  0.00     0.031 C 
ATOM     55  C   UNL A   1      45.032  29.170  31.400  1.00  0.00     0.029 A 
ATOM     56  C   UNL A   1      44.186  30.279  31.478  1.00  0.00     0.049 A 
ATOM     57  H   UNL A   1      44.573  32.065  30.416  1.00  0.00     0.167 HD
ATOM     58  C   UNL A   1      41.988  31.345  31.925  1.00  0.00     0.074 A 
ATOM     59  C   UNL A   1      41.808  32.201  30.755  1.00  0.00     0.031 C 
ATOM     60  C   UNL A   1      43.026  30.541  32.309  1.00  0.00     0.031 A 
BRANCH  47  61
ATOM     61  C   UNL A   1      44.871  31.686  27.315  1.00  0.00    -0.014 A 
ATOM     62  C   UNL A   1      43.917  32.682  27.033  1.00  0.00     0.009 A 
ATOM     63  C   UNL A   1      46.211  31.989  27.023  1.00  0.00     0.009 A 
ATOM     64  C   UNL A   1      44.272  33.913  26.477  1.00  0.00     0.001 A 
ATOM     65  C   UNL A   1      46.577  33.239  26.509  1.00  0.00     0.001 A 
ATOM     66  C   UNL A   1      45.607  34.198  26.236  1.00  0.00     0.000 A 
ENDBRANCH  47  61
BRANCH  48  67
ATOM     67  C   UNL A   1      37.346  31.780  31.138  1.00  0.00    -0.014 A 
ATOM     68  C   UNL A   1      36.575  32.041  32.286  1.00  0.00     0.009 A 
ATOM     69  C   UNL A   1      36.761  32.038  29.887  1.00  0.00     0.009 A 
ATOM     70  C   UNL A   1      35.258  32.497  32.189  1.00  0.00     0.001 A 
ATOM     71  C   UNL A   1      35.438  32.491  29.790  1.00  0.00     0.001 A 
ATOM     72  C   UNL A   1      34.683  32.706  30.941  1.00  0.00     0.000 A 
ENDBRANCH  48  67
BRANCH  60  73
ATOM     73  C   UNL A   1      42.844  29.627  33.503  1.00  0.00    -0.014 A 
ATOM     74  C   UNL A   1      42.087  28.454  33.337  1.00  0.00     0.009 A 
ATOM     75  C   UNL A   1      43.221  29.985  34.809  1.00  0.00     0.009 A 
ATOM     76  C   UNL A   1      41.711  27.674  34.433  1.00  0.00     0.001 A 
ATOM     77  C   UNL A   1      42.870  29.188  35.906  1.00  0.00     0.001 A 
ATOM     78  C   UNL A   1      42.104  28.040  35.718  1.00  0.00     0.000 A 
ENDBRANCH  60  73
ENDBRANCH  34  35
ENDBRANCH  27  29
ENDBRANCH  26  27
ENDBRANCH  25  26
ENDBRANCH   1  25
TORSDOF 14
ENDMDL
