MODEL 1
REMARK VINA RESULT:      -9.6      0.000      0.000
REMARK SMILES CCCN1C(=O)/C(=C\c2ccc(OC)c(OC)c2C(=O)OCCOC(=O)c2ccc(-c3c4nc(c(-c5ccccc5)c5ccc([nH]5)c(-c5ccccc5)c5nc(c(-c6ccccc6)c6ccc3[nH]6)C=C5)C=C4)cc2)S/C1=[NH+]\c1nccs1
REMARK SMILES IDX 22 1 21 2 19 3 20 4 18 5 9 6 10 7 11 8 15 9 12 10 8 11 4 12
REMARK SMILES IDX 5 13 76 14 6 15 7 16 75 17 77 18 3 20 2 21 1 22 78 23 79 24
REMARK SMILES IDX 82 25 80 26 81 27 16 28 17 29 13 30 14 31 23 32 24 33 25 34
REMARK SMILES IDX 26 35 27 36 28 37 74 38 29 39 73 40 30 41 31 42 32 43 67 44
REMARK SMILES IDX 33 45 72 46 66 47 68 48 34 49 71 50 65 51 64 52 35 54 57 55
REMARK SMILES IDX 42 56 56 57 43 58 46 59 55 60 69 61 44 62 45 63 54 65 70 66
REMARK SMILES IDX 47 67 36 68 37 69 41 70 38 71 40 72 39 73 58 74 59 75 63 76
REMARK SMILES IDX 60 77 62 78 61 79 48 80 49 81 53 82 50 83 52 84 51 85
REMARK H PARENT 77 19 68 53 46 64
REMARK Flexibility Score: inf
ROOT
ATOM      1  C   UNL A   1      35.198  23.269  24.296  1.00  0.00     0.275 C 
ENDROOT
BRANCH   1   2
ATOM      2  O   UNL A   1      34.586  24.575  24.323  1.00  0.00    -0.458 OA
BRANCH   2   3
ATOM      3  C   UNL A   1      34.036  24.996  23.159  1.00  0.00     0.342 C 
ATOM      4  O   UNL A   1      34.561  24.920  22.061  1.00  0.00    -0.246 OA
BRANCH   3   5
ATOM      5  C   UNL A   1      32.729  25.642  23.422  1.00  0.00     0.113 A 
ATOM      6  C   UNL A   1      31.564  24.833  23.248  1.00  0.00    -0.006 A 
ATOM      7  C   UNL A   1      30.296  25.400  23.401  1.00  0.00     0.013 A 
ATOM      8  C   UNL A   1      30.176  26.719  23.817  1.00  0.00     0.051 A 
ATOM      9  C   UNL A   1      32.616  26.977  23.872  1.00  0.00     0.175 A 
ATOM     10  C   UNL A   1      31.313  27.494  24.070  1.00  0.00     0.161 A 
BRANCH   6  11
ATOM     11  C   UNL A   1      31.603  23.383  22.954  1.00  0.00     0.032 C 
ATOM     12  N   UNL A   1      32.027  21.766  26.054  1.00  0.00    -0.219 N 
ATOM     13  C   UNL A   1      31.270  22.673  25.346  1.00  0.00     0.321 C 
ATOM     14  C   UNL A   1      32.490  20.686  25.343  1.00  0.00     0.271 C 
ATOM     15  O   UNL A   1      30.569  23.567  25.798  1.00  0.00    -0.250 OA
ATOM     16  C   UNL A   1      31.480  22.431  23.893  1.00  0.00     0.100 C 
ATOM     17  S   UNL A   1      31.935  20.786  23.673  1.00  0.00    -0.012 SA
ATOM     18  N   UNL A   1      33.219  19.777  25.892  1.00  0.00    -0.228 N 
ATOM     19  H   UNL A   1      33.532  19.876  26.820  1.00  0.00     0.268 HD
BRANCH  12  20
ATOM     20  C   UNL A   1      32.411  22.073  27.427  1.00  0.00     0.206 C 
BRANCH  20  21
ATOM     21  C   UNL A   1      33.616  22.999  27.587  1.00  0.00     0.035 C 
ATOM     22  C   UNL A   1      34.938  22.264  27.758  1.00  0.00     0.007 C 
ENDBRANCH  20  21
ENDBRANCH  12  20
BRANCH  18  23
ATOM     23  C   UNL A   1      33.546  18.686  25.167  1.00  0.00     0.319 A 
ATOM     24  N   UNL A   1      34.646  18.483  24.475  1.00  0.00    -0.101 NA
ATOM     25  S   UNL A   1      32.460  17.335  25.208  1.00  0.00    -0.070 S 
ATOM     26  C   UNL A   1      34.648  17.204  23.950  1.00  0.00     0.219 A 
ATOM     27  C   UNL A   1      33.542  16.437  24.239  1.00  0.00     0.110 A 
ENDBRANCH  18  23
ENDBRANCH   6  11
BRANCH   9  28
ATOM     28  O   UNL A   1      33.606  27.883  24.123  1.00  0.00    -0.492 OA
ATOM     29  C   UNL A   1      34.101  28.786  23.152  1.00  0.00     0.278 C 
ENDBRANCH   9  28
BRANCH  10  30
ATOM     30  O   UNL A   1      31.008  28.714  24.629  1.00  0.00    -0.493 OA
ATOM     31  C   UNL A   1      30.253  29.603  23.818  1.00  0.00     0.278 C 
ENDBRANCH  10  30
ENDBRANCH   3   5
ENDBRANCH   2   3
ENDBRANCH   1   2
BRANCH   1  32
ATOM     32  C   UNL A   1      36.714  23.399  24.436  1.00  0.00     0.275 C 
BRANCH  32  33
ATOM     33  O   UNL A   1      37.081  23.518  25.822  1.00  0.00    -0.458 OA
BRANCH  33  34
ATOM     34  C   UNL A   1      38.377  23.215  26.090  1.00  0.00     0.338 C 
ATOM     35  O   UNL A   1      38.981  22.207  25.778  1.00  0.00    -0.246 OA
BRANCH  34  36
ATOM     36  C   UNL A   1      39.029  24.384  26.710  1.00  0.00     0.060 A 
ATOM     37  C   UNL A   1      38.721  24.659  28.045  1.00  0.00     0.016 A 
ATOM     38  C   UNL A   1      39.909  25.210  26.003  1.00  0.00     0.016 A 
ATOM     39  C   UNL A   1      39.316  25.741  28.685  1.00  0.00     0.010 A 
ATOM     40  C   UNL A   1      40.479  26.316  26.638  1.00  0.00     0.010 A 
ATOM     41  C   UNL A   1      40.183  26.585  27.983  1.00  0.00    -0.014 A 
BRANCH  41  42
ATOM     42  C   UNL A   1      40.656  27.817  28.648  1.00  0.00     0.031 A 
ATOM     43  C   UNL A   1      39.691  28.952  28.826  1.00  0.00     0.074 A 
ATOM     44  C   UNL A   1      41.895  27.886  29.165  1.00  0.00     0.049 A 
ATOM     45  N   UNL A   1      39.881  30.118  29.384  1.00  0.00    -0.248 NA
ATOM     46  C   UNL A   1      38.324  28.732  28.328  1.00  0.00     0.031 C 
ATOM     47  C   UNL A   1      42.876  26.803  29.154  1.00  0.00     0.029 A 
ATOM     48  N   UNL A   1      42.530  28.911  29.817  1.00  0.00    -0.354 N 
ATOM     49  C   UNL A   1      38.658  30.770  29.309  1.00  0.00     0.074 A 
ATOM     50  C   UNL A   1      37.734  29.874  28.647  1.00  0.00     0.031 C 
ATOM     51  C   UNL A   1      43.994  27.223  29.771  1.00  0.00     0.029 A 
ATOM     52  C   UNL A   1      43.822  28.615  30.179  1.00  0.00     0.049 A 
ATOM     53  H   UNL A   1      42.102  29.778  30.007  1.00  0.00     0.167 HD
ATOM     54  C   UNL A   1      38.336  32.011  29.741  1.00  0.00     0.031 A 
ATOM     55  C   UNL A   1      44.763  29.394  30.748  1.00  0.00     0.031 A 
ATOM     56  C   UNL A   1      39.270  32.920  30.345  1.00  0.00     0.049 A 
ATOM     57  C   UNL A   1      44.419  30.821  31.089  1.00  0.00     0.074 A 
ATOM     58  C   UNL A   1      39.064  34.224  30.756  1.00  0.00     0.029 A 
ATOM     59  N   UNL A   1      40.598  32.619  30.609  1.00  0.00    -0.354 N 
ATOM     60  N   UNL A   1      43.268  31.441  30.987  1.00  0.00    -0.248 NA
ATOM     61  C   UNL A   1      45.508  31.658  31.613  1.00  0.00     0.031 C 
ATOM     62  C   UNL A   1      40.284  34.731  31.217  1.00  0.00     0.029 A 
ATOM     63  C   UNL A   1      41.233  33.723  31.149  1.00  0.00     0.049 A 
ATOM     64  H   UNL A   1      41.025  31.748  30.438  1.00  0.00     0.167 HD
ATOM     65  C   UNL A   1      43.488  32.732  31.453  1.00  0.00     0.074 A 
ATOM     66  C   UNL A   1      44.878  32.800  31.854  1.00  0.00     0.031 C 
ATOM     67  C   UNL A   1      42.619  33.767  31.541  1.00  0.00     0.031 A 
BRANCH  54  68
ATOM     68  C   UNL A   1      36.930  32.472  29.492  1.00  0.00    -0.014 A 
ATOM     69  C   UNL A   1      36.565  33.091  28.285  1.00  0.00     0.009 A 
ATOM     70  C   UNL A   1      35.959  32.297  30.489  1.00  0.00     0.009 A 
ATOM     71  C   UNL A   1      35.262  33.558  28.099  1.00  0.00     0.001 A 
ATOM     72  C   UNL A   1      34.652  32.744  30.291  1.00  0.00     0.001 A 
ATOM     73  C   UNL A   1      34.307  33.383  29.100  1.00  0.00     0.000 A 
ENDBRANCH  54  68
BRANCH  55  74
ATOM     74  C   UNL A   1      46.135  28.868  30.982  1.00  0.00    -0.014 A 
ATOM     75  C   UNL A   1      47.116  28.940  29.981  1.00  0.00     0.009 A 
ATOM     76  C   UNL A   1      46.459  28.254  32.204  1.00  0.00     0.009 A 
ATOM     77  C   UNL A   1      48.383  28.387  30.190  1.00  0.00     0.001 A 
ATOM     78  C   UNL A   1      47.736  27.729  32.420  1.00  0.00     0.001 A 
ATOM     79  C   UNL A   1      48.693  27.787  31.410  1.00  0.00     0.000 A 
ENDBRANCH  55  74
BRANCH  67  80
ATOM     80  C   UNL A   1      43.135  35.055  32.119  1.00  0.00    -0.014 A 
ATOM     81  C   UNL A   1      43.086  35.303  33.499  1.00  0.00     0.009 A 
ATOM     82  C   UNL A   1      43.735  36.002  31.275  1.00  0.00     0.009 A 
ATOM     83  C   UNL A   1      43.608  36.490  34.019  1.00  0.00     0.001 A 
ATOM     84  C   UNL A   1      44.280  37.174  31.801  1.00  0.00     0.001 A 
ATOM     85  C   UNL A   1      44.211  37.420  33.171  1.00  0.00     0.000 A 
ENDBRANCH  67  80
ENDBRANCH  41  42
ENDBRANCH  34  36
ENDBRANCH  33  34
ENDBRANCH  32  33
ENDBRANCH   1  32
TORSDOF 17
ENDMDL
MODEL 2
REMARK VINA RESULT:      -9.5      0.596      5.689
REMARK SMILES CCCN1C(=O)/C(=C\c2ccc(OC)c(OC)c2C(=O)OCCOC(=O)c2ccc(-c3c4nc(c(-c5ccccc5)c5ccc([nH]5)c(-c5ccccc5)c5nc(c(-c6ccccc6)c6ccc3[nH]6)C=C5)C=C4)cc2)S/C1=[NH+]\c1nccs1
REMARK SMILES IDX 22 1 21 2 19 3 20 4 18 5 9 6 10 7 11 8 15 9 12 10 8 11 4 12
REMARK SMILES IDX 5 13 76 14 6 15 7 16 75 17 77 18 3 20 2 21 1 22 78 23 79 24
REMARK SMILES IDX 82 25 80 26 81 27 16 28 17 29 13 30 14 31 23 32 24 33 25 34
REMARK SMILES IDX 26 35 27 36 28 37 74 38 29 39 73 40 30 41 31 42 32 43 67 44
REMARK SMILES IDX 33 45 72 46 66 47 68 48 34 49 71 50 65 51 64 52 35 54 57 55
REMARK SMILES IDX 42 56 56 57 43 58 46 59 55 60 69 61 44 62 45 63 54 65 70 66
REMARK SMILES IDX 47 67 36 68 37 69 41 70 38 71 40 72 39 73 58 74 59 75 63 76
REMARK SMILES IDX 60 77 62 78 61 79 48 80 49 81 53 82 50 83 52 84 51 85
REMARK H PARENT 77 19 68 53 46 64
REMARK Flexibility Score: inf
ROOT
ATOM      1  C   UNL A   1      35.671  23.712  24.233  1.00  0.00     0.275 C 
ENDROOT
BRANCH   1   2
ATOM      2  O   UNL A   1      34.627  24.694  24.389  1.00  0.00    -0.458 OA
BRANCH   2   3
ATOM      3  C   UNL A   1      33.960  25.033  23.260  1.00  0.00     0.342 C 
ATOM      4  O   UNL A   1      34.370  24.879  22.123  1.00  0.00    -0.246 OA
BRANCH   3   5
ATOM      5  C   UNL A   1      32.683  25.700  23.609  1.00  0.00     0.113 A 
ATOM      6  C   UNL A   1      31.493  24.916  23.487  1.00  0.00    -0.006 A 
ATOM      7  C   UNL A   1      30.248  25.504  23.723  1.00  0.00     0.013 A 
ATOM      8  C   UNL A   1      30.178  26.817  24.169  1.00  0.00     0.051 A 
ATOM      9  C   UNL A   1      32.622  27.028  24.088  1.00  0.00     0.175 A 
ATOM     10  C   UNL A   1      31.343  27.565  24.370  1.00  0.00     0.161 A 
BRANCH   6  11
ATOM     11  C   UNL A   1      31.486  23.472  23.166  1.00  0.00     0.032 C 
ATOM     12  N   UNL A   1      32.028  21.787  26.211  1.00  0.00    -0.219 N 
ATOM     13  C   UNL A   1      31.257  22.724  25.558  1.00  0.00     0.321 C 
ATOM     14  C   UNL A   1      32.432  20.712  25.459  1.00  0.00     0.271 C 
ATOM     15  O   UNL A   1      30.598  23.622  26.060  1.00  0.00    -0.250 OA
ATOM     16  C   UNL A   1      31.389  22.504  24.092  1.00  0.00     0.100 C 
ATOM     17  S   UNL A   1      31.797  20.855  23.821  1.00  0.00    -0.012 SA
ATOM     18  N   UNL A   1      33.167  19.778  25.955  1.00  0.00    -0.228 N 
ATOM     19  H   UNL A   1      33.527  19.853  26.868  1.00  0.00     0.268 HD
BRANCH  12  20
ATOM     20  C   UNL A   1      32.485  22.060  27.569  1.00  0.00     0.206 C 
BRANCH  20  21
ATOM     21  C   UNL A   1      33.730  22.939  27.685  1.00  0.00     0.035 C 
ATOM     22  C   UNL A   1      35.036  22.158  27.702  1.00  0.00     0.007 C 
ENDBRANCH  20  21
ENDBRANCH  12  20
BRANCH  18  23
ATOM     23  C   UNL A   1      33.434  18.694  25.195  1.00  0.00     0.319 A 
ATOM     24  N   UNL A   1      34.415  18.542  24.331  1.00  0.00    -0.101 NA
ATOM     25  S   UNL A   1      32.453  17.284  25.428  1.00  0.00    -0.070 S 
ATOM     26  C   UNL A   1      34.406  17.256  23.824  1.00  0.00     0.219 A 
ATOM     27  C   UNL A   1      33.412  16.431  24.301  1.00  0.00     0.110 A 
ENDBRANCH  18  23
ENDBRANCH   6  11
BRANCH   9  28
ATOM     28  O   UNL A   1      33.643  27.910  24.299  1.00  0.00    -0.492 OA
ATOM     29  C   UNL A   1      34.109  28.811  23.312  1.00  0.00     0.278 C 
ENDBRANCH   9  28
BRANCH  10  30
ATOM     30  O   UNL A   1      31.095  28.780  24.967  1.00  0.00    -0.493 OA
ATOM     31  C   UNL A   1      31.525  28.914  26.314  1.00  0.00     0.278 C 
ENDBRANCH  10  30
ENDBRANCH   3   5
ENDBRANCH   2   3
ENDBRANCH   1   2
BRANCH   1  32
ATOM     32  C   UNL A   1      36.618  23.760  25.432  1.00  0.00     0.275 C 
BRANCH  32  33
ATOM     33  O   UNL A   1      37.968  23.481  25.016  1.00  0.00    -0.458 OA
BRANCH  33  34
ATOM     34  C   UNL A   1      38.805  23.126  26.024  1.00  0.00     0.338 C 
ATOM     35  O   UNL A   1      39.209  22.011  26.292  1.00  0.00    -0.246 OA
BRANCH  34  36
ATOM     36  C   UNL A   1      39.298  24.344  26.695  1.00  0.00     0.060 A 
ATOM     37  C   UNL A   1      38.948  24.526  28.035  1.00  0.00     0.016 A 
ATOM     38  C   UNL A   1      40.072  25.300  26.030  1.00  0.00     0.016 A 
ATOM     39  C   UNL A   1      39.395  25.649  28.722  1.00  0.00     0.010 A 
ATOM     40  C   UNL A   1      40.493  26.444  26.713  1.00  0.00     0.010 A 
ATOM     41  C   UNL A   1      40.154  26.622  28.063  1.00  0.00    -0.014 A 
BRANCH  41  42
ATOM     42  C   UNL A   1      40.462  27.877  28.779  1.00  0.00     0.031 A 
ATOM     43  C   UNL A   1      41.837  28.059  29.350  1.00  0.00     0.074 A 
ATOM     44  C   UNL A   1      39.561  28.874  28.837  1.00  0.00     0.049 A 
ATOM     45  N   UNL A   1      42.332  29.075  30.007  1.00  0.00    -0.248 NA
ATOM     46  C   UNL A   1      42.787  26.956  29.131  1.00  0.00     0.031 C 
ATOM     47  C   UNL A   1      38.238  28.853  28.217  1.00  0.00     0.029 A 
ATOM     48  N   UNL A   1      39.635  30.106  29.434  1.00  0.00    -0.354 N 
ATOM     49  C   UNL A   1      43.651  28.737  30.276  1.00  0.00     0.074 A 
ATOM     50  C   UNL A   1      43.879  27.422  29.718  1.00  0.00     0.031 C 
ATOM     51  C   UNL A   1      37.622  30.021  28.468  1.00  0.00     0.029 A 
ATOM     52  C   UNL A   1      38.488  30.851  29.302  1.00  0.00     0.049 A 
ATOM     53  H   UNL A   1      40.434  30.427  29.913  1.00  0.00     0.167 HD
ATOM     54  C   UNL A   1      44.586  29.453  30.941  1.00  0.00     0.031 A 
ATOM     55  C   UNL A   1      38.170  32.052  29.823  1.00  0.00     0.031 A 
ATOM     56  C   UNL A   1      44.339  30.735  31.543  1.00  0.00     0.049 A 
ATOM     57  C   UNL A   1      39.182  32.765  30.682  1.00  0.00     0.074 A 
ATOM     58  C   UNL A   1      45.198  31.514  32.298  1.00  0.00     0.029 A 
ATOM     59  N   UNL A   1      43.134  31.416  31.471  1.00  0.00    -0.354 N 
ATOM     60  N   UNL A   1      40.418  32.425  30.958  1.00  0.00    -0.248 NA
ATOM     61  C   UNL A   1      38.750  34.022  31.309  1.00  0.00     0.031 C 
ATOM     62  C   UNL A   1      44.491  32.642  32.730  1.00  0.00     0.029 A 
ATOM     63  C   UNL A   1      43.214  32.593  32.194  1.00  0.00     0.049 A 
ATOM     64  H   UNL A   1      42.339  31.108  30.978  1.00  0.00     0.167 HD
ATOM     65  C   UNL A   1      40.918  33.434  31.772  1.00  0.00     0.074 A 
ATOM     66  C   UNL A   1      39.857  34.408  31.930  1.00  0.00     0.031 C 
ATOM     67  C   UNL A   1      42.144  33.546  32.338  1.00  0.00     0.031 A 
BRANCH  54  68
ATOM     68  C   UNL A   1      45.933  28.816  31.113  1.00  0.00    -0.014 A 
ATOM     69  C   UNL A   1      46.217  27.991  32.214  1.00  0.00     0.009 A 
ATOM     70  C   UNL A   1      46.938  29.058  30.165  1.00  0.00     0.009 A 
ATOM     71  C   UNL A   1      47.495  27.452  32.378  1.00  0.00     0.001 A 
ATOM     72  C   UNL A   1      48.207  28.498  30.320  1.00  0.00     0.001 A 
ATOM     73  C   UNL A   1      48.488  27.705  31.431  1.00  0.00     0.000 A 
ENDBRANCH  54  68
BRANCH  55  74
ATOM     74  C   UNL A   1      36.820  32.635  29.600  1.00  0.00    -0.014 A 
ATOM     75  C   UNL A   1      36.548  33.417  28.466  1.00  0.00     0.009 A 
ATOM     76  C   UNL A   1      35.799  32.441  30.546  1.00  0.00     0.009 A 
ATOM     77  C   UNL A   1      35.294  34.011  28.299  1.00  0.00     0.001 A 
ATOM     78  C   UNL A   1      34.537  33.011  30.361  1.00  0.00     0.001 A 
ATOM     79  C   UNL A   1      34.289  33.804  29.243  1.00  0.00     0.000 A 
ENDBRANCH  55  74
BRANCH  67  80
ATOM     80  C   UNL A   1      42.417  34.777  33.156  1.00  0.00    -0.014 A 
ATOM     81  C   UNL A   1      42.104  34.824  34.523  1.00  0.00     0.009 A 
ATOM     82  C   UNL A   1      43.055  35.877  32.563  1.00  0.00     0.009 A 
ATOM     83  C   UNL A   1      42.403  35.963  35.275  1.00  0.00     0.001 A 
ATOM     84  C   UNL A   1      43.378  37.002  33.322  1.00  0.00     0.001 A 
ATOM     85  C   UNL A   1      43.046  37.047  34.675  1.00  0.00     0.000 A 
ENDBRANCH  67  80
ENDBRANCH  41  42
ENDBRANCH  34  36
ENDBRANCH  33  34
ENDBRANCH  32  33
ENDBRANCH   1  32
TORSDOF 17
ENDMDL
MODEL 3
REMARK VINA RESULT:      -8.8      4.867      7.786
REMARK SMILES CCCN1C(=O)/C(=C\c2ccc(OC)c(OC)c2C(=O)OCCOC(=O)c2ccc(-c3c4nc(c(-c5ccccc5)c5ccc([nH]5)c(-c5ccccc5)c5nc(c(-c6ccccc6)c6ccc3[nH]6)C=C5)C=C4)cc2)S/C1=[NH+]\c1nccs1
REMARK SMILES IDX 22 1 21 2 19 3 20 4 18 5 9 6 10 7 11 8 15 9 12 10 8 11 4 12
REMARK SMILES IDX 5 13 76 14 6 15 7 16 75 17 77 18 3 20 2 21 1 22 78 23 79 24
REMARK SMILES IDX 82 25 80 26 81 27 16 28 17 29 13 30 14 31 23 32 24 33 25 34
REMARK SMILES IDX 26 35 27 36 28 37 74 38 29 39 73 40 30 41 31 42 32 43 67 44
REMARK SMILES IDX 33 45 72 46 66 47 68 48 34 49 71 50 65 51 64 52 35 54 57 55
REMARK SMILES IDX 42 56 56 57 43 58 46 59 55 60 69 61 44 62 45 63 54 65 70 66
REMARK SMILES IDX 47 67 36 68 37 69 41 70 38 71 40 72 39 73 58 74 59 75 63 76
REMARK SMILES IDX 60 77 62 78 61 79 48 80 49 81 53 82 50 83 52 84 51 85
REMARK H PARENT 77 19 68 53 46 64
REMARK Flexibility Score: inf
ROOT
ATOM      1  C   UNL A   1      38.337  23.599  26.279  1.00  0.00     0.275 C 
ENDROOT
BRANCH   1   2
ATOM      2  O   UNL A   1      36.946  23.500  26.647  1.00  0.00    -0.458 OA
BRANCH   2   3
ATOM      3  C   UNL A   1      36.056  23.590  25.629  1.00  0.00     0.342 C 
ATOM      4  O   UNL A   1      35.900  24.562  24.910  1.00  0.00    -0.246 OA
BRANCH   3   5
ATOM      5  C   UNL A   1      35.236  22.357  25.566  1.00  0.00     0.113 A 
ATOM      6  C   UNL A   1      33.920  22.430  26.119  1.00  0.00    -0.006 A 
ATOM      7  C   UNL A   1      33.122  21.285  26.164  1.00  0.00     0.013 A 
ATOM      8  C   UNL A   1      33.573  20.106  25.584  1.00  0.00     0.051 A 
ATOM      9  C   UNL A   1      35.691  21.170  24.950  1.00  0.00     0.175 A 
ATOM     10  C   UNL A   1      34.827  20.049  24.968  1.00  0.00     0.161 A 
BRANCH   6  11
ATOM     11  C   UNL A   1      33.303  23.679  26.619  1.00  0.00     0.032 C 
ATOM     12  N   UNL A   1      32.803  25.725  23.796  1.00  0.00    -0.219 N 
ATOM     13  C   UNL A   1      32.578  24.482  24.347  1.00  0.00     0.321 C 
ATOM     14  C   UNL A   1      32.751  26.786  24.667  1.00  0.00     0.271 C 
ATOM     15  O   UNL A   1      32.344  23.440  23.753  1.00  0.00    -0.250 OA
ATOM     16  C   UNL A   1      32.717  24.589  25.825  1.00  0.00     0.100 C 
ATOM     17  S   UNL A   1      32.378  26.210  26.290  1.00  0.00    -0.012 SA
ATOM     18  N   UNL A   1      32.958  27.994  24.273  1.00  0.00    -0.228 N 
ATOM     19  H   UNL A   1      33.240  28.180  23.348  1.00  0.00     0.268 HD
BRANCH  12  20
ATOM     20  C   UNL A   1      33.224  25.824  22.403  1.00  0.00     0.206 C 
BRANCH  20  21
ATOM     21  C   UNL A   1      32.096  25.894  21.373  1.00  0.00     0.035 C 
ATOM     22  C   UNL A   1      32.525  25.505  19.965  1.00  0.00     0.007 C 
ENDBRANCH  20  21
ENDBRANCH  12  20
BRANCH  18  23
ATOM     23  C   UNL A   1      32.780  29.001  25.155  1.00  0.00     0.319 A 
ATOM     24  N   UNL A   1      31.717  29.763  25.298  1.00  0.00    -0.101 NA
ATOM     25  S   UNL A   1      34.036  29.290  26.314  1.00  0.00    -0.070 S 
ATOM     26  C   UNL A   1      31.886  30.617  26.372  1.00  0.00     0.219 A 
ATOM     27  C   UNL A   1      33.084  30.507  27.042  1.00  0.00     0.110 A 
ENDBRANCH  18  23
ENDBRANCH   6  11
BRANCH   9  28
ATOM     28  O   UNL A   1      36.891  20.923  24.346  1.00  0.00    -0.492 OA
ATOM     29  C   UNL A   1      37.990  20.329  25.011  1.00  0.00     0.278 C 
ENDBRANCH   9  28
BRANCH  10  30
ATOM     30  O   UNL A   1      35.037  18.860  24.307  1.00  0.00    -0.493 OA
ATOM     31  C   UNL A   1      34.336  17.731  24.811  1.00  0.00     0.278 C 
ENDBRANCH  10  30
ENDBRANCH   3   5
ENDBRANCH   2   3
ENDBRANCH   1   2
BRANCH   1  32
ATOM     32  C   UNL A   1      38.879  24.979  26.649  1.00  0.00     0.275 C 
BRANCH  32  33
ATOM     33  O   UNL A   1      40.115  24.854  27.375  1.00  0.00    -0.458 OA
BRANCH  33  34
ATOM     34  C   UNL A   1      41.099  24.202  26.702  1.00  0.00     0.338 C 
ATOM     35  O   UNL A   1      41.035  23.111  26.171  1.00  0.00    -0.246 OA
BRANCH  34  36
ATOM     36  C   UNL A   1      42.266  25.095  26.567  1.00  0.00     0.060 A 
ATOM     37  C   UNL A   1      43.016  25.350  27.718  1.00  0.00     0.016 A 
ATOM     38  C   UNL A   1      42.614  25.688  25.350  1.00  0.00     0.016 A 
ATOM     39  C   UNL A   1      44.134  26.174  27.648  1.00  0.00     0.010 A 
ATOM     40  C   UNL A   1      43.719  26.543  25.289  1.00  0.00     0.010 A 
ATOM     41  C   UNL A   1      44.482  26.789  26.440  1.00  0.00    -0.014 A 
BRANCH  41  42
ATOM     42  C   UNL A   1      45.570  27.788  26.448  1.00  0.00     0.031 A 
ATOM     43  C   UNL A   1      45.216  29.233  26.643  1.00  0.00     0.074 A 
ATOM     44  C   UNL A   1      46.856  27.404  26.375  1.00  0.00     0.049 A 
ATOM     45  N   UNL A   1      46.001  30.277  26.692  1.00  0.00    -0.248 NA
ATOM     46  C   UNL A   1      43.788  29.536  26.830  1.00  0.00     0.031 C 
ATOM     47  C   UNL A   1      47.322  26.021  26.302  1.00  0.00     0.029 A 
ATOM     48  N   UNL A   1      48.008  28.149  26.369  1.00  0.00    -0.354 N 
ATOM     49  C   UNL A   1      45.163  31.361  26.920  1.00  0.00     0.074 A 
ATOM     50  C   UNL A   1      43.812  30.850  26.994  1.00  0.00     0.031 C 
ATOM     51  C   UNL A   1      48.666  26.016  26.257  1.00  0.00     0.029 A 
ATOM     52  C   UNL A   1      49.150  27.394  26.253  1.00  0.00     0.049 A 
ATOM     53  H   UNL A   1      48.016  29.131  26.441  1.00  0.00     0.167 HD
ATOM     54  C   UNL A   1      45.491  32.667  27.043  1.00  0.00     0.031 A 
ATOM     55  C   UNL A   1      50.435  27.780  26.129  1.00  0.00     0.031 A 
ATOM     56  C   UNL A   1      46.828  33.177  26.912  1.00  0.00     0.049 A 
ATOM     57  C   UNL A   1      50.756  29.252  26.125  1.00  0.00     0.074 A 
ATOM     58  C   UNL A   1      47.259  34.491  26.951  1.00  0.00     0.029 A 
ATOM     59  N   UNL A   1      47.950  32.391  26.698  1.00  0.00    -0.354 N 
ATOM     60  N   UNL A   1      49.956  30.273  26.311  1.00  0.00    -0.248 NA
ATOM     61  C   UNL A   1      52.159  29.623  25.884  1.00  0.00     0.031 C 
ATOM     62  C   UNL A   1      48.636  34.502  26.704  1.00  0.00     0.029 A 
ATOM     63  C   UNL A   1      49.070  33.193  26.572  1.00  0.00     0.049 A 
ATOM     64  H   UNL A   1      47.949  31.407  26.645  1.00  0.00     0.167 HD
ATOM     65  C   UNL A   1      50.758  31.406  26.230  1.00  0.00     0.074 A 
ATOM     66  C   UNL A   1      52.111  30.944  25.997  1.00  0.00     0.031 C 
ATOM     67  C   UNL A   1      50.407  32.710  26.339  1.00  0.00     0.031 A 
BRANCH  54  68
ATOM     68  C   UNL A   1      44.361  33.633  27.253  1.00  0.00    -0.014 A 
ATOM     69  C   UNL A   1      43.791  33.828  28.521  1.00  0.00     0.009 A 
ATOM     70  C   UNL A   1      43.851  34.346  26.158  1.00  0.00     0.009 A 
ATOM     71  C   UNL A   1      42.706  34.693  28.679  1.00  0.00     0.001 A 
ATOM     72  C   UNL A   1      42.782  35.228  26.324  1.00  0.00     0.001 A 
ATOM     73  C   UNL A   1      42.205  35.393  27.582  1.00  0.00     0.000 A 
ENDBRANCH  54  68
BRANCH  55  74
ATOM     74  C   UNL A   1      51.509  26.768  25.939  1.00  0.00    -0.014 A 
ATOM     75  C   UNL A   1      52.167  26.197  27.040  1.00  0.00     0.009 A 
ATOM     76  C   UNL A   1      51.911  26.395  24.646  1.00  0.00     0.009 A 
ATOM     77  C   UNL A   1      53.216  25.295  26.848  1.00  0.00     0.001 A 
ATOM     78  C   UNL A   1      52.941  25.470  24.458  1.00  0.00     0.001 A 
ATOM     79  C   UNL A   1      53.599  24.928  25.559  1.00  0.00     0.000 A 
ENDBRANCH  55  74
BRANCH  67  80
ATOM     80  C   UNL A   1      51.505  33.731  26.238  1.00  0.00    -0.014 A 
ATOM     81  C   UNL A   1      52.235  34.128  27.368  1.00  0.00     0.009 A 
ATOM     82  C   UNL A   1      51.852  34.253  24.982  1.00  0.00     0.009 A 
ATOM     83  C   UNL A   1      53.279  35.048  27.244  1.00  0.00     0.001 A 
ATOM     84  C   UNL A   1      52.913  35.151  24.857  1.00  0.00     0.001 A 
ATOM     85  C   UNL A   1      53.620  35.553  25.989  1.00  0.00     0.000 A 
ENDBRANCH  67  80
ENDBRANCH  41  42
ENDBRANCH  34  36
ENDBRANCH  33  34
ENDBRANCH  32  33
ENDBRANCH   1  32
TORSDOF 17
ENDMDL
