MODEL 1
REMARK VINA RESULT:     -11.9      0.000      0.000
REMARK SMILES O=C(OCCOC(=O)c1ccc(-c2c3nc(c(-c4ccccc4)c4ccc([nH]4)c(-c4ccccc4)c4nc(c(-c5ccccc5)c5ccc2[nH]5)C=C4)C=C3)cc1)C1=Cc2c(ccc(Cl)c2-c2ccccc2)O[C@H]1C(F)(F)F
REMARK SMILES IDX 5 1 4 2 3 3 2 4 1 5 57 6 58 7 73 8 59 9 72 10 60 11 65 12
REMARK SMILES IDX 61 13 63 14 62 15 64 16 74 17 75 18 76 19 77 20 66 21 67 22
REMARK SMILES IDX 71 23 68 24 70 25 69 26 6 27 7 28 8 29 9 30 10 31 56 32
REMARK SMILES IDX 11 33 55 34 12 35 13 36 14 37 49 38 15 39 54 40 48 41 50 42
REMARK SMILES IDX 16 43 53 44 47 45 46 46 17 48 39 49 24 50 38 51 25 52 28 53
REMARK SMILES IDX 37 54 51 55 26 56 27 57 36 59 52 60 29 61 18 62 19 63 23 64
REMARK SMILES IDX 20 65 22 66 21 67 40 68 41 69 45 70 42 71 44 72 43 73 30 74
REMARK SMILES IDX 31 75 35 76 32 77 34 78 33 79
REMARK H PARENT 50 47 28 58
REMARK Flexibility Score: inf
ROOT
ATOM      1  C   UNL A   1      38.329  19.883  25.057  1.00  0.00     0.275 C 
ENDROOT
BRANCH   1   2
ATOM      2  C   UNL A   1      37.194  20.809  24.638  1.00  0.00     0.275 C 
BRANCH   2   3
ATOM      3  O   UNL A   1      36.584  21.388  25.810  1.00  0.00    -0.459 OA
BRANCH   3   4
ATOM      4  C   UNL A   1      35.792  22.485  25.790  1.00  0.00     0.338 C 
ATOM      5  O   UNL A   1      36.273  23.583  26.054  1.00  0.00    -0.246 OA
BRANCH   4   6
ATOM      6  C   UNL A   1      34.332  22.394  25.510  1.00  0.00     0.087 C 
ATOM      7  C   UNL A   1      33.558  21.297  25.562  1.00  0.00     0.028 C 
ATOM      8  C   UNL A   1      33.729  23.664  24.954  1.00  0.00     0.316 C 
ATOM      9  C   UNL A   1      32.939  20.997  24.254  1.00  0.00     0.027 A 
ATOM     10  O   UNL A   1      32.609  23.410  24.045  1.00  0.00    -0.475 OA
ATOM     11  C   UNL A   1      32.503  22.131  23.541  1.00  0.00     0.128 A 
ATOM     12  C   UNL A   1      32.810  19.674  23.732  1.00  0.00     0.011 A 
ATOM     13  C   UNL A   1      31.915  21.976  22.298  1.00  0.00     0.049 A 
ATOM     14  C   UNL A   1      32.212  19.561  22.464  1.00  0.00     0.049 A 
ATOM     15  C   UNL A   1      31.778  20.694  21.759  1.00  0.00     0.025 A 
ATOM     16  Cl  UNL A   1      31.988  18.024  21.697  1.00  0.00    -0.084 Cl
BRANCH   8  17
ATOM     17  C   UNL A   1      33.302  24.575  26.125  1.00  0.00     0.430 C 
ATOM     18  F   UNL A   1      31.998  24.940  26.049  1.00  0.00    -0.167 F 
ATOM     19  F   UNL A   1      33.477  23.974  27.323  1.00  0.00    -0.167 F 
ATOM     20  F   UNL A   1      34.018  25.728  26.136  1.00  0.00    -0.167 F 
ENDBRANCH   8  17
BRANCH  12  21
ATOM     21  C   UNL A   1      33.363  18.475  24.424  1.00  0.00    -0.016 A 
ATOM     22  C   UNL A   1      32.526  17.691  25.245  1.00  0.00     0.009 A 
ATOM     23  C   UNL A   1      34.689  18.039  24.250  1.00  0.00     0.009 A 
ATOM     24  C   UNL A   1      32.944  16.453  25.750  1.00  0.00     0.001 A 
ATOM     25  C   UNL A   1      35.114  16.801  24.769  1.00  0.00     0.001 A 
ATOM     26  C   UNL A   1      34.230  15.994  25.485  1.00  0.00     0.000 A 
ENDBRANCH  12  21
ENDBRANCH   4   6
ENDBRANCH   3   4
ENDBRANCH   2   3
ENDBRANCH   1   2
BRANCH   1  27
ATOM     27  O   UNL A   1      39.218  20.492  25.991  1.00  0.00    -0.458 OA
BRANCH  27  28
ATOM     28  C   UNL A   1      40.478  20.013  25.992  1.00  0.00     0.338 C 
ATOM     29  O   UNL A   1      40.748  18.851  25.751  1.00  0.00    -0.246 OA
BRANCH  28  30
ATOM     30  C   UNL A   1      41.504  21.019  26.341  1.00  0.00     0.060 A 
ATOM     31  C   UNL A   1      41.952  21.035  27.657  1.00  0.00     0.016 A 
ATOM     32  C   UNL A   1      41.997  21.934  25.391  1.00  0.00     0.016 A 
ATOM     33  C   UNL A   1      42.770  22.071  28.063  1.00  0.00     0.010 A 
ATOM     34  C   UNL A   1      42.912  22.902  25.774  1.00  0.00     0.010 A 
ATOM     35  C   UNL A   1      43.173  23.048  27.137  1.00  0.00    -0.014 A 
BRANCH  35  36
ATOM     36  C   UNL A   1      43.540  24.371  27.675  1.00  0.00     0.031 A 
ATOM     37  C   UNL A   1      44.975  24.811  27.527  1.00  0.00     0.074 A 
ATOM     38  C   UNL A   1      42.574  25.200  28.094  1.00  0.00     0.049 A 
ATOM     39  N   UNL A   1      45.497  25.998  27.680  1.00  0.00    -0.248 NA
ATOM     40  C   UNL A   1      45.960  23.780  27.146  1.00  0.00     0.031 C 
ATOM     41  C   UNL A   1      41.160  24.849  28.230  1.00  0.00     0.029 A 
ATOM     42  N   UNL A   1      42.632  26.526  28.421  1.00  0.00    -0.354 N 
ATOM     43  C   UNL A   1      46.854  25.848  27.409  1.00  0.00     0.074 A 
ATOM     44  C   UNL A   1      47.095  24.452  27.155  1.00  0.00     0.031 C 
ATOM     45  C   UNL A   1      40.470  25.954  28.556  1.00  0.00     0.029 A 
ATOM     46  C   UNL A   1      41.399  27.073  28.670  1.00  0.00     0.049 A 
ATOM     47  H   UNL A   1      43.472  27.036  28.471  1.00  0.00     0.167 HD
ATOM     48  C   UNL A   1      47.814  26.797  27.345  1.00  0.00     0.031 A 
ATOM     49  C   UNL A   1      41.069  28.349  28.937  1.00  0.00     0.031 A 
ATOM     50  C   UNL A   1      47.553  28.181  27.608  1.00  0.00     0.049 A 
ATOM     51  C   UNL A   1      42.162  29.382  28.916  1.00  0.00     0.074 A 
ATOM     52  C   UNL A   1      48.428  29.248  27.591  1.00  0.00     0.029 A 
ATOM     53  N   UNL A   1      46.301  28.682  27.943  1.00  0.00    -0.354 N 
ATOM     54  N   UNL A   1      43.434  29.236  28.626  1.00  0.00    -0.248 NA
ATOM     55  C   UNL A   1      41.770  30.758  29.241  1.00  0.00     0.031 C 
ATOM     56  C   UNL A   1      47.715  30.389  27.973  1.00  0.00     0.029 A 
ATOM     57  C   UNL A   1      46.384  30.042  28.164  1.00  0.00     0.049 A 
ATOM     58  H   UNL A   1      45.478  28.146  28.012  1.00  0.00     0.167 HD
ATOM     59  C   UNL A   1      43.993  30.503  28.710  1.00  0.00     0.074 A 
ATOM     60  C   UNL A   1      42.913  31.406  29.060  1.00  0.00     0.031 C 
ATOM     61  C   UNL A   1      45.278  30.894  28.517  1.00  0.00     0.031 A 
BRANCH  48  62
ATOM     62  C   UNL A   1      49.211  26.338  27.026  1.00  0.00    -0.014 A 
ATOM     63  C   UNL A   1      50.124  25.994  28.039  1.00  0.00     0.009 A 
ATOM     64  C   UNL A   1      49.642  26.302  25.692  1.00  0.00     0.009 A 
ATOM     65  C   UNL A   1      51.449  25.678  27.725  1.00  0.00     0.001 A 
ATOM     66  C   UNL A   1      50.957  25.954  25.377  1.00  0.00     0.001 A 
ATOM     67  C   UNL A   1      51.864  25.658  26.394  1.00  0.00     0.000 A 
ENDBRANCH  48  62
BRANCH  49  68
ATOM     68  C   UNL A   1      39.654  28.704  29.217  1.00  0.00    -0.014 A 
ATOM     69  C   UNL A   1      38.792  29.115  28.190  1.00  0.00     0.009 A 
ATOM     70  C   UNL A   1      39.149  28.605  30.524  1.00  0.00     0.009 A 
ATOM     71  C   UNL A   1      37.461  29.440  28.471  1.00  0.00     0.001 A 
ATOM     72  C   UNL A   1      37.813  28.902  30.797  1.00  0.00     0.001 A 
ATOM     73  C   UNL A   1      36.972  29.328  29.772  1.00  0.00     0.000 A 
ENDBRANCH  49  68
BRANCH  61  74
ATOM     74  C   UNL A   1      45.566  32.360  28.656  1.00  0.00    -0.014 A 
ATOM     75  C   UNL A   1      45.972  32.908  29.883  1.00  0.00     0.009 A 
ATOM     76  C   UNL A   1      45.487  33.189  27.527  1.00  0.00     0.009 A 
ATOM     77  C   UNL A   1      46.257  34.269  29.981  1.00  0.00     0.001 A 
ATOM     78  C   UNL A   1      45.805  34.542  27.622  1.00  0.00     0.001 A 
ATOM     79  C   UNL A   1      46.179  35.083  28.850  1.00  0.00     0.000 A 
ENDBRANCH  61  74
ENDBRANCH  35  36
ENDBRANCH  28  30
ENDBRANCH  27  28
ENDBRANCH   1  27
TORSDOF 13
ENDMDL
MODEL 2
REMARK VINA RESULT:     -11.7      2.713      7.105
REMARK SMILES O=C(OCCOC(=O)c1ccc(-c2c3nc(c(-c4ccccc4)c4ccc([nH]4)c(-c4ccccc4)c4nc(c(-c5ccccc5)c5ccc2[nH]5)C=C4)C=C3)cc1)C1=Cc2c(ccc(Cl)c2-c2ccccc2)O[C@H]1C(F)(F)F
REMARK SMILES IDX 5 1 4 2 3 3 2 4 1 5 57 6 58 7 73 8 59 9 72 10 60 11 65 12
REMARK SMILES IDX 61 13 63 14 62 15 64 16 74 17 75 18 76 19 77 20 66 21 67 22
REMARK SMILES IDX 71 23 68 24 70 25 69 26 6 27 7 28 8 29 9 30 10 31 56 32
REMARK SMILES IDX 11 33 55 34 12 35 13 36 14 37 49 38 15 39 54 40 48 41 50 42
REMARK SMILES IDX 16 43 53 44 47 45 46 46 17 48 39 49 24 50 38 51 25 52 28 53
REMARK SMILES IDX 37 54 51 55 26 56 27 57 36 59 52 60 29 61 18 62 19 63 23 64
REMARK SMILES IDX 20 65 22 66 21 67 40 68 41 69 45 70 42 71 44 72 43 73 30 74
REMARK SMILES IDX 31 75 35 76 32 77 34 78 33 79
REMARK H PARENT 50 47 28 58
REMARK Flexibility Score: inf
ROOT
ATOM      1  C   UNL A   1      38.084  19.978  24.925  1.00  0.00     0.275 C 
ENDROOT
BRANCH   1   2
ATOM      2  C   UNL A   1      36.618  19.566  24.884  1.00  0.00     0.275 C 
BRANCH   2   3
ATOM      3  O   UNL A   1      35.790  20.688  25.251  1.00  0.00    -0.459 OA
BRANCH   3   4
ATOM      4  C   UNL A   1      35.154  21.485  24.360  1.00  0.00     0.338 C 
ATOM      5  O   UNL A   1      35.810  22.247  23.655  1.00  0.00    -0.246 OA
BRANCH   4   6
ATOM      6  C   UNL A   1      33.669  21.508  24.246  1.00  0.00     0.087 C 
ATOM      7  C   UNL A   1      32.906  22.480  23.718  1.00  0.00     0.028 C 
ATOM      8  C   UNL A   1      32.978  20.369  24.961  1.00  0.00     0.316 C 
ATOM      9  C   UNL A   1      31.965  23.042  24.708  1.00  0.00     0.027 A 
ATOM     10  O   UNL A   1      31.656  20.741  25.472  1.00  0.00    -0.475 OA
ATOM     11  C   UNL A   1      31.391  22.090  25.573  1.00  0.00     0.128 A 
ATOM     12  C   UNL A   1      31.673  24.436  24.810  1.00  0.00     0.011 A 
ATOM     13  C   UNL A   1      30.501  22.499  26.550  1.00  0.00     0.049 A 
ATOM     14  C   UNL A   1      30.767  24.810  25.818  1.00  0.00     0.049 A 
ATOM     15  C   UNL A   1      30.197  23.857  26.676  1.00  0.00     0.025 A 
ATOM     16  Cl  UNL A   1      30.315  26.464  26.067  1.00  0.00    -0.084 Cl
BRANCH   8  17
ATOM     17  C   UNL A   1      32.888  19.157  24.010  1.00  0.00     0.430 C 
ATOM     18  F   UNL A   1      34.085  18.544  23.837  1.00  0.00    -0.167 F 
ATOM     19  F   UNL A   1      32.025  18.221  24.463  1.00  0.00    -0.167 F 
ATOM     20  F   UNL A   1      32.474  19.533  22.774  1.00  0.00    -0.167 F 
ENDBRANCH   8  17
BRANCH  12  21
ATOM     21  C   UNL A   1      32.354  25.466  23.974  1.00  0.00    -0.016 A 
ATOM     22  C   UNL A   1      31.860  25.763  22.687  1.00  0.00     0.009 A 
ATOM     23  C   UNL A   1      33.448  26.219  24.436  1.00  0.00     0.009 A 
ATOM     24  C   UNL A   1      32.338  26.855  21.951  1.00  0.00     0.001 A 
ATOM     25  C   UNL A   1      33.938  27.309  23.692  1.00  0.00     0.001 A 
ATOM     26  C   UNL A   1      33.357  27.648  22.469  1.00  0.00     0.000 A 
ENDBRANCH  12  21
ENDBRANCH   4   6
ENDBRANCH   3   4
ENDBRANCH   2   3
ENDBRANCH   1   2
BRANCH   1  27
ATOM     27  O   UNL A   1      38.304  21.151  25.707  1.00  0.00    -0.458 OA
BRANCH  27  28
ATOM     28  C   UNL A   1      39.540  21.281  26.226  1.00  0.00     0.338 C 
ATOM     29  O   UNL A   1      40.361  20.382  26.223  1.00  0.00    -0.246 OA
BRANCH  28  30
ATOM     30  C   UNL A   1      39.804  22.606  26.827  1.00  0.00     0.060 A 
ATOM     31  C   UNL A   1      38.990  23.658  26.420  1.00  0.00     0.016 A 
ATOM     32  C   UNL A   1      40.841  22.805  27.758  1.00  0.00     0.016 A 
ATOM     33  C   UNL A   1      39.317  24.939  26.819  1.00  0.00     0.010 A 
ATOM     34  C   UNL A   1      41.094  24.075  28.250  1.00  0.00     0.010 A 
ATOM     35  C   UNL A   1      40.422  25.148  27.661  1.00  0.00    -0.014 A 
BRANCH  35  36
ATOM     36  C   UNL A   1      41.065  26.474  27.609  1.00  0.00     0.031 A 
ATOM     37  C   UNL A   1      40.473  27.569  28.460  1.00  0.00     0.074 A 
ATOM     38  C   UNL A   1      42.236  26.612  26.972  1.00  0.00     0.049 A 
ATOM     39  N   UNL A   1      40.979  28.728  28.787  1.00  0.00    -0.248 NA
ATOM     40  C   UNL A   1      39.134  27.330  29.032  1.00  0.00     0.031 C 
ATOM     41  C   UNL A   1      42.881  25.581  26.158  1.00  0.00     0.029 A 
ATOM     42  N   UNL A   1      43.118  27.656  26.968  1.00  0.00    -0.354 N 
ATOM     43  C   UNL A   1      40.025  29.337  29.598  1.00  0.00     0.074 A 
ATOM     44  C   UNL A   1      38.884  28.464  29.658  1.00  0.00     0.031 C 
ATOM     45  C   UNL A   1      44.091  26.024  25.779  1.00  0.00     0.029 A 
ATOM     46  C   UNL A   1      44.286  27.370  26.308  1.00  0.00     0.049 A 
ATOM     47  H   UNL A   1      42.934  28.523  27.395  1.00  0.00     0.167 HD
ATOM     48  C   UNL A   1      40.106  30.510  30.264  1.00  0.00     0.031 A 
ATOM     49  C   UNL A   1      45.396  28.118  26.173  1.00  0.00     0.031 A 
ATOM     50  C   UNL A   1      41.251  31.369  30.185  1.00  0.00     0.049 A 
ATOM     51  C   UNL A   1      45.444  29.446  26.877  1.00  0.00     0.074 A 
ATOM     52  C   UNL A   1      41.466  32.588  30.794  1.00  0.00     0.029 A 
ATOM     53  N   UNL A   1      42.382  31.081  29.432  1.00  0.00    -0.354 N 
ATOM     54  N   UNL A   1      44.552  29.997  27.667  1.00  0.00    -0.248 NA
ATOM     55  C   UNL A   1      46.658  30.247  26.683  1.00  0.00     0.031 C 
ATOM     56  C   UNL A   1      42.708  33.066  30.362  1.00  0.00     0.029 A 
ATOM     57  C   UNL A   1      43.292  32.114  29.537  1.00  0.00     0.049 A 
ATOM     58  H   UNL A   1      42.515  30.261  28.902  1.00  0.00     0.167 HD
ATOM     59  C   UNL A   1      45.105  31.199  28.086  1.00  0.00     0.074 A 
ATOM     60  C   UNL A   1      46.418  31.284  27.475  1.00  0.00     0.031 C 
ATOM     61  C   UNL A   1      44.584  32.151  28.902  1.00  0.00     0.031 A 
BRANCH  48  62
ATOM     62  C   UNL A   1      38.907  30.921  31.075  1.00  0.00    -0.014 A 
ATOM     63  C   UNL A   1      38.790  30.593  32.437  1.00  0.00     0.009 A 
ATOM     64  C   UNL A   1      37.849  31.600  30.453  1.00  0.00     0.009 A 
ATOM     65  C   UNL A   1      37.619  30.888  33.142  1.00  0.00     0.001 A 
ATOM     66  C   UNL A   1      36.693  31.923  31.168  1.00  0.00     0.001 A 
ATOM     67  C   UNL A   1      36.572  31.552  32.506  1.00  0.00     0.000 A 
ENDBRANCH  48  62
BRANCH  49  68
ATOM     68  C   UNL A   1      46.536  27.610  25.369  1.00  0.00    -0.014 A 
ATOM     69  C   UNL A   1      46.698  27.976  24.025  1.00  0.00     0.009 A 
ATOM     70  C   UNL A   1      47.493  26.767  25.959  1.00  0.00     0.009 A 
ATOM     71  C   UNL A   1      47.781  27.492  23.285  1.00  0.00     0.001 A 
ATOM     72  C   UNL A   1      48.589  26.308  25.226  1.00  0.00     0.001 A 
ATOM     73  C   UNL A   1      48.727  26.664  23.887  1.00  0.00     0.000 A 
ENDBRANCH  49  68
BRANCH  61  74
ATOM     74  C   UNL A   1      45.450  33.341  29.190  1.00  0.00    -0.014 A 
ATOM     75  C   UNL A   1      45.382  34.499  28.400  1.00  0.00     0.009 A 
ATOM     76  C   UNL A   1      46.300  33.321  30.306  1.00  0.00     0.009 A 
ATOM     77  C   UNL A   1      46.180  35.601  28.703  1.00  0.00     0.001 A 
ATOM     78  C   UNL A   1      47.072  34.437  30.625  1.00  0.00     0.001 A 
ATOM     79  C   UNL A   1      47.019  35.572  29.818  1.00  0.00     0.000 A 
ENDBRANCH  61  74
ENDBRANCH  35  36
ENDBRANCH  28  30
ENDBRANCH  27  28
ENDBRANCH   1  27
TORSDOF 13
ENDMDL
MODEL 3
REMARK VINA RESULT:     -11.7      3.696      7.648
REMARK SMILES O=C(OCCOC(=O)c1ccc(-c2c3nc(c(-c4ccccc4)c4ccc([nH]4)c(-c4ccccc4)c4nc(c(-c5ccccc5)c5ccc2[nH]5)C=C4)C=C3)cc1)C1=Cc2c(ccc(Cl)c2-c2ccccc2)O[C@H]1C(F)(F)F
REMARK SMILES IDX 5 1 4 2 3 3 2 4 1 5 57 6 58 7 73 8 59 9 72 10 60 11 65 12
REMARK SMILES IDX 61 13 63 14 62 15 64 16 74 17 75 18 76 19 77 20 66 21 67 22
REMARK SMILES IDX 71 23 68 24 70 25 69 26 6 27 7 28 8 29 9 30 10 31 56 32
REMARK SMILES IDX 11 33 55 34 12 35 13 36 14 37 49 38 15 39 54 40 48 41 50 42
REMARK SMILES IDX 16 43 53 44 47 45 46 46 17 48 39 49 24 50 38 51 25 52 28 53
REMARK SMILES IDX 37 54 51 55 26 56 27 57 36 59 52 60 29 61 18 62 19 63 23 64
REMARK SMILES IDX 20 65 22 66 21 67 40 68 41 69 45 70 42 71 44 72 43 73 30 74
REMARK SMILES IDX 31 75 35 76 32 77 34 78 33 79
REMARK H PARENT 50 47 28 58
REMARK Flexibility Score: inf
ROOT
ATOM      1  C   UNL A   1      33.714  30.858  27.629  1.00  0.00     0.275 C 
ENDROOT
BRANCH   1   2
ATOM      2  C   UNL A   1      33.829  29.935  26.423  1.00  0.00     0.275 C 
BRANCH   2   3
ATOM      3  O   UNL A   1      32.557  29.864  25.745  1.00  0.00    -0.459 OA
BRANCH   3   4
ATOM      4  C   UNL A   1      31.701  28.821  25.846  1.00  0.00     0.338 C 
ATOM      5  O   UNL A   1      31.422  28.373  26.955  1.00  0.00    -0.246 OA
BRANCH   4   6
ATOM      6  C   UNL A   1      31.126  28.157  24.643  1.00  0.00     0.087 C 
ATOM      7  C   UNL A   1      30.782  26.865  24.511  1.00  0.00     0.028 C 
ATOM      8  C   UNL A   1      31.097  29.032  23.411  1.00  0.00     0.316 C 
ATOM      9  C   UNL A   1      31.545  26.199  23.435  1.00  0.00     0.027 A 
ATOM     10  O   UNL A   1      31.248  28.268  22.169  1.00  0.00    -0.475 OA
ATOM     11  C   UNL A   1      31.753  26.992  22.290  1.00  0.00     0.128 A 
ATOM     12  C   UNL A   1      32.059  24.871  23.545  1.00  0.00     0.011 A 
ATOM     13  C   UNL A   1      32.465  26.478  21.219  1.00  0.00     0.049 A 
ATOM     14  C   UNL A   1      32.780  24.388  22.437  1.00  0.00     0.049 A 
ATOM     15  C   UNL A   1      32.982  25.183  21.298  1.00  0.00     0.025 A 
ATOM     16  Cl  UNL A   1      33.466  22.798  22.421  1.00  0.00    -0.084 Cl
BRANCH   8  17
ATOM     17  C   UNL A   1      29.789  29.852  23.406  1.00  0.00     0.430 C 
ATOM     18  F   UNL A   1      29.595  30.512  22.237  1.00  0.00    -0.167 F 
ATOM     19  F   UNL A   1      28.703  29.073  23.607  1.00  0.00    -0.167 F 
ATOM     20  F   UNL A   1      29.801  30.799  24.378  1.00  0.00    -0.167 F 
ENDBRANCH   8  17
BRANCH  12  21
ATOM     21  C   UNL A   1      31.941  24.060  24.790  1.00  0.00    -0.016 A 
ATOM     22  C   UNL A   1      32.991  24.065  25.732  1.00  0.00     0.009 A 
ATOM     23  C   UNL A   1      30.787  23.323  25.113  1.00  0.00     0.009 A 
ATOM     24  C   UNL A   1      32.842  23.485  26.999  1.00  0.00     0.001 A 
ATOM     25  C   UNL A   1      30.642  22.730  26.381  1.00  0.00     0.001 A 
ATOM     26  C   UNL A   1      31.655  22.844  27.334  1.00  0.00     0.000 A 
ENDBRANCH  12  21
ENDBRANCH   4   6
ENDBRANCH   3   4
ENDBRANCH   2   3
ENDBRANCH   1   2
BRANCH   1  27
ATOM     27  O   UNL A   1      34.912  31.591  27.876  1.00  0.00    -0.458 OA
BRANCH  27  28
ATOM     28  C   UNL A   1      35.536  31.313  29.038  1.00  0.00     0.338 C 
ATOM     29  O   UNL A   1      35.281  31.883  30.083  1.00  0.00    -0.246 OA
BRANCH  28  30
ATOM     30  C   UNL A   1      36.581  30.272  28.925  1.00  0.00     0.060 A 
ATOM     31  C   UNL A   1      36.900  29.570  30.082  1.00  0.00     0.016 A 
ATOM     32  C   UNL A   1      37.238  30.011  27.708  1.00  0.00     0.016 A 
ATOM     33  C   UNL A   1      37.990  28.722  30.059  1.00  0.00     0.010 A 
ATOM     34  C   UNL A   1      38.254  29.070  27.659  1.00  0.00     0.010 A 
ATOM     35  C   UNL A   1      38.714  28.546  28.869  1.00  0.00    -0.014 A 
BRANCH  35  36
ATOM     36  C   UNL A   1      40.121  28.123  28.995  1.00  0.00     0.031 A 
ATOM     37  C   UNL A   1      40.462  26.708  28.601  1.00  0.00     0.074 A 
ATOM     38  C   UNL A   1      41.061  29.040  29.265  1.00  0.00     0.049 A 
ATOM     39  N   UNL A   1      41.632  26.168  28.381  1.00  0.00    -0.248 NA
ATOM     40  C   UNL A   1      39.338  25.769  28.420  1.00  0.00     0.031 C 
ATOM     41  C   UNL A   1      40.801  30.435  29.622  1.00  0.00     0.029 A 
ATOM     42  N   UNL A   1      42.423  28.945  29.218  1.00  0.00    -0.354 N 
ATOM     43  C   UNL A   1      41.374  24.845  28.035  1.00  0.00     0.074 A 
ATOM     44  C   UNL A   1      39.954  24.636  28.143  1.00  0.00     0.031 C 
ATOM     45  C   UNL A   1      41.973  31.085  29.703  1.00  0.00     0.029 A 
ATOM     46  C   UNL A   1      43.054  30.145  29.426  1.00  0.00     0.049 A 
ATOM     47  H   UNL A   1      42.902  28.102  29.051  1.00  0.00     0.167 HD
ATOM     48  C   UNL A   1      42.242  23.892  27.629  1.00  0.00     0.031 A 
ATOM     49  C   UNL A   1      44.364  30.442  29.371  1.00  0.00     0.031 A 
ATOM     50  C   UNL A   1      43.654  24.121  27.534  1.00  0.00     0.049 A 
ATOM     51  C   UNL A   1      45.321  29.353  28.971  1.00  0.00     0.074 A 
ATOM     52  C   UNL A   1      44.650  23.248  27.150  1.00  0.00     0.029 A 
ATOM     53  N   UNL A   1      44.263  25.332  27.839  1.00  0.00    -0.354 N 
ATOM     54  N   UNL A   1      45.064  28.116  28.613  1.00  0.00    -0.248 NA
ATOM     55  C   UNL A   1      46.745  29.705  28.951  1.00  0.00     0.031 C 
ATOM     56  C   UNL A   1      45.873  23.915  27.278  1.00  0.00     0.029 A 
ATOM     57  C   UNL A   1      45.630  25.222  27.678  1.00  0.00     0.049 A 
ATOM     58  H   UNL A   1      43.790  26.146  28.125  1.00  0.00     0.167 HD
ATOM     59  C   UNL A   1      46.291  27.547  28.302  1.00  0.00     0.074 A 
ATOM     60  C   UNL A   1      47.287  28.584  28.496  1.00  0.00     0.031 C 
ATOM     61  C   UNL A   1      46.578  26.285  27.892  1.00  0.00     0.031 A 
BRANCH  48  62
ATOM     62  C   UNL A   1      41.673  22.535  27.316  1.00  0.00    -0.014 A 
ATOM     63  C   UNL A   1      41.975  21.409  28.102  1.00  0.00     0.009 A 
ATOM     64  C   UNL A   1      40.865  22.367  26.181  1.00  0.00     0.009 A 
ATOM     65  C   UNL A   1      41.525  20.139  27.728  1.00  0.00     0.001 A 
ATOM     66  C   UNL A   1      40.389  21.102  25.828  1.00  0.00     0.001 A 
ATOM     67  C   UNL A   1      40.733  19.988  26.591  1.00  0.00     0.000 A 
ENDBRANCH  48  62
BRANCH  49  68
ATOM     68  C   UNL A   1      44.822  31.822  29.676  1.00  0.00    -0.014 A 
ATOM     69  C   UNL A   1      45.172  32.199  30.980  1.00  0.00     0.009 A 
ATOM     70  C   UNL A   1      44.938  32.769  28.644  1.00  0.00     0.009 A 
ATOM     71  C   UNL A   1      45.607  33.501  31.247  1.00  0.00     0.001 A 
ATOM     72  C   UNL A   1      45.400  34.059  28.908  1.00  0.00     0.001 A 
ATOM     73  C   UNL A   1      45.725  34.427  30.212  1.00  0.00     0.000 A 
ENDBRANCH  49  68
BRANCH  61  74
ATOM     74  C   UNL A   1      48.019  25.979  27.606  1.00  0.00    -0.014 A 
ATOM     75  C   UNL A   1      48.836  25.364  28.566  1.00  0.00     0.009 A 
ATOM     76  C   UNL A   1      48.544  26.258  26.334  1.00  0.00     0.009 A 
ATOM     77  C   UNL A   1      50.165  25.068  28.268  1.00  0.00     0.001 A 
ATOM     78  C   UNL A   1      49.863  25.930  26.029  1.00  0.00     0.001 A 
ATOM     79  C   UNL A   1      50.675  25.345  26.999  1.00  0.00     0.000 A 
ENDBRANCH  61  74
ENDBRANCH  35  36
ENDBRANCH  28  30
ENDBRANCH  27  28
ENDBRANCH   1  27
TORSDOF 13
ENDMDL
