MODEL 1
REMARK VINA RESULT:     -12.5      0.000      0.000
REMARK SMILES CS(=O)(=O)Nc1ccc(-c2cc(Cl)cc3c2O[C@H](C(F)(F)F)C(C(=O)OCCOC(=O)c2ccc(-c4c5nc(c(-c6ccccc6)c6ccc([nH]6)c(-c6ccccc6)c6nc(c(-c7ccccc7)c7ccc4[nH]7)C=C6)C=C5)cc2)=C3)cc1
REMARK SMILES IDX 27 1 26 2 24 3 25 4 23 5 10 6 11 7 16 8 12 9 15 10 17 11
REMARK SMILES IDX 13 12 14 13 80 14 18 15 9 16 6 17 7 18 82 19 8 20 81 21 5 22
REMARK SMILES IDX 2 24 1 25 3 26 4 27 19 28 20 29 21 30 22 31 28 32 29 33
REMARK SMILES IDX 30 34 31 35 32 36 33 37 79 38 34 39 78 40 35 41 36 42 37 43
REMARK SMILES IDX 72 44 38 45 77 46 71 47 73 48 39 49 76 50 70 51 69 52 40 54
REMARK SMILES IDX 62 55 47 56 61 57 48 58 51 59 60 60 74 61 49 62 50 63 59 65
REMARK SMILES IDX 75 66 52 67 41 68 42 69 46 70 43 71 45 72 44 73 63 74 64 75
REMARK SMILES IDX 68 76 65 77 67 78 66 79 53 80 54 81 58 82 55 83 57 84 56 85
REMARK H PARENT 5 23 73 53 51 64
REMARK Flexibility Score: inf
ROOT
ATOM      1  C   UNL A   1      31.886  29.552  25.635  1.00  0.00     0.275 C 
ENDROOT
BRANCH   1   2
ATOM      2  O   UNL A   1      31.137  28.439  26.193  1.00  0.00    -0.459 OA
BRANCH   2   3
ATOM      3  C   UNL A   1      31.044  27.382  25.342  1.00  0.00     0.338 C 
ATOM      4  O   UNL A   1      29.989  26.973  24.868  1.00  0.00    -0.246 OA
BRANCH   3   5
ATOM      5  C   UNL A   1      32.346  26.759  24.975  1.00  0.00     0.087 C 
ATOM      6  C   UNL A   1      32.519  22.728  24.862  1.00  0.00     0.026 A 
ATOM      7  C   UNL A   1      31.393  22.478  25.685  1.00  0.00     0.033 A 
ATOM      8  C   UNL A   1      32.936  24.065  24.895  1.00  0.00     0.135 A 
ATOM      9  C   UNL A   1      30.882  23.403  26.604  1.00  0.00     0.042 A 
ATOM     10  C   UNL A   1      32.611  24.870  26.018  1.00  0.00     0.019 A 
ATOM     11  O   UNL A   1      33.357  24.771  23.763  1.00  0.00    -0.475 OA
ATOM     12  Cl  UNL A   1      29.340  23.303  27.349  1.00  0.00    -0.084 Cl
ATOM     13  C   UNL A   1      31.599  24.529  26.892  1.00  0.00     0.032 A 
ATOM     14  C   UNL A   1      33.034  26.283  26.027  1.00  0.00     0.027 C 
ATOM     15  C   UNL A   1      32.668  26.122  23.635  1.00  0.00     0.316 C 
BRANCH   6  16
ATOM     16  C   UNL A   1      33.204  21.486  24.340  1.00  0.00    -0.014 A 
ATOM     17  C   UNL A   1      34.471  18.896  24.622  1.00  0.00     0.048 A 
ATOM     18  C   UNL A   1      33.137  19.018  24.231  1.00  0.00     0.027 A 
ATOM     19  C   UNL A   1      35.209  20.068  24.734  1.00  0.00     0.027 A 
ATOM     20  C   UNL A   1      32.534  20.291  24.035  1.00  0.00     0.011 A 
ATOM     21  C   UNL A   1      34.583  21.334  24.605  1.00  0.00     0.011 A 
BRANCH  17  22
ATOM     22  N   UNL A   1      34.945  17.615  25.050  1.00  0.00    -0.284 N 
ATOM     23  H   UNL A   1      35.725  17.605  25.652  1.00  0.00     0.180 HD
BRANCH  22  24
ATOM     24  S   UNL A   1      34.297  16.136  24.625  1.00  0.00     0.229 S 
ATOM     25  C   UNL A   1      32.734  16.110  25.476  1.00  0.00     0.183 C 
ATOM     26  O   UNL A   1      35.119  15.072  25.144  1.00  0.00    -0.207 OA
ATOM     27  O   UNL A   1      33.991  16.220  23.207  1.00  0.00    -0.207 OA
ENDBRANCH  22  24
ENDBRANCH  17  22
ENDBRANCH   6  16
BRANCH  15  28
ATOM     28  C   UNL A   1      33.570  27.142  22.927  1.00  0.00     0.430 C 
ATOM     29  F   UNL A   1      32.843  28.072  22.258  1.00  0.00    -0.167 F 
ATOM     30  F   UNL A   1      34.385  27.794  23.781  1.00  0.00    -0.167 F 
ATOM     31  F   UNL A   1      34.365  26.533  22.007  1.00  0.00    -0.167 F 
ENDBRANCH  15  28
ENDBRANCH   3   5
ENDBRANCH   2   3
ENDBRANCH   1   2
BRANCH   1  32
ATOM     32  C   UNL A   1      32.554  30.440  26.692  1.00  0.00     0.275 C 
BRANCH  32  33
ATOM     33  O   UNL A   1      33.911  30.035  26.954  1.00  0.00    -0.458 OA
BRANCH  33  34
ATOM     34  C   UNL A   1      34.538  30.781  27.897  1.00  0.00     0.338 C 
ATOM     35  O   UNL A   1      34.087  31.780  28.437  1.00  0.00    -0.246 OA
BRANCH  34  36
ATOM     36  C   UNL A   1      35.816  30.153  28.322  1.00  0.00     0.060 A 
ATOM     37  C   UNL A   1      36.817  30.088  27.361  1.00  0.00     0.016 A 
ATOM     38  C   UNL A   1      36.078  29.641  29.601  1.00  0.00     0.016 A 
ATOM     39  C   UNL A   1      38.076  29.591  27.705  1.00  0.00     0.010 A 
ATOM     40  C   UNL A   1      37.369  29.154  29.939  1.00  0.00     0.010 A 
ATOM     41  C   UNL A   1      38.412  29.171  29.005  1.00  0.00    -0.014 A 
BRANCH  41  42
ATOM     42  C   UNL A   1      39.849  28.768  29.273  1.00  0.00     0.031 A 
ATOM     43  C   UNL A   1      40.325  27.424  28.796  1.00  0.00     0.074 A 
ATOM     44  C   UNL A   1      40.804  29.626  29.715  1.00  0.00     0.049 A 
ATOM     45  N   UNL A   1      41.550  26.966  28.719  1.00  0.00    -0.248 NA
ATOM     46  C   UNL A   1      39.293  26.487  28.328  1.00  0.00     0.031 C 
ATOM     47  C   UNL A   1      40.558  30.992  30.127  1.00  0.00     0.029 A 
ATOM     48  N   UNL A   1      42.182  29.537  29.794  1.00  0.00    -0.354 N 
ATOM     49  C   UNL A   1      41.433  25.683  28.208  1.00  0.00     0.074 A 
ATOM     50  C   UNL A   1      40.028  25.455  27.945  1.00  0.00     0.031 C 
ATOM     51  C   UNL A   1      41.707  31.681  30.189  1.00  0.00     0.029 A 
ATOM     52  C   UNL A   1      42.812  30.744  30.057  1.00  0.00     0.049 A 
ATOM     53  H   UNL A   1      42.672  28.691  29.675  1.00  0.00     0.167 HD
ATOM     54  C   UNL A   1      42.398  24.756  28.019  1.00  0.00     0.031 A 
ATOM     55  C   UNL A   1      44.113  31.069  30.232  1.00  0.00     0.031 A 
ATOM     56  C   UNL A   1      43.780  24.918  28.377  1.00  0.00     0.049 A 
ATOM     57  C   UNL A   1      45.117  29.949  30.253  1.00  0.00     0.074 A 
ATOM     58  C   UNL A   1      44.808  24.001  28.242  1.00  0.00     0.029 A 
ATOM     59  N   UNL A   1      44.324  26.039  28.978  1.00  0.00    -0.354 N 
ATOM     60  N   UNL A   1      44.970  28.711  29.852  1.00  0.00    -0.248 NA
ATOM     61  C   UNL A   1      46.460  30.263  30.765  1.00  0.00     0.031 C 
ATOM     62  C   UNL A   1      45.959  24.545  28.820  1.00  0.00     0.029 A 
ATOM     63  C   UNL A   1      45.672  25.837  29.226  1.00  0.00     0.049 A 
ATOM     64  H   UNL A   1      43.826  26.859  29.199  1.00  0.00     0.167 HD
ATOM     65  C   UNL A   1      46.203  28.102  30.052  1.00  0.00     0.074 A 
ATOM     66  C   UNL A   1      47.094  29.114  30.580  1.00  0.00     0.031 C 
ATOM     67  C   UNL A   1      46.559  26.819  29.798  1.00  0.00     0.031 A 
BRANCH  54  68
ATOM     68  C   UNL A   1      41.942  23.427  27.501  1.00  0.00    -0.014 A 
ATOM     69  C   UNL A   1      41.333  22.482  28.340  1.00  0.00     0.009 A 
ATOM     70  C   UNL A   1      42.160  23.108  26.151  1.00  0.00     0.009 A 
ATOM     71  C   UNL A   1      40.987  21.224  27.843  1.00  0.00     0.001 A 
ATOM     72  C   UNL A   1      41.790  21.861  25.652  1.00  0.00     0.001 A 
ATOM     73  C   UNL A   1      41.216  20.916  26.501  1.00  0.00     0.000 A 
ENDBRANCH  54  68
BRANCH  55  74
ATOM     74  C   UNL A   1      44.573  32.478  30.477  1.00  0.00    -0.014 A 
ATOM     75  C   UNL A   1      44.996  33.298  29.414  1.00  0.00     0.009 A 
ATOM     76  C   UNL A   1      44.660  33.002  31.775  1.00  0.00     0.009 A 
ATOM     77  C   UNL A   1      45.493  34.587  29.640  1.00  0.00     0.001 A 
ATOM     78  C   UNL A   1      45.119  34.305  32.000  1.00  0.00     0.001 A 
ATOM     79  C   UNL A   1      45.544  35.094  30.933  1.00  0.00     0.000 A 
ENDBRANCH  55  74
BRANCH  67  80
ATOM     80  C   UNL A   1      47.994  26.439  30.040  1.00  0.00    -0.014 A 
ATOM     81  C   UNL A   1      48.431  25.934  31.274  1.00  0.00     0.009 A 
ATOM     82  C   UNL A   1      48.921  26.567  28.993  1.00  0.00     0.009 A 
ATOM     83  C   UNL A   1      49.775  25.592  31.461  1.00  0.00     0.001 A 
ATOM     84  C   UNL A   1      50.252  26.189  29.170  1.00  0.00     0.001 A 
ATOM     85  C   UNL A   1      50.680  25.711  30.407  1.00  0.00     0.000 A 
ENDBRANCH  67  80
ENDBRANCH  41  42
ENDBRANCH  34  36
ENDBRANCH  33  34
ENDBRANCH  32  33
ENDBRANCH   1  32
TORSDOF 15
ENDMDL
MODEL 2
REMARK VINA RESULT:     -12.3      3.340      8.329
REMARK SMILES CS(=O)(=O)Nc1ccc(-c2cc(Cl)cc3c2O[C@H](C(F)(F)F)C(C(=O)OCCOC(=O)c2ccc(-c4c5nc(c(-c6ccccc6)c6ccc([nH]6)c(-c6ccccc6)c6nc(c(-c7ccccc7)c7ccc4[nH]7)C=C6)C=C5)cc2)=C3)cc1
REMARK SMILES IDX 27 1 26 2 24 3 25 4 23 5 10 6 11 7 16 8 12 9 15 10 17 11
REMARK SMILES IDX 13 12 14 13 80 14 18 15 9 16 6 17 7 18 82 19 8 20 81 21 5 22
REMARK SMILES IDX 2 24 1 25 3 26 4 27 19 28 20 29 21 30 22 31 28 32 29 33
REMARK SMILES IDX 30 34 31 35 32 36 33 37 79 38 34 39 78 40 35 41 36 42 37 43
REMARK SMILES IDX 72 44 38 45 77 46 71 47 73 48 39 49 76 50 70 51 69 52 40 54
REMARK SMILES IDX 62 55 47 56 61 57 48 58 51 59 60 60 74 61 49 62 50 63 59 65
REMARK SMILES IDX 75 66 52 67 41 68 42 69 46 70 43 71 45 72 44 73 63 74 64 75
REMARK SMILES IDX 68 76 65 77 67 78 66 79 53 80 54 81 58 82 55 83 57 84 56 85
REMARK H PARENT 5 23 73 53 51 64
REMARK Flexibility Score: inf
ROOT
ATOM      1  C   UNL A   1      38.197  19.346  25.384  1.00  0.00     0.275 C 
ENDROOT
BRANCH   1   2
ATOM      2  O   UNL A   1      37.339  20.010  24.417  1.00  0.00    -0.459 OA
BRANCH   2   3
ATOM      3  C   UNL A   1      36.467  20.881  24.991  1.00  0.00     0.338 C 
ATOM      4  O   UNL A   1      35.473  20.540  25.623  1.00  0.00    -0.246 OA
BRANCH   3   5
ATOM      5  C   UNL A   1      36.826  22.318  24.836  1.00  0.00     0.087 C 
ATOM      6  C   UNL A   1      33.812  25.002  24.791  1.00  0.00     0.026 A 
ATOM      7  C   UNL A   1      32.776  24.101  24.440  1.00  0.00     0.033 A 
ATOM      8  C   UNL A   1      35.092  24.454  24.635  1.00  0.00     0.135 A 
ATOM      9  C   UNL A   1      32.996  22.877  23.796  1.00  0.00     0.042 A 
ATOM     10  C   UNL A   1      35.284  23.377  23.729  1.00  0.00     0.019 A 
ATOM     11  O   UNL A   1      36.135  24.656  25.544  1.00  0.00    -0.475 OA
ATOM     12  Cl  UNL A   1      31.850  21.608  23.674  1.00  0.00    -0.084 Cl
ATOM     13  C   UNL A   1      34.233  22.600  23.286  1.00  0.00     0.032 A 
ATOM     14  C   UNL A   1      36.631  22.794  23.593  1.00  0.00     0.027 C 
ATOM     15  C   UNL A   1      36.811  23.352  25.947  1.00  0.00     0.316 C 
BRANCH   6  16
ATOM     16  C   UNL A   1      33.361  26.429  24.996  1.00  0.00    -0.014 A 
ATOM     17  C   UNL A   1      31.699  28.740  24.454  1.00  0.00     0.048 A 
ATOM     18  C   UNL A   1      31.453  27.903  25.543  1.00  0.00     0.027 A 
ATOM     19  C   UNL A   1      32.855  28.504  23.720  1.00  0.00     0.027 A 
ATOM     20  C   UNL A   1      32.306  26.805  25.843  1.00  0.00     0.011 A 
ATOM     21  C   UNL A   1      33.661  27.367  23.982  1.00  0.00     0.011 A 
BRANCH  17  22
ATOM     22  N   UNL A   1      30.678  29.660  24.053  1.00  0.00    -0.284 N 
ATOM     23  H   UNL A   1      30.651  30.528  24.517  1.00  0.00     0.180 HD
BRANCH  22  24
ATOM     24  S   UNL A   1      29.529  29.397  22.871  1.00  0.00     0.229 S 
ATOM     25  C   UNL A   1      28.317  30.661  23.182  1.00  0.00     0.183 C 
ATOM     26  O   UNL A   1      28.908  28.110  23.066  1.00  0.00    -0.207 OA
ATOM     27  O   UNL A   1      30.162  29.736  21.608  1.00  0.00    -0.207 OA
ENDBRANCH  22  24
ENDBRANCH  17  22
ENDBRANCH   6  16
BRANCH  15  28
ATOM     28  C   UNL A   1      38.290  23.575  26.291  1.00  0.00     0.430 C 
ATOM     29  F   UNL A   1      38.489  23.624  27.632  1.00  0.00    -0.167 F 
ATOM     30  F   UNL A   1      39.089  22.609  25.792  1.00  0.00    -0.167 F 
ATOM     31  F   UNL A   1      38.734  24.757  25.787  1.00  0.00    -0.167 F 
ENDBRANCH  15  28
ENDBRANCH   3   5
ENDBRANCH   2   3
ENDBRANCH   1   2
BRANCH   1  32
ATOM     32  C   UNL A   1      39.685  19.674  25.217  1.00  0.00     0.275 C 
BRANCH  32  33
ATOM     33  O   UNL A   1      40.466  19.211  26.335  1.00  0.00    -0.458 OA
BRANCH  33  34
ATOM     34  C   UNL A   1      41.769  19.586  26.291  1.00  0.00     0.338 C 
ATOM     35  O   UNL A   1      42.708  18.875  25.965  1.00  0.00    -0.246 OA
BRANCH  34  36
ATOM     36  C   UNL A   1      41.924  21.040  26.554  1.00  0.00     0.060 A 
ATOM     37  C   UNL A   1      41.733  21.450  27.867  1.00  0.00     0.016 A 
ATOM     38  C   UNL A   1      42.249  22.004  25.589  1.00  0.00     0.016 A 
ATOM     39  C   UNL A   1      41.942  22.787  28.213  1.00  0.00     0.010 A 
ATOM     40  C   UNL A   1      42.476  23.356  25.961  1.00  0.00     0.010 A 
ATOM     41  C   UNL A   1      42.378  23.762  27.298  1.00  0.00    -0.014 A 
BRANCH  41  42
ATOM     42  C   UNL A   1      42.686  25.148  27.829  1.00  0.00     0.031 A 
ATOM     43  C   UNL A   1      44.063  25.715  27.618  1.00  0.00     0.074 A 
ATOM     44  C   UNL A   1      41.742  26.010  28.286  1.00  0.00     0.049 A 
ATOM     45  N   UNL A   1      44.481  26.945  27.787  1.00  0.00    -0.248 NA
ATOM     46  C   UNL A   1      45.092  24.783  27.134  1.00  0.00     0.031 C 
ATOM     47  C   UNL A   1      40.343  25.680  28.465  1.00  0.00     0.029 A 
ATOM     48  N   UNL A   1      41.767  27.361  28.581  1.00  0.00    -0.354 N 
ATOM     49  C   UNL A   1      45.823  26.930  27.445  1.00  0.00     0.074 A 
ATOM     50  C   UNL A   1      46.138  25.585  27.010  1.00  0.00     0.031 C 
ATOM     51  C   UNL A   1      39.609  26.794  28.601  1.00  0.00     0.029 A 
ATOM     52  C   UNL A   1      40.513  27.922  28.766  1.00  0.00     0.049 A 
ATOM     53  H   UNL A   1      42.602  27.878  28.653  1.00  0.00     0.167 HD
ATOM     54  C   UNL A   1      46.730  27.929  27.531  1.00  0.00     0.031 A 
ATOM     55  C   UNL A   1      40.118  29.175  29.086  1.00  0.00     0.031 A 
ATOM     56  C   UNL A   1      46.470  29.237  28.065  1.00  0.00     0.049 A 
ATOM     57  C   UNL A   1      41.186  30.184  29.410  1.00  0.00     0.074 A 
ATOM     58  C   UNL A   1      47.357  30.289  28.212  1.00  0.00     0.029 A 
ATOM     59  N   UNL A   1      45.258  29.663  28.581  1.00  0.00    -0.354 N 
ATOM     60  N   UNL A   1      42.471  30.122  29.166  1.00  0.00    -0.248 NA
ATOM     61  C   UNL A   1      40.755  31.427  30.067  1.00  0.00     0.031 C 
ATOM     62  C   UNL A   1      46.697  31.329  28.875  1.00  0.00     0.029 A 
ATOM     63  C   UNL A   1      45.374  30.961  29.052  1.00  0.00     0.049 A 
ATOM     64  H   UNL A   1      44.435  29.123  28.610  1.00  0.00     0.167 HD
ATOM     65  C   UNL A   1      43.001  31.320  29.628  1.00  0.00     0.074 A 
ATOM     66  C   UNL A   1      41.894  32.102  30.139  1.00  0.00     0.031 C 
ATOM     67  C   UNL A   1      44.292  31.732  29.609  1.00  0.00     0.031 A 
BRANCH  54  68
ATOM     68  C   UNL A   1      48.133  27.580  27.139  1.00  0.00    -0.014 A 
ATOM     69  C   UNL A   1      49.077  27.156  28.087  1.00  0.00     0.009 A 
ATOM     70  C   UNL A   1      48.519  27.712  25.796  1.00  0.00     0.009 A 
ATOM     71  C   UNL A   1      50.395  26.911  27.700  1.00  0.00     0.001 A 
ATOM     72  C   UNL A   1      49.830  27.442  25.410  1.00  0.00     0.001 A 
ATOM     73  C   UNL A   1      50.770  27.054  26.364  1.00  0.00     0.000 A 
ENDBRANCH  54  68
BRANCH  55  74
ATOM     74  C   UNL A   1      38.673  29.567  29.200  1.00  0.00    -0.014 A 
ATOM     75  C   UNL A   1      37.966  29.391  30.406  1.00  0.00     0.009 A 
ATOM     76  C   UNL A   1      37.960  30.059  28.097  1.00  0.00     0.009 A 
ATOM     77  C   UNL A   1      36.601  29.687  30.501  1.00  0.00     0.001 A 
ATOM     78  C   UNL A   1      36.604  30.392  28.201  1.00  0.00     0.001 A 
ATOM     79  C   UNL A   1      35.924  30.199  29.400  1.00  0.00     0.000 A 
ENDBRANCH  55  74
BRANCH  67  80
ATOM     80  C   UNL A   1      44.582  33.120  30.111  1.00  0.00    -0.014 A 
ATOM     81  C   UNL A   1      44.970  33.365  31.437  1.00  0.00     0.009 A 
ATOM     82  C   UNL A   1      44.487  34.203  29.223  1.00  0.00     0.009 A 
ATOM     83  C   UNL A   1      45.230  34.670  31.868  1.00  0.00     0.001 A 
ATOM     84  C   UNL A   1      44.784  35.499  29.645  1.00  0.00     0.001 A 
ATOM     85  C   UNL A   1      45.146  35.733  30.970  1.00  0.00     0.000 A 
ENDBRANCH  67  80
ENDBRANCH  41  42
ENDBRANCH  34  36
ENDBRANCH  33  34
ENDBRANCH  32  33
ENDBRANCH   1  32
TORSDOF 15
ENDMDL
MODEL 3
REMARK VINA RESULT:     -12.2      3.241      8.245
REMARK SMILES CS(=O)(=O)Nc1ccc(-c2cc(Cl)cc3c2O[C@H](C(F)(F)F)C(C(=O)OCCOC(=O)c2ccc(-c4c5nc(c(-c6ccccc6)c6ccc([nH]6)c(-c6ccccc6)c6nc(c(-c7ccccc7)c7ccc4[nH]7)C=C6)C=C5)cc2)=C3)cc1
REMARK SMILES IDX 27 1 26 2 24 3 25 4 23 5 10 6 11 7 16 8 12 9 15 10 17 11
REMARK SMILES IDX 13 12 14 13 80 14 18 15 9 16 6 17 7 18 82 19 8 20 81 21 5 22
REMARK SMILES IDX 2 24 1 25 3 26 4 27 19 28 20 29 21 30 22 31 28 32 29 33
REMARK SMILES IDX 30 34 31 35 32 36 33 37 79 38 34 39 78 40 35 41 36 42 37 43
REMARK SMILES IDX 72 44 38 45 77 46 71 47 73 48 39 49 76 50 70 51 69 52 40 54
REMARK SMILES IDX 62 55 47 56 61 57 48 58 51 59 60 60 74 61 49 62 50 63 59 65
REMARK SMILES IDX 75 66 52 67 41 68 42 69 46 70 43 71 45 72 44 73 63 74 64 75
REMARK SMILES IDX 68 76 65 77 67 78 66 79 53 80 54 81 58 82 55 83 57 84 56 85
REMARK H PARENT 5 23 73 53 51 64
REMARK Flexibility Score: inf
ROOT
ATOM      1  C   UNL A   1      38.137  19.417  25.407  1.00  0.00     0.275 C 
ENDROOT
BRANCH   1   2
ATOM      2  O   UNL A   1      37.380  20.097  24.370  1.00  0.00    -0.459 OA
BRANCH   2   3
ATOM      3  C   UNL A   1      36.442  20.947  24.868  1.00  0.00     0.338 C 
ATOM      4  O   UNL A   1      35.383  20.584  25.368  1.00  0.00    -0.246 OA
BRANCH   3   5
ATOM      5  C   UNL A   1      36.811  22.388  24.806  1.00  0.00     0.087 C 
ATOM      6  C   UNL A   1      33.806  25.078  24.644  1.00  0.00     0.026 A 
ATOM      7  C   UNL A   1      32.802  24.197  24.172  1.00  0.00     0.033 A 
ATOM      8  C   UNL A   1      35.095  24.536  24.565  1.00  0.00     0.135 A 
ATOM      9  C   UNL A   1      33.075  23.003  23.492  1.00  0.00     0.042 A 
ATOM     10  C   UNL A   1      35.360  23.500  23.630  1.00  0.00     0.019 A 
ATOM     11  O   UNL A   1      36.063  24.694  25.562  1.00  0.00    -0.475 OA
ATOM     12  Cl  UNL A   1      31.944  21.742  23.223  1.00  0.00    -0.084 Cl
ATOM     13  C   UNL A   1      34.349  22.746  23.071  1.00  0.00     0.032 A 
ATOM     14  C   UNL A   1      36.714  22.920  23.575  1.00  0.00     0.027 C 
ATOM     15  C   UNL A   1      36.707  23.372  25.958  1.00  0.00     0.316 C 
BRANCH   6  16
ATOM     16  C   UNL A   1      33.339  26.496  24.876  1.00  0.00    -0.014 A 
ATOM     17  C   UNL A   1      31.672  28.809  24.355  1.00  0.00     0.048 A 
ATOM     18  C   UNL A   1      31.406  27.940  25.415  1.00  0.00     0.027 A 
ATOM     19  C   UNL A   1      32.848  28.602  23.645  1.00  0.00     0.027 A 
ATOM     20  C   UNL A   1      32.259  26.840  25.706  1.00  0.00     0.011 A 
ATOM     21  C   UNL A   1      33.656  27.463  23.897  1.00  0.00     0.011 A 
BRANCH  17  22
ATOM     22  N   UNL A   1      30.654  29.731  23.954  1.00  0.00    -0.284 N 
ATOM     23  H   UNL A   1      30.663  30.620  24.378  1.00  0.00     0.180 HD
BRANCH  22  24
ATOM     24  S   UNL A   1      29.452  29.440  22.832  1.00  0.00     0.229 S 
ATOM     25  C   UNL A   1      28.248  30.703  23.178  1.00  0.00     0.183 C 
ATOM     26  O   UNL A   1      28.850  28.154  23.079  1.00  0.00    -0.207 OA
ATOM     27  O   UNL A   1      30.023  29.760  21.535  1.00  0.00    -0.207 OA
ENDBRANCH  22  24
ENDBRANCH  17  22
ENDBRANCH   6  16
BRANCH  15  28
ATOM     28  C   UNL A   1      38.153  23.576  26.428  1.00  0.00     0.430 C 
ATOM     29  F   UNL A   1      38.848  22.411  26.424  1.00  0.00    -0.167 F 
ATOM     30  F   UNL A   1      38.826  24.459  25.663  1.00  0.00    -0.167 F 
ATOM     31  F   UNL A   1      38.188  24.046  27.703  1.00  0.00    -0.167 F 
ENDBRANCH  15  28
ENDBRANCH   3   5
ENDBRANCH   2   3
ENDBRANCH   1   2
BRANCH   1  32
ATOM     32  C   UNL A   1      39.656  19.546  25.248  1.00  0.00     0.275 C 
BRANCH  32  33
ATOM     33  O   UNL A   1      40.344  19.381  26.503  1.00  0.00    -0.458 OA
BRANCH  33  34
ATOM     34  C   UNL A   1      41.671  19.657  26.446  1.00  0.00     0.338 C 
ATOM     35  O   UNL A   1      42.553  18.873  26.128  1.00  0.00    -0.246 OA
BRANCH  34  36
ATOM     36  C   UNL A   1      41.935  21.100  26.682  1.00  0.00     0.060 A 
ATOM     37  C   UNL A   1      41.802  21.541  27.993  1.00  0.00     0.016 A 
ATOM     38  C   UNL A   1      42.307  22.024  25.696  1.00  0.00     0.016 A 
ATOM     39  C   UNL A   1      42.115  22.864  28.313  1.00  0.00     0.010 A 
ATOM     40  C   UNL A   1      42.638  23.362  26.041  1.00  0.00     0.010 A 
ATOM     41  C   UNL A   1      42.599  23.793  27.373  1.00  0.00    -0.014 A 
BRANCH  41  42
ATOM     42  C   UNL A   1      43.017  25.161  27.875  1.00  0.00     0.031 A 
ATOM     43  C   UNL A   1      41.951  26.163  28.218  1.00  0.00     0.074 A 
ATOM     44  C   UNL A   1      44.283  25.471  28.255  1.00  0.00     0.049 A 
ATOM     45  N   UNL A   1      42.065  27.297  28.863  1.00  0.00    -0.248 NA
ATOM     46  C   UNL A   1      40.580  25.837  27.799  1.00  0.00     0.031 C 
ATOM     47  C   UNL A   1      45.428  24.599  28.099  1.00  0.00     0.029 A 
ATOM     48  N   UNL A   1      44.820  26.543  28.945  1.00  0.00    -0.354 N 
ATOM     49  C   UNL A   1      40.785  27.825  28.914  1.00  0.00     0.074 A 
ATOM     50  C   UNL A   1      39.903  26.866  28.282  1.00  0.00     0.031 C 
ATOM     51  C   UNL A   1      46.453  25.026  28.851  1.00  0.00     0.029 A 
ATOM     52  C   UNL A   1      46.127  26.347  29.363  1.00  0.00     0.049 A 
ATOM     53  H   UNL A   1      44.318  27.371  29.124  1.00  0.00     0.167 HD
ATOM     54  C   UNL A   1      40.380  29.021  29.396  1.00  0.00     0.031 A 
ATOM     55  C   UNL A   1      46.995  27.143  30.029  1.00  0.00     0.031 A 
ATOM     56  C   UNL A   1      41.250  30.035  29.924  1.00  0.00     0.049 A 
ATOM     57  C   UNL A   1      46.567  28.554  30.322  1.00  0.00     0.074 A 
ATOM     58  C   UNL A   1      40.906  31.289  30.401  1.00  0.00     0.029 A 
ATOM     59  N   UNL A   1      42.629  29.943  30.005  1.00  0.00    -0.354 N 
ATOM     60  N   UNL A   1      45.364  29.070  30.278  1.00  0.00    -0.248 NA
ATOM     61  C   UNL A   1      47.614  29.499  30.741  1.00  0.00     0.031 C 
ATOM     62  C   UNL A   1      42.083  31.977  30.711  1.00  0.00     0.029 A 
ATOM     63  C   UNL A   1      43.152  31.119  30.519  1.00  0.00     0.049 A 
ATOM     64  H   UNL A   1      43.159  29.159  29.736  1.00  0.00     0.167 HD
ATOM     65  C   UNL A   1      45.507  30.394  30.674  1.00  0.00     0.074 A 
ATOM     66  C   UNL A   1      46.908  30.594  30.983  1.00  0.00     0.031 C 
ATOM     67  C   UNL A   1      44.550  31.347  30.785  1.00  0.00     0.031 A 
BRANCH  54  68
ATOM     68  C   UNL A   1      38.922  29.331  29.251  1.00  0.00    -0.014 A 
ATOM     69  C   UNL A   1      38.390  29.811  28.044  1.00  0.00     0.009 A 
ATOM     70  C   UNL A   1      38.075  29.168  30.359  1.00  0.00     0.009 A 
ATOM     71  C   UNL A   1      37.041  30.161  27.964  1.00  0.00     0.001 A 
ATOM     72  C   UNL A   1      36.724  29.494  30.267  1.00  0.00     0.001 A 
ATOM     73  C   UNL A   1      36.211  30.002  29.074  1.00  0.00     0.000 A 
ENDBRANCH  54  68
BRANCH  55  74
ATOM     74  C   UNL A   1      48.377  26.696  30.412  1.00  0.00    -0.014 A 
ATOM     75  C   UNL A   1      49.462  26.852  29.527  1.00  0.00     0.009 A 
ATOM     76  C   UNL A   1      48.624  26.048  31.631  1.00  0.00     0.009 A 
ATOM     77  C   UNL A   1      50.738  26.374  29.846  1.00  0.00     0.001 A 
ATOM     78  C   UNL A   1      49.908  25.605  31.969  1.00  0.00     0.001 A 
ATOM     79  C   UNL A   1      50.962  25.760  31.073  1.00  0.00     0.000 A 
ENDBRANCH  55  74
BRANCH  67  80
ATOM     80  C   UNL A   1      44.971  32.692  31.312  1.00  0.00    -0.014 A 
ATOM     81  C   UNL A   1      45.341  33.743  30.459  1.00  0.00     0.009 A 
ATOM     82  C   UNL A   1      44.971  32.913  32.699  1.00  0.00     0.009 A 
ATOM     83  C   UNL A   1      45.728  34.979  30.987  1.00  0.00     0.001 A 
ATOM     84  C   UNL A   1      45.320  34.159  33.221  1.00  0.00     0.001 A 
ATOM     85  C   UNL A   1      45.708  35.188  32.365  1.00  0.00     0.000 A 
ENDBRANCH  67  80
ENDBRANCH  41  42
ENDBRANCH  34  36
ENDBRANCH  33  34
ENDBRANCH  32  33
ENDBRANCH   1  32
TORSDOF 15
ENDMDL
