MODEL 1
REMARK VINA RESULT:      -9.9      0.000      0.000
REMARK SMILES CC[C@H](C(=O)OCCOC(=O)c1ccc(-c2c3nc(c(-c4ccccc4)c4ccc([nH]4)c(-c4ccccc4)c4nc(c(-c5ccccc5)c5ccc2[nH]5)C=C4)C=C3)cc1)[N@@H+](C)[C@H]1CC[C@@H]([NH2+]C)CC1
REMARK SMILES IDX 7 1 6 2 4 3 5 4 3 5 2 6 1 7 60 8 61 9 62 11 69 12 63 13
REMARK SMILES IDX 68 14 64 15 65 16 66 17 67 18 8 21 9 22 10 23 11 24 12 25
REMARK SMILES IDX 13 26 59 27 14 28 58 29 15 30 16 31 17 32 52 33 18 34 57 35
REMARK SMILES IDX 51 36 53 37 19 38 56 39 50 40 49 41 20 43 42 44 27 45 41 46
REMARK SMILES IDX 28 47 31 48 40 49 54 50 29 51 30 52 39 54 55 55 32 56 21 57
REMARK SMILES IDX 22 58 26 59 23 60 25 61 24 62 43 63 44 64 48 65 45 66 47 67
REMARK SMILES IDX 46 68 33 69 34 70 38 71 35 72 37 73 36 74
REMARK H PARENT 60 10 66 19 66 20 53 42 31 53
REMARK Flexibility Score: inf
ROOT
ATOM      1  C   UNL A   1      38.007  20.677  24.960  1.00  0.00     0.274 C 
ENDROOT
BRANCH   1   2
ATOM      2  O   UNL A   1      36.995  21.608  25.386  1.00  0.00    -0.458 OA
BRANCH   2   3
ATOM      3  C   UNL A   1      36.253  22.160  24.377  1.00  0.00     0.365 C 
ATOM      4  O   UNL A   1      36.743  22.628  23.355  1.00  0.00    -0.245 OA
BRANCH   3   5
ATOM      5  C   UNL A   1      34.744  22.114  24.724  1.00  0.00     0.294 C 
BRANCH   5   6
ATOM      6  C   UNL A   1      33.835  22.451  23.525  1.00  0.00     0.074 C 
ATOM      7  C   UNL A   1      32.525  23.154  23.851  1.00  0.00     0.011 C 
ENDBRANCH   5   6
BRANCH   5   8
ATOM      8  N   UNL A   1      34.399  20.853  25.440  1.00  0.00    -0.323 N 
ATOM      9  C   UNL A   1      33.690  21.074  26.694  1.00  0.00     0.333 C 
ATOM     10  H   UNL A   1      35.308  20.485  25.722  1.00  0.00     0.348 HD
BRANCH   8  11
ATOM     11  C   UNL A   1      33.924  19.730  24.614  1.00  0.00     0.184 C 
ATOM     12  C   UNL A   1      34.978  18.606  24.692  1.00  0.00     0.071 C 
ATOM     13  C   UNL A   1      32.514  19.195  24.937  1.00  0.00     0.071 C 
ATOM     14  C   UNL A   1      34.586  17.404  23.839  1.00  0.00     0.071 C 
ATOM     15  C   UNL A   1      32.168  17.961  24.093  1.00  0.00     0.071 C 
ATOM     16  C   UNL A   1      33.212  16.838  24.225  1.00  0.00     0.182 C 
BRANCH  16  17
ATOM     17  N   UNL A   1      33.126  16.275  25.582  1.00  0.00    -0.346 N 
ATOM     18  C   UNL A   1      32.499  14.965  25.640  1.00  0.00     0.331 C 
ATOM     19  H   UNL A   1      32.584  16.917  26.162  1.00  0.00     0.346 HD
ATOM     20  H   UNL A   1      34.083  16.159  25.916  1.00  0.00     0.346 HD
ENDBRANCH  16  17
ENDBRANCH   8  11
ENDBRANCH   5   8
ENDBRANCH   3   5
ENDBRANCH   2   3
ENDBRANCH   1   2
BRANCH   1  21
ATOM     21  C   UNL A   1      39.329  20.861  25.715  1.00  0.00     0.275 C 
BRANCH  21  22
ATOM     22  O   UNL A   1      39.999  19.611  25.966  1.00  0.00    -0.458 OA
BRANCH  22  23
ATOM     23  C   UNL A   1      41.353  19.688  26.002  1.00  0.00     0.338 C 
ATOM     24  O   UNL A   1      42.137  18.863  25.564  1.00  0.00    -0.246 OA
BRANCH  23  25
ATOM     25  C   UNL A   1      41.790  21.005  26.517  1.00  0.00     0.060 A 
ATOM     26  C   UNL A   1      41.616  21.236  27.883  1.00  0.00     0.016 A 
ATOM     27  C   UNL A   1      42.317  22.012  25.703  1.00  0.00     0.016 A 
ATOM     28  C   UNL A   1      41.998  22.449  28.451  1.00  0.00     0.010 A 
ATOM     29  C   UNL A   1      42.670  23.249  26.269  1.00  0.00     0.010 A 
ATOM     30  C   UNL A   1      42.514  23.471  27.647  1.00  0.00    -0.014 A 
BRANCH  30  31
ATOM     31  C   UNL A   1      42.741  24.800  28.266  1.00  0.00     0.031 A 
ATOM     32  C   UNL A   1      44.149  25.213  28.579  1.00  0.00     0.074 A 
ATOM     33  C   UNL A   1      41.726  25.658  28.474  1.00  0.00     0.049 A 
ATOM     34  N   UNL A   1      44.598  26.359  29.023  1.00  0.00    -0.248 NA
ATOM     35  C   UNL A   1      45.189  24.194  28.368  1.00  0.00     0.031 C 
ATOM     36  C   UNL A   1      40.321  25.378  28.201  1.00  0.00     0.029 A 
ATOM     37  N   UNL A   1      41.729  26.955  28.929  1.00  0.00    -0.354 N 
ATOM     38  C   UNL A   1      45.968  26.189  29.175  1.00  0.00     0.074 A 
ATOM     39  C   UNL A   1      46.276  24.836  28.764  1.00  0.00     0.031 C 
ATOM     40  C   UNL A   1      39.600  26.488  28.445  1.00  0.00     0.029 A 
ATOM     41  C   UNL A   1      40.488  27.551  28.906  1.00  0.00     0.049 A 
ATOM     42  H   UNL A   1      42.541  27.414  29.242  1.00  0.00     0.167 HD
ATOM     43  C   UNL A   1      46.882  27.070  29.644  1.00  0.00     0.031 A 
ATOM     44  C   UNL A   1      40.123  28.815  29.206  1.00  0.00     0.031 A 
ATOM     45  C   UNL A   1      46.572  28.401  30.093  1.00  0.00     0.049 A 
ATOM     46  C   UNL A   1      41.168  29.780  29.713  1.00  0.00     0.074 A 
ATOM     47  C   UNL A   1      47.426  29.352  30.622  1.00  0.00     0.029 A 
ATOM     48  N   UNL A   1      45.305  28.962  30.080  1.00  0.00    -0.354 N 
ATOM     49  N   UNL A   1      42.462  29.612  29.842  1.00  0.00    -0.248 NA
ATOM     50  C   UNL A   1      40.694  31.108  30.133  1.00  0.00     0.031 C 
ATOM     51  C   UNL A   1      46.665  30.469  30.984  1.00  0.00     0.029 A 
ATOM     52  C   UNL A   1      45.350  30.242  30.607  1.00  0.00     0.049 A 
ATOM     53  H   UNL A   1      44.493  28.518  29.744  1.00  0.00     0.167 HD
ATOM     54  C   UNL A   1      42.954  30.808  30.350  1.00  0.00     0.074 A 
ATOM     55  C   UNL A   1      41.828  31.711  30.459  1.00  0.00     0.031 C 
ATOM     56  C   UNL A   1      44.221  31.129  30.713  1.00  0.00     0.031 A 
BRANCH  43  57
ATOM     57  C   UNL A   1      48.296  26.580  29.773  1.00  0.00    -0.014 A 
ATOM     58  C   UNL A   1      48.738  25.892  30.912  1.00  0.00     0.009 A 
ATOM     59  C   UNL A   1      49.202  26.816  28.726  1.00  0.00     0.009 A 
ATOM     60  C   UNL A   1      50.070  25.478  31.013  1.00  0.00     0.001 A 
ATOM     61  C   UNL A   1      50.522  26.376  28.817  1.00  0.00     0.001 A 
ATOM     62  C   UNL A   1      50.957  25.718  29.964  1.00  0.00     0.000 A 
ENDBRANCH  43  57
BRANCH  44  63
ATOM     63  C   UNL A   1      38.707  29.264  29.059  1.00  0.00    -0.014 A 
ATOM     64  C   UNL A   1      37.814  29.187  30.143  1.00  0.00     0.009 A 
ATOM     65  C   UNL A   1      38.219  29.709  27.820  1.00  0.00     0.009 A 
ATOM     66  C   UNL A   1      36.461  29.500  29.976  1.00  0.00     0.001 A 
ATOM     67  C   UNL A   1      36.876  30.062  27.668  1.00  0.00     0.001 A 
ATOM     68  C   UNL A   1      35.994  29.940  28.740  1.00  0.00     0.000 A 
ENDBRANCH  44  63
BRANCH  56  69
ATOM     69  C   UNL A   1      44.461  32.521  31.236  1.00  0.00    -0.014 A 
ATOM     70  C   UNL A   1      44.413  32.812  32.609  1.00  0.00     0.009 A 
ATOM     71  C   UNL A   1      44.770  33.555  30.337  1.00  0.00     0.009 A 
ATOM     72  C   UNL A   1      44.621  34.116  33.065  1.00  0.00     0.001 A 
ATOM     73  C   UNL A   1      45.013  34.850  30.798  1.00  0.00     0.001 A 
ATOM     74  C   UNL A   1      44.924  35.132  32.160  1.00  0.00     0.000 A 
ENDBRANCH  56  69
ENDBRANCH  30  31
ENDBRANCH  23  25
ENDBRANCH  22  23
ENDBRANCH  21  22
ENDBRANCH   1  21
TORSDOF 15
ENDMDL
MODEL 2
REMARK VINA RESULT:      -9.9      5.192      9.695
REMARK SMILES CC[C@H](C(=O)OCCOC(=O)c1ccc(-c2c3nc(c(-c4ccccc4)c4ccc([nH]4)c(-c4ccccc4)c4nc(c(-c5ccccc5)c5ccc2[nH]5)C=C4)C=C3)cc1)[N@@H+](C)[C@H]1CC[C@@H]([NH2+]C)CC1
REMARK SMILES IDX 7 1 6 2 4 3 5 4 3 5 2 6 1 7 60 8 61 9 62 11 69 12 63 13
REMARK SMILES IDX 68 14 64 15 65 16 66 17 67 18 8 21 9 22 10 23 11 24 12 25
REMARK SMILES IDX 13 26 59 27 14 28 58 29 15 30 16 31 17 32 52 33 18 34 57 35
REMARK SMILES IDX 51 36 53 37 19 38 56 39 50 40 49 41 20 43 42 44 27 45 41 46
REMARK SMILES IDX 28 47 31 48 40 49 54 50 29 51 30 52 39 54 55 55 32 56 21 57
REMARK SMILES IDX 22 58 26 59 23 60 25 61 24 62 43 63 44 64 48 65 45 66 47 67
REMARK SMILES IDX 46 68 33 69 34 70 38 71 35 72 37 73 36 74
REMARK H PARENT 60 10 66 19 66 20 53 42 31 53
REMARK Flexibility Score: inf
ROOT
ATOM      1  C   UNL A   1      34.385  33.544  30.399  1.00  0.00     0.274 C 
ENDROOT
BRANCH   1   2
ATOM      2  O   UNL A   1      34.330  32.304  29.668  1.00  0.00    -0.458 OA
BRANCH   2   3
ATOM      3  C   UNL A   1      34.611  32.406  28.333  1.00  0.00     0.365 C 
ATOM      4  O   UNL A   1      34.764  33.475  27.752  1.00  0.00    -0.245 OA
BRANCH   3   5
ATOM      5  C   UNL A   1      34.690  31.000  27.686  1.00  0.00     0.294 C 
BRANCH   5   6
ATOM      6  C   UNL A   1      35.733  30.081  28.354  1.00  0.00     0.074 C 
ATOM      7  C   UNL A   1      36.998  29.808  27.554  1.00  0.00     0.011 C 
ENDBRANCH   5   6
BRANCH   5   8
ATOM      8  N   UNL A   1      33.331  30.405  27.537  1.00  0.00    -0.323 N 
ATOM      9  C   UNL A   1      32.379  31.292  26.881  1.00  0.00     0.333 C 
ATOM     10  H   UNL A   1      32.996  30.337  28.498  1.00  0.00     0.348 HD
BRANCH   8  11
ATOM     11  C   UNL A   1      33.266  28.985  27.153  1.00  0.00     0.184 C 
ATOM     12  C   UNL A   1      31.791  28.541  27.229  1.00  0.00     0.071 C 
ATOM     13  C   UNL A   1      33.891  28.617  25.792  1.00  0.00     0.071 C 
ATOM     14  C   UNL A   1      31.627  27.066  26.875  1.00  0.00     0.071 C 
ATOM     15  C   UNL A   1      33.670  27.138  25.447  1.00  0.00     0.071 C 
ATOM     16  C   UNL A   1      32.185  26.733  25.485  1.00  0.00     0.182 C 
BRANCH  16  17
ATOM     17  N   UNL A   1      31.494  27.384  24.360  1.00  0.00    -0.346 N 
ATOM     18  C   UNL A   1      32.047  27.054  23.057  1.00  0.00     0.331 C 
ATOM     19  H   UNL A   1      31.553  28.394  24.488  1.00  0.00     0.346 HD
ATOM     20  H   UNL A   1      30.532  27.044  24.367  1.00  0.00     0.346 HD
ENDBRANCH  16  17
ENDBRANCH   8  11
ENDBRANCH   5   8
ENDBRANCH   3   5
ENDBRANCH   2   3
ENDBRANCH   1   2
BRANCH   1  21
ATOM     21  C   UNL A   1      34.458  33.328  31.915  1.00  0.00     0.275 C 
BRANCH  21  22
ATOM     22  O   UNL A   1      35.034  32.055  32.264  1.00  0.00    -0.458 OA
BRANCH  22  23
ATOM     23  C   UNL A   1      36.248  32.126  32.864  1.00  0.00     0.338 C 
ATOM     24  O   UNL A   1      36.466  32.426  34.026  1.00  0.00    -0.246 OA
BRANCH  23  25
ATOM     25  C   UNL A   1      37.310  31.635  31.957  1.00  0.00     0.060 A 
ATOM     26  C   UNL A   1      38.097  30.579  32.422  1.00  0.00     0.016 A 
ATOM     27  C   UNL A   1      37.573  32.199  30.705  1.00  0.00     0.016 A 
ATOM     28  C   UNL A   1      39.120  30.058  31.633  1.00  0.00     0.010 A 
ATOM     29  C   UNL A   1      38.627  31.697  29.924  1.00  0.00     0.010 A 
ATOM     30  C   UNL A   1      39.403  30.621  30.385  1.00  0.00    -0.014 A 
BRANCH  30  31
ATOM     31  C   UNL A   1      40.609  30.147  29.661  1.00  0.00     0.031 A 
ATOM     32  C   UNL A   1      40.546  28.827  28.951  1.00  0.00     0.074 A 
ATOM     33  C   UNL A   1      41.715  30.909  29.568  1.00  0.00     0.049 A 
ATOM     34  N   UNL A   1      41.433  28.260  28.174  1.00  0.00    -0.248 NA
ATOM     35  C   UNL A   1      39.320  28.039  29.151  1.00  0.00     0.031 C 
ATOM     36  C   UNL A   1      41.892  32.211  30.202  1.00  0.00     0.029 A 
ATOM     37  N   UNL A   1      42.882  30.712  28.871  1.00  0.00    -0.354 N 
ATOM     38  C   UNL A   1      40.886  27.034  27.818  1.00  0.00     0.074 A 
ATOM     39  C   UNL A   1      39.587  26.948  28.451  1.00  0.00     0.031 C 
ATOM     40  C   UNL A   1      43.079  32.722  29.823  1.00  0.00     0.029 A 
ATOM     41  C   UNL A   1      43.751  31.777  28.935  1.00  0.00     0.049 A 
ATOM     42  H   UNL A   1      43.079  29.886  28.373  1.00  0.00     0.167 HD
ATOM     43  C   UNL A   1      41.429  26.056  27.055  1.00  0.00     0.031 A 
ATOM     44  C   UNL A   1      44.941  31.970  28.329  1.00  0.00     0.031 A 
ATOM     45  C   UNL A   1      42.736  26.122  26.460  1.00  0.00     0.049 A 
ATOM     46  C   UNL A   1      45.515  30.866  27.473  1.00  0.00     0.074 A 
ATOM     47  C   UNL A   1      43.388  25.163  25.703  1.00  0.00     0.029 A 
ATOM     48  N   UNL A   1      43.598  27.203  26.565  1.00  0.00    -0.354 N 
ATOM     49  N   UNL A   1      44.984  29.716  27.133  1.00  0.00    -0.248 NA
ATOM     50  C   UNL A   1      46.865  31.083  26.930  1.00  0.00     0.031 C 
ATOM     51  C   UNL A   1      44.668  25.641  25.401  1.00  0.00     0.029 A 
ATOM     52  C   UNL A   1      44.782  26.929  25.902  1.00  0.00     0.049 A 
ATOM     53  H   UNL A   1      43.397  28.042  27.039  1.00  0.00     0.167 HD
ATOM     54  C   UNL A   1      45.928  29.080  26.336  1.00  0.00     0.074 A 
ATOM     55  C   UNL A   1      47.045  29.992  26.202  1.00  0.00     0.031 C 
ATOM     56  C   UNL A   1      45.887  27.844  25.779  1.00  0.00     0.031 A 
BRANCH  43  57
ATOM     57  C   UNL A   1      40.632  24.793  26.900  1.00  0.00    -0.014 A 
ATOM     58  C   UNL A   1      39.401  24.773  26.227  1.00  0.00     0.009 A 
ATOM     59  C   UNL A   1      41.131  23.597  27.441  1.00  0.00     0.009 A 
ATOM     60  C   UNL A   1      38.670  23.587  26.129  1.00  0.00     0.001 A 
ATOM     61  C   UNL A   1      40.413  22.408  27.315  1.00  0.00     0.001 A 
ATOM     62  C   UNL A   1      39.179  22.406  26.670  1.00  0.00     0.000 A 
ENDBRANCH  43  57
BRANCH  44  63
ATOM     63  C   UNL A   1      45.700  33.243  28.504  1.00  0.00    -0.014 A 
ATOM     64  C   UNL A   1      46.535  33.432  29.620  1.00  0.00     0.009 A 
ATOM     65  C   UNL A   1      45.543  34.304  27.598  1.00  0.00     0.009 A 
ATOM     66  C   UNL A   1      47.156  34.665  29.845  1.00  0.00     0.001 A 
ATOM     67  C   UNL A   1      46.200  35.520  27.803  1.00  0.00     0.001 A 
ATOM     68  C   UNL A   1      46.991  35.706  28.934  1.00  0.00     0.000 A 
ENDBRANCH  44  63
BRANCH  56  69
ATOM     69  C   UNL A   1      47.072  27.416  24.952  1.00  0.00    -0.014 A 
ATOM     70  C   UNL A   1      48.064  26.568  25.468  1.00  0.00     0.009 A 
ATOM     71  C   UNL A   1      47.178  27.848  23.620  1.00  0.00     0.009 A 
ATOM     72  C   UNL A   1      49.162  26.203  24.685  1.00  0.00     0.001 A 
ATOM     73  C   UNL A   1      48.257  27.453  22.828  1.00  0.00     0.001 A 
ATOM     74  C   UNL A   1      49.255  26.642  23.366  1.00  0.00     0.000 A 
ENDBRANCH  56  69
ENDBRANCH  30  31
ENDBRANCH  23  25
ENDBRANCH  22  23
ENDBRANCH  21  22
ENDBRANCH   1  21
TORSDOF 15
ENDMDL
MODEL 3
REMARK VINA RESULT:      -9.8      5.190     10.027
REMARK SMILES CC[C@H](C(=O)OCCOC(=O)c1ccc(-c2c3nc(c(-c4ccccc4)c4ccc([nH]4)c(-c4ccccc4)c4nc(c(-c5ccccc5)c5ccc2[nH]5)C=C4)C=C3)cc1)[N@@H+](C)[C@H]1CC[C@@H]([NH2+]C)CC1
REMARK SMILES IDX 7 1 6 2 4 3 5 4 3 5 2 6 1 7 60 8 61 9 62 11 69 12 63 13
REMARK SMILES IDX 68 14 64 15 65 16 66 17 67 18 8 21 9 22 10 23 11 24 12 25
REMARK SMILES IDX 13 26 59 27 14 28 58 29 15 30 16 31 17 32 52 33 18 34 57 35
REMARK SMILES IDX 51 36 53 37 19 38 56 39 50 40 49 41 20 43 42 44 27 45 41 46
REMARK SMILES IDX 28 47 31 48 40 49 54 50 29 51 30 52 39 54 55 55 32 56 21 57
REMARK SMILES IDX 22 58 26 59 23 60 25 61 24 62 43 63 44 64 48 65 45 66 47 67
REMARK SMILES IDX 46 68 33 69 34 70 38 71 35 72 37 73 36 74
REMARK H PARENT 60 10 66 19 66 20 53 42 31 53
REMARK Flexibility Score: inf
ROOT
ATOM      1  C   UNL A   1      31.895  31.652  26.831  1.00  0.00     0.274 C 
ENDROOT
BRANCH   1   2
ATOM      2  O   UNL A   1      32.483  30.521  26.162  1.00  0.00    -0.458 OA
BRANCH   2   3
ATOM      3  C   UNL A   1      31.923  29.310  26.469  1.00  0.00     0.365 C 
ATOM      4  O   UNL A   1      31.583  28.989  27.602  1.00  0.00    -0.245 OA
BRANCH   3   5
ATOM      5  C   UNL A   1      31.801  28.430  25.199  1.00  0.00     0.294 C 
BRANCH   5   6
ATOM      6  C   UNL A   1      30.862  27.221  25.386  1.00  0.00     0.074 C 
ATOM      7  C   UNL A   1      31.500  25.954  25.935  1.00  0.00     0.011 C 
ENDBRANCH   5   6
BRANCH   5   8
ATOM      8  N   UNL A   1      31.520  29.266  23.997  1.00  0.00    -0.323 N 
ATOM      9  C   UNL A   1      32.391  28.967  22.868  1.00  0.00     0.333 C 
ATOM     10  H   UNL A   1      31.795  30.203  24.290  1.00  0.00     0.348 HD
BRANCH   8  11
ATOM     11  C   UNL A   1      30.104  29.513  23.677  1.00  0.00     0.184 C 
ATOM     12  C   UNL A   1      29.812  31.004  23.944  1.00  0.00     0.071 C 
ATOM     13  C   UNL A   1      29.641  29.098  22.265  1.00  0.00     0.071 C 
ATOM     14  C   UNL A   1      28.352  31.351  23.668  1.00  0.00     0.071 C 
ATOM     15  C   UNL A   1      28.183  29.500  22.005  1.00  0.00     0.071 C 
ATOM     16  C   UNL A   1      27.930  31.001  22.234  1.00  0.00     0.182 C 
BRANCH  16  17
ATOM     17  N   UNL A   1      28.618  31.759  21.176  1.00  0.00    -0.346 N 
ATOM     18  C   UNL A   1      27.771  32.728  20.499  1.00  0.00     0.331 C 
ATOM     19  H   UNL A   1      28.968  31.098  20.483  1.00  0.00     0.346 HD
ATOM     20  H   UNL A   1      29.366  32.286  21.628  1.00  0.00     0.346 HD
ENDBRANCH  16  17
ENDBRANCH   8  11
ENDBRANCH   5   8
ENDBRANCH   3   5
ENDBRANCH   2   3
ENDBRANCH   1   2
BRANCH   1  21
ATOM     21  C   UNL A   1      32.900  32.397  27.718  1.00  0.00     0.275 C 
BRANCH  21  22
ATOM     22  O   UNL A   1      32.694  33.822  27.706  1.00  0.00    -0.458 OA
BRANCH  22  23
ATOM     23  C   UNL A   1      33.134  34.470  28.813  1.00  0.00     0.338 C 
ATOM     24  O   UNL A   1      32.523  35.312  29.450  1.00  0.00    -0.246 OA
BRANCH  23  25
ATOM     25  C   UNL A   1      34.428  33.914  29.268  1.00  0.00     0.060 A 
ATOM     26  C   UNL A   1      35.547  34.200  28.482  1.00  0.00     0.016 A 
ATOM     27  C   UNL A   1      34.561  33.102  30.398  1.00  0.00     0.016 A 
ATOM     28  C   UNL A   1      36.803  33.714  28.836  1.00  0.00     0.010 A 
ATOM     29  C   UNL A   1      35.821  32.582  30.736  1.00  0.00     0.010 A 
ATOM     30  C   UNL A   1      36.949  32.889  29.957  1.00  0.00    -0.014 A 
BRANCH  30  31
ATOM     31  C   UNL A   1      38.270  32.256  30.191  1.00  0.00     0.031 A 
ATOM     32  C   UNL A   1      39.193  32.875  31.200  1.00  0.00     0.074 A 
ATOM     33  C   UNL A   1      38.615  31.108  29.579  1.00  0.00     0.049 A 
ATOM     34  N   UNL A   1      40.345  32.444  31.644  1.00  0.00    -0.248 NA
ATOM     35  C   UNL A   1      38.758  34.155  31.779  1.00  0.00     0.031 C 
ATOM     36  C   UNL A   1      37.802  30.405  28.592  1.00  0.00     0.029 A 
ATOM     37  N   UNL A   1      39.724  30.311  29.730  1.00  0.00    -0.354 N 
ATOM     38  C   UNL A   1      40.789  33.416  32.531  1.00  0.00     0.074 A 
ATOM     39  C   UNL A   1      39.776  34.449  32.572  1.00  0.00     0.031 C 
ATOM     40  C   UNL A   1      38.416  29.254  28.262  1.00  0.00     0.029 A 
ATOM     41  C   UNL A   1      39.671  29.145  29.000  1.00  0.00     0.049 A 
ATOM     42  H   UNL A   1      40.486  30.551  30.305  1.00  0.00     0.167 HD
ATOM     43  C   UNL A   1      41.949  33.458  33.227  1.00  0.00     0.031 A 
ATOM     44  C   UNL A   1      40.530  28.106  28.953  1.00  0.00     0.031 A 
ATOM     45  C   UNL A   1      42.976  32.453  33.156  1.00  0.00     0.049 A 
ATOM     46  C   UNL A   1      41.810  28.176  29.751  1.00  0.00     0.074 A 
ATOM     47  C   UNL A   1      44.204  32.430  33.794  1.00  0.00     0.029 A 
ATOM     48  N   UNL A   1      42.901  31.301  32.389  1.00  0.00    -0.354 N 
ATOM     49  N   UNL A   1      42.214  29.094  30.597  1.00  0.00    -0.248 NA
ATOM     50  C   UNL A   1      42.762  27.068  29.574  1.00  0.00     0.031 C 
ATOM     51  C   UNL A   1      44.896  31.291  33.367  1.00  0.00     0.029 A 
ATOM     52  C   UNL A   1      44.067  30.567  32.525  1.00  0.00     0.049 A 
ATOM     53  H   UNL A   1      42.132  31.042  31.833  1.00  0.00     0.167 HD
ATOM     54  C   UNL A   1      43.458  28.673  31.052  1.00  0.00     0.074 A 
ATOM     55  C   UNL A   1      43.721  27.393  30.429  1.00  0.00     0.031 C 
ATOM     56  C   UNL A   1      44.318  29.296  31.896  1.00  0.00     0.031 A 
BRANCH  43  57
ATOM     57  C   UNL A   1      42.199  34.682  34.060  1.00  0.00    -0.014 A 
ATOM     58  C   UNL A   1      41.860  34.732  35.420  1.00  0.00     0.009 A 
ATOM     59  C   UNL A   1      42.789  35.808  33.464  1.00  0.00     0.009 A 
ATOM     60  C   UNL A   1      42.076  35.899  36.159  1.00  0.00     0.001 A 
ATOM     61  C   UNL A   1      43.032  36.961  34.211  1.00  0.00     0.001 A 
ATOM     62  C   UNL A   1      42.665  37.009  35.554  1.00  0.00     0.000 A 
ENDBRANCH  43  57
BRANCH  44  63
ATOM     63  C   UNL A   1      40.243  26.904  28.116  1.00  0.00    -0.014 A 
ATOM     64  C   UNL A   1      39.513  25.822  28.642  1.00  0.00     0.009 A 
ATOM     65  C   UNL A   1      40.750  26.797  26.812  1.00  0.00     0.009 A 
ATOM     66  C   UNL A   1      39.341  24.650  27.899  1.00  0.00     0.001 A 
ATOM     67  C   UNL A   1      40.540  25.641  26.057  1.00  0.00     0.001 A 
ATOM     68  C   UNL A   1      39.851  24.561  26.606  1.00  0.00     0.000 A 
ENDBRANCH  44  63
BRANCH  56  69
ATOM     69  C   UNL A   1      45.609  28.590  32.216  1.00  0.00    -0.014 A 
ATOM     70  C   UNL A   1      45.713  27.692  33.290  1.00  0.00     0.009 A 
ATOM     71  C   UNL A   1      46.736  28.808  31.406  1.00  0.00     0.009 A 
ATOM     72  C   UNL A   1      46.928  27.066  33.576  1.00  0.00     0.001 A 
ATOM     73  C   UNL A   1      47.940  28.153  31.672  1.00  0.00     0.001 A 
ATOM     74  C   UNL A   1      48.039  27.294  32.765  1.00  0.00     0.000 A 
ENDBRANCH  56  69
ENDBRANCH  30  31
ENDBRANCH  23  25
ENDBRANCH  22  23
ENDBRANCH  21  22
ENDBRANCH   1  21
TORSDOF 15
ENDMDL
