MODEL 1
REMARK VINA RESULT:     -11.4      0.000      0.000
REMARK SMILES CCc1cc(OC(F)(F)F)cc2c1O[C@H](C(F)(F)F)C(C(=O)OCCOC(=O)c1ccc(-c3c4nc(c(-c5ccccc5)c5ccc([nH]5)c(-c5ccccc5)c5nc(c(-c6ccccc6)c6ccc3[nH]6)C=C5)C=C4)cc1)=C2
REMARK SMILES IDX 24 1 23 2 21 3 22 4 20 5 3 6 4 7 13 8 5 9 12 10 14 11 11 12
REMARK SMILES IDX 77 13 15 14 2 15 1 16 6 17 7 18 8 19 9 20 10 21 16 22 17 23
REMARK SMILES IDX 18 24 19 25 25 26 26 27 27 28 28 29 29 30 30 31 76 32 31 33
REMARK SMILES IDX 75 34 32 35 33 36 34 37 69 38 35 39 74 40 68 41 70 42 36 43
REMARK SMILES IDX 73 44 67 45 66 46 37 48 59 49 44 50 58 51 45 52 48 53 57 54
REMARK SMILES IDX 71 55 46 56 47 57 56 59 72 60 49 61 38 62 39 63 43 64 40 65
REMARK SMILES IDX 42 66 41 67 60 68 61 69 65 70 62 71 64 72 63 73 50 74 51 75
REMARK SMILES IDX 55 76 52 77 54 78 53 79
REMARK H PARENT 70 47 48 58
REMARK Flexibility Score: inf
ROOT
ATOM      1  C   UNL A   1      32.183  29.061  24.961  1.00  0.00     0.275 C 
ENDROOT
BRANCH   1   2
ATOM      2  O   UNL A   1      31.266  27.948  25.034  1.00  0.00    -0.459 OA
BRANCH   2   3
ATOM      3  C   UNL A   1      31.552  27.030  25.988  1.00  0.00     0.338 C 
ATOM      4  O   UNL A   1      31.247  27.101  27.164  1.00  0.00    -0.246 OA
BRANCH   3   5
ATOM      5  C   UNL A   1      32.274  25.867  25.449  1.00  0.00     0.087 C 
ATOM      6  C   UNL A   1      33.135  21.898  24.508  1.00  0.00    -0.002 A 
ATOM      7  C   UNL A   1      34.412  21.407  24.840  1.00  0.00     0.054 A 
ATOM      8  C   UNL A   1      32.838  23.206  24.896  1.00  0.00     0.131 A 
ATOM      9  C   UNL A   1      35.340  22.183  25.548  1.00  0.00     0.130 A 
ATOM     10  C   UNL A   1      33.747  23.999  25.630  1.00  0.00     0.021 A 
ATOM     11  O   UNL A   1      31.612  23.718  24.566  1.00  0.00    -0.475 OA
ATOM     12  C   UNL A   1      34.996  23.479  25.949  1.00  0.00     0.058 A 
ATOM     13  C   UNL A   1      33.322  25.328  26.093  1.00  0.00     0.027 C 
ATOM     14  C   UNL A   1      31.652  25.138  24.287  1.00  0.00     0.316 C 
BRANCH   6  15
ATOM     15  C   UNL A   1      32.215  20.962  23.745  1.00  0.00     0.036 C 
ATOM     16  C   UNL A   1      32.059  21.098  22.234  1.00  0.00     0.009 C 
ENDBRANCH   6  15
BRANCH   9  17
ATOM     17  O   UNL A   1      36.600  21.800  25.910  1.00  0.00    -0.406 OA
BRANCH  17  18
ATOM     18  C   UNL A   1      37.523  21.513  24.874  1.00  0.00     0.573 C 
ATOM     19  F   UNL A   1      37.247  22.228  23.763  1.00  0.00    -0.132 F 
ATOM     20  F   UNL A   1      38.791  21.761  25.269  1.00  0.00    -0.132 F 
ATOM     21  F   UNL A   1      37.431  20.201  24.562  1.00  0.00    -0.132 F 
ENDBRANCH  17  18
ENDBRANCH   9  17
BRANCH  14  22
ATOM     22  C   UNL A   1      32.322  25.430  22.922  1.00  0.00     0.430 C 
ATOM     23  F   UNL A   1      31.664  26.361  22.196  1.00  0.00    -0.167 F 
ATOM     24  F   UNL A   1      33.593  25.877  23.077  1.00  0.00    -0.167 F 
ATOM     25  F   UNL A   1      32.408  24.316  22.163  1.00  0.00    -0.167 F 
ENDBRANCH  14  22
ENDBRANCH   3   5
ENDBRANCH   2   3
ENDBRANCH   1   2
BRANCH   1  26
ATOM     26  C   UNL A   1      31.678  30.274  25.747  1.00  0.00     0.275 C 
BRANCH  26  27
ATOM     27  O   UNL A   1      32.319  30.372  27.035  1.00  0.00    -0.458 OA
BRANCH  27  28
ATOM     28  C   UNL A   1      33.010  31.514  27.234  1.00  0.00     0.338 C 
ATOM     29  O   UNL A   1      32.567  32.654  27.216  1.00  0.00    -0.246 OA
BRANCH  28  30
ATOM     30  C   UNL A   1      34.408  31.231  27.587  1.00  0.00     0.060 A 
ATOM     31  C   UNL A   1      34.771  29.911  27.830  1.00  0.00     0.016 A 
ATOM     32  C   UNL A   1      35.275  32.264  27.933  1.00  0.00     0.016 A 
ATOM     33  C   UNL A   1      35.914  29.626  28.570  1.00  0.00     0.010 A 
ATOM     34  C   UNL A   1      36.503  31.960  28.537  1.00  0.00     0.010 A 
ATOM     35  C   UNL A   1      36.817  30.639  28.910  1.00  0.00    -0.014 A 
BRANCH  35  36
ATOM     36  C   UNL A   1      38.068  30.322  29.663  1.00  0.00     0.031 A 
ATOM     37  C   UNL A   1      39.155  29.489  29.028  1.00  0.00     0.074 A 
ATOM     38  C   UNL A   1      38.244  30.778  30.921  1.00  0.00     0.049 A 
ATOM     39  N   UNL A   1      40.181  28.900  29.593  1.00  0.00    -0.248 NA
ATOM     40  C   UNL A   1      39.072  29.279  27.574  1.00  0.00     0.031 C 
ATOM     41  C   UNL A   1      37.324  31.655  31.653  1.00  0.00     0.029 A 
ATOM     42  N   UNL A   1      39.269  30.569  31.814  1.00  0.00    -0.354 N 
ATOM     43  C   UNL A   1      40.821  28.194  28.580  1.00  0.00     0.074 A 
ATOM     44  C   UNL A   1      40.072  28.431  27.364  1.00  0.00     0.031 C 
ATOM     45  C   UNL A   1      37.845  31.946  32.851  1.00  0.00     0.029 A 
ATOM     46  C   UNL A   1      39.070  31.179  33.030  1.00  0.00     0.049 A 
ATOM     47  H   UNL A   1      40.068  30.035  31.603  1.00  0.00     0.167 HD
ATOM     48  C   UNL A   1      41.924  27.412  28.659  1.00  0.00     0.031 A 
ATOM     49  C   UNL A   1      39.748  31.087  34.188  1.00  0.00     0.031 A 
ATOM     50  C   UNL A   1      42.697  27.221  29.860  1.00  0.00     0.049 A 
ATOM     51  C   UNL A   1      40.930  30.168  34.270  1.00  0.00     0.074 A 
ATOM     52  C   UNL A   1      43.830  26.447  30.045  1.00  0.00     0.029 A 
ATOM     53  N   UNL A   1      42.429  27.831  31.076  1.00  0.00    -0.354 N 
ATOM     54  N   UNL A   1      41.469  29.433  33.329  1.00  0.00    -0.248 NA
ATOM     55  C   UNL A   1      41.583  30.050  35.580  1.00  0.00     0.031 C 
ATOM     56  C   UNL A   1      44.225  26.557  31.381  1.00  0.00     0.029 A 
ATOM     57  C   UNL A   1      43.369  27.443  32.015  1.00  0.00     0.049 A 
ATOM     58  H   UNL A   1      41.680  28.447  31.246  1.00  0.00     0.167 HD
ATOM     59  C   UNL A   1      42.538  28.782  33.926  1.00  0.00     0.074 A 
ATOM     60  C   UNL A   1      42.580  29.220  35.307  1.00  0.00     0.031 C 
ATOM     61  C   UNL A   1      43.407  27.898  33.380  1.00  0.00     0.031 A 
BRANCH  48  62
ATOM     62  C   UNL A   1      42.349  26.663  27.425  1.00  0.00    -0.014 A 
ATOM     63  C   UNL A   1      43.268  27.201  26.512  1.00  0.00     0.009 A 
ATOM     64  C   UNL A   1      41.863  25.362  27.209  1.00  0.00     0.009 A 
ATOM     65  C   UNL A   1      43.668  26.463  25.394  1.00  0.00     0.001 A 
ATOM     66  C   UNL A   1      42.286  24.617  26.107  1.00  0.00     0.001 A 
ATOM     67  C   UNL A   1      43.182  25.170  25.196  1.00  0.00     0.000 A 
ENDBRANCH  48  62
BRANCH  49  68
ATOM     68  C   UNL A   1      39.276  31.831  35.386  1.00  0.00    -0.014 A 
ATOM     69  C   UNL A   1      39.743  33.126  35.654  1.00  0.00     0.009 A 
ATOM     70  C   UNL A   1      38.347  31.250  36.266  1.00  0.00     0.009 A 
ATOM     71  C   UNL A   1      39.301  33.816  36.786  1.00  0.00     0.001 A 
ATOM     72  C   UNL A   1      37.881  31.955  37.376  1.00  0.00     0.001 A 
ATOM     73  C   UNL A   1      38.366  33.234  37.640  1.00  0.00     0.000 A 
ENDBRANCH  49  68
BRANCH  61  74
ATOM     74  C   UNL A   1      44.515  27.396  34.259  1.00  0.00    -0.014 A 
ATOM     75  C   UNL A   1      44.382  26.212  34.999  1.00  0.00     0.009 A 
ATOM     76  C   UNL A   1      45.724  28.108  34.317  1.00  0.00     0.009 A 
ATOM     77  C   UNL A   1      45.431  25.766  35.804  1.00  0.00     0.001 A 
ATOM     78  C   UNL A   1      46.779  27.645  35.102  1.00  0.00     0.001 A 
ATOM     79  C   UNL A   1      46.629  26.478  35.851  1.00  0.00     0.000 A 
ENDBRANCH  61  74
ENDBRANCH  35  36
ENDBRANCH  28  30
ENDBRANCH  27  28
ENDBRANCH  26  27
ENDBRANCH   1  26
TORSDOF 15
ENDMDL
MODEL 2
REMARK VINA RESULT:     -11.2      3.446      6.452
REMARK SMILES CCc1cc(OC(F)(F)F)cc2c1O[C@H](C(F)(F)F)C(C(=O)OCCOC(=O)c1ccc(-c3c4nc(c(-c5ccccc5)c5ccc([nH]5)c(-c5ccccc5)c5nc(c(-c6ccccc6)c6ccc3[nH]6)C=C5)C=C4)cc1)=C2
REMARK SMILES IDX 24 1 23 2 21 3 22 4 20 5 3 6 4 7 13 8 5 9 12 10 14 11 11 12
REMARK SMILES IDX 77 13 15 14 2 15 1 16 6 17 7 18 8 19 9 20 10 21 16 22 17 23
REMARK SMILES IDX 18 24 19 25 25 26 26 27 27 28 28 29 29 30 30 31 76 32 31 33
REMARK SMILES IDX 75 34 32 35 33 36 34 37 69 38 35 39 74 40 68 41 70 42 36 43
REMARK SMILES IDX 73 44 67 45 66 46 37 48 59 49 44 50 58 51 45 52 48 53 57 54
REMARK SMILES IDX 71 55 46 56 47 57 56 59 72 60 49 61 38 62 39 63 43 64 40 65
REMARK SMILES IDX 42 66 41 67 60 68 61 69 65 70 62 71 64 72 63 73 50 74 51 75
REMARK SMILES IDX 55 76 52 77 54 78 53 79
REMARK H PARENT 70 47 48 58
REMARK Flexibility Score: inf
ROOT
ATOM      1  C   UNL A   1      32.131  29.492  25.941  1.00  0.00     0.275 C 
ENDROOT
BRANCH   1   2
ATOM      2  O   UNL A   1      32.555  28.675  24.828  1.00  0.00    -0.459 OA
BRANCH   2   3
ATOM      3  C   UNL A   1      31.725  27.650  24.520  1.00  0.00     0.338 C 
ATOM      4  O   UNL A   1      30.517  27.724  24.385  1.00  0.00    -0.246 OA
BRANCH   3   5
ATOM      5  C   UNL A   1      32.445  26.384  24.320  1.00  0.00     0.087 C 
ATOM      6  C   UNL A   1      33.207  22.285  24.303  1.00  0.00    -0.002 A 
ATOM      7  C   UNL A   1      34.407  21.838  24.887  1.00  0.00     0.054 A 
ATOM      8  C   UNL A   1      32.933  23.652  24.382  1.00  0.00     0.131 A 
ATOM      9  C   UNL A   1      35.282  22.717  25.541  1.00  0.00     0.130 A 
ATOM     10  C   UNL A   1      33.787  24.553  25.055  1.00  0.00     0.021 A 
ATOM     11  O   UNL A   1      31.784  24.119  23.802  1.00  0.00    -0.475 OA
ATOM     12  C   UNL A   1      34.960  24.076  25.630  1.00  0.00     0.058 A 
ATOM     13  C   UNL A   1      33.379  25.959  25.187  1.00  0.00     0.027 C 
ATOM     14  C   UNL A   1      31.931  25.450  23.255  1.00  0.00     0.316 C 
BRANCH   6  15
ATOM     15  C   UNL A   1      32.338  21.238  23.629  1.00  0.00     0.036 C 
ATOM     16  C   UNL A   1      32.535  19.758  23.938  1.00  0.00     0.009 C 
ENDBRANCH   6  15
BRANCH   9  17
ATOM     17  O   UNL A   1      36.467  22.383  26.131  1.00  0.00    -0.406 OA
BRANCH  17  18
ATOM     18  C   UNL A   1      37.639  22.445  25.336  1.00  0.00     0.573 C 
ATOM     19  F   UNL A   1      37.333  22.630  24.033  1.00  0.00    -0.132 F 
ATOM     20  F   UNL A   1      38.459  23.434  25.752  1.00  0.00    -0.132 F 
ATOM     21  F   UNL A   1      38.302  21.273  25.449  1.00  0.00    -0.132 F 
ENDBRANCH  17  18
ENDBRANCH   9  17
BRANCH  14  22
ATOM     22  C   UNL A   1      32.776  25.441  21.957  1.00  0.00     0.430 C 
ATOM     23  F   UNL A   1      32.076  25.825  20.866  1.00  0.00    -0.167 F 
ATOM     24  F   UNL A   1      33.844  26.272  22.053  1.00  0.00    -0.167 F 
ATOM     25  F   UNL A   1      33.278  24.214  21.700  1.00  0.00    -0.167 F 
ENDBRANCH  14  22
ENDBRANCH   3   5
ENDBRANCH   2   3
ENDBRANCH   1   2
BRANCH   1  26
ATOM     26  C   UNL A   1      32.665  28.966  27.276  1.00  0.00     0.275 C 
BRANCH  26  27
ATOM     27  O   UNL A   1      34.103  29.053  27.341  1.00  0.00    -0.458 OA
BRANCH  27  28
ATOM     28  C   UNL A   1      34.574  30.189  27.898  1.00  0.00     0.338 C 
ATOM     29  O   UNL A   1      33.934  31.196  28.165  1.00  0.00    -0.246 OA
BRANCH  28  30
ATOM     30  C   UNL A   1      35.993  30.052  28.257  1.00  0.00     0.060 A 
ATOM     31  C   UNL A   1      36.944  30.233  27.259  1.00  0.00     0.016 A 
ATOM     32  C   UNL A   1      36.364  29.498  29.479  1.00  0.00     0.016 A 
ATOM     33  C   UNL A   1      38.223  29.707  27.410  1.00  0.00     0.010 A 
ATOM     34  C   UNL A   1      37.697  29.114  29.684  1.00  0.00     0.010 A 
ATOM     35  C   UNL A   1      38.634  29.167  28.634  1.00  0.00    -0.014 A 
BRANCH  35  36
ATOM     36  C   UNL A   1      40.024  28.647  28.808  1.00  0.00     0.031 A 
ATOM     37  C   UNL A   1      41.128  29.556  29.288  1.00  0.00     0.074 A 
ATOM     38  C   UNL A   1      40.310  27.355  28.539  1.00  0.00     0.049 A 
ATOM     39  N   UNL A   1      42.425  29.367  29.258  1.00  0.00    -0.248 NA
ATOM     40  C   UNL A   1      40.726  30.850  29.863  1.00  0.00     0.031 C 
ATOM     41  C   UNL A   1      39.344  26.328  28.136  1.00  0.00     0.029 A 
ATOM     42  N   UNL A   1      41.506  26.678  28.570  1.00  0.00    -0.354 N 
ATOM     43  C   UNL A   1      42.992  30.542  29.741  1.00  0.00     0.074 A 
ATOM     44  C   UNL A   1      41.900  31.436  30.062  1.00  0.00     0.031 C 
ATOM     45  C   UNL A   1      39.972  25.153  28.007  1.00  0.00     0.029 A 
ATOM     46  C   UNL A   1      41.401  25.361  28.190  1.00  0.00     0.049 A 
ATOM     47  H   UNL A   1      42.356  27.096  28.837  1.00  0.00     0.167 HD
ATOM     48  C   UNL A   1      44.303  30.849  29.893  1.00  0.00     0.031 A 
ATOM     49  C   UNL A   1      42.343  24.433  27.944  1.00  0.00     0.031 A 
ATOM     50  C   UNL A   1      45.385  29.937  29.621  1.00  0.00     0.049 A 
ATOM     51  C   UNL A   1      43.789  24.813  28.058  1.00  0.00     0.074 A 
ATOM     52  C   UNL A   1      46.748  30.154  29.741  1.00  0.00     0.029 A 
ATOM     53  N   UNL A   1      45.226  28.627  29.200  1.00  0.00    -0.354 N 
ATOM     54  N   UNL A   1      44.314  25.956  28.425  1.00  0.00    -0.248 NA
ATOM     55  C   UNL A   1      44.772  23.781  27.703  1.00  0.00     0.031 C 
ATOM     56  C   UNL A   1      47.414  28.987  29.355  1.00  0.00     0.029 A 
ATOM     57  C   UNL A   1      46.464  28.027  29.047  1.00  0.00     0.049 A 
ATOM     58  H   UNL A   1      44.360  28.189  29.033  1.00  0.00     0.167 HD
ATOM     59  C   UNL A   1      45.688  25.775  28.367  1.00  0.00     0.074 A 
ATOM     60  C   UNL A   1      45.915  24.407  27.944  1.00  0.00     0.031 C 
ATOM     61  C   UNL A   1      46.674  26.663  28.639  1.00  0.00     0.031 A 
BRANCH  48  62
ATOM     62  C   UNL A   1      44.655  32.245  30.333  1.00  0.00    -0.014 A 
ATOM     63  C   UNL A   1      44.853  32.566  31.685  1.00  0.00     0.009 A 
ATOM     64  C   UNL A   1      44.853  33.243  29.364  1.00  0.00     0.009 A 
ATOM     65  C   UNL A   1      45.214  33.864  32.056  1.00  0.00     0.001 A 
ATOM     66  C   UNL A   1      45.241  34.531  29.736  1.00  0.00     0.001 A 
ATOM     67  C   UNL A   1      45.414  34.843  31.082  1.00  0.00     0.000 A 
ENDBRANCH  48  62
BRANCH  49  68
ATOM     68  C   UNL A   1      41.945  23.074  27.490  1.00  0.00    -0.014 A 
ATOM     69  C   UNL A   1      42.021  22.721  26.135  1.00  0.00     0.009 A 
ATOM     70  C   UNL A   1      41.493  22.117  28.415  1.00  0.00     0.009 A 
ATOM     71  C   UNL A   1      41.638  21.445  25.714  1.00  0.00     0.001 A 
ATOM     72  C   UNL A   1      41.145  20.833  27.996  1.00  0.00     0.001 A 
ATOM     73  C   UNL A   1      41.208  20.501  26.645  1.00  0.00     0.000 A 
ENDBRANCH  49  68
BRANCH  61  74
ATOM     74  C   UNL A   1      48.087  26.164  28.549  1.00  0.00    -0.014 A 
ATOM     75  C   UNL A   1      48.800  26.203  27.341  1.00  0.00     0.009 A 
ATOM     76  C   UNL A   1      48.721  25.681  29.704  1.00  0.00     0.009 A 
ATOM     77  C   UNL A   1      50.115  25.737  27.288  1.00  0.00     0.001 A 
ATOM     78  C   UNL A   1      50.043  25.241  29.653  1.00  0.00     0.001 A 
ATOM     79  C   UNL A   1      50.737  25.263  28.443  1.00  0.00     0.000 A 
ENDBRANCH  61  74
ENDBRANCH  35  36
ENDBRANCH  28  30
ENDBRANCH  27  28
ENDBRANCH  26  27
ENDBRANCH   1  26
TORSDOF 15
ENDMDL
MODEL 3
REMARK VINA RESULT:     -11.2      3.471      8.895
REMARK SMILES CCc1cc(OC(F)(F)F)cc2c1O[C@H](C(F)(F)F)C(C(=O)OCCOC(=O)c1ccc(-c3c4nc(c(-c5ccccc5)c5ccc([nH]5)c(-c5ccccc5)c5nc(c(-c6ccccc6)c6ccc3[nH]6)C=C5)C=C4)cc1)=C2
REMARK SMILES IDX 24 1 23 2 21 3 22 4 20 5 3 6 4 7 13 8 5 9 12 10 14 11 11 12
REMARK SMILES IDX 77 13 15 14 2 15 1 16 6 17 7 18 8 19 9 20 10 21 16 22 17 23
REMARK SMILES IDX 18 24 19 25 25 26 26 27 27 28 28 29 29 30 30 31 76 32 31 33
REMARK SMILES IDX 75 34 32 35 33 36 34 37 69 38 35 39 74 40 68 41 70 42 36 43
REMARK SMILES IDX 73 44 67 45 66 46 37 48 59 49 44 50 58 51 45 52 48 53 57 54
REMARK SMILES IDX 71 55 46 56 47 57 56 59 72 60 49 61 38 62 39 63 43 64 40 65
REMARK SMILES IDX 42 66 41 67 60 68 61 69 65 70 62 71 64 72 63 73 50 74 51 75
REMARK SMILES IDX 55 76 52 77 54 78 53 79
REMARK H PARENT 70 47 48 58
REMARK Flexibility Score: inf
ROOT
ATOM      1  C   UNL A   1      34.686  20.856  25.164  1.00  0.00     0.275 C 
ENDROOT
BRANCH   1   2
ATOM      2  O   UNL A   1      34.031  21.703  24.195  1.00  0.00    -0.459 OA
BRANCH   2   3
ATOM      3  C   UNL A   1      32.767  22.069  24.514  1.00  0.00     0.338 C 
ATOM      4  O   UNL A   1      31.856  21.316  24.806  1.00  0.00    -0.246 OA
BRANCH   3   5
ATOM      5  C   UNL A   1      32.586  23.528  24.508  1.00  0.00     0.087 C 
ATOM      6  C   UNL A   1      31.245  27.302  25.667  1.00  0.00    -0.002 A 
ATOM      7  C   UNL A   1      30.676  28.128  24.680  1.00  0.00     0.054 A 
ATOM      8  C   UNL A   1      31.622  26.015  25.278  1.00  0.00     0.131 A 
ATOM      9  C   UNL A   1      30.470  27.677  23.369  1.00  0.00     0.130 A 
ATOM     10  C   UNL A   1      31.405  25.530  23.969  1.00  0.00     0.021 A 
ATOM     11  O   UNL A   1      32.201  25.198  26.212  1.00  0.00    -0.475 OA
ATOM     12  C   UNL A   1      30.830  26.370  23.022  1.00  0.00     0.058 A 
ATOM     13  C   UNL A   1      31.732  24.130  23.664  1.00  0.00     0.027 C 
ATOM     14  C   UNL A   1      33.194  24.310  25.644  1.00  0.00     0.316 C 
BRANCH   6  15
ATOM     15  C   UNL A   1      31.412  27.900  27.053  1.00  0.00     0.036 C 
ATOM     16  C   UNL A   1      32.233  29.170  27.251  1.00  0.00     0.009 C 
ENDBRANCH   6  15
BRANCH   9  17
ATOM     17  O   UNL A   1      29.932  28.400  22.343  1.00  0.00    -0.406 OA
BRANCH  17  18
ATOM     18  C   UNL A   1      28.675  29.018  22.563  1.00  0.00     0.573 C 
ATOM     19  F   UNL A   1      28.151  29.478  21.407  1.00  0.00    -0.132 F 
ATOM     20  F   UNL A   1      27.807  28.163  23.145  1.00  0.00    -0.132 F 
ATOM     21  F   UNL A   1      28.849  30.070  23.393  1.00  0.00    -0.132 F 
ENDBRANCH  17  18
ENDBRANCH   9  17
BRANCH  14  22
ATOM     22  C   UNL A   1      34.489  25.072  25.269  1.00  0.00     0.430 C 
ATOM     23  F   UNL A   1      35.609  24.466  25.721  1.00  0.00    -0.167 F 
ATOM     24  F   UNL A   1      34.622  25.195  23.925  1.00  0.00    -0.167 F 
ATOM     25  F   UNL A   1      34.485  26.329  25.762  1.00  0.00    -0.167 F 
ENDBRANCH  14  22
ENDBRANCH   3   5
ENDBRANCH   2   3
ENDBRANCH   1   2
BRANCH   1  26
ATOM     26  C   UNL A   1      36.164  20.639  24.830  1.00  0.00     0.275 C 
BRANCH  26  27
ATOM     27  O   UNL A   1      36.969  21.762  25.241  1.00  0.00    -0.458 OA
BRANCH  27  28
ATOM     28  C   UNL A   1      38.231  21.448  25.604  1.00  0.00     0.338 C 
ATOM     29  O   UNL A   1      38.856  20.443  25.295  1.00  0.00    -0.246 OA
BRANCH  28  30
ATOM     30  C   UNL A   1      38.846  22.539  26.373  1.00  0.00     0.060 A 
ATOM     31  C   UNL A   1      38.336  23.823  26.218  1.00  0.00     0.016 A 
ATOM     32  C   UNL A   1      40.063  22.349  27.023  1.00  0.00     0.016 A 
ATOM     33  C   UNL A   1      39.111  24.927  26.553  1.00  0.00     0.010 A 
ATOM     34  C   UNL A   1      40.768  23.461  27.503  1.00  0.00     0.010 A 
ATOM     35  C   UNL A   1      40.327  24.770  27.230  1.00  0.00    -0.014 A 
BRANCH  35  36
ATOM     36  C   UNL A   1      41.134  25.961  27.631  1.00  0.00     0.031 A 
ATOM     37  C   UNL A   1      40.577  26.973  28.603  1.00  0.00     0.074 A 
ATOM     38  C   UNL A   1      42.374  26.148  27.132  1.00  0.00     0.049 A 
ATOM     39  N   UNL A   1      41.007  28.181  28.875  1.00  0.00    -0.248 NA
ATOM     40  C   UNL A   1      39.375  26.583  29.358  1.00  0.00     0.031 C 
ATOM     41  C   UNL A   1      43.086  25.228  26.239  1.00  0.00     0.029 A 
ATOM     42  N   UNL A   1      43.265  27.180  27.308  1.00  0.00    -0.354 N 
ATOM     43  C   UNL A   1      40.091  28.719  29.772  1.00  0.00     0.074 A 
ATOM     44  C   UNL A   1      39.084  27.704  30.005  1.00  0.00     0.031 C 
ATOM     45  C   UNL A   1      44.310  25.709  25.989  1.00  0.00     0.029 A 
ATOM     46  C   UNL A   1      44.429  27.029  26.594  1.00  0.00     0.049 A 
ATOM     47  H   UNL A   1      43.086  27.954  27.890  1.00  0.00     0.167 HD
ATOM     48  C   UNL A   1      40.085  29.948  30.342  1.00  0.00     0.031 A 
ATOM     49  C   UNL A   1      45.454  27.874  26.382  1.00  0.00     0.031 A 
ATOM     50  C   UNL A   1      41.117  30.935  30.148  1.00  0.00     0.049 A 
ATOM     51  C   UNL A   1      45.398  29.251  26.971  1.00  0.00     0.074 A 
ATOM     52  C   UNL A   1      41.202  32.212  30.679  1.00  0.00     0.029 A 
ATOM     53  N   UNL A   1      42.256  30.746  29.382  1.00  0.00    -0.354 N 
ATOM     54  N   UNL A   1      44.480  29.780  27.742  1.00  0.00    -0.248 NA
ATOM     55  C   UNL A   1      46.508  30.155  26.643  1.00  0.00     0.031 C 
ATOM     56  C   UNL A   1      42.372  32.808  30.202  1.00  0.00     0.029 A 
ATOM     57  C   UNL A   1      43.043  31.884  29.419  1.00  0.00     0.049 A 
ATOM     58  H   UNL A   1      42.472  29.924  28.884  1.00  0.00     0.167 HD
ATOM     59  C   UNL A   1      44.912  31.071  28.010  1.00  0.00     0.074 A 
ATOM     60  C   UNL A   1      46.181  31.240  27.331  1.00  0.00     0.031 C 
ATOM     61  C   UNL A   1      44.309  32.031  28.751  1.00  0.00     0.031 A 
BRANCH  48  62
ATOM     62  C   UNL A   1      38.906  30.324  31.199  1.00  0.00    -0.014 A 
ATOM     63  C   UNL A   1      38.912  30.136  32.589  1.00  0.00     0.009 A 
ATOM     64  C   UNL A   1      37.790  30.937  30.603  1.00  0.00     0.009 A 
ATOM     65  C   UNL A   1      37.815  30.530  33.360  1.00  0.00     0.001 A 
ATOM     66  C   UNL A   1      36.708  31.354  31.379  1.00  0.00     0.001 A 
ATOM     67  C   UNL A   1      36.717  31.143  32.756  1.00  0.00     0.000 A 
ENDBRANCH  48  62
BRANCH  49  68
ATOM     68  C   UNL A   1      46.587  27.463  25.510  1.00  0.00    -0.014 A 
ATOM     69  C   UNL A   1      47.594  26.618  25.995  1.00  0.00     0.009 A 
ATOM     70  C   UNL A   1      46.661  27.912  24.180  1.00  0.00     0.009 A 
ATOM     71  C   UNL A   1      48.659  26.243  25.173  1.00  0.00     0.001 A 
ATOM     72  C   UNL A   1      47.707  27.507  23.350  1.00  0.00     0.001 A 
ATOM     73  C   UNL A   1      48.710  26.681  23.850  1.00  0.00     0.000 A 
ENDBRANCH  49  68
BRANCH  61  74
ATOM     74  C   UNL A   1      45.047  33.328  28.919  1.00  0.00    -0.014 A 
ATOM     75  C   UNL A   1      44.836  34.407  28.048  1.00  0.00     0.009 A 
ATOM     76  C   UNL A   1      45.942  33.477  29.990  1.00  0.00     0.009 A 
ATOM     77  C   UNL A   1      45.532  35.603  28.231  1.00  0.00     0.001 A 
ATOM     78  C   UNL A   1      46.615  34.683  30.186  1.00  0.00     0.001 A 
ATOM     79  C   UNL A   1      46.415  35.742  29.302  1.00  0.00     0.000 A 
ENDBRANCH  61  74
ENDBRANCH  35  36
ENDBRANCH  28  30
ENDBRANCH  27  28
ENDBRANCH  26  27
ENDBRANCH   1  26
TORSDOF 15
ENDMDL
