MODEL 1
REMARK VINA RESULT:     -12.6      0.000      0.000
REMARK SMILES O=C(OCCOC(=O)[C@@H]1[C@H](C(=O)Nc2ccc(Cn3cncn3)cc2)[C@@H]2C=C[C@H]1CC2)c1ccc(-c2c3nc(c(-c4ccccc4)c4ccc([nH]4)c(-c4ccccc4)c4nc(c(-c5ccccc5)c5ccc2[nH]5)C=C4)C=C3)cc1
REMARK SMILES IDX 5 1 4 2 3 3 2 4 1 5 32 6 33 7 79 8 34 9 78 10 35 11 36 12
REMARK SMILES IDX 37 13 72 14 38 15 77 16 71 17 73 18 39 19 76 20 70 21 69 22
REMARK SMILES IDX 40 24 62 25 47 26 61 27 48 28 51 29 60 30 74 31 49 32 50 33
REMARK SMILES IDX 59 35 75 36 52 37 41 38 42 39 46 40 43 41 45 42 44 43 63 44
REMARK SMILES IDX 64 45 68 46 65 47 67 48 66 49 53 50 54 51 58 52 55 53 57 54
REMARK SMILES IDX 56 55 6 56 7 57 8 58 9 59 10 60 29 61 26 62 28 63 30 64
REMARK SMILES IDX 27 65 31 66 11 67 12 68 13 69 14 71 15 72 25 73 16 74 24 75
REMARK SMILES IDX 17 76 18 77 19 78 20 79 23 80 21 81 22 82
REMARK H PARENT 73 23 51 34 13 70
REMARK Flexibility Score: inf
ROOT
ATOM      1  C   UNL A   1      33.697  30.152  27.034  1.00  0.00     0.274 C 
ENDROOT
BRANCH   1   2
ATOM      2  C   UNL A   1      33.592  31.576  27.622  1.00  0.00     0.275 C 
BRANCH   2   3
ATOM      3  O   UNL A   1      34.843  32.210  27.908  1.00  0.00    -0.458 OA
BRANCH   3   4
ATOM      4  C   UNL A   1      35.103  32.404  29.205  1.00  0.00     0.338 C 
ATOM      5  O   UNL A   1      34.321  32.896  30.002  1.00  0.00    -0.246 OA
BRANCH   4   6
ATOM      6  C   UNL A   1      36.391  31.810  29.648  1.00  0.00     0.060 A 
ATOM      7  C   UNL A   1      38.075  32.475  29.528  1.00  0.00     0.016 A 
ATOM      8  C   UNL A   1      36.181  30.071  30.075  1.00  0.00     0.016 A 
ATOM      9  C   UNL A   1      39.502  31.374  29.796  1.00  0.00     0.010 A 
ATOM     10  C   UNL A   1      37.590  28.986  30.161  1.00  0.00     0.010 A 
ATOM     11  C   UNL A   1      39.240  29.606  30.047  1.00  0.00    -0.014 A 
BRANCH  11  12
ATOM     12  C   UNL A   1      40.326  28.572  30.082  1.00  0.00     0.031 A 
ATOM     13  C   UNL A   1      40.835  28.378  31.447  1.00  0.00     0.074 A 
ATOM     14  C   UNL A   1      40.708  27.667  29.134  1.00  0.00     0.049 A 
ATOM     15  N   UNL A   1      41.663  29.151  32.073  1.00  0.00    -0.248 NA
ATOM     16  C   UNL A   1      40.137  27.401  32.307  1.00  0.00     0.031 C 
ATOM     17  C   UNL A   1      40.230  27.523  27.771  1.00  0.00     0.029 A 
ATOM     18  N   UNL A   1      41.605  26.623  29.192  1.00  0.00    -0.354 N 
ATOM     19  C   UNL A   1      41.765  28.557  33.316  1.00  0.00     0.074 A 
ATOM     20  C   UNL A   1      40.522  27.860  33.502  1.00  0.00     0.031 C 
ATOM     21  C   UNL A   1      40.608  26.347  27.216  1.00  0.00     0.029 A 
ATOM     22  C   UNL A   1      41.536  25.707  28.124  1.00  0.00     0.049 A 
ATOM     23  H   UNL A   1      42.250  26.524  29.929  1.00  0.00     0.167 HD
ATOM     24  C   UNL A   1      42.972  28.192  33.835  1.00  0.00     0.031 A 
ATOM     25  C   UNL A   1      42.240  24.553  27.937  1.00  0.00     0.031 A 
ATOM     26  C   UNL A   1      44.064  28.636  32.995  1.00  0.00     0.049 A 
ATOM     27  C   UNL A   1      43.453  24.671  28.761  1.00  0.00     0.074 A 
ATOM     28  C   UNL A   1      44.491  29.837  32.470  1.00  0.00     0.029 A 
ATOM     29  N   UNL A   1      44.653  27.650  32.238  1.00  0.00    -0.354 N 
ATOM     30  N   UNL A   1      44.418  25.497  28.489  1.00  0.00    -0.248 NA
ATOM     31  C   UNL A   1      43.403  24.179  30.124  1.00  0.00     0.031 C 
ATOM     32  C   UNL A   1      45.027  29.528  31.185  1.00  0.00     0.029 A 
ATOM     33  C   UNL A   1      44.998  28.144  31.009  1.00  0.00     0.049 A 
ATOM     34  H   UNL A   1      44.806  26.724  32.536  1.00  0.00     0.167 HD
ATOM     35  C   UNL A   1      44.756  26.022  29.724  1.00  0.00     0.074 A 
ATOM     36  C   UNL A   1      44.208  25.076  30.697  1.00  0.00     0.031 C 
ATOM     37  C   UNL A   1      45.150  27.325  29.825  1.00  0.00     0.031 A 
BRANCH  24  38
ATOM     38  C   UNL A   1      43.148  27.038  34.800  1.00  0.00    -0.014 A 
ATOM     39  C   UNL A   1      43.772  27.291  36.029  1.00  0.00     0.009 A 
ATOM     40  C   UNL A   1      42.918  25.684  34.481  1.00  0.00     0.009 A 
ATOM     41  C   UNL A   1      44.155  26.244  36.878  1.00  0.00     0.001 A 
ATOM     42  C   UNL A   1      43.253  24.640  35.343  1.00  0.00     0.001 A 
ATOM     43  C   UNL A   1      43.889  24.921  36.537  1.00  0.00     0.000 A 
ENDBRANCH  24  38
BRANCH  25  44
ATOM     44  C   UNL A   1      41.947  23.263  27.249  1.00  0.00    -0.014 A 
ATOM     45  C   UNL A   1      42.757  22.818  26.180  1.00  0.00     0.009 A 
ATOM     46  C   UNL A   1      41.115  22.310  27.858  1.00  0.00     0.009 A 
ATOM     47  C   UNL A   1      42.790  21.469  25.792  1.00  0.00     0.001 A 
ATOM     48  C   UNL A   1      41.146  20.960  27.467  1.00  0.00     0.001 A 
ATOM     49  C   UNL A   1      42.000  20.534  26.452  1.00  0.00     0.000 A 
ENDBRANCH  25  44
BRANCH  37  50
ATOM     50  C   UNL A   1      45.596  28.028  28.560  1.00  0.00    -0.014 A 
ATOM     51  C   UNL A   1      46.923  28.063  28.094  1.00  0.00     0.009 A 
ATOM     52  C   UNL A   1      44.595  28.580  27.747  1.00  0.00     0.009 A 
ATOM     53  C   UNL A   1      47.233  28.655  26.861  1.00  0.00     0.001 A 
ATOM     54  C   UNL A   1      44.901  29.148  26.508  1.00  0.00     0.001 A 
ATOM     55  C   UNL A   1      46.221  29.190  26.067  1.00  0.00     0.000 A 
ENDBRANCH  37  50
ENDBRANCH  11  12
ENDBRANCH   4   6
ENDBRANCH   3   4
ENDBRANCH   2   3
ENDBRANCH   1   2
BRANCH   1  56
ATOM     56  O   UNL A   1      32.483  29.845  26.286  1.00  0.00    -0.462 OA
BRANCH  56  57
ATOM     57  C   UNL A   1      31.782  28.723  26.656  1.00  0.00     0.310 C 
ATOM     58  O   UNL A   1      31.560  28.434  27.823  1.00  0.00    -0.252 OA
BRANCH  57  59
ATOM     59  C   UNL A   1      31.369  27.840  25.426  1.00  0.00     0.119 C 
ATOM     60  C   UNL A   1      30.912  26.055  25.272  1.00  0.00     0.100 C 
ATOM     61  C   UNL A   1      32.019  28.398  24.076  1.00  0.00     0.026 C 
ATOM     62  C   UNL A   1      30.517  26.364  23.531  1.00  0.00     0.025 C 
ATOM     63  C   UNL A   1      32.606  27.395  23.086  1.00  0.00    -0.027 C 
ATOM     64  C   UNL A   1      30.817  28.924  23.268  1.00  0.00     0.009 C 
ATOM     65  C   UNL A   1      31.757  26.443  22.676  1.00  0.00    -0.027 C 
ATOM     66  C   UNL A   1      29.801  27.748  23.205  1.00  0.00     0.009 C 
BRANCH  60  67
ATOM     67  C   UNL A   1      31.617  24.256  26.340  1.00  0.00     0.228 C 
ATOM     68  O   UNL A   1      31.079  23.509  27.238  1.00  0.00    -0.274 OA
ATOM     69  N   UNL A   1      32.948  23.564  26.443  1.00  0.00    -0.326 N 
ATOM     70  H   UNL A   1      33.545  23.800  27.189  1.00  0.00     0.169 HD
BRANCH  69  71
ATOM     71  C   UNL A   1      33.383  22.577  25.501  1.00  0.00     0.041 A 
ATOM     72  C   UNL A   1      33.850  21.377  26.004  1.00  0.00     0.026 A 
ATOM     73  C   UNL A   1      32.914  22.651  24.195  1.00  0.00     0.026 A 
ATOM     74  C   UNL A   1      33.433  20.196  25.403  1.00  0.00     0.008 A 
ATOM     75  C   UNL A   1      32.477  21.479  23.595  1.00  0.00     0.008 A 
ATOM     76  C   UNL A   1      32.649  20.250  24.249  1.00  0.00    -0.026 A 
BRANCH  76  77
ATOM     77  C   UNL A   1      32.172  18.988  23.584  1.00  0.00     0.181 C 
BRANCH  77  78
ATOM     78  N   UNL A   1      32.844  17.898  24.259  1.00  0.00    -0.249 N 
ATOM     79  C   UNL A   1      33.847  17.142  23.711  1.00  0.00     0.220 A 
ATOM     80  N   UNL A   1      32.217  17.220  25.241  1.00  0.00    -0.160 NA
ATOM     81  N   UNL A   1      33.863  15.960  24.276  1.00  0.00    -0.224 NA
ATOM     82  C   UNL A   1      32.842  16.042  25.179  1.00  0.00     0.246 A 
ENDBRANCH  77  78
ENDBRANCH  76  77
ENDBRANCH  69  71
ENDBRANCH  60  67
ENDBRANCH  57  59
ENDBRANCH  56  57
ENDBRANCH   1  56
TORSDOF 15
ENDMDL
MODEL 2
REMARK VINA RESULT:     -12.4      1.748      2.395
REMARK SMILES O=C(OCCOC(=O)[C@@H]1[C@H](C(=O)Nc2ccc(Cn3cncn3)cc2)[C@@H]2C=C[C@H]1CC2)c1ccc(-c2c3nc(c(-c4ccccc4)c4ccc([nH]4)c(-c4ccccc4)c4nc(c(-c5ccccc5)c5ccc2[nH]5)C=C4)C=C3)cc1
REMARK SMILES IDX 5 1 4 2 3 3 2 4 1 5 32 6 33 7 79 8 34 9 78 10 35 11 36 12
REMARK SMILES IDX 37 13 72 14 38 15 77 16 71 17 73 18 39 19 76 20 70 21 69 22
REMARK SMILES IDX 40 24 62 25 47 26 61 27 48 28 51 29 60 30 74 31 49 32 50 33
REMARK SMILES IDX 59 35 75 36 52 37 41 38 42 39 46 40 43 41 45 42 44 43 63 44
REMARK SMILES IDX 64 45 68 46 65 47 67 48 66 49 53 50 54 51 58 52 55 53 57 54
REMARK SMILES IDX 56 55 6 56 7 57 8 58 9 59 10 60 29 61 26 62 28 63 30 64
REMARK SMILES IDX 27 65 31 66 11 67 12 68 13 69 14 71 15 72 25 73 16 74 24 75
REMARK SMILES IDX 17 76 18 77 19 78 20 79 23 80 21 81 22 82
REMARK H PARENT 73 23 51 34 13 70
REMARK Flexibility Score: inf
ROOT
ATOM      1  C   UNL A   1      33.433  30.151  26.815  1.00  0.00     0.274 C 
ENDROOT
BRANCH   1   2
ATOM      2  C   UNL A   1      33.328  31.456  27.636  1.00  0.00     0.275 C 
BRANCH   2   3
ATOM      3  O   UNL A   1      34.549  32.188  27.773  1.00  0.00    -0.458 OA
BRANCH   3   4
ATOM      4  C   UNL A   1      34.851  32.571  29.018  1.00  0.00     0.338 C 
ATOM      5  O   UNL A   1      34.104  33.203  29.748  1.00  0.00    -0.246 OA
BRANCH   4   6
ATOM      6  C   UNL A   1      36.136  32.015  29.516  1.00  0.00     0.060 A 
ATOM      7  C   UNL A   1      37.783  32.774  29.569  1.00  0.00     0.016 A 
ATOM      8  C   UNL A   1      35.996  30.241  29.805  1.00  0.00     0.016 A 
ATOM      9  C   UNL A   1      39.249  31.734  29.868  1.00  0.00     0.010 A 
ATOM     10  C   UNL A   1      37.456  29.228  29.922  1.00  0.00     0.010 A 
ATOM     11  C   UNL A   1      39.071  29.941  29.977  1.00  0.00    -0.014 A 
BRANCH  11  12
ATOM     12  C   UNL A   1      40.210  28.965  30.023  1.00  0.00     0.031 A 
ATOM     13  C   UNL A   1      40.730  28.814  31.389  1.00  0.00     0.074 A 
ATOM     14  C   UNL A   1      40.638  28.070  29.086  1.00  0.00     0.049 A 
ATOM     15  N   UNL A   1      41.517  29.637  32.004  1.00  0.00    -0.248 NA
ATOM     16  C   UNL A   1      40.084  27.814  32.263  1.00  0.00     0.031 C 
ATOM     17  C   UNL A   1      40.166  27.883  27.725  1.00  0.00     0.029 A 
ATOM     18  N   UNL A   1      41.588  27.075  29.155  1.00  0.00    -0.354 N 
ATOM     19  C   UNL A   1      41.651  29.065  33.254  1.00  0.00     0.074 A 
ATOM     20  C   UNL A   1      40.446  28.307  33.451  1.00  0.00     0.031 C 
ATOM     21  C   UNL A   1      40.605  26.722  27.185  1.00  0.00     0.029 A 
ATOM     22  C   UNL A   1      41.566  26.142  28.099  1.00  0.00     0.049 A 
ATOM     23  H   UNL A   1      42.238  27.018  29.892  1.00  0.00     0.167 HD
ATOM     24  C   UNL A   1      42.876  28.771  33.776  1.00  0.00     0.031 A 
ATOM     25  C   UNL A   1      42.329  25.025  27.925  1.00  0.00     0.031 A 
ATOM     26  C   UNL A   1      43.942  29.260  32.929  1.00  0.00     0.049 A 
ATOM     27  C   UNL A   1      43.535  25.217  28.745  1.00  0.00     0.074 A 
ATOM     28  C   UNL A   1      44.305  30.475  32.388  1.00  0.00     0.029 A 
ATOM     29  N   UNL A   1      44.581  28.297  32.183  1.00  0.00    -0.354 N 
ATOM     30  N   UNL A   1      44.455  26.088  28.462  1.00  0.00    -0.248 NA
ATOM     31  C   UNL A   1      43.512  24.739  30.114  1.00  0.00     0.031 C 
ATOM     32  C   UNL A   1      44.855  30.178  31.106  1.00  0.00     0.029 A 
ATOM     33  C   UNL A   1      44.899  28.793  30.947  1.00  0.00     0.049 A 
ATOM     34  H   UNL A   1      44.783  27.384  32.492  1.00  0.00     0.167 HD
ATOM     35  C   UNL A   1      44.767  26.646  29.689  1.00  0.00     0.074 A 
ATOM     36  C   UNL A   1      44.269  25.684  30.675  1.00  0.00     0.031 C 
ATOM     37  C   UNL A   1      45.092  27.968  29.773  1.00  0.00     0.031 A 
BRANCH  24  38
ATOM     38  C   UNL A   1      43.113  27.640  34.754  1.00  0.00    -0.014 A 
ATOM     39  C   UNL A   1      43.270  26.344  34.244  1.00  0.00     0.009 A 
ATOM     40  C   UNL A   1      42.987  27.749  36.155  1.00  0.00     0.009 A 
ATOM     41  C   UNL A   1      43.284  25.227  35.090  1.00  0.00     0.001 A 
ATOM     42  C   UNL A   1      43.048  26.646  37.006  1.00  0.00     0.001 A 
ATOM     43  C   UNL A   1      43.180  25.380  36.469  1.00  0.00     0.000 A 
ENDBRANCH  24  38
BRANCH  25  44
ATOM     44  C   UNL A   1      42.103  23.713  27.253  1.00  0.00    -0.014 A 
ATOM     45  C   UNL A   1      42.717  23.424  26.014  1.00  0.00     0.009 A 
ATOM     46  C   UNL A   1      41.592  22.625  27.980  1.00  0.00     0.009 A 
ATOM     47  C   UNL A   1      42.880  22.105  25.561  1.00  0.00     0.001 A 
ATOM     48  C   UNL A   1      41.753  21.305  27.525  1.00  0.00     0.001 A 
ATOM     49  C   UNL A   1      42.418  21.042  26.330  1.00  0.00     0.000 A 
ENDBRANCH  25  44
BRANCH  37  50
ATOM     50  C   UNL A   1      45.499  28.677  28.499  1.00  0.00    -0.014 A 
ATOM     51  C   UNL A   1      44.612  29.373  27.656  1.00  0.00     0.009 A 
ATOM     52  C   UNL A   1      46.870  28.735  28.206  1.00  0.00     0.009 A 
ATOM     53  C   UNL A   1      45.088  30.084  26.546  1.00  0.00     0.001 A 
ATOM     54  C   UNL A   1      47.346  29.463  27.114  1.00  0.00     0.001 A 
ATOM     55  C   UNL A   1      46.455  30.133  26.280  1.00  0.00     0.000 A 
ENDBRANCH  37  50
ENDBRANCH  11  12
ENDBRANCH   4   6
ENDBRANCH   3   4
ENDBRANCH   2   3
ENDBRANCH   1   2
BRANCH   1  56
ATOM     56  O   UNL A   1      32.100  29.731  26.398  1.00  0.00    -0.462 OA
BRANCH  56  57
ATOM     57  C   UNL A   1      31.693  28.472  26.767  1.00  0.00     0.310 C 
ATOM     58  O   UNL A   1      31.779  28.055  27.913  1.00  0.00    -0.252 OA
BRANCH  57  59
ATOM     59  C   UNL A   1      31.177  27.627  25.548  1.00  0.00     0.119 C 
ATOM     60  C   UNL A   1      30.441  25.936  25.429  1.00  0.00     0.100 C 
ATOM     61  C   UNL A   1      31.949  28.028  24.206  1.00  0.00     0.026 C 
ATOM     62  C   UNL A   1      30.152  26.246  23.668  1.00  0.00     0.025 C 
ATOM     63  C   UNL A   1      32.393  26.911  23.266  1.00  0.00    -0.027 C 
ATOM     64  C   UNL A   1      30.872  28.715  23.343  1.00  0.00     0.009 C 
ATOM     65  C   UNL A   1      31.413  26.096  22.854  1.00  0.00    -0.027 C 
ATOM     66  C   UNL A   1      29.681  27.717  23.279  1.00  0.00     0.009 C 
BRANCH  60  67
ATOM     67  C   UNL A   1      30.813  24.082  26.571  1.00  0.00     0.228 C 
ATOM     68  O   UNL A   1      30.047  23.321  27.269  1.00  0.00    -0.274 OA
ATOM     69  N   UNL A   1      32.059  23.350  26.986  1.00  0.00    -0.326 N 
ATOM     70  H   UNL A   1      32.447  23.544  27.869  1.00  0.00     0.169 HD
BRANCH  69  71
ATOM     71  C   UNL A   1      32.704  22.384  26.148  1.00  0.00     0.041 A 
ATOM     72  C   UNL A   1      32.841  22.694  24.807  1.00  0.00     0.026 A 
ATOM     73  C   UNL A   1      33.542  21.446  26.737  1.00  0.00     0.026 A 
ATOM     74  C   UNL A   1      34.057  22.438  24.187  1.00  0.00     0.008 A 
ATOM     75  C   UNL A   1      34.767  21.200  26.134  1.00  0.00     0.008 A 
ATOM     76  C   UNL A   1      35.068  21.781  24.894  1.00  0.00    -0.026 A 
BRANCH  76  77
ATOM     77  C   UNL A   1      36.399  21.503  24.252  1.00  0.00     0.181 C 
BRANCH  77  78
ATOM     78  N   UNL A   1      37.345  22.401  24.881  1.00  0.00    -0.249 N 
ATOM     79  C   UNL A   1      38.328  22.011  25.751  1.00  0.00     0.220 A 
ATOM     80  N   UNL A   1      37.026  23.696  25.068  1.00  0.00    -0.160 NA
ATOM     81  N   UNL A   1      38.631  23.009  26.545  1.00  0.00    -0.224 NA
ATOM     82  C   UNL A   1      37.800  24.002  26.113  1.00  0.00     0.246 A 
ENDBRANCH  77  78
ENDBRANCH  76  77
ENDBRANCH  69  71
ENDBRANCH  60  67
ENDBRANCH  57  59
ENDBRANCH  56  57
ENDBRANCH   1  56
TORSDOF 15
ENDMDL
MODEL 3
REMARK VINA RESULT:     -12.4      3.607      9.003
REMARK SMILES O=C(OCCOC(=O)[C@@H]1[C@H](C(=O)Nc2ccc(Cn3cncn3)cc2)[C@@H]2C=C[C@H]1CC2)c1ccc(-c2c3nc(c(-c4ccccc4)c4ccc([nH]4)c(-c4ccccc4)c4nc(c(-c5ccccc5)c5ccc2[nH]5)C=C4)C=C3)cc1
REMARK SMILES IDX 5 1 4 2 3 3 2 4 1 5 32 6 33 7 79 8 34 9 78 10 35 11 36 12
REMARK SMILES IDX 37 13 72 14 38 15 77 16 71 17 73 18 39 19 76 20 70 21 69 22
REMARK SMILES IDX 40 24 62 25 47 26 61 27 48 28 51 29 60 30 74 31 49 32 50 33
REMARK SMILES IDX 59 35 75 36 52 37 41 38 42 39 46 40 43 41 45 42 44 43 63 44
REMARK SMILES IDX 64 45 68 46 65 47 67 48 66 49 53 50 54 51 58 52 55 53 57 54
REMARK SMILES IDX 56 55 6 56 7 57 8 58 9 59 10 60 29 61 26 62 28 63 30 64
REMARK SMILES IDX 27 65 31 66 11 67 12 68 13 69 14 71 15 72 25 73 16 74 24 75
REMARK SMILES IDX 17 76 18 77 19 78 20 79 23 80 21 81 22 82
REMARK H PARENT 73 23 51 34 13 70
REMARK Flexibility Score: inf
ROOT
ATOM      1  C   UNL A   1      37.526  22.410  25.727  1.00  0.00     0.274 C 
ENDROOT
BRANCH   1   2
ATOM      2  C   UNL A   1      38.828  21.581  25.690  1.00  0.00     0.275 C 
BRANCH   2   3
ATOM      3  O   UNL A   1      39.725  21.809  26.782  1.00  0.00    -0.458 OA
BRANCH   3   4
ATOM      4  C   UNL A   1      40.995  22.051  26.439  1.00  0.00     0.338 C 
ATOM      5  O   UNL A   1      41.636  21.383  25.643  1.00  0.00    -0.246 OA
BRANCH   4   6
ATOM      6  C   UNL A   1      41.529  23.322  26.993  1.00  0.00     0.060 A 
ATOM      7  C   UNL A   1      42.574  23.603  28.449  1.00  0.00     0.016 A 
ATOM      8  C   UNL A   1      40.729  24.742  26.221  1.00  0.00     0.016 A 
ATOM      9  C   UNL A   1      42.757  25.287  29.119  1.00  0.00     0.010 A 
ATOM     10  C   UNL A   1      40.788  26.343  26.998  1.00  0.00     0.010 A 
ATOM     11  C   UNL A   1      41.797  26.644  28.415  1.00  0.00    -0.014 A 
BRANCH  11  12
ATOM     12  C   UNL A   1      41.707  28.025  28.996  1.00  0.00     0.031 A 
ATOM     13  C   UNL A   1      42.807  28.876  28.521  1.00  0.00     0.074 A 
ATOM     14  C   UNL A   1      40.681  28.635  29.655  1.00  0.00     0.049 A 
ATOM     15  N   UNL A   1      44.027  28.862  28.952  1.00  0.00    -0.248 NA
ATOM     16  C   UNL A   1      42.614  29.601  27.248  1.00  0.00     0.031 C 
ATOM     17  C   UNL A   1      39.410  28.073  30.077  1.00  0.00     0.029 A 
ATOM     18  N   UNL A   1      40.523  29.938  30.074  1.00  0.00    -0.354 N 
ATOM     19  C   UNL A   1      44.652  29.797  28.149  1.00  0.00     0.074 A 
ATOM     20  C   UNL A   1      43.895  29.808  26.928  1.00  0.00     0.031 C 
ATOM     21  C   UNL A   1      38.521  29.028  30.437  1.00  0.00     0.029 A 
ATOM     22  C   UNL A   1      39.217  30.297  30.458  1.00  0.00     0.049 A 
ATOM     23  H   UNL A   1      41.274  30.575  30.103  1.00  0.00     0.167 HD
ATOM     24  C   UNL A   1      45.331  30.853  28.680  1.00  0.00     0.031 A 
ATOM     25  C   UNL A   1      38.742  31.514  30.851  1.00  0.00     0.031 A 
ATOM     26  C   UNL A   1      45.411  30.759  30.121  1.00  0.00     0.049 A 
ATOM     27  C   UNL A   1      39.908  32.283  31.312  1.00  0.00     0.074 A 
ATOM     28  C   UNL A   1      45.859  29.828  31.034  1.00  0.00     0.029 A 
ATOM     29  N   UNL A   1      44.564  31.598  30.808  1.00  0.00    -0.354 N 
ATOM     30  N   UNL A   1      40.560  32.002  32.401  1.00  0.00    -0.248 NA
ATOM     31  C   UNL A   1      40.613  33.100  30.343  1.00  0.00     0.031 C 
ATOM     32  C   UNL A   1      44.974  29.923  32.149  1.00  0.00     0.029 A 
ATOM     33  C   UNL A   1      44.080  30.969  31.923  1.00  0.00     0.049 A 
ATOM     34  H   UNL A   1      44.340  32.519  30.538  1.00  0.00     0.167 HD
ATOM     35  C   UNL A   1      41.886  32.146  32.035  1.00  0.00     0.074 A 
ATOM     36  C   UNL A   1      41.853  32.957  30.816  1.00  0.00     0.031 C 
ATOM     37  C   UNL A   1      42.832  31.321  32.568  1.00  0.00     0.031 A 
BRANCH  24  38
ATOM     38  C   UNL A   1      45.478  32.186  27.975  1.00  0.00    -0.014 A 
ATOM     39  C   UNL A   1      46.765  32.606  27.612  1.00  0.00     0.009 A 
ATOM     40  C   UNL A   1      44.446  33.137  27.833  1.00  0.00     0.009 A 
ATOM     41  C   UNL A   1      47.001  33.907  27.150  1.00  0.00     0.001 A 
ATOM     42  C   UNL A   1      44.667  34.418  27.329  1.00  0.00     0.001 A 
ATOM     43  C   UNL A   1      45.951  34.809  27.003  1.00  0.00     0.000 A 
ENDBRANCH  24  38
BRANCH  25  44
ATOM     44  C   UNL A   1      37.416  32.188  30.752  1.00  0.00    -0.014 A 
ATOM     45  C   UNL A   1      36.471  31.780  29.784  1.00  0.00     0.009 A 
ATOM     46  C   UNL A   1      36.940  32.972  31.816  1.00  0.00     0.009 A 
ATOM     47  C   UNL A   1      35.104  32.075  29.917  1.00  0.00     0.001 A 
ATOM     48  C   UNL A   1      35.572  33.269  31.947  1.00  0.00     0.001 A 
ATOM     49  C   UNL A   1      34.652  32.801  31.013  1.00  0.00     0.000 A 
ENDBRANCH  25  44
BRANCH  37  50
ATOM     50  C   UNL A   1      42.477  30.560  33.829  1.00  0.00    -0.014 A 
ATOM     51  C   UNL A   1      41.866  29.293  33.848  1.00  0.00     0.009 A 
ATOM     52  C   UNL A   1      42.889  31.115  35.049  1.00  0.00     0.009 A 
ATOM     53  C   UNL A   1      41.660  28.616  35.059  1.00  0.00     0.001 A 
ATOM     54  C   UNL A   1      42.704  30.431  36.253  1.00  0.00     0.001 A 
ATOM     55  C   UNL A   1      42.085  29.184  36.258  1.00  0.00     0.000 A 
ENDBRANCH  37  50
ENDBRANCH  11  12
ENDBRANCH   4   6
ENDBRANCH   3   4
ENDBRANCH   2   3
ENDBRANCH   1   2
BRANCH   1  56
ATOM     56  O   UNL A   1      36.493  21.725  24.956  1.00  0.00    -0.462 OA
BRANCH  56  57
ATOM     57  C   UNL A   1      36.053  22.339  23.808  1.00  0.00     0.310 C 
ATOM     58  O   UNL A   1      36.811  22.846  22.994  1.00  0.00    -0.252 OA
BRANCH  57  59
ATOM     59  C   UNL A   1      34.487  22.369  23.706  1.00  0.00     0.119 C 
ATOM     60  C   UNL A   1      33.319  23.504  22.832  1.00  0.00     0.100 C 
ATOM     61  C   UNL A   1      33.816  21.721  25.005  1.00  0.00     0.026 C 
ATOM     62  C   UNL A   1      31.967  22.405  23.329  1.00  0.00     0.025 C 
ATOM     63  C   UNL A   1      32.601  22.415  25.614  1.00  0.00    -0.027 C 
ATOM     64  C   UNL A   1      33.169  20.421  24.485  1.00  0.00     0.009 C 
ATOM     65  C   UNL A   1      31.577  22.606  24.772  1.00  0.00    -0.027 C 
ATOM     66  C   UNL A   1      32.275  20.843  23.285  1.00  0.00     0.009 C 
BRANCH  60  67
ATOM     67  C   UNL A   1      33.398  25.673  22.425  1.00  0.00     0.228 C 
ATOM     68  O   UNL A   1      33.566  26.351  21.346  1.00  0.00    -0.274 OA
ATOM     69  N   UNL A   1      33.472  26.892  23.302  1.00  0.00    -0.326 N 
ATOM     70  H   UNL A   1      34.357  27.266  23.515  1.00  0.00     0.169 HD
BRANCH  69  71
ATOM     71  C   UNL A   1      32.308  27.531  23.839  1.00  0.00     0.041 A 
ATOM     72  C   UNL A   1      32.102  28.859  23.512  1.00  0.00     0.026 A 
ATOM     73  C   UNL A   1      31.244  26.740  24.250  1.00  0.00     0.026 A 
ATOM     74  C   UNL A   1      30.824  29.263  23.149  1.00  0.00     0.008 A 
ATOM     75  C   UNL A   1      29.965  27.126  23.874  1.00  0.00     0.008 A 
ATOM     76  C   UNL A   1      29.765  28.355  23.228  1.00  0.00    -0.026 A 
BRANCH  76  77
ATOM     77  C   UNL A   1      28.373  28.761  22.830  1.00  0.00     0.181 C 
BRANCH  77  78
ATOM     78  N   UNL A   1      28.453  30.154  22.445  1.00  0.00    -0.249 N 
ATOM     79  C   UNL A   1      27.875  31.188  23.133  1.00  0.00     0.220 A 
ATOM     80  N   UNL A   1      28.648  30.489  21.154  1.00  0.00    -0.160 NA
ATOM     81  N   UNL A   1      27.636  32.181  22.312  1.00  0.00    -0.224 NA
ATOM     82  C   UNL A   1      28.097  31.705  21.119  1.00  0.00     0.246 A 
ENDBRANCH  77  78
ENDBRANCH  76  77
ENDBRANCH  69  71
ENDBRANCH  60  67
ENDBRANCH  57  59
ENDBRANCH  56  57
ENDBRANCH   1  56
TORSDOF 15
ENDMDL
