MODEL 1
REMARK VINA RESULT:     -11.4      0.000      0.000
REMARK SMILES O=C(OCCOC(=O)[C@@H](c1ccccc1)[N@@H+]1CCN2C(=O)NC[C@@H]2C1)c1ccc(-c2c3nc(c(-c4ccccc4)c4ccc([nH]4)c(-c4ccccc4)c4nc(c(-c5ccccc5)c5ccc2[nH]5)C=C4)C=C3)cc1
REMARK SMILES IDX 4 1 3 2 2 3 1 4 26 5 27 6 73 7 28 8 72 9 29 10 30 11 31 12
REMARK SMILES IDX 66 13 32 14 71 15 65 16 67 17 33 18 70 19 64 20 63 21 34 23
REMARK SMILES IDX 56 24 41 25 55 26 42 27 45 28 54 29 68 30 43 31 44 32 53 34
REMARK SMILES IDX 69 35 46 36 35 37 36 38 40 39 37 40 39 41 38 42 57 43 58 44
REMARK SMILES IDX 62 45 59 46 61 47 60 48 47 49 48 50 52 51 49 52 51 53 50 54
REMARK SMILES IDX 5 55 6 56 7 57 8 58 9 59 10 60 11 61 15 62 12 63 14 64 13 65
REMARK SMILES IDX 16 66 17 67 25 68 18 70 24 71 19 72 23 73 20 74 22 75 21 76
REMARK H PARENT 67 22 45 33 16 69 22 77
REMARK Flexibility Score: inf
ROOT
ATOM      1  C   UNL A   1      39.498  21.874  26.144  1.00  0.00     0.275 C 
ENDROOT
BRANCH   1   2
ATOM      2  O   UNL A   1      40.524  22.806  26.461  1.00  0.00    -0.458 OA
BRANCH   2   3
ATOM      3  C   UNL A   1      41.786  22.770  26.004  1.00  0.00     0.338 C 
ATOM      4  O   UNL A   1      42.191  21.720  25.508  1.00  0.00    -0.246 OA
BRANCH   3   5
ATOM      5  C   UNL A   1      42.753  23.925  26.060  1.00  0.00     0.060 A 
ATOM      6  C   UNL A   1      42.836  25.420  25.050  1.00  0.00     0.016 A 
ATOM      7  C   UNL A   1      43.864  23.634  27.373  1.00  0.00     0.016 A 
ATOM      8  C   UNL A   1      44.012  26.724  25.289  1.00  0.00     0.010 A 
ATOM      9  C   UNL A   1      45.131  24.831  27.684  1.00  0.00     0.010 A 
ATOM     10  C   UNL A   1      45.244  26.534  26.598  1.00  0.00    -0.014 A 
BRANCH  10  11
ATOM     11  C   UNL A   1      46.190  27.873  26.411  1.00  0.00     0.031 A 
ATOM     12  C   UNL A   1      47.543  27.734  25.747  1.00  0.00     0.074 A 
ATOM     13  C   UNL A   1      45.854  29.150  26.737  1.00  0.00     0.049 A 
ATOM     14  N   UNL A   1      48.571  28.535  25.874  1.00  0.00    -0.248 NA
ATOM     15  C   UNL A   1      47.844  26.516  24.989  1.00  0.00     0.031 C 
ATOM     16  C   UNL A   1      44.621  29.532  27.363  1.00  0.00     0.029 A 
ATOM     17  N   UNL A   1      46.455  30.388  26.580  1.00  0.00    -0.354 N 
ATOM     18  C   UNL A   1      49.671  27.786  25.485  1.00  0.00     0.074 A 
ATOM     19  C   UNL A   1      49.169  26.503  25.050  1.00  0.00     0.031 C 
ATOM     20  C   UNL A   1      44.449  30.843  27.426  1.00  0.00     0.029 A 
ATOM     21  C   UNL A   1      45.628  31.461  26.899  1.00  0.00     0.049 A 
ATOM     22  H   UNL A   1      47.383  30.499  26.272  1.00  0.00     0.167 HD
ATOM     23  C   UNL A   1      50.973  28.150  25.573  1.00  0.00     0.031 A 
ATOM     24  C   UNL A   1      45.760  32.795  26.781  1.00  0.00     0.031 A 
ATOM     25  C   UNL A   1      51.371  29.514  25.832  1.00  0.00     0.049 A 
ATOM     26  C   UNL A   1      47.148  33.253  26.519  1.00  0.00     0.074 A 
ATOM     27  C   UNL A   1      52.642  30.056  25.885  1.00  0.00     0.029 A 
ATOM     28  N   UNL A   1      50.480  30.570  26.008  1.00  0.00    -0.354 N 
ATOM     29  N   UNL A   1      48.203  32.507  26.306  1.00  0.00    -0.248 NA
ATOM     30  C   UNL A   1      47.404  34.692  26.586  1.00  0.00     0.031 C 
ATOM     31  C   UNL A   1      52.518  31.431  26.117  1.00  0.00     0.029 A 
ATOM     32  C   UNL A   1      51.170  31.763  26.133  1.00  0.00     0.049 A 
ATOM     33  H   UNL A   1      49.500  30.481  26.039  1.00  0.00     0.167 HD
ATOM     34  C   UNL A   1      49.268  33.377  26.276  1.00  0.00     0.074 A 
ATOM     35  C   UNL A   1      48.716  34.718  26.390  1.00  0.00     0.031 C 
ATOM     36  C   UNL A   1      50.587  33.079  26.228  1.00  0.00     0.031 A 
BRANCH  23  37
ATOM     37  C   UNL A   1      52.011  27.055  25.503  1.00  0.00    -0.014 A 
ATOM     38  C   UNL A   1      52.581  26.608  24.301  1.00  0.00     0.009 A 
ATOM     39  C   UNL A   1      52.370  26.393  26.691  1.00  0.00     0.009 A 
ATOM     40  C   UNL A   1      53.390  25.467  24.275  1.00  0.00     0.001 A 
ATOM     41  C   UNL A   1      53.229  25.292  26.674  1.00  0.00     0.001 A 
ATOM     42  C   UNL A   1      53.714  24.811  25.460  1.00  0.00     0.000 A 
ENDBRANCH  23  37
BRANCH  24  43
ATOM     43  C   UNL A   1      44.595  33.740  26.884  1.00  0.00    -0.014 A 
ATOM     44  C   UNL A   1      44.266  34.290  28.138  1.00  0.00     0.009 A 
ATOM     45  C   UNL A   1      43.854  34.182  25.773  1.00  0.00     0.009 A 
ATOM     46  C   UNL A   1      43.241  35.236  28.272  1.00  0.00     0.001 A 
ATOM     47  C   UNL A   1      42.877  35.178  25.898  1.00  0.00     0.001 A 
ATOM     48  C   UNL A   1      42.560  35.695  27.150  1.00  0.00     0.000 A 
ENDBRANCH  24  43
BRANCH  36  49
ATOM     49  C   UNL A   1      51.513  34.248  26.254  1.00  0.00    -0.014 A 
ATOM     50  C   UNL A   1      52.035  34.740  27.460  1.00  0.00     0.009 A 
ATOM     51  C   UNL A   1      51.890  34.836  25.040  1.00  0.00     0.009 A 
ATOM     52  C   UNL A   1      52.907  35.825  27.447  1.00  0.00     0.001 A 
ATOM     53  C   UNL A   1      52.792  35.894  25.029  1.00  0.00     0.001 A 
ATOM     54  C   UNL A   1      53.293  36.393  26.231  1.00  0.00     0.000 A 
ENDBRANCH  36  49
ENDBRANCH  10  11
ENDBRANCH   3   5
ENDBRANCH   2   3
ENDBRANCH   1   2
BRANCH   1  55
ATOM     55  C   UNL A   1      38.135  22.562  26.071  1.00  0.00     0.274 C 
BRANCH  55  56
ATOM     56  O   UNL A   1      37.140  21.674  25.534  1.00  0.00    -0.457 OA
BRANCH  56  57
ATOM     57  C   UNL A   1      36.451  21.845  24.362  1.00  0.00     0.370 C 
ATOM     58  O   UNL A   1      36.911  22.410  23.380  1.00  0.00    -0.245 OA
BRANCH  57  59
ATOM     59  C   UNL A   1      34.994  21.226  24.498  1.00  0.00     0.326 C 
BRANCH  59  60
ATOM     60  C   UNL A   1      34.728  19.473  24.546  1.00  0.00     0.021 A 
ATOM     61  C   UNL A   1      35.729  17.767  24.982  1.00  0.00     0.010 A 
ATOM     62  C   UNL A   1      32.967  19.255  24.148  1.00  0.00     0.010 A 
ATOM     63  C   UNL A   1      34.876  16.188  25.022  1.00  0.00     0.001 A 
ATOM     64  C   UNL A   1      32.233  17.631  24.291  1.00  0.00     0.001 A 
ATOM     65  C   UNL A   1      33.156  16.169  24.717  1.00  0.00     0.000 A 
ENDBRANCH  59  60
BRANCH  59  66
ATOM     66  N   UNL A   1      34.113  22.253  25.283  1.00  0.00    -0.316 N 
ATOM     67  C   UNL A   1      33.398  21.733  26.472  1.00  0.00     0.285 C 
ATOM     68  C   UNL A   1      33.302  23.203  24.535  1.00  0.00     0.290 C 
ATOM     69  H   UNL A   1      34.883  22.825  25.627  1.00  0.00     0.349 HD
ATOM     70  C   UNL A   1      32.469  22.657  27.283  1.00  0.00     0.183 C 
ATOM     71  C   UNL A   1      32.267  24.091  25.279  1.00  0.00     0.161 C 
ATOM     72  N   UNL A   1      31.660  23.442  26.408  1.00  0.00    -0.309 N 
ATOM     73  C   UNL A   1      31.025  24.495  24.474  1.00  0.00     0.148 C 
ATOM     74  C   UNL A   1      30.343  23.817  26.583  1.00  0.00     0.318 C 
ATOM     75  N   UNL A   1      29.970  24.516  25.451  1.00  0.00    -0.336 N 
ATOM     76  O   UNL A   1      29.616  23.572  27.528  1.00  0.00    -0.249 OA
ATOM     77  H   UNL A   1      29.103  24.967  25.330  1.00  0.00     0.165 HD
ENDBRANCH  59  66
ENDBRANCH  57  59
ENDBRANCH  56  57
ENDBRANCH  55  56
ENDBRANCH   1  55
TORSDOF 13
ENDMDL
MODEL 2
REMARK VINA RESULT:     -11.4      1.571      3.324
REMARK SMILES O=C(OCCOC(=O)[C@@H](c1ccccc1)[N@@H+]1CCN2C(=O)NC[C@@H]2C1)c1ccc(-c2c3nc(c(-c4ccccc4)c4ccc([nH]4)c(-c4ccccc4)c4nc(c(-c5ccccc5)c5ccc2[nH]5)C=C4)C=C3)cc1
REMARK SMILES IDX 4 1 3 2 2 3 1 4 26 5 27 6 73 7 28 8 72 9 29 10 30 11 31 12
REMARK SMILES IDX 66 13 32 14 71 15 65 16 67 17 33 18 70 19 64 20 63 21 34 23
REMARK SMILES IDX 56 24 41 25 55 26 42 27 45 28 54 29 68 30 43 31 44 32 53 34
REMARK SMILES IDX 69 35 46 36 35 37 36 38 40 39 37 40 39 41 38 42 57 43 58 44
REMARK SMILES IDX 62 45 59 46 61 47 60 48 47 49 48 50 52 51 49 52 51 53 50 54
REMARK SMILES IDX 5 55 6 56 7 57 8 58 9 59 10 60 11 61 15 62 12 63 14 64 13 65
REMARK SMILES IDX 16 66 17 67 25 68 18 70 24 71 19 72 23 73 20 74 22 75 21 76
REMARK H PARENT 67 22 45 33 16 69 22 77
REMARK Flexibility Score: inf
ROOT
ATOM      1  C   UNL A   1      39.157  22.284  26.215  1.00  0.00     0.275 C 
ENDROOT
BRANCH   1   2
ATOM      2  O   UNL A   1      40.363  22.804  26.761  1.00  0.00    -0.458 OA
BRANCH   2   3
ATOM      3  C   UNL A   1      41.559  22.818  26.152  1.00  0.00     0.338 C 
ATOM      4  O   UNL A   1      41.895  21.820  25.516  1.00  0.00    -0.246 OA
BRANCH   3   5
ATOM      5  C   UNL A   1      42.530  23.970  26.195  1.00  0.00     0.060 A 
ATOM      6  C   UNL A   1      42.648  25.429  25.136  1.00  0.00     0.016 A 
ATOM      7  C   UNL A   1      43.604  23.719  27.545  1.00  0.00     0.016 A 
ATOM      8  C   UNL A   1      43.825  26.735  25.362  1.00  0.00     0.010 A 
ATOM      9  C   UNL A   1      44.869  24.920  27.849  1.00  0.00     0.010 A 
ATOM     10  C   UNL A   1      45.021  26.584  26.710  1.00  0.00    -0.014 A 
BRANCH  10  11
ATOM     11  C   UNL A   1      45.979  27.911  26.503  1.00  0.00     0.031 A 
ATOM     12  C   UNL A   1      47.324  27.752  25.826  1.00  0.00     0.074 A 
ATOM     13  C   UNL A   1      45.660  29.195  26.822  1.00  0.00     0.049 A 
ATOM     14  N   UNL A   1      48.361  28.543  25.937  1.00  0.00    -0.248 NA
ATOM     15  C   UNL A   1      47.604  26.526  25.074  1.00  0.00     0.031 C 
ATOM     16  C   UNL A   1      44.437  29.594  27.457  1.00  0.00     0.029 A 
ATOM     17  N   UNL A   1      46.272  30.425  26.649  1.00  0.00    -0.354 N 
ATOM     18  C   UNL A   1      49.449  27.779  25.543  1.00  0.00     0.074 A 
ATOM     19  C   UNL A   1      48.929  26.499  25.122  1.00  0.00     0.031 C 
ATOM     20  C   UNL A   1      44.280  30.908  27.511  1.00  0.00     0.029 A 
ATOM     21  C   UNL A   1      45.460  31.509  26.968  1.00  0.00     0.049 A 
ATOM     22  H   UNL A   1      47.198  30.523  26.331  1.00  0.00     0.167 HD
ATOM     23  C   UNL A   1      50.756  28.130  25.614  1.00  0.00     0.031 A 
ATOM     24  C   UNL A   1      45.605  32.841  26.838  1.00  0.00     0.031 A 
ATOM     25  C   UNL A   1      51.171  29.492  25.859  1.00  0.00     0.049 A 
ATOM     26  C   UNL A   1      46.995  33.281  26.559  1.00  0.00     0.074 A 
ATOM     27  C   UNL A   1      52.448  30.021  25.895  1.00  0.00     0.029 A 
ATOM     28  N   UNL A   1      50.293  30.559  26.035  1.00  0.00    -0.354 N 
ATOM     29  N   UNL A   1      48.039  32.523  26.340  1.00  0.00    -0.248 NA
ATOM     30  C   UNL A   1      47.267  34.718  26.612  1.00  0.00     0.031 C 
ATOM     31  C   UNL A   1      52.341  31.399  26.116  1.00  0.00     0.029 A 
ATOM     32  C   UNL A   1      50.997  31.745  26.144  1.00  0.00     0.049 A 
ATOM     33  H   UNL A   1      49.312  30.481  26.077  1.00  0.00     0.167 HD
ATOM     34  C   UNL A   1      49.114  33.381  26.294  1.00  0.00     0.074 A 
ATOM     35  C   UNL A   1      48.577  34.728  26.402  1.00  0.00     0.031 C 
ATOM     36  C   UNL A   1      50.429  33.068  26.235  1.00  0.00     0.031 A 
BRANCH  23  37
ATOM     37  C   UNL A   1      51.781  27.024  25.542  1.00  0.00    -0.014 A 
ATOM     38  C   UNL A   1      52.373  26.598  24.344  1.00  0.00     0.009 A 
ATOM     39  C   UNL A   1      52.104  26.330  26.723  1.00  0.00     0.009 A 
ATOM     40  C   UNL A   1      53.168  25.447  24.310  1.00  0.00     0.001 A 
ATOM     41  C   UNL A   1      52.950  25.218  26.699  1.00  0.00     0.001 A 
ATOM     42  C   UNL A   1      53.457  24.759  25.486  1.00  0.00     0.000 A 
ENDBRANCH  23  37
BRANCH  24  43
ATOM     43  C   UNL A   1      44.451  33.799  26.945  1.00  0.00    -0.014 A 
ATOM     44  C   UNL A   1      44.088  34.297  28.211  1.00  0.00     0.009 A 
ATOM     45  C   UNL A   1      43.754  34.302  25.832  1.00  0.00     0.009 A 
ATOM     46  C   UNL A   1      43.074  35.253  28.355  1.00  0.00     0.001 A 
ATOM     47  C   UNL A   1      42.788  35.307  25.969  1.00  0.00     0.001 A 
ATOM     48  C   UNL A   1      42.438  35.772  27.233  1.00  0.00     0.000 A 
ENDBRANCH  24  43
BRANCH  36  49
ATOM     49  C   UNL A   1      51.367  34.228  26.242  1.00  0.00    -0.014 A 
ATOM     50  C   UNL A   1      51.912  34.719  27.438  1.00  0.00     0.009 A 
ATOM     51  C   UNL A   1      51.733  34.806  25.020  1.00  0.00     0.009 A 
ATOM     52  C   UNL A   1      52.795  35.795  27.407  1.00  0.00     0.001 A 
ATOM     53  C   UNL A   1      52.646  35.855  24.992  1.00  0.00     0.001 A 
ATOM     54  C   UNL A   1      53.170  36.353  26.184  1.00  0.00     0.000 A 
ENDBRANCH  36  49
ENDBRANCH  10  11
ENDBRANCH   3   5
ENDBRANCH   2   3
ENDBRANCH   1   2
BRANCH   1  55
ATOM     55  C   UNL A   1      38.193  23.408  25.839  1.00  0.00     0.274 C 
BRANCH  55  56
ATOM     56  O   UNL A   1      36.849  22.914  25.720  1.00  0.00    -0.457 OA
BRANCH  56  57
ATOM     57  C   UNL A   1      36.119  22.825  24.564  1.00  0.00     0.370 C 
ATOM     58  O   UNL A   1      36.557  22.367  23.518  1.00  0.00    -0.245 OA
BRANCH  57  59
ATOM     59  C   UNL A   1      34.663  23.418  24.797  1.00  0.00     0.326 C 
BRANCH  59  60
ATOM     60  C   UNL A   1      34.221  25.044  24.245  1.00  0.00     0.021 A 
ATOM     61  C   UNL A   1      33.730  26.018  22.539  1.00  0.00     0.010 A 
ATOM     62  C   UNL A   1      34.125  26.044  25.760  1.00  0.00     0.010 A 
ATOM     63  C   UNL A   1      33.184  27.728  22.583  1.00  0.00     0.001 A 
ATOM     64  C   UNL A   1      33.501  27.717  25.666  1.00  0.00     0.001 A 
ATOM     65  C   UNL A   1      33.047  28.511  24.138  1.00  0.00     0.000 A 
ENDBRANCH  59  60
BRANCH  59  66
ATOM     66  N   UNL A   1      33.661  22.217  24.832  1.00  0.00    -0.316 N 
ATOM     67  C   UNL A   1      34.054  21.055  25.664  1.00  0.00     0.285 C 
ATOM     68  C   UNL A   1      33.013  21.804  23.596  1.00  0.00     0.290 C 
ATOM     69  H   UNL A   1      32.917  22.702  25.334  1.00  0.00     0.349 HD
ATOM     70  C   UNL A   1      33.155  19.806  25.724  1.00  0.00     0.183 C 
ATOM     71  C   UNL A   1      32.177  20.494  23.559  1.00  0.00     0.161 C 
ATOM     72  N   UNL A   1      32.690  19.463  24.419  1.00  0.00    -0.309 N 
ATOM     73  C   UNL A   1      32.138  19.758  22.215  1.00  0.00     0.148 C 
ATOM     74  C   UNL A   1      32.506  18.201  23.892  1.00  0.00     0.318 C 
ATOM     75  N   UNL A   1      32.102  18.368  22.581  1.00  0.00    -0.336 N 
ATOM     76  O   UNL A   1      32.680  17.129  24.441  1.00  0.00    -0.249 OA
ATOM     77  H   UNL A   1      31.827  17.638  21.980  1.00  0.00     0.165 HD
ENDBRANCH  59  66
ENDBRANCH  57  59
ENDBRANCH  56  57
ENDBRANCH  55  56
ENDBRANCH   1  55
TORSDOF 13
ENDMDL
MODEL 3
REMARK VINA RESULT:     -11.2      4.340      9.022
REMARK SMILES O=C(OCCOC(=O)[C@@H](c1ccccc1)[N@@H+]1CCN2C(=O)NC[C@@H]2C1)c1ccc(-c2c3nc(c(-c4ccccc4)c4ccc([nH]4)c(-c4ccccc4)c4nc(c(-c5ccccc5)c5ccc2[nH]5)C=C4)C=C3)cc1
REMARK SMILES IDX 4 1 3 2 2 3 1 4 26 5 27 6 73 7 28 8 72 9 29 10 30 11 31 12
REMARK SMILES IDX 66 13 32 14 71 15 65 16 67 17 33 18 70 19 64 20 63 21 34 23
REMARK SMILES IDX 56 24 41 25 55 26 42 27 45 28 54 29 68 30 43 31 44 32 53 34
REMARK SMILES IDX 69 35 46 36 35 37 36 38 40 39 37 40 39 41 38 42 57 43 58 44
REMARK SMILES IDX 62 45 59 46 61 47 60 48 47 49 48 50 52 51 49 52 51 53 50 54
REMARK SMILES IDX 5 55 6 56 7 57 8 58 9 59 10 60 11 61 15 62 12 63 14 64 13 65
REMARK SMILES IDX 16 66 17 67 25 68 18 70 24 71 19 72 23 73 20 74 22 75 21 76
REMARK H PARENT 67 22 45 33 16 69 22 77
REMARK Flexibility Score: inf
ROOT
ATOM      1  C   UNL A   1      33.571  29.812  27.167  1.00  0.00     0.275 C 
ENDROOT
BRANCH   1   2
ATOM      2  O   UNL A   1      33.572  31.000  27.949  1.00  0.00    -0.458 OA
BRANCH   2   3
ATOM      3  C   UNL A   1      34.553  31.395  28.775  1.00  0.00     0.338 C 
ATOM      4  O   UNL A   1      34.325  32.331  29.539  1.00  0.00    -0.246 OA
BRANCH   3   5
ATOM      5  C   UNL A   1      35.927  30.776  28.832  1.00  0.00     0.060 A 
ATOM      6  C   UNL A   1      37.212  30.683  27.566  1.00  0.00     0.016 A 
ATOM      7  C   UNL A   1      36.163  30.136  30.437  1.00  0.00     0.016 A 
ATOM      8  C   UNL A   1      38.813  29.965  27.819  1.00  0.00     0.010 A 
ATOM      9  C   UNL A   1      37.699  29.337  30.807  1.00  0.00     0.010 A 
ATOM     10  C   UNL A   1      39.178  29.235  29.432  1.00  0.00    -0.014 A 
BRANCH  10  11
ATOM     11  C   UNL A   1      40.682  28.593  29.214  1.00  0.00     0.031 A 
ATOM     12  C   UNL A   1      41.879  29.293  29.822  1.00  0.00     0.074 A 
ATOM     13  C   UNL A   1      40.977  27.424  28.584  1.00  0.00     0.049 A 
ATOM     14  N   UNL A   1      43.127  29.201  29.438  1.00  0.00    -0.248 NA
ATOM     15  C   UNL A   1      41.661  30.309  30.856  1.00  0.00     0.031 C 
ATOM     16  C   UNL A   1      40.011  26.580  27.943  1.00  0.00     0.029 A 
ATOM     17  N   UNL A   1      42.133  26.689  28.380  1.00  0.00    -0.354 N 
ATOM     18  C   UNL A   1      43.754  30.325  29.953  1.00  0.00     0.074 A 
ATOM     19  C   UNL A   1      42.766  31.032  30.734  1.00  0.00     0.031 C 
ATOM     20  C   UNL A   1      40.510  25.418  27.548  1.00  0.00     0.029 A 
ATOM     21  C   UNL A   1      41.912  25.428  27.835  1.00  0.00     0.049 A 
ATOM     22  H   UNL A   1      43.031  27.028  28.601  1.00  0.00     0.167 HD
ATOM     23  C   UNL A   1      45.023  30.730  29.707  1.00  0.00     0.031 A 
ATOM     24  C   UNL A   1      42.712  24.374  27.592  1.00  0.00     0.031 A 
ATOM     25  C   UNL A   1      45.996  29.866  29.080  1.00  0.00     0.049 A 
ATOM     26  C   UNL A   1      44.164  24.679  27.655  1.00  0.00     0.074 A 
ATOM     27  C   UNL A   1      47.333  30.100  28.823  1.00  0.00     0.029 A 
ATOM     28  N   UNL A   1      45.738  28.556  28.680  1.00  0.00    -0.354 N 
ATOM     29  N   UNL A   1      44.723  25.810  28.002  1.00  0.00    -0.248 NA
ATOM     30  C   UNL A   1      45.088  23.639  27.201  1.00  0.00     0.031 C 
ATOM     31  C   UNL A   1      47.874  28.945  28.247  1.00  0.00     0.029 A 
ATOM     32  C   UNL A   1      46.896  27.961  28.213  1.00  0.00     0.049 A 
ATOM     33  H   UNL A   1      44.857  28.117  28.723  1.00  0.00     0.167 HD
ATOM     34  C   UNL A   1      46.066  25.650  27.748  1.00  0.00     0.074 A 
ATOM     35  C   UNL A   1      46.248  24.274  27.317  1.00  0.00     0.031 C 
ATOM     36  C   UNL A   1      47.042  26.585  27.806  1.00  0.00     0.031 A 
BRANCH  23  37
ATOM     37  C   UNL A   1      45.367  32.169  30.009  1.00  0.00    -0.014 A 
ATOM     38  C   UNL A   1      45.817  32.609  31.263  1.00  0.00     0.009 A 
ATOM     39  C   UNL A   1      45.154  33.135  29.007  1.00  0.00     0.009 A 
ATOM     40  C   UNL A   1      45.937  33.975  31.540  1.00  0.00     0.001 A 
ATOM     41  C   UNL A   1      45.335  34.495  29.265  1.00  0.00     0.001 A 
ATOM     42  C   UNL A   1      45.697  34.916  30.542  1.00  0.00     0.000 A 
ENDBRANCH  23  37
BRANCH  24  43
ATOM     43  C   UNL A   1      42.179  22.997  27.306  1.00  0.00    -0.014 A 
ATOM     44  C   UNL A   1      41.791  22.174  28.380  1.00  0.00     0.009 A 
ATOM     45  C   UNL A   1      41.962  22.504  26.007  1.00  0.00     0.009 A 
ATOM     46  C   UNL A   1      41.216  20.916  28.164  1.00  0.00     0.001 A 
ATOM     47  C   UNL A   1      41.324  21.276  25.790  1.00  0.00     0.001 A 
ATOM     48  C   UNL A   1      40.963  20.475  26.869  1.00  0.00     0.000 A 
ENDBRANCH  24  43
BRANCH  36  49
ATOM     49  C   UNL A   1      48.407  26.114  27.428  1.00  0.00    -0.014 A 
ATOM     50  C   UNL A   1      48.886  26.242  26.116  1.00  0.00     0.009 A 
ATOM     51  C   UNL A   1      49.230  25.568  28.421  1.00  0.00     0.009 A 
ATOM     52  C   UNL A   1      50.169  25.804  25.801  1.00  0.00     0.001 A 
ATOM     53  C   UNL A   1      50.525  25.169  28.110  1.00  0.00     0.001 A 
ATOM     54  C   UNL A   1      50.991  25.279  26.800  1.00  0.00     0.000 A 
ENDBRANCH  36  49
ENDBRANCH  10  11
ENDBRANCH   3   5
ENDBRANCH   2   3
ENDBRANCH   1   2
BRANCH   1  55
ATOM     55  C   UNL A   1      32.225  29.095  27.259  1.00  0.00     0.274 C 
BRANCH  55  56
ATOM     56  O   UNL A   1      32.379  27.683  27.037  1.00  0.00    -0.457 OA
BRANCH  56  57
ATOM     57  C   UNL A   1      31.468  26.855  26.435  1.00  0.00     0.370 C 
ATOM     58  O   UNL A   1      30.379  26.579  26.917  1.00  0.00    -0.245 OA
BRANCH  57  59
ATOM     59  C   UNL A   1      32.057  26.312  25.062  1.00  0.00     0.326 C 
BRANCH  59  60
ATOM     60  C   UNL A   1      32.701  24.667  24.911  1.00  0.00     0.021 A 
ATOM     61  C   UNL A   1      32.047  22.754  24.798  1.00  0.00     0.010 A 
ATOM     62  C   UNL A   1      34.496  24.881  24.720  1.00  0.00     0.010 A 
ATOM     63  C   UNL A   1      33.192  21.411  24.468  1.00  0.00     0.001 A 
ATOM     64  C   UNL A   1      35.511  23.461  24.330  1.00  0.00     0.001 A 
ATOM     65  C   UNL A   1      34.873  21.804  24.205  1.00  0.00     0.000 A 
ENDBRANCH  59  60
BRANCH  59  66
ATOM     66  N   UNL A   1      31.322  27.061  23.901  1.00  0.00    -0.316 N 
ATOM     67  C   UNL A   1      31.825  28.414  23.567  1.00  0.00     0.285 C 
ATOM     68  C   UNL A   1      29.870  26.987  23.825  1.00  0.00     0.290 C 
ATOM     69  H   UNL A   1      31.626  26.439  23.153  1.00  0.00     0.349 HD
ATOM     70  C   UNL A   1      31.136  29.248  22.470  1.00  0.00     0.183 C 
ATOM     71  C   UNL A   1      29.102  27.883  22.812  1.00  0.00     0.161 C 
ATOM     72  N   UNL A   1      29.717  29.164  22.599  1.00  0.00    -0.309 N 
ATOM     73  C   UNL A   1      27.687  28.305  23.226  1.00  0.00     0.148 C 
ATOM     74  C   UNL A   1      28.788  30.162  22.381  1.00  0.00     0.318 C 
ATOM     75  N   UNL A   1      27.549  29.631  22.688  1.00  0.00    -0.336 N 
ATOM     76  O   UNL A   1      28.991  31.304  22.014  1.00  0.00    -0.249 OA
ATOM     77  H   UNL A   1      26.691  30.096  22.556  1.00  0.00     0.165 HD
ENDBRANCH  59  66
ENDBRANCH  57  59
ENDBRANCH  56  57
ENDBRANCH  55  56
ENDBRANCH   1  55
TORSDOF 13
ENDMDL
