MODEL 1
REMARK VINA RESULT:     -11.9      0.000      0.000
REMARK SMILES CCc1cc(S(F)(F)(F)(F)F)cc2c1O[C@@H](C(F)(F)F)C(C(=O)OCCOC(=O)c1ccc(-c3c4nc(c(-c5ccccc5)c5ccc([nH]5)c(-c5ccccc5)c5nc(c(-c6ccccc6)c6ccc3[nH]6)C=C5)C=C4)cc1)=C2
REMARK SMILES IDX 26 1 25 2 24 3 22 4 23 5 21 6 3 7 4 8 14 9 5 10 13 11 15 12
REMARK SMILES IDX 12 13 78 14 16 15 2 16 1 17 6 18 7 19 8 20 9 21 10 22 11 23
REMARK SMILES IDX 17 24 18 25 19 26 20 27 27 28 28 29 29 30 30 31 31 32 77 33
REMARK SMILES IDX 32 34 76 35 33 36 34 37 35 38 70 39 36 40 75 41 69 42 71 43
REMARK SMILES IDX 37 44 74 45 68 46 67 47 38 49 60 50 45 51 59 52 46 53 49 54
REMARK SMILES IDX 58 55 72 56 47 57 48 58 57 60 73 61 50 62 39 63 40 64 44 65
REMARK SMILES IDX 41 66 43 67 42 68 61 69 62 70 66 71 63 72 65 73 64 74 51 75
REMARK SMILES IDX 52 76 56 77 53 78 55 79 54 80
REMARK H PARENT 71 48 49 59
REMARK Flexibility Score: inf
ROOT
ATOM      1  C   UNL A   1      32.753  30.575  26.944  1.00  0.00     0.275 C 
ENDROOT
BRANCH   1   2
ATOM      2  C   UNL A   1      32.565  29.861  25.616  1.00  0.00     0.275 C 
BRANCH   2   3
ATOM      3  O   UNL A   1      31.426  29.017  25.689  1.00  0.00    -0.459 OA
BRANCH   3   4
ATOM      4  C   UNL A   1      31.513  27.763  26.349  1.00  0.00     0.338 C 
ATOM      5  O   UNL A   1      31.070  27.636  27.534  1.00  0.00    -0.246 OA
BRANCH   4   6
ATOM      6  C   UNL A   1      32.136  26.571  25.640  1.00  0.00     0.087 C 
ATOM      7  C   UNL A   1      33.510  23.009  23.946  1.00  0.00    -0.004 A 
ATOM      8  C   UNL A   1      34.774  22.541  24.255  1.00  0.00     0.032 A 
ATOM      9  C   UNL A   1      33.063  24.154  24.558  1.00  0.00     0.131 A 
ATOM     10  C   UNL A   1      35.568  23.198  25.157  1.00  0.00     0.108 A 
ATOM     11  C   UNL A   1      33.844  24.856  25.460  1.00  0.00     0.019 A 
ATOM     12  O   UNL A   1      31.766  24.545  24.328  1.00  0.00    -0.475 OA
ATOM     13  C   UNL A   1      35.107  24.354  25.752  1.00  0.00     0.036 A 
ATOM     14  C   UNL A   1      33.265  26.034  26.084  1.00  0.00     0.027 C 
ATOM     15  C   UNL A   1      31.478  25.969  24.406  1.00  0.00     0.316 C 
BRANCH   7  16
ATOM     16  C   UNL A   1      32.784  22.306  22.811  1.00  0.00     0.036 C 
ATOM     17  C   UNL A   1      32.440  20.887  23.233  1.00  0.00     0.009 C 
ENDBRANCH   7  16
BRANCH  10  18
ATOM     18  S   UNL A   1      37.210  22.555  25.567  1.00  0.00     0.310 S 
ATOM     19  F   UNL A   1      37.439  22.126  24.057  1.00  0.00    -0.094 F 
ATOM     20  F   UNL A   1      36.503  21.164  25.783  1.00  0.00    -0.094 F 
ATOM     21  F   UNL A   1      38.597  21.932  25.891  1.00  0.00    -0.094 F 
ATOM     22  F   UNL A   1      37.917  23.922  25.210  1.00  0.00    -0.094 F 
ATOM     23  F   UNL A   1      35.824  23.173  25.126  1.00  0.00    -0.094 F 
ENDBRANCH  10  18
BRANCH  15  24
ATOM     24  C   UNL A   1      29.973  26.165  24.500  1.00  0.00     0.430 C 
ATOM     25  F   UNL A   1      29.366  25.367  23.627  1.00  0.00    -0.167 F 
ATOM     26  F   UNL A   1      29.564  25.868  25.731  1.00  0.00    -0.167 F 
ATOM     27  F   UNL A   1      29.673  27.431  24.227  1.00  0.00    -0.167 F 
ENDBRANCH  15  24
ENDBRANCH   4   6
ENDBRANCH   3   4
ENDBRANCH   2   3
ENDBRANCH   1   2
BRANCH   1  28
ATOM     28  O   UNL A   1      33.822  29.974  27.659  1.00  0.00    -0.458 OA
BRANCH  28  29
ATOM     29  C   UNL A   1      34.720  30.782  28.406  1.00  0.00     0.338 C 
ATOM     30  O   UNL A   1      34.334  31.901  28.868  1.00  0.00    -0.246 OA
BRANCH  29  31
ATOM     31  C   UNL A   1      36.144  30.309  28.652  1.00  0.00     0.060 A 
ATOM     32  C   UNL A   1      37.048  30.437  27.610  1.00  0.00     0.016 A 
ATOM     33  C   UNL A   1      36.473  29.685  29.777  1.00  0.00     0.016 A 
ATOM     34  C   UNL A   1      38.191  29.614  27.739  1.00  0.00     0.010 A 
ATOM     35  C   UNL A   1      37.667  29.014  29.881  1.00  0.00     0.010 A 
ATOM     36  C   UNL A   1      38.583  29.049  28.867  1.00  0.00    -0.014 A 
BRANCH  36  37
ATOM     37  C   UNL A   1      39.978  28.467  29.028  1.00  0.00     0.031 A 
ATOM     38  C   UNL A   1      40.279  27.158  28.646  1.00  0.00     0.074 A 
ATOM     39  C   UNL A   1      40.920  29.377  29.476  1.00  0.00     0.049 A 
ATOM     40  N   UNL A   1      41.477  26.576  28.610  1.00  0.00    -0.248 NA
ATOM     41  C   UNL A   1      39.275  26.179  28.201  1.00  0.00     0.031 C 
ATOM     42  C   UNL A   1      40.627  30.702  29.855  1.00  0.00     0.029 A 
ATOM     43  N   UNL A   1      42.274  29.182  29.637  1.00  0.00    -0.354 N 
ATOM     44  C   UNL A   1      41.367  25.319  28.171  1.00  0.00     0.074 A 
ATOM     45  C   UNL A   1      39.948  25.045  27.908  1.00  0.00     0.031 C 
ATOM     46  C   UNL A   1      41.784  31.293  30.251  1.00  0.00     0.029 A 
ATOM     47  C   UNL A   1      42.821  30.349  30.124  1.00  0.00     0.049 A 
ATOM     48  H   UNL A   1      42.765  28.353  29.439  1.00  0.00     0.167 HD
ATOM     49  C   UNL A   1      42.394  24.394  27.980  1.00  0.00     0.031 A 
ATOM     50  C   UNL A   1      44.146  30.595  30.447  1.00  0.00     0.031 A 
ATOM     51  C   UNL A   1      43.726  24.654  28.262  1.00  0.00     0.049 A 
ATOM     52  C   UNL A   1      45.166  29.650  30.310  1.00  0.00     0.074 A 
ATOM     53  C   UNL A   1      44.775  23.735  28.067  1.00  0.00     0.029 A 
ATOM     54  N   UNL A   1      44.270  25.813  28.771  1.00  0.00    -0.354 N 
ATOM     55  N   UNL A   1      45.061  28.407  29.835  1.00  0.00    -0.248 NA
ATOM     56  C   UNL A   1      46.567  29.888  30.680  1.00  0.00     0.031 C 
ATOM     57  C   UNL A   1      45.933  24.327  28.462  1.00  0.00     0.029 A 
ATOM     58  C   UNL A   1      45.627  25.625  28.911  1.00  0.00     0.049 A 
ATOM     59  H   UNL A   1      43.774  26.632  28.997  1.00  0.00     0.167 HD
ATOM     60  C   UNL A   1      46.255  27.812  29.838  1.00  0.00     0.074 A 
ATOM     61  C   UNL A   1      47.240  28.753  30.389  1.00  0.00     0.031 C 
ATOM     62  C   UNL A   1      46.563  26.523  29.401  1.00  0.00     0.031 A 
BRANCH  49  63
ATOM     63  C   UNL A   1      42.032  23.024  27.430  1.00  0.00    -0.014 A 
ATOM     64  C   UNL A   1      41.538  22.057  28.290  1.00  0.00     0.009 A 
ATOM     65  C   UNL A   1      42.192  22.778  26.136  1.00  0.00     0.009 A 
ATOM     66  C   UNL A   1      41.514  20.755  27.735  1.00  0.00     0.001 A 
ATOM     67  C   UNL A   1      42.020  21.509  25.638  1.00  0.00     0.001 A 
ATOM     68  C   UNL A   1      41.591  20.490  26.443  1.00  0.00     0.000 A 
ENDBRANCH  49  63
BRANCH  50  69
ATOM     69  C   UNL A   1      44.511  31.971  30.981  1.00  0.00    -0.014 A 
ATOM     70  C   UNL A   1      44.888  32.965  30.093  1.00  0.00     0.009 A 
ATOM     71  C   UNL A   1      44.463  32.196  32.289  1.00  0.00     0.009 A 
ATOM     72  C   UNL A   1      45.479  34.092  30.714  1.00  0.00     0.001 A 
ATOM     73  C   UNL A   1      44.932  33.376  32.813  1.00  0.00     0.001 A 
ATOM     74  C   UNL A   1      45.376  34.380  31.998  1.00  0.00     0.000 A 
ENDBRANCH  50  69
BRANCH  62  75
ATOM     75  C   UNL A   1      48.014  26.075  29.467  1.00  0.00    -0.014 A 
ATOM     76  C   UNL A   1      48.479  25.622  30.691  1.00  0.00     0.009 A 
ATOM     77  C   UNL A   1      48.838  26.249  28.440  1.00  0.00     0.009 A 
ATOM     78  C   UNL A   1      49.888  25.657  30.818  1.00  0.00     0.001 A 
ATOM     79  C   UNL A   1      50.197  26.134  28.606  1.00  0.00     0.001 A 
ATOM     80  C   UNL A   1      50.729  25.748  29.805  1.00  0.00     0.000 A 
ENDBRANCH  62  75
ENDBRANCH  36  37
ENDBRANCH  29  31
ENDBRANCH  28  29
ENDBRANCH   1  28
TORSDOF 14
ENDMDL
MODEL 2
REMARK VINA RESULT:     -11.8      4.533      8.775
REMARK SMILES CCc1cc(S(F)(F)(F)(F)F)cc2c1O[C@@H](C(F)(F)F)C(C(=O)OCCOC(=O)c1ccc(-c3c4nc(c(-c5ccccc5)c5ccc([nH]5)c(-c5ccccc5)c5nc(c(-c6ccccc6)c6ccc3[nH]6)C=C5)C=C4)cc1)=C2
REMARK SMILES IDX 26 1 25 2 24 3 22 4 23 5 21 6 3 7 4 8 14 9 5 10 13 11 15 12
REMARK SMILES IDX 12 13 78 14 16 15 2 16 1 17 6 18 7 19 8 20 9 21 10 22 11 23
REMARK SMILES IDX 17 24 18 25 19 26 20 27 27 28 28 29 29 30 30 31 31 32 77 33
REMARK SMILES IDX 32 34 76 35 33 36 34 37 35 38 70 39 36 40 75 41 69 42 71 43
REMARK SMILES IDX 37 44 74 45 68 46 67 47 38 49 60 50 45 51 59 52 46 53 49 54
REMARK SMILES IDX 58 55 72 56 47 57 48 58 57 60 73 61 50 62 39 63 40 64 44 65
REMARK SMILES IDX 41 66 43 67 42 68 61 69 62 70 66 71 63 72 65 73 64 74 51 75
REMARK SMILES IDX 52 76 56 77 53 78 55 79 54 80
REMARK H PARENT 71 48 49 59
REMARK Flexibility Score: inf
ROOT
ATOM      1  C   UNL A   1      43.677  21.761  24.993  1.00  0.00     0.275 C 
ENDROOT
BRANCH   1   2
ATOM      2  C   UNL A   1      42.569  21.162  25.842  1.00  0.00     0.275 C 
BRANCH   2   3
ATOM      3  O   UNL A   1      41.367  21.888  25.633  1.00  0.00    -0.459 OA
BRANCH   3   4
ATOM      4  C   UNL A   1      40.272  21.717  26.519  1.00  0.00     0.338 C 
ATOM      5  O   UNL A   1      40.459  21.216  27.673  1.00  0.00    -0.246 OA
BRANCH   4   6
ATOM      6  C   UNL A   1      38.873  22.132  26.090  1.00  0.00     0.087 C 
ATOM      7  C   UNL A   1      34.944  23.372  25.405  1.00  0.00    -0.004 A 
ATOM      8  C   UNL A   1      33.995  22.457  24.985  1.00  0.00     0.032 A 
ATOM      9  C   UNL A   1      36.215  22.927  25.674  1.00  0.00     0.131 A 
ATOM     10  C   UNL A   1      34.309  21.131  24.844  1.00  0.00     0.108 A 
ATOM     11  C   UNL A   1      36.574  21.599  25.524  1.00  0.00     0.019 A 
ATOM     12  O   UNL A   1      37.115  23.823  26.197  1.00  0.00    -0.475 OA
ATOM     13  C   UNL A   1      35.595  20.705  25.106  1.00  0.00     0.036 A 
ATOM     14  C   UNL A   1      37.933  21.221  25.873  1.00  0.00     0.027 C 
ATOM     15  C   UNL A   1      38.522  23.602  25.900  1.00  0.00     0.316 C 
BRANCH   7  16
ATOM     16  C   UNL A   1      34.540  24.836  25.363  1.00  0.00     0.036 C 
ATOM     17  C   UNL A   1      33.154  24.997  25.965  1.00  0.00     0.009 C 
ENDBRANCH   7  16
BRANCH  10  18
ATOM     18  S   UNL A   1      33.046  19.946  24.317  1.00  0.00     0.310 S 
ATOM     19  F   UNL A   1      31.916  20.808  25.020  1.00  0.00    -0.094 F 
ATOM     20  F   UNL A   1      33.273  19.237  25.705  1.00  0.00    -0.094 F 
ATOM     21  F   UNL A   1      31.942  18.918  23.940  1.00  0.00    -0.094 F 
ATOM     22  F   UNL A   1      32.736  20.751  22.993  1.00  0.00    -0.094 F 
ATOM     23  F   UNL A   1      34.085  21.062  24.735  1.00  0.00    -0.094 F 
ENDBRANCH  10  18
BRANCH  15  24
ATOM     24  C   UNL A   1      39.366  24.440  26.847  1.00  0.00     0.430 C 
ATOM     25  F   UNL A   1      39.609  23.746  27.956  1.00  0.00    -0.167 F 
ATOM     26  F   UNL A   1      40.518  24.749  26.258  1.00  0.00    -0.167 F 
ATOM     27  F   UNL A   1      38.713  25.555  27.157  1.00  0.00    -0.167 F 
ENDBRANCH  15  24
ENDBRANCH   4   6
ENDBRANCH   3   4
ENDBRANCH   2   3
ENDBRANCH   1   2
BRANCH   1  28
ATOM     28  O   UNL A   1      44.530  22.546  25.812  1.00  0.00    -0.458 OA
BRANCH  28  29
ATOM     29  C   UNL A   1      44.591  23.954  25.631  1.00  0.00     0.338 C 
ATOM     30  O   UNL A   1      45.286  24.443  24.686  1.00  0.00    -0.246 OA
BRANCH  29  31
ATOM     31  C   UNL A   1      43.825  24.875  26.566  1.00  0.00     0.060 A 
ATOM     32  C   UNL A   1      43.961  26.240  26.372  1.00  0.00     0.016 A 
ATOM     33  C   UNL A   1      43.152  24.390  27.604  1.00  0.00     0.016 A 
ATOM     34  C   UNL A   1      43.593  27.018  27.494  1.00  0.00     0.010 A 
ATOM     35  C   UNL A   1      42.704  25.226  28.598  1.00  0.00     0.010 A 
ATOM     36  C   UNL A   1      42.856  26.581  28.500  1.00  0.00    -0.014 A 
BRANCH  36  37
ATOM     37  C   UNL A   1      42.214  27.533  29.494  1.00  0.00     0.031 A 
ATOM     38  C   UNL A   1      41.022  28.202  29.209  1.00  0.00     0.074 A 
ATOM     39  C   UNL A   1      42.854  27.584  30.721  1.00  0.00     0.049 A 
ATOM     40  N   UNL A   1      40.291  28.952  30.034  1.00  0.00    -0.248 NA
ATOM     41  C   UNL A   1      40.357  28.177  27.897  1.00  0.00     0.031 C 
ATOM     42  C   UNL A   1      44.052  26.906  31.020  1.00  0.00     0.029 A 
ATOM     43  N   UNL A   1      42.470  28.278  31.846  1.00  0.00    -0.354 N 
ATOM     44  C   UNL A   1      39.206  29.409  29.405  1.00  0.00     0.074 A 
ATOM     45  C   UNL A   1      39.237  28.922  28.019  1.00  0.00     0.031 C 
ATOM     46  C   UNL A   1      44.392  27.196  32.303  1.00  0.00     0.029 A 
ATOM     47  C   UNL A   1      43.411  28.058  32.829  1.00  0.00     0.049 A 
ATOM     48  H   UNL A   1      41.663  28.833  31.935  1.00  0.00     0.167 HD
ATOM     49  C   UNL A   1      38.194  30.211  29.932  1.00  0.00     0.031 A 
ATOM     50  C   UNL A   1      43.431  28.574  34.115  1.00  0.00     0.031 A 
ATOM     51  C   UNL A   1      38.192  30.692  31.232  1.00  0.00     0.049 A 
ATOM     52  C   UNL A   1      42.447  29.424  34.625  1.00  0.00     0.074 A 
ATOM     53  C   UNL A   1      37.175  31.495  31.782  1.00  0.00     0.029 A 
ATOM     54  N   UNL A   1      39.145  30.493  32.206  1.00  0.00    -0.354 N 
ATOM     55  N   UNL A   1      41.343  29.849  34.008  1.00  0.00    -0.248 NA
ATOM     56  C   UNL A   1      42.475  30.003  35.975  1.00  0.00     0.031 C 
ATOM     57  C   UNL A   1      37.514  31.785  33.067  1.00  0.00     0.029 A 
ATOM     58  C   UNL A   1      38.749  31.168  33.340  1.00  0.00     0.049 A 
ATOM     59  H   UNL A   1      39.968  29.961  32.109  1.00  0.00     0.167 HD
ATOM     60  C   UNL A   1      40.634  30.633  34.822  1.00  0.00     0.074 A 
ATOM     61  C   UNL A   1      41.356  30.750  36.097  1.00  0.00     0.031 C 
ATOM     62  C   UNL A   1      39.413  31.254  34.554  1.00  0.00     0.031 A 
BRANCH  49  63
ATOM     63  C   UNL A   1      37.027  30.579  29.030  1.00  0.00    -0.014 A 
ATOM     64  C   UNL A   1      36.949  31.859  28.508  1.00  0.00     0.009 A 
ATOM     65  C   UNL A   1      36.102  29.666  28.757  1.00  0.00     0.009 A 
ATOM     66  C   UNL A   1      35.693  32.169  27.935  1.00  0.00     0.001 A 
ATOM     67  C   UNL A   1      34.961  30.009  28.074  1.00  0.00     0.001 A 
ATOM     68  C   UNL A   1      34.790  31.273  27.580  1.00  0.00     0.000 A 
ENDBRANCH  49  63
BRANCH  50  69
ATOM     69  C   UNL A   1      44.590  28.193  35.021  1.00  0.00    -0.014 A 
ATOM     70  C   UNL A   1      44.478  27.077  35.834  1.00  0.00     0.009 A 
ATOM     71  C   UNL A   1      45.690  28.937  35.021  1.00  0.00     0.009 A 
ATOM     72  C   UNL A   1      45.479  26.992  36.831  1.00  0.00     0.001 A 
ATOM     73  C   UNL A   1      46.689  28.711  35.937  1.00  0.00     0.001 A 
ATOM     74  C   UNL A   1      46.617  27.661  36.810  1.00  0.00     0.000 A 
ENDBRANCH  50  69
BRANCH  62  75
ATOM     75  C   UNL A   1      38.772  32.074  35.661  1.00  0.00    -0.014 A 
ATOM     76  C   UNL A   1      39.089  33.422  35.710  1.00  0.00     0.009 A 
ATOM     77  C   UNL A   1      38.060  31.499  36.624  1.00  0.00     0.009 A 
ATOM     78  C   UNL A   1      38.855  34.020  36.971  1.00  0.00     0.001 A 
ATOM     79  C   UNL A   1      37.750  32.187  37.771  1.00  0.00     0.001 A 
ATOM     80  C   UNL A   1      38.085  33.505  37.913  1.00  0.00     0.000 A 
ENDBRANCH  62  75
ENDBRANCH  36  37
ENDBRANCH  29  31
ENDBRANCH  28  29
ENDBRANCH   1  28
TORSDOF 14
ENDMDL
MODEL 3
REMARK VINA RESULT:     -11.8      5.845     10.642
REMARK SMILES CCc1cc(S(F)(F)(F)(F)F)cc2c1O[C@@H](C(F)(F)F)C(C(=O)OCCOC(=O)c1ccc(-c3c4nc(c(-c5ccccc5)c5ccc([nH]5)c(-c5ccccc5)c5nc(c(-c6ccccc6)c6ccc3[nH]6)C=C5)C=C4)cc1)=C2
REMARK SMILES IDX 26 1 25 2 24 3 22 4 23 5 21 6 3 7 4 8 14 9 5 10 13 11 15 12
REMARK SMILES IDX 12 13 78 14 16 15 2 16 1 17 6 18 7 19 8 20 9 21 10 22 11 23
REMARK SMILES IDX 17 24 18 25 19 26 20 27 27 28 28 29 29 30 30 31 31 32 77 33
REMARK SMILES IDX 32 34 76 35 33 36 34 37 35 38 70 39 36 40 75 41 69 42 71 43
REMARK SMILES IDX 37 44 74 45 68 46 67 47 38 49 60 50 45 51 59 52 46 53 49 54
REMARK SMILES IDX 58 55 72 56 47 57 48 58 57 60 73 61 50 62 39 63 40 64 44 65
REMARK SMILES IDX 41 66 43 67 42 68 61 69 62 70 66 71 63 72 65 73 64 74 51 75
REMARK SMILES IDX 52 76 56 77 53 78 55 79 54 80
REMARK H PARENT 71 48 49 59
REMARK Flexibility Score: inf
ROOT
ATOM      1  C   UNL A   1      41.832  20.782  27.689  1.00  0.00     0.275 C 
ENDROOT
BRANCH   1   2
ATOM      2  C   UNL A   1      42.198  20.172  26.347  1.00  0.00     0.275 C 
BRANCH   2   3
ATOM      3  O   UNL A   1      43.431  20.717  25.900  1.00  0.00    -0.459 OA
BRANCH   3   4
ATOM      4  C   UNL A   1      43.509  22.084  25.524  1.00  0.00     0.338 C 
ATOM      5  O   UNL A   1      42.756  22.534  24.604  1.00  0.00    -0.246 OA
BRANCH   4   6
ATOM      6  C   UNL A   1      44.493  23.010  26.221  1.00  0.00     0.087 C 
ATOM      7  C   UNL A   1      47.494  25.144  28.193  1.00  0.00    -0.004 A 
ATOM      8  C   UNL A   1      47.258  25.662  29.453  1.00  0.00     0.032 A 
ATOM      9  C   UNL A   1      46.508  24.401  27.589  1.00  0.00     0.131 A 
ATOM     10  C   UNL A   1      46.069  25.438  30.096  1.00  0.00     0.108 A 
ATOM     11  C   UNL A   1      45.288  24.170  28.199  1.00  0.00     0.019 A 
ATOM     12  O   UNL A   1      46.797  23.800  26.389  1.00  0.00    -0.475 OA
ATOM     13  C   UNL A   1      45.086  24.700  29.469  1.00  0.00     0.036 A 
ATOM     14  C   UNL A   1      44.326  23.338  27.497  1.00  0.00     0.027 C 
ATOM     15  C   UNL A   1      45.689  23.581  25.472  1.00  0.00     0.316 C 
BRANCH   7  16
ATOM     16  C   UNL A   1      48.770  25.594  27.502  1.00  0.00     0.036 C 
ATOM     17  C   UNL A   1      49.943  24.780  28.024  1.00  0.00     0.009 C 
ENDBRANCH   7  16
BRANCH  10  18
ATOM     18  S   UNL A   1      45.790  26.104  31.755  1.00  0.00     0.310 S 
ATOM     19  F   UNL A   1      44.408  25.332  31.854  1.00  0.00    -0.094 F 
ATOM     20  F   UNL A   1      45.007  27.274  31.047  1.00  0.00    -0.094 F 
ATOM     21  F   UNL A   1      45.482  26.708  33.155  1.00  0.00    -0.094 F 
ATOM     22  F   UNL A   1      46.456  24.852  32.452  1.00  0.00    -0.094 F 
ATOM     23  F   UNL A   1      46.012  25.421  30.348  1.00  0.00    -0.094 F 
ENDBRANCH  10  18
BRANCH  15  24
ATOM     24  C   UNL A   1      46.120  22.593  24.400  1.00  0.00     0.430 C 
ATOM     25  F   UNL A   1      46.270  21.388  24.942  1.00  0.00    -0.167 F 
ATOM     26  F   UNL A   1      45.191  22.538  23.449  1.00  0.00    -0.167 F 
ATOM     27  F   UNL A   1      47.274  22.988  23.870  1.00  0.00    -0.167 F 
ENDBRANCH  15  24
ENDBRANCH   4   6
ENDBRANCH   3   4
ENDBRANCH   2   3
ENDBRANCH   1   2
BRANCH   1  28
ATOM     28  O   UNL A   1      40.482  21.219  27.658  1.00  0.00    -0.458 OA
BRANCH  28  29
ATOM     29  C   UNL A   1      40.092  22.258  26.771  1.00  0.00     0.338 C 
ATOM     30  O   UNL A   1      39.420  21.983  25.728  1.00  0.00    -0.246 OA
BRANCH  29  31
ATOM     31  C   UNL A   1      40.478  23.698  27.069  1.00  0.00     0.060 A 
ATOM     32  C   UNL A   1      40.963  23.979  28.336  1.00  0.00     0.016 A 
ATOM     33  C   UNL A   1      40.243  24.665  26.190  1.00  0.00     0.016 A 
ATOM     34  C   UNL A   1      40.895  25.348  28.684  1.00  0.00     0.010 A 
ATOM     35  C   UNL A   1      40.328  25.984  26.565  1.00  0.00     0.010 A 
ATOM     36  C   UNL A   1      40.743  26.334  27.819  1.00  0.00    -0.014 A 
BRANCH  36  37
ATOM     37  C   UNL A   1      41.015  27.780  28.199  1.00  0.00     0.031 A 
ATOM     38  C   UNL A   1      39.996  28.634  28.625  1.00  0.00     0.074 A 
ATOM     39  C   UNL A   1      42.356  28.124  28.185  1.00  0.00     0.049 A 
ATOM     40  N   UNL A   1      40.118  29.870  29.109  1.00  0.00    -0.248 NA
ATOM     41  C   UNL A   1      38.568  28.284  28.609  1.00  0.00     0.031 C 
ATOM     42  C   UNL A   1      43.391  27.267  27.764  1.00  0.00     0.029 A 
ATOM     43  N   UNL A   1      42.926  29.321  28.560  1.00  0.00    -0.354 N 
ATOM     44  C   UNL A   1      38.919  30.362  29.428  1.00  0.00     0.074 A 
ATOM     45  C   UNL A   1      37.904  29.351  29.106  1.00  0.00     0.031 C 
ATOM     46  C   UNL A   1      44.567  27.940  27.873  1.00  0.00     0.029 A 
ATOM     47  C   UNL A   1      44.287  29.229  28.364  1.00  0.00     0.049 A 
ATOM     48  H   UNL A   1      42.445  30.105  28.908  1.00  0.00     0.167 HD
ATOM     49  C   UNL A   1      38.633  31.613  29.977  1.00  0.00     0.031 A 
ATOM     50  C   UNL A   1      45.244  30.204  28.594  1.00  0.00     0.031 A 
ATOM     51  C   UNL A   1      39.597  32.572  30.247  1.00  0.00     0.049 A 
ATOM     52  C   UNL A   1      44.952  31.477  29.089  1.00  0.00     0.074 A 
ATOM     53  C   UNL A   1      39.326  33.836  30.807  1.00  0.00     0.029 A 
ATOM     54  N   UNL A   1      40.954  32.490  30.029  1.00  0.00    -0.354 N 
ATOM     55  N   UNL A   1      43.758  31.954  29.445  1.00  0.00    -0.248 NA
ATOM     56  C   UNL A   1      45.955  32.528  29.305  1.00  0.00     0.031 C 
ATOM     57  C   UNL A   1      40.503  34.509  30.917  1.00  0.00     0.029 A 
ATOM     58  C   UNL A   1      41.527  33.678  30.426  1.00  0.00     0.049 A 
ATOM     59  H   UNL A   1      41.432  31.715  29.654  1.00  0.00     0.167 HD
ATOM     60  C   UNL A   1      43.877  33.206  29.890  1.00  0.00     0.074 A 
ATOM     61  C   UNL A   1      45.292  33.597  29.800  1.00  0.00     0.031 C 
ATOM     62  C   UNL A   1      42.865  34.037  30.370  1.00  0.00     0.031 A 
BRANCH  49  63
ATOM     63  C   UNL A   1      37.184  31.942  30.296  1.00  0.00    -0.014 A 
ATOM     64  C   UNL A   1      36.393  32.536  29.326  1.00  0.00     0.009 A 
ATOM     65  C   UNL A   1      36.700  31.654  31.498  1.00  0.00     0.009 A 
ATOM     66  C   UNL A   1      35.173  33.055  29.820  1.00  0.00     0.001 A 
ATOM     67  C   UNL A   1      35.446  32.077  31.866  1.00  0.00     0.001 A 
ATOM     68  C   UNL A   1      34.631  32.722  30.977  1.00  0.00     0.000 A 
ENDBRANCH  49  63
BRANCH  50  69
ATOM     69  C   UNL A   1      46.696  29.868  28.290  1.00  0.00    -0.014 A 
ATOM     70  C   UNL A   1      47.170  30.017  26.997  1.00  0.00     0.009 A 
ATOM     71  C   UNL A   1      47.484  29.436  29.268  1.00  0.00     0.009 A 
ATOM     72  C   UNL A   1      48.427  29.405  26.774  1.00  0.00     0.001 A 
ATOM     73  C   UNL A   1      48.751  28.979  28.995  1.00  0.00     0.001 A 
ATOM     74  C   UNL A   1      49.263  29.041  27.729  1.00  0.00     0.000 A 
ENDBRANCH  50  69
BRANCH  62  75
ATOM     75  C   UNL A   1      43.252  35.422  30.863  1.00  0.00    -0.014 A 
ATOM     76  C   UNL A   1      43.400  36.413  29.907  1.00  0.00     0.009 A 
ATOM     77  C   UNL A   1      43.579  35.637  32.133  1.00  0.00     0.009 A 
ATOM     78  C   UNL A   1      44.179  37.513  30.336  1.00  0.00     0.001 A 
ATOM     79  C   UNL A   1      44.218  36.794  32.504  1.00  0.00     0.001 A 
ATOM     80  C   UNL A   1      44.450  37.792  31.598  1.00  0.00     0.000 A 
ENDBRANCH  62  75
ENDBRANCH  36  37
ENDBRANCH  29  31
ENDBRANCH  28  29
ENDBRANCH   1  28
TORSDOF 14
ENDMDL
