MODEL 1
REMARK VINA RESULT:     -10.6      0.000      0.000
REMARK SMILES CC(C)CSc1cc2c(cc1Cl)C=C(C(=O)OCCOC(=O)c1ccc(-c3c4nc(c(-c5ccccc5)c5ccc([nH]5)c(-c5ccccc5)c5nc(c(-c6ccccc6)c6ccc3[nH]6)C=C5)C=C4)cc1)[C@@H](C(F)(F)F)O2
REMARK SMILES IDX 18 1 17 2 15 3 16 4 14 5 6 6 7 7 11 8 8 9 10 10 12 11 9 12
REMARK SMILES IDX 76 13 13 14 71 15 5 16 4 17 2 18 1 19 3 20 72 21 73 22 74 23
REMARK SMILES IDX 75 24 19 25 20 26 21 27 22 28 23 29 24 30 70 31 25 32 69 33
REMARK SMILES IDX 26 34 27 35 28 36 63 37 29 38 68 39 62 40 64 41 30 42 67 43
REMARK SMILES IDX 61 44 60 45 31 47 53 48 38 49 52 50 39 51 42 52 51 53 65 54
REMARK SMILES IDX 40 55 41 56 50 58 66 59 43 60 32 61 33 62 37 63 34 64 36 65
REMARK SMILES IDX 35 66 54 67 55 68 59 69 56 70 58 71 57 72 44 73 45 74 49 75
REMARK SMILES IDX 46 76 48 77 47 78
REMARK H PARENT 64 46 42 57
REMARK Flexibility Score: inf
ROOT
ATOM      1  C   UNL A   1      35.753  20.210  24.979  1.00  0.00     0.275 C 
ENDROOT
BRANCH   1   2
ATOM      2  O   UNL A   1      35.035  21.235  24.253  1.00  0.00    -0.459 OA
BRANCH   2   3
ATOM      3  C   UNL A   1      33.718  21.331  24.542  1.00  0.00     0.338 C 
ATOM      4  O   UNL A   1      32.906  20.417  24.557  1.00  0.00    -0.246 OA
BRANCH   3   5
ATOM      5  C   UNL A   1      33.351  22.718  24.883  1.00  0.00     0.087 C 
ATOM      6  C   UNL A   1      33.182  27.744  25.047  1.00  0.00     0.030 A 
ATOM      7  C   UNL A   1      32.850  26.719  25.952  1.00  0.00     0.063 A 
ATOM      8  C   UNL A   1      33.678  27.391  23.780  1.00  0.00     0.055 A 
ATOM      9  C   UNL A   1      32.966  25.377  25.591  1.00  0.00     0.129 A 
ATOM     10  C   UNL A   1      33.807  26.050  23.425  1.00  0.00     0.033 A 
ATOM     11  Cl  UNL A   1      34.127  28.560  22.583  1.00  0.00    -0.083 Cl
ATOM     12  C   UNL A   1      33.452  25.048  24.332  1.00  0.00     0.019 A 
ATOM     13  O   UNL A   1      32.567  24.449  26.511  1.00  0.00    -0.475 OA
ATOM     14  C   UNL A   1      33.636  23.660  23.979  1.00  0.00     0.027 C 
ATOM     15  C   UNL A   1      32.832  23.034  26.258  1.00  0.00     0.316 C 
BRANCH   6  16
ATOM     16  S   UNL A   1      32.965  29.456  25.520  1.00  0.00    -0.124 SA
BRANCH  16  17
ATOM     17  C   UNL A   1      33.129  29.382  27.339  1.00  0.00     0.078 C 
BRANCH  17  18
ATOM     18  C   UNL A   1      34.453  29.911  27.920  1.00  0.00    -0.007 C 
ATOM     19  C   UNL A   1      35.704  29.312  27.272  1.00  0.00     0.008 C 
ATOM     20  C   UNL A   1      34.491  31.433  27.740  1.00  0.00     0.008 C 
ENDBRANCH  17  18
ENDBRANCH  16  17
ENDBRANCH   6  16
BRANCH  15  21
ATOM     21  C   UNL A   1      33.779  22.518  27.353  1.00  0.00     0.430 C 
ATOM     22  F   UNL A   1      33.731  21.168  27.448  1.00  0.00    -0.167 F 
ATOM     23  F   UNL A   1      35.068  22.841  27.091  1.00  0.00    -0.167 F 
ATOM     24  F   UNL A   1      33.471  23.023  28.568  1.00  0.00    -0.167 F 
ENDBRANCH  15  21
ENDBRANCH   3   5
ENDBRANCH   2   3
ENDBRANCH   1   2
BRANCH   1  25
ATOM     25  C   UNL A   1      37.266  20.339  24.800  1.00  0.00     0.275 C 
BRANCH  25  26
ATOM     26  O   UNL A   1      37.790  21.389  25.635  1.00  0.00    -0.458 OA
BRANCH  26  27
ATOM     27  C   UNL A   1      39.051  21.199  26.081  1.00  0.00     0.338 C 
ATOM     28  O   UNL A   1      39.748  20.208  25.951  1.00  0.00    -0.246 OA
BRANCH  27  29
ATOM     29  C   UNL A   1      39.549  22.440  26.693  1.00  0.00     0.060 A 
ATOM     30  C   UNL A   1      40.656  22.446  27.531  1.00  0.00     0.016 A 
ATOM     31  C   UNL A   1      38.988  23.639  26.273  1.00  0.00     0.016 A 
ATOM     32  C   UNL A   1      41.186  23.675  27.946  1.00  0.00     0.010 A 
ATOM     33  C   UNL A   1      39.607  24.851  26.556  1.00  0.00     0.010 A 
ATOM     34  C   UNL A   1      40.697  24.895  27.430  1.00  0.00    -0.014 A 
BRANCH  34  35
ATOM     35  C   UNL A   1      41.313  26.203  27.794  1.00  0.00     0.031 A 
ATOM     36  C   UNL A   1      42.656  26.619  27.238  1.00  0.00     0.074 A 
ATOM     37  C   UNL A   1      40.683  27.016  28.668  1.00  0.00     0.049 A 
ATOM     38  N   UNL A   1      43.315  27.737  27.426  1.00  0.00    -0.248 NA
ATOM     39  C   UNL A   1      43.375  25.647  26.395  1.00  0.00     0.031 C 
ATOM     40  C   UNL A   1      39.434  26.701  29.368  1.00  0.00     0.029 A 
ATOM     41  N   UNL A   1      40.990  28.283  29.101  1.00  0.00    -0.354 N 
ATOM     42  C   UNL A   1      44.524  27.584  26.756  1.00  0.00     0.074 A 
ATOM     43  C   UNL A   1      44.543  26.246  26.215  1.00  0.00     0.031 C 
ATOM     44  C   UNL A   1      39.038  27.776  30.065  1.00  0.00     0.029 A 
ATOM     45  C   UNL A   1      40.022  28.841  29.903  1.00  0.00     0.049 A 
ATOM     46  H   UNL A   1      41.825  28.748  28.860  1.00  0.00     0.167 HD
ATOM     47  C   UNL A   1      45.514  28.489  26.565  1.00  0.00     0.031 A 
ATOM     48  C   UNL A   1      39.919  30.076  30.429  1.00  0.00     0.031 A 
ATOM     49  C   UNL A   1      45.473  29.841  27.048  1.00  0.00     0.049 A 
ATOM     50  C   UNL A   1      40.991  31.090  30.147  1.00  0.00     0.074 A 
ATOM     51  C   UNL A   1      46.382  30.859  26.828  1.00  0.00     0.029 A 
ATOM     52  N   UNL A   1      44.462  30.366  27.836  1.00  0.00    -0.354 N 
ATOM     53  N   UNL A   1      42.082  30.955  29.433  1.00  0.00    -0.248 NA
ATOM     54  C   UNL A   1      40.813  32.428  30.729  1.00  0.00     0.031 C 
ATOM     55  C   UNL A   1      45.944  31.991  27.518  1.00  0.00     0.029 A 
ATOM     56  C   UNL A   1      44.732  31.692  28.120  1.00  0.00     0.049 A 
ATOM     57  H   UNL A   1      43.670  29.870  28.146  1.00  0.00     0.167 HD
ATOM     58  C   UNL A   1      42.713  32.191  29.467  1.00  0.00     0.074 A 
ATOM     59  C   UNL A   1      41.874  33.071  30.253  1.00  0.00     0.031 C 
ATOM     60  C   UNL A   1      43.887  32.559  28.901  1.00  0.00     0.031 A 
BRANCH  47  61
ATOM     61  C   UNL A   1      46.715  28.065  25.760  1.00  0.00    -0.014 A 
ATOM     62  C   UNL A   1      46.662  28.077  24.357  1.00  0.00     0.009 A 
ATOM     63  C   UNL A   1      47.870  27.574  26.390  1.00  0.00     0.009 A 
ATOM     64  C   UNL A   1      47.737  27.602  23.603  1.00  0.00     0.001 A 
ATOM     65  C   UNL A   1      48.956  27.131  25.633  1.00  0.00     0.001 A 
ATOM     66  C   UNL A   1      48.885  27.135  24.242  1.00  0.00     0.000 A 
ENDBRANCH  47  61
BRANCH  48  67
ATOM     67  C   UNL A   1      38.704  30.437  31.209  1.00  0.00    -0.014 A 
ATOM     68  C   UNL A   1      37.526  30.840  30.561  1.00  0.00     0.009 A 
ATOM     69  C   UNL A   1      38.741  30.441  32.612  1.00  0.00     0.009 A 
ATOM     70  C   UNL A   1      36.419  31.264  31.302  1.00  0.00     0.001 A 
ATOM     71  C   UNL A   1      37.623  30.837  33.350  1.00  0.00     0.001 A 
ATOM     72  C   UNL A   1      36.467  31.258  32.695  1.00  0.00     0.000 A 
ENDBRANCH  48  67
BRANCH  60  73
ATOM     73  C   UNL A   1      44.349  33.976  29.089  1.00  0.00    -0.014 A 
ATOM     74  C   UNL A   1      43.995  34.954  28.145  1.00  0.00     0.009 A 
ATOM     75  C   UNL A   1      45.231  34.314  30.126  1.00  0.00     0.009 A 
ATOM     76  C   UNL A   1      44.531  36.240  28.227  1.00  0.00     0.001 A 
ATOM     77  C   UNL A   1      45.743  35.609  30.219  1.00  0.00     0.001 A 
ATOM     78  C   UNL A   1      45.401  36.567  29.264  1.00  0.00     0.000 A 
ENDBRANCH  60  73
ENDBRANCH  34  35
ENDBRANCH  27  29
ENDBRANCH  26  27
ENDBRANCH  25  26
ENDBRANCH   1  25
TORSDOF 15
ENDMDL
MODEL 2
REMARK VINA RESULT:     -10.5      1.837      2.400
REMARK SMILES CC(C)CSc1cc2c(cc1Cl)C=C(C(=O)OCCOC(=O)c1ccc(-c3c4nc(c(-c5ccccc5)c5ccc([nH]5)c(-c5ccccc5)c5nc(c(-c6ccccc6)c6ccc3[nH]6)C=C5)C=C4)cc1)[C@@H](C(F)(F)F)O2
REMARK SMILES IDX 18 1 17 2 15 3 16 4 14 5 6 6 7 7 11 8 8 9 10 10 12 11 9 12
REMARK SMILES IDX 76 13 13 14 71 15 5 16 4 17 2 18 1 19 3 20 72 21 73 22 74 23
REMARK SMILES IDX 75 24 19 25 20 26 21 27 22 28 23 29 24 30 70 31 25 32 69 33
REMARK SMILES IDX 26 34 27 35 28 36 63 37 29 38 68 39 62 40 64 41 30 42 67 43
REMARK SMILES IDX 61 44 60 45 31 47 53 48 38 49 52 50 39 51 42 52 51 53 65 54
REMARK SMILES IDX 40 55 41 56 50 58 66 59 43 60 32 61 33 62 37 63 34 64 36 65
REMARK SMILES IDX 35 66 54 67 55 68 59 69 56 70 58 71 57 72 44 73 45 74 49 75
REMARK SMILES IDX 46 76 48 77 47 78
REMARK H PARENT 64 46 42 57
REMARK Flexibility Score: inf
ROOT
ATOM      1  C   UNL A   1      35.246  20.716  25.015  1.00  0.00     0.275 C 
ENDROOT
BRANCH   1   2
ATOM      2  O   UNL A   1      35.092  22.109  24.656  1.00  0.00    -0.459 OA
BRANCH   2   3
ATOM      3  C   UNL A   1      34.711  22.926  25.664  1.00  0.00     0.338 C 
ATOM      4  O   UNL A   1      34.956  22.781  26.852  1.00  0.00    -0.246 OA
BRANCH   3   5
ATOM      5  C   UNL A   1      33.956  24.084  25.149  1.00  0.00     0.087 C 
ATOM      6  C   UNL A   1      31.745  28.585  24.744  1.00  0.00     0.030 A 
ATOM      7  C   UNL A   1      31.524  27.324  24.159  1.00  0.00     0.063 A 
ATOM      8  C   UNL A   1      32.801  28.728  25.661  1.00  0.00     0.055 A 
ATOM      9  C   UNL A   1      32.359  26.244  24.443  1.00  0.00     0.129 A 
ATOM     10  C   UNL A   1      33.627  27.644  25.955  1.00  0.00     0.033 A 
ATOM     11  Cl  UNL A   1      33.169  30.224  26.452  1.00  0.00    -0.083 Cl
ATOM     12  C   UNL A   1      33.401  26.407  25.346  1.00  0.00     0.019 A 
ATOM     13  O   UNL A   1      32.106  25.073  23.786  1.00  0.00    -0.475 OA
ATOM     14  C   UNL A   1      34.227  25.274  25.694  1.00  0.00     0.027 C 
ATOM     15  C   UNL A   1      32.832  23.866  24.175  1.00  0.00     0.316 C 
BRANCH   6  16
ATOM     16  S   UNL A   1      30.692  29.966  24.312  1.00  0.00    -0.124 SA
BRANCH  16  17
ATOM     17  C   UNL A   1      29.692  29.281  22.944  1.00  0.00     0.078 C 
BRANCH  17  18
ATOM     18  C   UNL A   1      28.287  29.886  22.765  1.00  0.00    -0.007 C 
ATOM     19  C   UNL A   1      28.005  30.407  21.353  1.00  0.00     0.008 C 
ATOM     20  C   UNL A   1      27.247  28.811  23.104  1.00  0.00     0.008 C 
ENDBRANCH  17  18
ENDBRANCH  16  17
ENDBRANCH   6  16
BRANCH  15  21
ATOM     21  C   UNL A   1      31.816  22.842  24.704  1.00  0.00     0.430 C 
ATOM     22  F   UNL A   1      32.084  21.598  24.241  1.00  0.00    -0.167 F 
ATOM     23  F   UNL A   1      31.842  22.765  26.056  1.00  0.00    -0.167 F 
ATOM     24  F   UNL A   1      30.551  23.149  24.339  1.00  0.00    -0.167 F 
ENDBRANCH  15  21
ENDBRANCH   3   5
ENDBRANCH   2   3
ENDBRANCH   1   2
BRANCH   1  25
ATOM     25  C   UNL A   1      36.712  20.281  25.000  1.00  0.00     0.275 C 
BRANCH  25  26
ATOM     26  O   UNL A   1      37.579  21.404  25.249  1.00  0.00    -0.458 OA
BRANCH  26  27
ATOM     27  C   UNL A   1      38.767  21.103  25.818  1.00  0.00     0.338 C 
ATOM     28  O   UNL A   1      39.371  20.045  25.770  1.00  0.00    -0.246 OA
BRANCH  27  29
ATOM     29  C   UNL A   1      39.325  22.303  26.457  1.00  0.00     0.060 A 
ATOM     30  C   UNL A   1      40.487  22.251  27.216  1.00  0.00     0.016 A 
ATOM     31  C   UNL A   1      38.756  23.530  26.140  1.00  0.00     0.016 A 
ATOM     32  C   UNL A   1      41.064  23.450  27.657  1.00  0.00     0.010 A 
ATOM     33  C   UNL A   1      39.412  24.717  26.443  1.00  0.00     0.010 A 
ATOM     34  C   UNL A   1      40.559  24.701  27.240  1.00  0.00    -0.014 A 
BRANCH  34  35
ATOM     35  C   UNL A   1      41.220  25.981  27.628  1.00  0.00     0.031 A 
ATOM     36  C   UNL A   1      42.573  26.364  27.073  1.00  0.00     0.074 A 
ATOM     37  C   UNL A   1      40.621  26.795  28.522  1.00  0.00     0.049 A 
ATOM     38  N   UNL A   1      43.269  27.456  27.282  1.00  0.00    -0.248 NA
ATOM     39  C   UNL A   1      43.256  25.388  26.207  1.00  0.00     0.031 C 
ATOM     40  C   UNL A   1      39.366  26.506  29.222  1.00  0.00     0.029 A 
ATOM     41  N   UNL A   1      40.972  28.042  28.981  1.00  0.00    -0.354 N 
ATOM     42  C   UNL A   1      44.470  27.278  26.602  1.00  0.00     0.074 A 
ATOM     43  C   UNL A   1      44.442  25.952  26.033  1.00  0.00     0.031 C 
ATOM     44  C   UNL A   1      39.008  27.578  29.944  1.00  0.00     0.029 A 
ATOM     45  C   UNL A   1      40.026  28.614  29.799  1.00  0.00     0.049 A 
ATOM     46  H   UNL A   1      41.820  28.484  28.745  1.00  0.00     0.167 HD
ATOM     47  C   UNL A   1      45.487  28.154  26.424  1.00  0.00     0.031 A 
ATOM     48  C   UNL A   1      39.966  29.840  30.352  1.00  0.00     0.031 A 
ATOM     49  C   UNL A   1      45.493  29.496  26.936  1.00  0.00     0.049 A 
ATOM     50  C   UNL A   1      41.069  30.824  30.085  1.00  0.00     0.074 A 
ATOM     51  C   UNL A   1      46.434  30.489  26.732  1.00  0.00     0.029 A 
ATOM     52  N   UNL A   1      44.503  30.038  27.741  1.00  0.00    -0.354 N 
ATOM     53  N   UNL A   1      42.152  30.669  29.363  1.00  0.00    -0.248 NA
ATOM     54  C   UNL A   1      40.938  32.155  30.697  1.00  0.00     0.031 C 
ATOM     55  C   UNL A   1      46.036  31.620  27.449  1.00  0.00     0.029 A 
ATOM     56  C   UNL A   1      44.818  31.348  28.051  1.00  0.00     0.049 A 
ATOM     57  H   UNL A   1      43.697  29.561  28.044  1.00  0.00     0.167 HD
ATOM     58  C   UNL A   1      42.823  31.884  29.419  1.00  0.00     0.074 A 
ATOM     59  C   UNL A   1      42.016  32.773  30.228  1.00  0.00     0.031 C 
ATOM     60  C   UNL A   1      44.005  32.224  28.854  1.00  0.00     0.031 A 
BRANCH  47  61
ATOM     61  C   UNL A   1      46.670  27.709  25.604  1.00  0.00    -0.014 A 
ATOM     62  C   UNL A   1      46.685  27.923  24.217  1.00  0.00     0.009 A 
ATOM     63  C   UNL A   1      47.732  27.002  26.192  1.00  0.00     0.009 A 
ATOM     64  C   UNL A   1      47.735  27.435  23.435  1.00  0.00     0.001 A 
ATOM     65  C   UNL A   1      48.796  26.544  25.413  1.00  0.00     0.001 A 
ATOM     66  C   UNL A   1      48.792  26.751  24.035  1.00  0.00     0.000 A 
ENDBRANCH  47  61
BRANCH  48  67
ATOM     67  C   UNL A   1      38.767  30.224  31.146  1.00  0.00    -0.014 A 
ATOM     68  C   UNL A   1      37.623  30.742  30.519  1.00  0.00     0.009 A 
ATOM     69  C   UNL A   1      38.789  30.133  32.546  1.00  0.00     0.009 A 
ATOM     70  C   UNL A   1      36.537  31.183  31.278  1.00  0.00     0.001 A 
ATOM     71  C   UNL A   1      37.690  30.549  33.301  1.00  0.00     0.001 A 
ATOM     72  C   UNL A   1      36.569  31.083  32.668  1.00  0.00     0.000 A 
ENDBRANCH  48  67
BRANCH  60  73
ATOM     73  C   UNL A   1      44.514  33.621  29.070  1.00  0.00    -0.014 A 
ATOM     74  C   UNL A   1      44.207  34.625  28.137  1.00  0.00     0.009 A 
ATOM     75  C   UNL A   1      45.395  33.913  30.122  1.00  0.00     0.009 A 
ATOM     76  C   UNL A   1      44.786  35.890  28.245  1.00  0.00     0.001 A 
ATOM     77  C   UNL A   1      45.950  35.187  30.241  1.00  0.00     0.001 A 
ATOM     78  C   UNL A   1      45.654  36.171  29.297  1.00  0.00     0.000 A 
ENDBRANCH  60  73
ENDBRANCH  34  35
ENDBRANCH  27  29
ENDBRANCH  26  27
ENDBRANCH  25  26
ENDBRANCH   1  25
TORSDOF 15
ENDMDL
MODEL 3
REMARK VINA RESULT:     -10.4      2.603      3.483
REMARK SMILES CC(C)CSc1cc2c(cc1Cl)C=C(C(=O)OCCOC(=O)c1ccc(-c3c4nc(c(-c5ccccc5)c5ccc([nH]5)c(-c5ccccc5)c5nc(c(-c6ccccc6)c6ccc3[nH]6)C=C5)C=C4)cc1)[C@@H](C(F)(F)F)O2
REMARK SMILES IDX 18 1 17 2 15 3 16 4 14 5 6 6 7 7 11 8 8 9 10 10 12 11 9 12
REMARK SMILES IDX 76 13 13 14 71 15 5 16 4 17 2 18 1 19 3 20 72 21 73 22 74 23
REMARK SMILES IDX 75 24 19 25 20 26 21 27 22 28 23 29 24 30 70 31 25 32 69 33
REMARK SMILES IDX 26 34 27 35 28 36 63 37 29 38 68 39 62 40 64 41 30 42 67 43
REMARK SMILES IDX 61 44 60 45 31 47 53 48 38 49 52 50 39 51 42 52 51 53 65 54
REMARK SMILES IDX 40 55 41 56 50 58 66 59 43 60 32 61 33 62 37 63 34 64 36 65
REMARK SMILES IDX 35 66 54 67 55 68 59 69 56 70 58 71 57 72 44 73 45 74 49 75
REMARK SMILES IDX 46 76 48 77 47 78
REMARK H PARENT 64 46 42 57
REMARK Flexibility Score: inf
ROOT
ATOM      1  C   UNL A   1      37.709  21.277  25.084  1.00  0.00     0.275 C 
ENDROOT
BRANCH   1   2
ATOM      2  O   UNL A   1      36.322  21.035  24.754  1.00  0.00    -0.459 OA
BRANCH   2   3
ATOM      3  C   UNL A   1      35.423  21.699  25.515  1.00  0.00     0.338 C 
ATOM      4  O   UNL A   1      35.115  21.443  26.670  1.00  0.00    -0.246 OA
BRANCH   3   5
ATOM      5  C   UNL A   1      34.846  22.839  24.778  1.00  0.00     0.087 C 
ATOM      6  C   UNL A   1      32.815  27.302  23.652  1.00  0.00     0.030 A 
ATOM      7  C   UNL A   1      32.791  26.031  23.050  1.00  0.00     0.063 A 
ATOM      8  C   UNL A   1      33.547  27.473  24.840  1.00  0.00     0.055 A 
ATOM      9  C   UNL A   1      33.513  24.967  23.589  1.00  0.00     0.129 A 
ATOM     10  C   UNL A   1      34.257  26.405  25.387  1.00  0.00     0.033 A 
ATOM     11  Cl  UNL A   1      33.647  28.985  25.679  1.00  0.00    -0.083 Cl
ATOM     12  C   UNL A   1      34.235  25.156  24.760  1.00  0.00     0.019 A 
ATOM     13  O   UNL A   1      33.480  23.783  22.907  1.00  0.00    -0.475 OA
ATOM     14  C   UNL A   1      34.930  24.040  25.358  1.00  0.00     0.027 C 
ATOM     15  C   UNL A   1      34.067  22.592  23.516  1.00  0.00     0.316 C 
BRANCH   6  16
ATOM     16  S   UNL A   1      31.927  28.662  22.901  1.00  0.00    -0.124 SA
BRANCH  16  17
ATOM     17  C   UNL A   1      30.260  28.489  23.631  1.00  0.00     0.078 C 
BRANCH  17  18
ATOM     18  C   UNL A   1      29.200  29.495  23.142  1.00  0.00    -0.007 C 
ATOM     19  C   UNL A   1      29.571  30.212  21.842  1.00  0.00     0.008 C 
ATOM     20  C   UNL A   1      27.880  28.745  22.927  1.00  0.00     0.008 C 
ENDBRANCH  17  18
ENDBRANCH  16  17
ENDBRANCH   6  16
BRANCH  15  21
ATOM     21  C   UNL A   1      32.948  21.561  23.735  1.00  0.00     0.430 C 
ATOM     22  F   UNL A   1      32.357  21.725  24.942  1.00  0.00    -0.167 F 
ATOM     23  F   UNL A   1      31.969  21.682  22.806  1.00  0.00    -0.167 F 
ATOM     24  F   UNL A   1      33.410  20.292  23.676  1.00  0.00    -0.167 F 
ENDBRANCH  15  21
ENDBRANCH   3   5
ENDBRANCH   2   3
ENDBRANCH   1   2
BRANCH   1  25
ATOM     25  C   UNL A   1      38.536  19.990  25.055  1.00  0.00     0.275 C 
BRANCH  25  26
ATOM     26  O   UNL A   1      39.301  19.849  26.267  1.00  0.00    -0.458 OA
BRANCH  26  27
ATOM     27  C   UNL A   1      40.640  19.785  26.102  1.00  0.00     0.338 C 
ATOM     28  O   UNL A   1      41.283  18.910  25.548  1.00  0.00    -0.246 OA
BRANCH  27  29
ATOM     29  C   UNL A   1      41.258  21.018  26.610  1.00  0.00     0.060 A 
ATOM     30  C   UNL A   1      41.646  22.045  25.758  1.00  0.00     0.016 A 
ATOM     31  C   UNL A   1      41.288  21.208  27.985  1.00  0.00     0.016 A 
ATOM     32  C   UNL A   1      42.071  23.261  26.310  1.00  0.00     0.010 A 
ATOM     33  C   UNL A   1      41.557  22.461  28.524  1.00  0.00     0.010 A 
ATOM     34  C   UNL A   1      41.990  23.501  27.699  1.00  0.00    -0.014 A 
BRANCH  34  35
ATOM     35  C   UNL A   1      42.353  24.823  28.287  1.00  0.00     0.031 A 
ATOM     36  C   UNL A   1      43.782  25.151  28.657  1.00  0.00     0.074 A 
ATOM     37  C   UNL A   1      41.385  25.730  28.533  1.00  0.00     0.049 A 
ATOM     38  N   UNL A   1      44.271  26.265  29.145  1.00  0.00    -0.248 NA
ATOM     39  C   UNL A   1      44.788  24.086  28.500  1.00  0.00     0.031 C 
ATOM     40  C   UNL A   1      39.950  25.514  28.328  1.00  0.00     0.029 A 
ATOM     41  N   UNL A   1      41.459  27.025  28.987  1.00  0.00    -0.354 N 
ATOM     42  C   UNL A   1      45.620  26.020  29.377  1.00  0.00     0.074 A 
ATOM     43  C   UNL A   1      45.863  24.637  29.046  1.00  0.00     0.031 C 
ATOM     44  C   UNL A   1      39.294  26.660  28.565  1.00  0.00     0.029 A 
ATOM     45  C   UNL A   1      40.250  27.680  28.983  1.00  0.00     0.049 A 
ATOM     46  H   UNL A   1      42.299  27.444  29.287  1.00  0.00     0.167 HD
ATOM     47  C   UNL A   1      46.585  26.878  29.785  1.00  0.00     0.031 A 
ATOM     48  C   UNL A   1      39.942  28.962  29.257  1.00  0.00     0.031 A 
ATOM     49  C   UNL A   1      46.362  28.271  30.058  1.00  0.00     0.049 A 
ATOM     50  C   UNL A   1      41.036  29.918  29.639  1.00  0.00     0.074 A 
ATOM     51  C   UNL A   1      47.291  29.241  30.387  1.00  0.00     0.029 A 
ATOM     52  N   UNL A   1      45.125  28.893  30.018  1.00  0.00    -0.354 N 
ATOM     53  N   UNL A   1      42.321  29.689  29.762  1.00  0.00    -0.248 NA
ATOM     54  C   UNL A   1      40.644  31.310  29.904  1.00  0.00     0.031 C 
ATOM     55  C   UNL A   1      46.611  30.444  30.588  1.00  0.00     0.029 A 
ATOM     56  C   UNL A   1      45.266  30.233  30.328  1.00  0.00     0.049 A 
ATOM     57  H   UNL A   1      44.274  28.449  29.801  1.00  0.00     0.167 HD
ATOM     58  C   UNL A   1      42.892  30.908  30.105  1.00  0.00     0.074 A 
ATOM     59  C   UNL A   1      41.819  31.878  30.149  1.00  0.00     0.031 C 
ATOM     60  C   UNL A   1      44.191  31.190  30.365  1.00  0.00     0.031 A 
BRANCH  47  61
ATOM     61  C   UNL A   1      47.990  26.351  29.924  1.00  0.00    -0.014 A 
ATOM     62  C   UNL A   1      48.824  26.268  28.798  1.00  0.00     0.009 A 
ATOM     63  C   UNL A   1      48.459  25.856  31.151  1.00  0.00     0.009 A 
ATOM     64  C   UNL A   1      50.096  25.697  28.897  1.00  0.00     0.001 A 
ATOM     65  C   UNL A   1      49.742  25.317  31.255  1.00  0.00     0.001 A 
ATOM     66  C   UNL A   1      50.555  25.229  30.127  1.00  0.00     0.000 A 
ENDBRANCH  47  61
BRANCH  48  67
ATOM     67  C   UNL A   1      38.537  29.425  29.095  1.00  0.00    -0.014 A 
ATOM     68  C   UNL A   1      37.643  29.407  30.177  1.00  0.00     0.009 A 
ATOM     69  C   UNL A   1      38.068  29.827  27.835  1.00  0.00     0.009 A 
ATOM     70  C   UNL A   1      36.303  29.757  29.994  1.00  0.00     0.001 A 
ATOM     71  C   UNL A   1      36.734  30.204  27.662  1.00  0.00     0.001 A 
ATOM     72  C   UNL A   1      35.850  30.159  28.738  1.00  0.00     0.000 A 
ENDBRANCH  48  67
BRANCH  60  73
ATOM     73  C   UNL A   1      44.549  32.607  30.714  1.00  0.00    -0.014 A 
ATOM     74  C   UNL A   1      44.477  33.034  32.050  1.00  0.00     0.009 A 
ATOM     75  C   UNL A   1      44.834  33.546  29.711  1.00  0.00     0.009 A 
ATOM     76  C   UNL A   1      44.667  34.378  32.373  1.00  0.00     0.001 A 
ATOM     77  C   UNL A   1      45.050  34.884  30.042  1.00  0.00     0.001 A 
ATOM     78  C   UNL A   1      44.956  35.301  31.370  1.00  0.00     0.000 A 
ENDBRANCH  60  73
ENDBRANCH  34  35
ENDBRANCH  27  29
ENDBRANCH  26  27
ENDBRANCH  25  26
ENDBRANCH   1  25
TORSDOF 15
ENDMDL
