MODEL 1
REMARK VINA RESULT:     -12.2      0.000      0.000
REMARK SMILES O=C(NC(=S)Nc1ccccc1C(=O)OCCOC(=O)c1ccc(-c2c3nc(c(-c4ccccc4)c4ccc([nH]4)c(-c4ccccc4)c4nc(c(-c5ccccc5)c5ccc2[nH]5)C=C4)C=C3)cc1)c1ccc2ccccc2c1
REMARK SMILES IDX 16 1 15 2 13 3 14 4 12 5 7 6 8 7 9 8 11 9 10 10 6 11 4 13
REMARK SMILES IDX 5 14 3 15 1 16 2 17 69 19 70 20 78 21 71 22 77 23 72 24
REMARK SMILES IDX 76 25 73 26 75 27 74 28 17 29 18 30 19 31 20 32 21 33 22 34
REMARK SMILES IDX 68 35 23 36 67 37 24 38 25 39 26 40 61 41 27 42 66 43 60 44
REMARK SMILES IDX 62 45 28 46 65 47 59 48 58 49 29 51 51 52 36 53 50 54 37 55
REMARK SMILES IDX 40 56 49 57 63 58 38 59 39 60 48 62 64 63 41 64 30 65 31 66
REMARK SMILES IDX 35 67 32 68 34 69 33 70 52 71 53 72 57 73 54 74 56 75 55 76
REMARK SMILES IDX 42 77 43 78 47 79 44 80 46 81 45 82
REMARK H PARENT 6 12 3 18 62 50 40 61
REMARK Flexibility Score: inf
ROOT
ATOM      1  C   UNL A   1      33.314  28.679  25.261  1.00  0.00     0.275 C 
ENDROOT
BRANCH   1   2
ATOM      2  O   UNL A   1      32.388  29.330  24.350  1.00  0.00    -0.458 OA
BRANCH   2   3
ATOM      3  C   UNL A   1      32.288  28.679  23.175  1.00  0.00     0.340 C 
ATOM      4  O   UNL A   1      33.234  28.469  22.425  1.00  0.00    -0.246 OA
BRANCH   3   5
ATOM      5  C   UNL A   1      30.929  28.337  22.670  1.00  0.00     0.083 A 
ATOM      6  C   UNL A   1      30.031  26.835  23.581  1.00  0.00     0.055 A 
ATOM      7  C   UNL A   1      28.040  26.932  23.867  1.00  0.00     0.027 A 
ATOM      8  C   UNL A   1      27.241  28.593  23.151  1.00  0.00     0.002 A 
ATOM      9  C   UNL A   1      30.121  30.014  22.005  1.00  0.00     0.018 A 
ATOM     10  C   UNL A   1      28.131  30.108  22.262  1.00  0.00     0.001 A 
BRANCH   6  11
ATOM     11  N   UNL A   1      30.744  26.130  24.561  1.00  0.00    -0.332 N 
ATOM     12  H   UNL A   1      31.212  26.657  25.248  1.00  0.00     0.169 HD
BRANCH  11  13
ATOM     13  C   UNL A   1      30.842  24.782  24.636  1.00  0.00     0.177 C 
ATOM     14  S   UNL A   1      31.588  23.967  23.377  1.00  0.00    -0.040 S 
BRANCH  13  15
ATOM     15  N   UNL A   1      30.290  24.033  25.673  1.00  0.00    -0.299 N 
ATOM     16  O   UNL A   1      29.615  22.958  27.568  1.00  0.00    -0.269 OA
ATOM     17  C   UNL A   1      30.572  23.301  26.868  1.00  0.00     0.257 C 
ATOM     18  H   UNL A   1      29.318  23.991  25.523  1.00  0.00     0.172 HD
BRANCH  17  19
ATOM     19  C   UNL A   1      31.918  22.951  27.420  1.00  0.00     0.040 A 
ATOM     20  C   UNL A   1      32.885  23.643  26.950  1.00  0.00     0.014 A 
ATOM     21  C   UNL A   1      33.105  22.631  26.924  1.00  0.00     0.022 A 
ATOM     22  C   UNL A   1      34.735  23.874  26.122  1.00  0.00     0.009 A 
ATOM     23  C   UNL A   1      35.000  22.561  26.079  1.00  0.00    -0.018 A 
ATOM     24  C   UNL A   1      35.854  23.427  25.743  1.00  0.00    -0.018 A 
ATOM     25  C   UNL A   1      36.104  21.447  25.602  1.00  0.00     0.009 A 
ATOM     26  C   UNL A   1      37.250  23.697  26.032  1.00  0.00     0.009 A 
ATOM     27  C   UNL A   1      37.518  21.525  25.369  1.00  0.00     0.001 A 
ATOM     28  C   UNL A   1      38.121  22.696  25.731  1.00  0.00     0.001 A 
ENDBRANCH  17  19
ENDBRANCH  13  15
ENDBRANCH  11  13
ENDBRANCH   6  11
ENDBRANCH   3   5
ENDBRANCH   2   3
ENDBRANCH   1   2
BRANCH   1  29
ATOM     29  C   UNL A   1      32.912  28.763  26.738  1.00  0.00     0.275 C 
BRANCH  29  30
ATOM     30  O   UNL A   1      34.045  28.752  27.627  1.00  0.00    -0.458 OA
BRANCH  30  31
ATOM     31  C   UNL A   1      34.537  29.976  27.917  1.00  0.00     0.338 C 
ATOM     32  O   UNL A   1      33.921  31.031  27.942  1.00  0.00    -0.246 OA
BRANCH  31  33
ATOM     33  C   UNL A   1      35.967  29.927  28.263  1.00  0.00     0.060 A 
ATOM     34  C   UNL A   1      36.914  30.162  27.277  1.00  0.00     0.016 A 
ATOM     35  C   UNL A   1      36.362  29.365  29.473  1.00  0.00     0.016 A 
ATOM     36  C   UNL A   1      38.194  29.638  27.403  1.00  0.00     0.010 A 
ATOM     37  C   UNL A   1      37.703  29.014  29.667  1.00  0.00     0.010 A 
ATOM     38  C   UNL A   1      38.625  29.084  28.609  1.00  0.00    -0.014 A 
BRANCH  38  39
ATOM     39  C   UNL A   1      40.014  28.560  28.746  1.00  0.00     0.031 A 
ATOM     40  C   UNL A   1      41.130  29.484  29.165  1.00  0.00     0.074 A 
ATOM     41  C   UNL A   1      40.285  27.261  28.501  1.00  0.00     0.049 A 
ATOM     42  N   UNL A   1      42.424  29.312  29.072  1.00  0.00    -0.248 NA
ATOM     43  C   UNL A   1      40.739  30.780  29.742  1.00  0.00     0.031 C 
ATOM     44  C   UNL A   1      39.301  26.221  28.179  1.00  0.00     0.029 A 
ATOM     45  N   UNL A   1      41.481  26.586  28.486  1.00  0.00    -0.354 N 
ATOM     46  C   UNL A   1      42.996  30.507  29.498  1.00  0.00     0.074 A 
ATOM     47  C   UNL A   1      41.909  31.395  29.846  1.00  0.00     0.031 C 
ATOM     48  C   UNL A   1      39.921  25.041  28.056  1.00  0.00     0.029 A 
ATOM     49  C   UNL A   1      41.355  25.263  28.133  1.00  0.00     0.049 A 
ATOM     50  H   UNL A   1      42.343  27.008  28.706  1.00  0.00     0.167 HD
ATOM     51  C   UNL A   1      44.310  30.831  29.576  1.00  0.00     0.031 A 
ATOM     52  C   UNL A   1      42.282  24.342  27.818  1.00  0.00     0.031 A 
ATOM     53  C   UNL A   1      45.378  29.920  29.253  1.00  0.00     0.049 A 
ATOM     54  C   UNL A   1      43.723  24.751  27.814  1.00  0.00     0.074 A 
ATOM     55  C   UNL A   1      46.744  30.140  29.294  1.00  0.00     0.029 A 
ATOM     56  N   UNL A   1      45.197  28.608  28.837  1.00  0.00    -0.354 N 
ATOM     57  N   UNL A   1      44.256  25.904  28.137  1.00  0.00    -0.248 NA
ATOM     58  C   UNL A   1      44.691  23.735  27.382  1.00  0.00     0.031 C 
ATOM     59  C   UNL A   1      47.385  28.981  28.840  1.00  0.00     0.029 A 
ATOM     60  C   UNL A   1      46.424  28.014  28.595  1.00  0.00     0.049 A 
ATOM     61  H   UNL A   1      44.323  28.165  28.732  1.00  0.00     0.167 HD
ATOM     62  C   UNL A   1      45.623  25.746  27.975  1.00  0.00     0.074 A 
ATOM     63  C   UNL A   1      45.837  24.378  27.544  1.00  0.00     0.031 C 
ATOM     64  C   UNL A   1      46.614  26.651  28.167  1.00  0.00     0.031 A 
BRANCH  51  65
ATOM     65  C   UNL A   1      44.657  32.247  29.962  1.00  0.00    -0.014 A 
ATOM     66  C   UNL A   1      45.070  33.199  29.017  1.00  0.00     0.009 A 
ATOM     67  C   UNL A   1      44.557  32.636  31.308  1.00  0.00     0.009 A 
ATOM     68  C   UNL A   1      45.424  34.491  29.418  1.00  0.00     0.001 A 
ATOM     69  C   UNL A   1      44.875  33.937  31.702  1.00  0.00     0.001 A 
ATOM     70  C   UNL A   1      45.322  34.860  30.760  1.00  0.00     0.000 A 
ENDBRANCH  51  65
BRANCH  52  71
ATOM     71  C   UNL A   1      41.865  22.972  27.415  1.00  0.00    -0.014 A 
ATOM     72  C   UNL A   1      41.844  22.604  26.062  1.00  0.00     0.009 A 
ATOM     73  C   UNL A   1      41.500  22.017  28.381  1.00  0.00     0.009 A 
ATOM     74  C   UNL A   1      41.454  21.317  25.684  1.00  0.00     0.001 A 
ATOM     75  C   UNL A   1      41.150  20.720  28.003  1.00  0.00     0.001 A 
ATOM     76  C   UNL A   1      41.116  20.374  26.654  1.00  0.00     0.000 A 
ENDBRANCH  52  71
BRANCH  64  77
ATOM     77  C   UNL A   1      48.023  26.165  27.969  1.00  0.00    -0.014 A 
ATOM     78  C   UNL A   1      48.651  26.216  26.715  1.00  0.00     0.009 A 
ATOM     79  C   UNL A   1      48.738  25.667  29.069  1.00  0.00     0.009 A 
ATOM     80  C   UNL A   1      49.952  25.737  26.559  1.00  0.00     0.001 A 
ATOM     81  C   UNL A   1      50.052  25.225  28.919  1.00  0.00     0.001 A 
ATOM     82  C   UNL A   1      50.654  25.248  27.662  1.00  0.00     0.000 A 
ENDBRANCH  64  77
ENDBRANCH  38  39
ENDBRANCH  31  33
ENDBRANCH  30  31
ENDBRANCH  29  30
ENDBRANCH   1  29
TORSDOF 15
ENDMDL
MODEL 2
REMARK VINA RESULT:     -11.9      1.711      2.464
REMARK SMILES O=C(NC(=S)Nc1ccccc1C(=O)OCCOC(=O)c1ccc(-c2c3nc(c(-c4ccccc4)c4ccc([nH]4)c(-c4ccccc4)c4nc(c(-c5ccccc5)c5ccc2[nH]5)C=C4)C=C3)cc1)c1ccc2ccccc2c1
REMARK SMILES IDX 16 1 15 2 13 3 14 4 12 5 7 6 8 7 9 8 11 9 10 10 6 11 4 13
REMARK SMILES IDX 5 14 3 15 1 16 2 17 69 19 70 20 78 21 71 22 77 23 72 24
REMARK SMILES IDX 76 25 73 26 75 27 74 28 17 29 18 30 19 31 20 32 21 33 22 34
REMARK SMILES IDX 68 35 23 36 67 37 24 38 25 39 26 40 61 41 27 42 66 43 60 44
REMARK SMILES IDX 62 45 28 46 65 47 59 48 58 49 29 51 51 52 36 53 50 54 37 55
REMARK SMILES IDX 40 56 49 57 63 58 38 59 39 60 48 62 64 63 41 64 30 65 31 66
REMARK SMILES IDX 35 67 32 68 34 69 33 70 52 71 53 72 57 73 54 74 56 75 55 76
REMARK SMILES IDX 42 77 43 78 47 79 44 80 46 81 45 82
REMARK H PARENT 6 12 3 18 62 50 40 61
REMARK Flexibility Score: inf
ROOT
ATOM      1  C   UNL A   1      32.309  30.602  26.270  1.00  0.00     0.275 C 
ENDROOT
BRANCH   1   2
ATOM      2  O   UNL A   1      31.579  29.426  25.830  1.00  0.00    -0.458 OA
BRANCH   2   3
ATOM      3  C   UNL A   1      31.787  29.157  24.527  1.00  0.00     0.340 C 
ATOM      4  O   UNL A   1      32.853  29.337  23.950  1.00  0.00    -0.246 OA
BRANCH   3   5
ATOM      5  C   UNL A   1      30.616  28.774  23.689  1.00  0.00     0.083 A 
ATOM      6  C   UNL A   1      29.850  26.992  24.053  1.00  0.00     0.055 A 
ATOM      7  C   UNL A   1      27.854  26.758  23.932  1.00  0.00     0.027 A 
ATOM      8  C   UNL A   1      26.912  28.425  23.436  1.00  0.00     0.002 A 
ATOM      9  C   UNL A   1      29.654  30.442  23.243  1.00  0.00     0.018 A 
ATOM     10  C   UNL A   1      27.665  30.212  23.094  1.00  0.00     0.001 A 
BRANCH   6  11
ATOM     11  N   UNL A   1      30.495  26.169  24.987  1.00  0.00    -0.332 N 
ATOM     12  H   UNL A   1      30.094  26.099  25.883  1.00  0.00     0.169 HD
BRANCH  11  13
ATOM     13  C   UNL A   1      31.628  25.464  24.755  1.00  0.00     0.177 C 
ATOM     14  S   UNL A   1      32.125  24.357  25.909  1.00  0.00    -0.040 S 
BRANCH  13  15
ATOM     15  N   UNL A   1      32.437  25.665  23.639  1.00  0.00    -0.299 N 
ATOM     16  O   UNL A   1      33.685  25.675  21.729  1.00  0.00    -0.269 OA
ATOM     17  C   UNL A   1      33.389  25.063  22.759  1.00  0.00     0.257 C 
ATOM     18  H   UNL A   1      32.299  26.591  23.336  1.00  0.00     0.172 HD
BRANCH  17  19
ATOM     19  C   UNL A   1      34.034  23.720  22.903  1.00  0.00     0.040 A 
ATOM     20  C   UNL A   1      33.288  22.732  22.584  1.00  0.00     0.014 A 
ATOM     21  C   UNL A   1      33.741  22.574  23.502  1.00  0.00     0.022 A 
ATOM     22  C   UNL A   1      32.439  20.903  22.901  1.00  0.00     0.009 A 
ATOM     23  C   UNL A   1      33.019  20.720  24.095  1.00  0.00    -0.018 A 
ATOM     24  C   UNL A   1      32.310  19.829  23.552  1.00  0.00    -0.018 A 
ATOM     25  C   UNL A   1      33.117  19.704  25.378  1.00  0.00     0.009 A 
ATOM     26  C   UNL A   1      32.430  18.409  23.277  1.00  0.00     0.009 A 
ATOM     27  C   UNL A   1      32.868  18.298  25.519  1.00  0.00     0.001 A 
ATOM     28  C   UNL A   1      32.632  17.612  24.361  1.00  0.00     0.001 A 
ENDBRANCH  17  19
ENDBRANCH  13  15
ENDBRANCH  11  13
ENDBRANCH   6  11
ENDBRANCH   3   5
ENDBRANCH   2   3
ENDBRANCH   1   2
BRANCH   1  29
ATOM     29  C   UNL A   1      33.242  30.358  27.463  1.00  0.00     0.275 C 
BRANCH  29  30
ATOM     30  O   UNL A   1      34.358  31.268  27.494  1.00  0.00    -0.458 OA
BRANCH  30  31
ATOM     31  C   UNL A   1      35.062  31.245  28.647  1.00  0.00     0.338 C 
ATOM     32  O   UNL A   1      34.833  31.884  29.663  1.00  0.00    -0.246 OA
BRANCH  31  33
ATOM     33  C   UNL A   1      36.181  30.291  28.590  1.00  0.00     0.060 A 
ATOM     34  C   UNL A   1      36.630  29.699  29.763  1.00  0.00     0.016 A 
ATOM     35  C   UNL A   1      36.962  30.214  27.441  1.00  0.00     0.016 A 
ATOM     36  C   UNL A   1      37.936  29.235  29.851  1.00  0.00     0.010 A 
ATOM     37  C   UNL A   1      38.203  29.570  27.490  1.00  0.00     0.010 A 
ATOM     38  C   UNL A   1      38.737  29.131  28.714  1.00  0.00    -0.014 A 
BRANCH  38  39
ATOM     39  C   UNL A   1      40.125  28.595  28.815  1.00  0.00     0.031 A 
ATOM     40  C   UNL A   1      41.258  29.507  29.211  1.00  0.00     0.074 A 
ATOM     41  C   UNL A   1      40.380  27.295  28.557  1.00  0.00     0.049 A 
ATOM     42  N   UNL A   1      42.549  29.325  29.086  1.00  0.00    -0.248 NA
ATOM     43  C   UNL A   1      40.892  30.803  29.804  1.00  0.00     0.031 C 
ATOM     44  C   UNL A   1      39.379  26.264  28.254  1.00  0.00     0.029 A 
ATOM     45  N   UNL A   1      41.569  26.609  28.509  1.00  0.00    -0.354 N 
ATOM     46  C   UNL A   1      43.141  30.513  29.503  1.00  0.00     0.074 A 
ATOM     47  C   UNL A   1      42.069  31.408  29.882  1.00  0.00     0.031 C 
ATOM     48  C   UNL A   1      39.987  25.080  28.109  1.00  0.00     0.029 A 
ATOM     49  C   UNL A   1      41.423  25.290  28.152  1.00  0.00     0.049 A 
ATOM     50  H   UNL A   1      42.439  27.023  28.710  1.00  0.00     0.167 HD
ATOM     51  C   UNL A   1      44.459  30.826  29.551  1.00  0.00     0.031 A 
ATOM     52  C   UNL A   1      42.335  24.363  27.810  1.00  0.00     0.031 A 
ATOM     53  C   UNL A   1      45.511  29.909  29.197  1.00  0.00     0.049 A 
ATOM     54  C   UNL A   1      43.779  24.760  27.773  1.00  0.00     0.074 A 
ATOM     55  C   UNL A   1      46.880  30.116  29.206  1.00  0.00     0.029 A 
ATOM     56  N   UNL A   1      45.309  28.600  28.780  1.00  0.00    -0.354 N 
ATOM     57  N   UNL A   1      44.329  25.908  28.088  1.00  0.00    -0.248 NA
ATOM     58  C   UNL A   1      44.727  23.739  27.312  1.00  0.00     0.031 C 
ATOM     59  C   UNL A   1      47.500  28.955  28.731  1.00  0.00     0.029 A 
ATOM     60  C   UNL A   1      46.524  27.998  28.504  1.00  0.00     0.049 A 
ATOM     61  H   UNL A   1      44.430  28.165  28.693  1.00  0.00     0.167 HD
ATOM     62  C   UNL A   1      45.691  25.739  27.892  1.00  0.00     0.074 A 
ATOM     63  C   UNL A   1      45.882  24.372  27.450  1.00  0.00     0.031 C 
ATOM     64  C   UNL A   1      46.693  26.635  28.064  1.00  0.00     0.031 A 
BRANCH  51  65
ATOM     65  C   UNL A   1      44.827  32.237  29.935  1.00  0.00    -0.014 A 
ATOM     66  C   UNL A   1      44.919  33.269  28.989  1.00  0.00     0.009 A 
ATOM     67  C   UNL A   1      45.077  32.538  31.285  1.00  0.00     0.009 A 
ATOM     68  C   UNL A   1      45.304  34.556  29.378  1.00  0.00     0.001 A 
ATOM     69  C   UNL A   1      45.426  33.832  31.677  1.00  0.00     0.001 A 
ATOM     70  C   UNL A   1      45.553  34.837  30.721  1.00  0.00     0.000 A 
ENDBRANCH  51  65
BRANCH  52  71
ATOM     71  C   UNL A   1      41.897  22.999  27.411  1.00  0.00    -0.014 A 
ATOM     72  C   UNL A   1      41.842  22.637  26.057  1.00  0.00     0.009 A 
ATOM     73  C   UNL A   1      41.546  22.042  28.380  1.00  0.00     0.009 A 
ATOM     74  C   UNL A   1      41.432  21.355  25.682  1.00  0.00     0.001 A 
ATOM     75  C   UNL A   1      41.176  20.750  28.004  1.00  0.00     0.001 A 
ATOM     76  C   UNL A   1      41.108  20.411  26.655  1.00  0.00     0.000 A 
ENDBRANCH  52  71
BRANCH  64  77
ATOM     77  C   UNL A   1      48.093  26.139  27.830  1.00  0.00    -0.014 A 
ATOM     78  C   UNL A   1      48.857  25.577  28.863  1.00  0.00     0.009 A 
ATOM     79  C   UNL A   1      48.643  26.219  26.541  1.00  0.00     0.009 A 
ATOM     80  C   UNL A   1      50.162  25.145  28.619  1.00  0.00     0.001 A 
ATOM     81  C   UNL A   1      49.933  25.751  26.291  1.00  0.00     0.001 A 
ATOM     82  C   UNL A   1      50.696  25.226  27.333  1.00  0.00     0.000 A 
ENDBRANCH  64  77
ENDBRANCH  38  39
ENDBRANCH  31  33
ENDBRANCH  30  31
ENDBRANCH  29  30
ENDBRANCH   1  29
TORSDOF 15
ENDMDL
MODEL 3
REMARK VINA RESULT:     -11.3      2.018      6.140
REMARK SMILES O=C(NC(=S)Nc1ccccc1C(=O)OCCOC(=O)c1ccc(-c2c3nc(c(-c4ccccc4)c4ccc([nH]4)c(-c4ccccc4)c4nc(c(-c5ccccc5)c5ccc2[nH]5)C=C4)C=C3)cc1)c1ccc2ccccc2c1
REMARK SMILES IDX 16 1 15 2 13 3 14 4 12 5 7 6 8 7 9 8 11 9 10 10 6 11 4 13
REMARK SMILES IDX 5 14 3 15 1 16 2 17 69 19 70 20 78 21 71 22 77 23 72 24
REMARK SMILES IDX 76 25 73 26 75 27 74 28 17 29 18 30 19 31 20 32 21 33 22 34
REMARK SMILES IDX 68 35 23 36 67 37 24 38 25 39 26 40 61 41 27 42 66 43 60 44
REMARK SMILES IDX 62 45 28 46 65 47 59 48 58 49 29 51 51 52 36 53 50 54 37 55
REMARK SMILES IDX 40 56 49 57 63 58 38 59 39 60 48 62 64 63 41 64 30 65 31 66
REMARK SMILES IDX 35 67 32 68 34 69 33 70 52 71 53 72 57 73 54 74 56 75 55 76
REMARK SMILES IDX 42 77 43 78 47 79 44 80 46 81 45 82
REMARK H PARENT 6 12 3 18 62 50 40 61
REMARK Flexibility Score: inf
ROOT
ATOM      1  C   UNL A   1      33.018  28.724  25.345  1.00  0.00     0.275 C 
ENDROOT
BRANCH   1   2
ATOM      2  O   UNL A   1      32.201  29.418  24.365  1.00  0.00    -0.458 OA
BRANCH   2   3
ATOM      3  C   UNL A   1      32.121  28.743  23.201  1.00  0.00     0.340 C 
ATOM      4  O   UNL A   1      33.078  28.524  22.468  1.00  0.00    -0.246 OA
BRANCH   3   5
ATOM      5  C   UNL A   1      30.770  28.384  22.685  1.00  0.00     0.083 A 
ATOM      6  C   UNL A   1      29.883  26.872  23.590  1.00  0.00     0.055 A 
ATOM      7  C   UNL A   1      27.888  26.945  23.858  1.00  0.00     0.027 A 
ATOM      8  C   UNL A   1      27.075  28.595  23.133  1.00  0.00     0.002 A 
ATOM      9  C   UNL A   1      29.947  30.050  22.011  1.00  0.00     0.018 A 
ATOM     10  C   UNL A   1      27.954  30.120  22.249  1.00  0.00     0.001 A 
BRANCH   6  11
ATOM     11  N   UNL A   1      30.596  26.177  24.577  1.00  0.00    -0.332 N 
ATOM     12  H   UNL A   1      31.032  26.709  25.281  1.00  0.00     0.169 HD
BRANCH  11  13
ATOM     13  C   UNL A   1      30.734  24.831  24.639  1.00  0.00     0.177 C 
ATOM     14  S   UNL A   1      31.503  24.052  23.372  1.00  0.00    -0.040 S 
BRANCH  13  15
ATOM     15  N   UNL A   1      30.204  24.057  25.668  1.00  0.00    -0.299 N 
ATOM     16  O   UNL A   1      29.571  22.931  27.548  1.00  0.00    -0.269 OA
ATOM     17  C   UNL A   1      30.511  23.289  26.833  1.00  0.00     0.257 C 
ATOM     18  H   UNL A   1      29.228  24.024  25.542  1.00  0.00     0.172 HD
BRANCH  17  19
ATOM     19  C   UNL A   1      31.869  22.916  27.341  1.00  0.00     0.040 A 
ATOM     20  C   UNL A   1      32.822  23.647  26.903  1.00  0.00     0.014 A 
ATOM     21  C   UNL A   1      33.050  22.642  26.806  1.00  0.00     0.022 A 
ATOM     22  C   UNL A   1      34.657  23.951  26.065  1.00  0.00     0.009 A 
ATOM     23  C   UNL A   1      34.933  22.646  25.930  1.00  0.00    -0.018 A 
ATOM     24  C   UNL A   1      35.774  23.541  25.640  1.00  0.00    -0.018 A 
ATOM     25  C   UNL A   1      36.039  21.578  25.363  1.00  0.00     0.009 A 
ATOM     26  C   UNL A   1      37.172  23.805  25.925  1.00  0.00     0.009 A 
ATOM     27  C   UNL A   1      37.448  21.684  25.115  1.00  0.00     0.001 A 
ATOM     28  C   UNL A   1      38.047  22.835  25.545  1.00  0.00     0.001 A 
ENDBRANCH  17  19
ENDBRANCH  13  15
ENDBRANCH  11  13
ENDBRANCH   6  11
ENDBRANCH   3   5
ENDBRANCH   2   3
ENDBRANCH   1   2
BRANCH   1  29
ATOM     29  C   UNL A   1      32.852  29.235  26.782  1.00  0.00     0.275 C 
BRANCH  29  30
ATOM     30  O   UNL A   1      34.084  29.213  27.528  1.00  0.00    -0.458 OA
BRANCH  30  31
ATOM     31  C   UNL A   1      34.639  30.429  27.722  1.00  0.00     0.338 C 
ATOM     32  O   UNL A   1      34.160  31.513  27.422  1.00  0.00    -0.246 OA
BRANCH  31  33
ATOM     33  C   UNL A   1      35.937  30.340  28.409  1.00  0.00     0.060 A 
ATOM     34  C   UNL A   1      37.044  30.968  27.855  1.00  0.00     0.016 A 
ATOM     35  C   UNL A   1      36.116  29.402  29.421  1.00  0.00     0.016 A 
ATOM     36  C   UNL A   1      38.321  30.506  28.144  1.00  0.00     0.010 A 
ATOM     37  C   UNL A   1      37.410  29.081  29.845  1.00  0.00     0.010 A 
ATOM     38  C   UNL A   1      38.535  29.580  29.165  1.00  0.00    -0.014 A 
BRANCH  38  39
ATOM     39  C   UNL A   1      39.914  29.121  29.492  1.00  0.00     0.031 A 
ATOM     40  C   UNL A   1      40.425  27.814  28.940  1.00  0.00     0.074 A 
ATOM     41  C   UNL A   1      40.718  29.867  30.280  1.00  0.00     0.049 A 
ATOM     42  N   UNL A   1      41.458  27.104  29.317  1.00  0.00    -0.248 NA
ATOM     43  C   UNL A   1      39.660  27.216  27.834  1.00  0.00     0.031 C 
ATOM     44  C   UNL A   1      40.406  31.198  30.814  1.00  0.00     0.029 A 
ATOM     45  N   UNL A   1      41.975  29.611  30.771  1.00  0.00    -0.354 N 
ATOM     46  C   UNL A   1      41.417  25.941  28.556  1.00  0.00     0.074 A 
ATOM     47  C   UNL A   1      40.256  26.039  27.698  1.00  0.00     0.031 C 
ATOM     48  C   UNL A   1      41.455  31.659  31.505  1.00  0.00     0.029 A 
ATOM     49  C   UNL A   1      42.449  30.604  31.596  1.00  0.00     0.049 A 
ATOM     50  H   UNL A   1      42.484  28.798  30.555  1.00  0.00     0.167 HD
ATOM     51  C   UNL A   1      42.265  24.884  28.584  1.00  0.00     0.031 A 
ATOM     52  C   UNL A   1      43.519  30.638  32.409  1.00  0.00     0.031 A 
ATOM     53  C   UNL A   1      43.433  24.820  29.425  1.00  0.00     0.049 A 
ATOM     54  C   UNL A   1      44.388  29.421  32.500  1.00  0.00     0.074 A 
ATOM     55  C   UNL A   1      44.363  23.801  29.538  1.00  0.00     0.029 A 
ATOM     56  N   UNL A   1      43.836  25.826  30.292  1.00  0.00    -0.354 N 
ATOM     57  N   UNL A   1      44.298  28.292  31.841  1.00  0.00    -0.248 NA
ATOM     58  C   UNL A   1      45.494  29.476  33.463  1.00  0.00     0.031 C 
ATOM     59  C   UNL A   1      45.291  24.165  30.521  1.00  0.00     0.029 A 
ATOM     60  C   UNL A   1      44.986  25.443  30.961  1.00  0.00     0.049 A 
ATOM     61  H   UNL A   1      43.373  26.687  30.412  1.00  0.00     0.167 HD
ATOM     62  C   UNL A   1      45.353  27.511  32.287  1.00  0.00     0.074 A 
ATOM     63  C   UNL A   1      46.078  28.305  33.259  1.00  0.00     0.031 C 
ATOM     64  C   UNL A   1      45.692  26.249  31.925  1.00  0.00     0.031 A 
BRANCH  51  65
ATOM     65  C   UNL A   1      41.921  23.690  27.731  1.00  0.00    -0.014 A 
ATOM     66  C   UNL A   1      42.419  23.533  26.428  1.00  0.00     0.009 A 
ATOM     67  C   UNL A   1      41.083  22.690  28.254  1.00  0.00     0.009 A 
ATOM     68  C   UNL A   1      42.044  22.432  25.652  1.00  0.00     0.001 A 
ATOM     69  C   UNL A   1      40.739  21.573  27.492  1.00  0.00     0.001 A 
ATOM     70  C   UNL A   1      41.209  21.451  26.186  1.00  0.00     0.000 A 
ENDBRANCH  51  65
BRANCH  52  71
ATOM     71  C   UNL A   1      43.779  31.840  33.247  1.00  0.00    -0.014 A 
ATOM     72  C   UNL A   1      43.218  31.948  34.528  1.00  0.00     0.009 A 
ATOM     73  C   UNL A   1      44.604  32.878  32.780  1.00  0.00     0.009 A 
ATOM     74  C   UNL A   1      43.465  33.076  35.316  1.00  0.00     0.001 A 
ATOM     75  C   UNL A   1      44.881  33.984  33.585  1.00  0.00     0.001 A 
ATOM     76  C   UNL A   1      44.302  34.087  34.847  1.00  0.00     0.000 A 
ENDBRANCH  52  71
BRANCH  64  77
ATOM     77  C   UNL A   1      46.939  25.679  32.542  1.00  0.00    -0.014 A 
ATOM     78  C   UNL A   1      46.893  24.900  33.708  1.00  0.00     0.009 A 
ATOM     79  C   UNL A   1      48.179  25.914  31.927  1.00  0.00     0.009 A 
ATOM     80  C   UNL A   1      48.071  24.403  34.269  1.00  0.00     0.001 A 
ATOM     81  C   UNL A   1      49.350  25.383  32.468  1.00  0.00     0.001 A 
ATOM     82  C   UNL A   1      49.296  24.639  33.645  1.00  0.00     0.000 A 
ENDBRANCH  64  77
ENDBRANCH  38  39
ENDBRANCH  31  33
ENDBRANCH  30  31
ENDBRANCH  29  30
ENDBRANCH   1  29
TORSDOF 15
ENDMDL
