MODEL 1
REMARK VINA RESULT:     -10.7      0.000      0.000
REMARK SMILES Cc1cc(C(=O)NC[C@@H]2CC[C@H](C(=O)OCCOC(=O)c3ccc(-c4c5nc(c(-c6ccccc6)c6ccc([nH]6)c(-c6ccccc6)c6nc(c(-c7ccccc7)c7ccc4[nH]7)C=C6)C=C5)cc3)O2)on1
REMARK SMILES IDX 16 1 15 2 13 3 14 4 12 5 9 6 10 7 69 8 11 9 8 10 7 11 5 12
REMARK SMILES IDX 6 13 4 15 1 16 2 17 3 18 71 19 70 20 17 21 18 22 19 23 20 24
REMARK SMILES IDX 21 25 22 26 68 27 23 28 67 29 24 30 25 31 26 32 61 33 27 34
REMARK SMILES IDX 66 35 60 36 62 37 28 38 65 39 59 40 58 41 29 43 51 44 36 45
REMARK SMILES IDX 50 46 37 47 40 48 49 49 63 50 38 51 39 52 48 54 64 55 41 56
REMARK SMILES IDX 30 57 31 58 35 59 32 60 34 61 33 62 52 63 53 64 57 65 54 66
REMARK SMILES IDX 56 67 55 68 42 69 43 70 47 71 44 72 46 73 45 74
REMARK H PARENT 7 14 62 42 40 53
REMARK Flexibility Score: inf
ROOT
ATOM      1  C   UNL A   1      35.904  20.653  24.628  1.00  0.00     0.274 C 
ENDROOT
BRANCH   1   2
ATOM      2  O   UNL A   1      35.682  22.061  24.838  1.00  0.00    -0.460 OA
BRANCH   2   3
ATOM      3  C   UNL A   1      35.359  22.796  23.739  1.00  0.00     0.335 C 
ATOM      4  O   UNL A   1      36.078  22.913  22.752  1.00  0.00    -0.249 OA
BRANCH   3   5
ATOM      5  C   UNL A   1      33.997  23.499  23.869  1.00  0.00     0.228 C 
ATOM      6  C   UNL A   1      32.198  22.021  23.926  1.00  0.00     0.138 C 
ATOM      7  C   UNL A   1      32.409  22.442  22.477  1.00  0.00     0.037 C 
ATOM      8  O   UNL A   1      33.131  22.759  24.733  1.00  0.00    -0.361 OA
ATOM      9  C   UNL A   1      33.213  23.713  22.591  1.00  0.00     0.047 C 
BRANCH   6  10
ATOM     10  C   UNL A   1      32.444  20.525  24.147  1.00  0.00     0.148 C 
BRANCH  10  11
ATOM     11  N   UNL A   1      32.206  19.769  22.931  1.00  0.00    -0.347 N 
ATOM     12  C   UNL A   1      32.491  18.464  22.608  1.00  0.00     0.289 C 
ATOM     13  O   UNL A   1      32.107  18.084  21.500  1.00  0.00    -0.266 OA
ATOM     14  H   UNL A   1      31.764  20.279  22.214  1.00  0.00     0.164 HD
BRANCH  12  15
ATOM     15  C   UNL A   1      33.192  17.605  23.536  1.00  0.00     0.224 A 
ATOM     16  C   UNL A   1      35.530  15.464  25.377  1.00  0.00     0.070 C 
ATOM     17  C   UNL A   1      34.444  16.294  24.813  1.00  0.00     0.081 A 
ATOM     18  C   UNL A   1      34.403  16.950  23.564  1.00  0.00     0.083 A 
ATOM     19  N   UNL A   1      33.319  16.499  25.501  1.00  0.00    -0.084 NA
ATOM     20  O   UNL A   1      32.532  17.305  24.698  1.00  0.00    -0.351 OA
ENDBRANCH  12  15
ENDBRANCH  10  11
ENDBRANCH   6  10
ENDBRANCH   3   5
ENDBRANCH   2   3
ENDBRANCH   1   2
BRANCH   1  21
ATOM     21  C   UNL A   1      37.314  20.233  25.061  1.00  0.00     0.275 C 
BRANCH  21  22
ATOM     22  O   UNL A   1      38.176  21.368  25.269  1.00  0.00    -0.458 OA
BRANCH  22  23
ATOM     23  C   UNL A   1      39.251  21.127  26.052  1.00  0.00     0.338 C 
ATOM     24  O   UNL A   1      39.869  20.080  26.154  1.00  0.00    -0.246 OA
BRANCH  23  25
ATOM     25  C   UNL A   1      39.716  22.371  26.681  1.00  0.00     0.060 A 
ATOM     26  C   UNL A   1      39.148  23.563  26.231  1.00  0.00     0.016 A 
ATOM     27  C   UNL A   1      40.775  22.389  27.590  1.00  0.00     0.016 A 
ATOM     28  C   UNL A   1      39.651  24.784  26.652  1.00  0.00     0.010 A 
ATOM     29  C   UNL A   1      41.281  23.621  28.021  1.00  0.00     0.010 A 
ATOM     30  C   UNL A   1      40.738  24.823  27.531  1.00  0.00    -0.014 A 
BRANCH  30  31
ATOM     31  C   UNL A   1      41.348  26.137  27.836  1.00  0.00     0.031 A 
ATOM     32  C   UNL A   1      42.679  26.493  27.237  1.00  0.00     0.074 A 
ATOM     33  C   UNL A   1      40.666  27.043  28.560  1.00  0.00     0.049 A 
ATOM     34  N   UNL A   1      43.379  27.590  27.376  1.00  0.00    -0.248 NA
ATOM     35  C   UNL A   1      43.301  25.486  26.363  1.00  0.00     0.031 C 
ATOM     36  C   UNL A   1      39.334  26.841  29.130  1.00  0.00     0.029 A 
ATOM     37  N   UNL A   1      40.993  28.326  28.912  1.00  0.00    -0.354 N 
ATOM     38  C   UNL A   1      44.535  27.395  26.631  1.00  0.00     0.074 A 
ATOM     39  C   UNL A   1      44.446  26.075  26.047  1.00  0.00     0.031 C 
ATOM     40  C   UNL A   1      38.946  27.974  29.740  1.00  0.00     0.029 A 
ATOM     41  C   UNL A   1      40.016  28.961  29.637  1.00  0.00     0.049 A 
ATOM     42  H   UNL A   1      41.848  28.752  28.669  1.00  0.00     0.167 HD
ATOM     43  C   UNL A   1      45.576  28.240  26.450  1.00  0.00     0.031 A 
ATOM     44  C   UNL A   1      39.991  30.197  30.168  1.00  0.00     0.031 A 
ATOM     45  C   UNL A   1      45.662  29.558  27.018  1.00  0.00     0.049 A 
ATOM     46  C   UNL A   1      41.175  31.103  29.981  1.00  0.00     0.074 A 
ATOM     47  C   UNL A   1      46.691  30.478  26.914  1.00  0.00     0.029 A 
ATOM     48  N   UNL A   1      44.672  30.147  27.787  1.00  0.00    -0.354 N 
ATOM     49  N   UNL A   1      42.283  30.885  29.316  1.00  0.00    -0.248 NA
ATOM     50  C   UNL A   1      41.105  32.422  30.625  1.00  0.00     0.031 C 
ATOM     51  C   UNL A   1      46.331  31.619  27.643  1.00  0.00     0.029 A 
ATOM     52  C   UNL A   1      45.065  31.418  28.169  1.00  0.00     0.049 A 
ATOM     53  H   UNL A   1      43.815  29.724  28.025  1.00  0.00     0.167 HD
ATOM     54  C   UNL A   1      43.037  32.044  29.450  1.00  0.00     0.074 A 
ATOM     55  C   UNL A   1      42.252  32.966  30.246  1.00  0.00     0.031 C 
ATOM     56  C   UNL A   1      44.271  32.318  28.962  1.00  0.00     0.031 A 
BRANCH  43  57
ATOM     57  C   UNL A   1      46.730  27.735  25.634  1.00  0.00    -0.014 A 
ATOM     58  C   UNL A   1      46.779  27.928  24.245  1.00  0.00     0.009 A 
ATOM     59  C   UNL A   1      47.786  27.064  26.269  1.00  0.00     0.009 A 
ATOM     60  C   UNL A   1      47.853  27.433  23.503  1.00  0.00     0.001 A 
ATOM     61  C   UNL A   1      48.868  26.587  25.527  1.00  0.00     0.001 A 
ATOM     62  C   UNL A   1      48.897  26.764  24.144  1.00  0.00     0.000 A 
ENDBRANCH  43  57
BRANCH  44  63
ATOM     63  C   UNL A   1      38.808  30.646  30.942  1.00  0.00    -0.014 A 
ATOM     64  C   UNL A   1      38.731  30.420  32.323  1.00  0.00     0.009 A 
ATOM     65  C   UNL A   1      37.749  31.303  30.298  1.00  0.00     0.009 A 
ATOM     66  C   UNL A   1      37.607  30.830  33.044  1.00  0.00     0.001 A 
ATOM     67  C   UNL A   1      36.636  31.731  31.023  1.00  0.00     0.001 A 
ATOM     68  C   UNL A   1      36.563  31.489  32.394  1.00  0.00     0.000 A 
ENDBRANCH  44  63
BRANCH  56  69
ATOM     69  C   UNL A   1      44.831  33.675  29.260  1.00  0.00    -0.014 A 
ATOM     70  C   UNL A   1      45.536  33.921  30.449  1.00  0.00     0.009 A 
ATOM     71  C   UNL A   1      44.670  34.715  28.331  1.00  0.00     0.009 A 
ATOM     72  C   UNL A   1      46.044  35.193  30.714  1.00  0.00     0.001 A 
ATOM     73  C   UNL A   1      45.198  35.980  28.591  1.00  0.00     0.001 A 
ATOM     74  C   UNL A   1      45.877  36.220  29.785  1.00  0.00     0.000 A 
ENDBRANCH  56  69
ENDBRANCH  30  31
ENDBRANCH  23  25
ENDBRANCH  22  23
ENDBRANCH  21  22
ENDBRANCH   1  21
TORSDOF 14
ENDMDL
MODEL 2
REMARK VINA RESULT:     -10.6      5.620     10.237
REMARK SMILES Cc1cc(C(=O)NC[C@@H]2CC[C@H](C(=O)OCCOC(=O)c3ccc(-c4c5nc(c(-c6ccccc6)c6ccc([nH]6)c(-c6ccccc6)c6nc(c(-c7ccccc7)c7ccc4[nH]7)C=C6)C=C5)cc3)O2)on1
REMARK SMILES IDX 16 1 15 2 13 3 14 4 12 5 9 6 10 7 69 8 11 9 8 10 7 11 5 12
REMARK SMILES IDX 6 13 4 15 1 16 2 17 3 18 71 19 70 20 17 21 18 22 19 23 20 24
REMARK SMILES IDX 21 25 22 26 68 27 23 28 67 29 24 30 25 31 26 32 61 33 27 34
REMARK SMILES IDX 66 35 60 36 62 37 28 38 65 39 59 40 58 41 29 43 51 44 36 45
REMARK SMILES IDX 50 46 37 47 40 48 49 49 63 50 38 51 39 52 48 54 64 55 41 56
REMARK SMILES IDX 30 57 31 58 35 59 32 60 34 61 33 62 52 63 53 64 57 65 54 66
REMARK SMILES IDX 56 67 55 68 42 69 43 70 47 71 44 72 46 73 45 74
REMARK H PARENT 7 14 62 42 40 53
REMARK Flexibility Score: inf
ROOT
ATOM      1  C   UNL A   1      31.384  31.279  26.275  1.00  0.00     0.274 C 
ENDROOT
BRANCH   1   2
ATOM      2  O   UNL A   1      32.350  30.361  26.824  1.00  0.00    -0.460 OA
BRANCH   2   3
ATOM      3  C   UNL A   1      32.270  29.070  26.402  1.00  0.00     0.335 C 
ATOM      4  O   UNL A   1      31.239  28.404  26.410  1.00  0.00    -0.249 OA
BRANCH   3   5
ATOM      5  C   UNL A   1      33.623  28.508  25.932  1.00  0.00     0.228 C 
ATOM      6  C   UNL A   1      33.570  27.668  23.760  1.00  0.00     0.138 C 
ATOM      7  C   UNL A   1      33.288  26.514  24.714  1.00  0.00     0.037 C 
ATOM      8  O   UNL A   1      33.850  28.831  24.559  1.00  0.00    -0.361 OA
ATOM      9  C   UNL A   1      33.815  27.009  26.037  1.00  0.00     0.047 C 
BRANCH   6  10
ATOM     10  C   UNL A   1      32.380  27.984  22.848  1.00  0.00     0.148 C 
BRANCH  10  11
ATOM     11  N   UNL A   1      31.170  27.336  23.322  1.00  0.00    -0.347 N 
ATOM     12  C   UNL A   1      29.864  27.765  23.342  1.00  0.00     0.289 C 
ATOM     13  O   UNL A   1      29.034  26.954  23.758  1.00  0.00    -0.266 OA
ATOM     14  H   UNL A   1      31.309  26.435  23.694  1.00  0.00     0.164 HD
BRANCH  12  15
ATOM     15  C   UNL A   1      29.510  29.089  22.883  1.00  0.00     0.224 A 
ATOM     16  C   UNL A   1      28.663  32.631  22.458  1.00  0.00     0.070 C 
ATOM     17  C   UNL A   1      28.982  31.188  22.400  1.00  0.00     0.081 A 
ATOM     18  C   UNL A   1      29.243  30.307  23.471  1.00  0.00     0.083 A 
ATOM     19  N   UNL A   1      29.048  30.554  21.228  1.00  0.00    -0.084 NA
ATOM     20  O   UNL A   1      29.363  29.241  21.530  1.00  0.00    -0.351 OA
ENDBRANCH  12  15
ENDBRANCH  10  11
ENDBRANCH   6  10
ENDBRANCH   3   5
ENDBRANCH   2   3
ENDBRANCH   1   2
BRANCH   1  21
ATOM     21  C   UNL A   1      31.487  32.663  26.928  1.00  0.00     0.275 C 
BRANCH  21  22
ATOM     22  O   UNL A   1      32.812  33.216  26.815  1.00  0.00    -0.458 OA
BRANCH  22  23
ATOM     23  C   UNL A   1      33.314  33.721  27.964  1.00  0.00     0.338 C 
ATOM     24  O   UNL A   1      32.774  34.511  28.721  1.00  0.00    -0.246 OA
BRANCH  23  25
ATOM     25  C   UNL A   1      34.582  33.060  28.303  1.00  0.00     0.060 A 
ATOM     26  C   UNL A   1      34.512  31.742  28.754  1.00  0.00     0.016 A 
ATOM     27  C   UNL A   1      35.796  33.749  28.311  1.00  0.00     0.016 A 
ATOM     28  C   UNL A   1      35.642  31.109  29.251  1.00  0.00     0.010 A 
ATOM     29  C   UNL A   1      36.938  33.109  28.807  1.00  0.00     0.010 A 
ATOM     30  C   UNL A   1      36.858  31.796  29.305  1.00  0.00    -0.014 A 
BRANCH  30  31
ATOM     31  C   UNL A   1      38.003  31.147  29.983  1.00  0.00     0.031 A 
ATOM     32  C   UNL A   1      38.227  31.385  31.449  1.00  0.00     0.074 A 
ATOM     33  C   UNL A   1      38.772  30.270  29.313  1.00  0.00     0.049 A 
ATOM     34  N   UNL A   1      39.165  30.909  32.228  1.00  0.00    -0.248 NA
ATOM     35  C   UNL A   1      37.268  32.268  32.130  1.00  0.00     0.031 C 
ATOM     36  C   UNL A   1      38.605  29.900  27.907  1.00  0.00     0.029 A 
ATOM     37  N   UNL A   1      39.831  29.512  29.739  1.00  0.00    -0.354 N 
ATOM     38  C   UNL A   1      38.926  31.456  33.482  1.00  0.00     0.074 A 
ATOM     39  C   UNL A   1      37.759  32.303  33.360  1.00  0.00     0.031 C 
ATOM     40  C   UNL A   1      39.515  28.962  27.594  1.00  0.00     0.029 A 
ATOM     41  C   UNL A   1      40.350  28.699  28.762  1.00  0.00     0.049 A 
ATOM     42  H   UNL A   1      40.186  29.547  30.657  1.00  0.00     0.167 HD
ATOM     43  C   UNL A   1      39.617  31.270  34.631  1.00  0.00     0.031 A 
ATOM     44  C   UNL A   1      41.389  27.845  28.802  1.00  0.00     0.031 A 
ATOM     45  C   UNL A   1      40.768  30.419  34.759  1.00  0.00     0.049 A 
ATOM     46  C   UNL A   1      42.160  27.683  30.081  1.00  0.00     0.074 A 
ATOM     47  C   UNL A   1      41.552  30.188  35.876  1.00  0.00     0.029 A 
ATOM     48  N   UNL A   1      41.292  29.649  33.734  1.00  0.00    -0.354 N 
ATOM     49  N   UNL A   1      41.952  28.246  31.247  1.00  0.00    -0.248 NA
ATOM     50  C   UNL A   1      43.312  26.772  30.046  1.00  0.00     0.031 C 
ATOM     51  C   UNL A   1      42.568  29.293  35.519  1.00  0.00     0.029 A 
ATOM     52  C   UNL A   1      42.392  28.944  34.189  1.00  0.00     0.049 A 
ATOM     53  H   UNL A   1      40.934  29.609  32.817  1.00  0.00     0.167 HD
ATOM     54  C   UNL A   1      42.939  27.748  32.087  1.00  0.00     0.074 A 
ATOM     55  C   UNL A   1      43.733  26.825  31.302  1.00  0.00     0.031 C 
ATOM     56  C   UNL A   1      43.170  28.033  33.391  1.00  0.00     0.031 A 
BRANCH  43  57
ATOM     57  C   UNL A   1      39.161  32.044  35.833  1.00  0.00    -0.014 A 
ATOM     58  C   UNL A   1      38.225  31.511  36.731  1.00  0.00     0.009 A 
ATOM     59  C   UNL A   1      39.685  33.325  36.071  1.00  0.00     0.009 A 
ATOM     60  C   UNL A   1      37.801  32.258  37.832  1.00  0.00     0.001 A 
ATOM     61  C   UNL A   1      39.274  34.061  37.184  1.00  0.00     0.001 A 
ATOM     62  C   UNL A   1      38.326  33.530  38.059  1.00  0.00     0.000 A 
ENDBRANCH  43  57
BRANCH  44  63
ATOM     63  C   UNL A   1      41.772  27.088  27.585  1.00  0.00    -0.014 A 
ATOM     64  C   UNL A   1      42.613  27.663  26.622  1.00  0.00     0.009 A 
ATOM     65  C   UNL A   1      41.295  25.784  27.384  1.00  0.00     0.009 A 
ATOM     66  C   UNL A   1      42.956  26.951  25.470  1.00  0.00     0.001 A 
ATOM     67  C   UNL A   1      41.656  25.067  26.242  1.00  0.00     0.001 A 
ATOM     68  C   UNL A   1      42.481  25.653  25.283  1.00  0.00     0.000 A 
ENDBRANCH  44  63
BRANCH  56  69
ATOM     69  C   UNL A   1      44.313  27.321  34.048  1.00  0.00    -0.014 A 
ATOM     70  C   UNL A   1      45.589  27.901  34.106  1.00  0.00     0.009 A 
ATOM     71  C   UNL A   1      44.105  26.063  34.636  1.00  0.00     0.009 A 
ATOM     72  C   UNL A   1      46.644  27.222  34.715  1.00  0.00     0.001 A 
ATOM     73  C   UNL A   1      45.158  25.395  35.262  1.00  0.00     0.001 A 
ATOM     74  C   UNL A   1      46.428  25.971  35.294  1.00  0.00     0.000 A 
ENDBRANCH  56  69
ENDBRANCH  30  31
ENDBRANCH  23  25
ENDBRANCH  22  23
ENDBRANCH  21  22
ENDBRANCH   1  21
TORSDOF 14
ENDMDL
MODEL 3
REMARK VINA RESULT:     -10.6      1.108      6.190
REMARK SMILES Cc1cc(C(=O)NC[C@@H]2CC[C@H](C(=O)OCCOC(=O)c3ccc(-c4c5nc(c(-c6ccccc6)c6ccc([nH]6)c(-c6ccccc6)c6nc(c(-c7ccccc7)c7ccc4[nH]7)C=C6)C=C5)cc3)O2)on1
REMARK SMILES IDX 16 1 15 2 13 3 14 4 12 5 9 6 10 7 69 8 11 9 8 10 7 11 5 12
REMARK SMILES IDX 6 13 4 15 1 16 2 17 3 18 71 19 70 20 17 21 18 22 19 23 20 24
REMARK SMILES IDX 21 25 22 26 68 27 23 28 67 29 24 30 25 31 26 32 61 33 27 34
REMARK SMILES IDX 66 35 60 36 62 37 28 38 65 39 59 40 58 41 29 43 51 44 36 45
REMARK SMILES IDX 50 46 37 47 40 48 49 49 63 50 38 51 39 52 48 54 64 55 41 56
REMARK SMILES IDX 30 57 31 58 35 59 32 60 34 61 33 62 52 63 53 64 57 65 54 66
REMARK SMILES IDX 56 67 55 68 42 69 43 70 47 71 44 72 46 73 45 74
REMARK H PARENT 7 14 62 42 40 53
REMARK Flexibility Score: inf
ROOT
ATOM      1  C   UNL A   1      36.675  22.514  23.575  1.00  0.00     0.274 C 
ENDROOT
BRANCH   1   2
ATOM      2  O   UNL A   1      35.280  22.670  23.896  1.00  0.00    -0.460 OA
BRANCH   2   3
ATOM      3  C   UNL A   1      34.793  23.941  23.893  1.00  0.00     0.335 C 
ATOM      4  O   UNL A   1      34.515  24.571  22.878  1.00  0.00    -0.249 OA
BRANCH   3   5
ATOM      5  C   UNL A   1      34.648  24.530  25.307  1.00  0.00     0.228 C 
ATOM      6  C   UNL A   1      33.387  23.194  26.739  1.00  0.00     0.138 C 
ATOM      7  C   UNL A   1      32.446  24.204  26.095  1.00  0.00     0.037 C 
ATOM      8  O   UNL A   1      34.720  23.495  26.291  1.00  0.00    -0.361 OA
ATOM      9  C   UNL A   1      33.372  25.290  25.605  1.00  0.00     0.047 C 
BRANCH   6  10
ATOM     10  C   UNL A   1      33.060  21.749  26.346  1.00  0.00     0.148 C 
BRANCH  10  11
ATOM     11  N   UNL A   1      32.613  21.669  24.967  1.00  0.00    -0.347 N 
ATOM     12  C   UNL A   1      32.505  20.598  24.113  1.00  0.00     0.289 C 
ATOM     13  O   UNL A   1      32.029  20.837  23.002  1.00  0.00    -0.266 OA
ATOM     14  H   UNL A   1      32.342  22.532  24.576  1.00  0.00     0.164 HD
BRANCH  12  15
ATOM     15  C   UNL A   1      32.921  19.276  24.524  1.00  0.00     0.224 A 
ATOM     16  C   UNL A   1      34.597  16.075  25.149  1.00  0.00     0.070 C 
ATOM     17  C   UNL A   1      33.753  17.285  25.033  1.00  0.00     0.081 A 
ATOM     18  C   UNL A   1      33.985  18.442  24.260  1.00  0.00     0.083 A 
ATOM     19  N   UNL A   1      32.604  17.378  25.706  1.00  0.00    -0.084 NA
ATOM     20  O   UNL A   1      32.079  18.615  25.377  1.00  0.00    -0.351 OA
ENDBRANCH  12  15
ENDBRANCH  10  11
ENDBRANCH   6  10
ENDBRANCH   3   5
ENDBRANCH   2   3
ENDBRANCH   1   2
BRANCH   1  21
ATOM     21  C   UNL A   1      37.299  21.331  24.324  1.00  0.00     0.275 C 
BRANCH  21  22
ATOM     22  O   UNL A   1      37.578  21.650  25.701  1.00  0.00    -0.458 OA
BRANCH  22  23
ATOM     23  C   UNL A   1      38.857  21.434  26.084  1.00  0.00     0.338 C 
ATOM     24  O   UNL A   1      39.521  20.427  25.904  1.00  0.00    -0.246 OA
BRANCH  23  25
ATOM     25  C   UNL A   1      39.442  22.666  26.630  1.00  0.00     0.060 A 
ATOM     26  C   UNL A   1      38.916  23.877  26.177  1.00  0.00     0.016 A 
ATOM     27  C   UNL A   1      40.565  22.647  27.459  1.00  0.00     0.016 A 
ATOM     28  C   UNL A   1      39.523  25.077  26.514  1.00  0.00     0.010 A 
ATOM     29  C   UNL A   1      41.175  23.859  27.805  1.00  0.00     0.010 A 
ATOM     30  C   UNL A   1      40.672  25.076  27.310  1.00  0.00    -0.014 A 
BRANCH  30  31
ATOM     31  C   UNL A   1      41.383  26.358  27.520  1.00  0.00     0.031 A 
ATOM     32  C   UNL A   1      40.806  27.379  28.458  1.00  0.00     0.074 A 
ATOM     33  C   UNL A   1      42.587  26.560  26.955  1.00  0.00     0.049 A 
ATOM     34  N   UNL A   1      41.273  28.558  28.783  1.00  0.00    -0.248 NA
ATOM     35  C   UNL A   1      39.543  27.026  29.124  1.00  0.00     0.031 C 
ATOM     36  C   UNL A   1      43.284  25.610  26.086  1.00  0.00     0.029 A 
ATOM     37  N   UNL A   1      43.447  27.622  27.053  1.00  0.00    -0.354 N 
ATOM     38  C   UNL A   1      40.349  29.098  29.667  1.00  0.00     0.074 A 
ATOM     39  C   UNL A   1      39.292  28.123  29.824  1.00  0.00     0.031 C 
ATOM     40  C   UNL A   1      44.480  26.124  25.751  1.00  0.00     0.029 A 
ATOM     41  C   UNL A   1      44.612  27.449  26.348  1.00  0.00     0.049 A 
ATOM     42  H   UNL A   1      43.248  28.431  27.578  1.00  0.00     0.167 HD
ATOM     43  C   UNL A   1      40.378  30.299  30.290  1.00  0.00     0.031 A 
ATOM     44  C   UNL A   1      45.664  28.273  26.193  1.00  0.00     0.031 A 
ATOM     45  C   UNL A   1      41.432  31.265  30.146  1.00  0.00     0.049 A 
ATOM     46  C   UNL A   1      45.655  29.615  26.868  1.00  0.00     0.074 A 
ATOM     47  C   UNL A   1      41.537  32.522  30.716  1.00  0.00     0.029 A 
ATOM     48  N   UNL A   1      42.574  31.073  29.385  1.00  0.00    -0.354 N 
ATOM     49  N   UNL A   1      44.749  30.133  27.662  1.00  0.00    -0.248 NA
ATOM     50  C   UNL A   1      46.813  30.486  26.621  1.00  0.00     0.031 C 
ATOM     51  C   UNL A   1      42.734  33.102  30.278  1.00  0.00     0.029 A 
ATOM     52  C   UNL A   1      43.387  32.189  29.465  1.00  0.00     0.049 A 
ATOM     53  H   UNL A   1      42.775  30.262  28.865  1.00  0.00     0.167 HD
ATOM     54  C   UNL A   1      45.233  31.385  28.018  1.00  0.00     0.074 A 
ATOM     55  C   UNL A   1      46.519  31.540  27.369  1.00  0.00     0.031 C 
ATOM     56  C   UNL A   1      44.661  32.324  28.809  1.00  0.00     0.031 A 
BRANCH  43  57
ATOM     57  C   UNL A   1      39.200  30.647  31.153  1.00  0.00    -0.014 A 
ATOM     58  C   UNL A   1      38.075  31.296  30.624  1.00  0.00     0.009 A 
ATOM     59  C   UNL A   1      39.218  30.312  32.516  1.00  0.00     0.009 A 
ATOM     60  C   UNL A   1      36.999  31.626  31.451  1.00  0.00     0.001 A 
ATOM     61  C   UNL A   1      38.133  30.627  33.336  1.00  0.00     0.001 A 
ATOM     62  C   UNL A   1      37.028  31.291  32.804  1.00  0.00     0.000 A 
ENDBRANCH  43  57
BRANCH  44  63
ATOM     63  C   UNL A   1      46.810  27.858  25.347  1.00  0.00    -0.014 A 
ATOM     64  C   UNL A   1      46.799  28.091  23.965  1.00  0.00     0.009 A 
ATOM     65  C   UNL A   1      47.922  27.225  25.923  1.00  0.00     0.009 A 
ATOM     66  C   UNL A   1      47.874  27.683  23.171  1.00  0.00     0.001 A 
ATOM     67  C   UNL A   1      49.004  26.837  25.131  1.00  0.00     0.001 A 
ATOM     68  C   UNL A   1      48.976  27.060  23.756  1.00  0.00     0.000 A 
ENDBRANCH  44  63
BRANCH  56  69
ATOM     69  C   UNL A   1      45.435  33.589  29.028  1.00  0.00    -0.014 A 
ATOM     70  C   UNL A   1      46.350  33.702  30.086  1.00  0.00     0.009 A 
ATOM     71  C   UNL A   1      45.263  34.672  28.152  1.00  0.00     0.009 A 
ATOM     72  C   UNL A   1      47.057  34.889  30.280  1.00  0.00     0.001 A 
ATOM     73  C   UNL A   1      45.987  35.850  28.338  1.00  0.00     0.001 A 
ATOM     74  C   UNL A   1      46.877  35.961  29.405  1.00  0.00     0.000 A 
ENDBRANCH  56  69
ENDBRANCH  30  31
ENDBRANCH  23  25
ENDBRANCH  22  23
ENDBRANCH  21  22
ENDBRANCH   1  21
TORSDOF 14
ENDMDL
