MODEL 1
REMARK VINA RESULT:     -10.3      0.000      0.000
REMARK SMILES O=C(CC[N@H+]1CCC[C@@H](C(=O)OCCOC(=O)c2ccc(-c3c4nc(c(-c5ccccc5)c5ccc([nH]5)c(-c5ccccc5)c5nc(c(-c6ccccc6)c6ccc3[nH]6)C=C5)C=C4)cc2)C1)Nc1cccc(F)c1
REMARK SMILES IDX 13 1 12 2 10 3 11 4 9 5 5 6 6 7 66 8 7 10 8 11 4 12 3 13
REMARK SMILES IDX 2 14 1 15 67 16 68 18 69 19 74 20 70 21 72 22 71 23 73 24
REMARK SMILES IDX 14 25 15 26 16 27 17 28 18 29 19 30 65 31 20 32 64 33 21 34
REMARK SMILES IDX 22 35 23 36 58 37 24 38 63 39 57 40 59 41 25 42 62 43 56 44
REMARK SMILES IDX 55 45 26 47 48 48 33 49 47 50 34 51 37 52 46 53 60 54 35 55
REMARK SMILES IDX 36 56 45 58 61 59 38 60 27 61 28 62 32 63 29 64 31 65 30 66
REMARK SMILES IDX 49 67 50 68 54 69 51 70 53 71 52 72 39 73 40 74 44 75 41 76
REMARK SMILES IDX 43 77 42 78
REMARK H PARENT 5 9 67 17 59 46 37 57
REMARK Flexibility Score: inf
ROOT
ATOM      1  C   UNL A   1      42.512  18.944  26.593  1.00  0.00     0.274 C 
ENDROOT
BRANCH   1   2
ATOM      2  O   UNL A   1      41.408  19.711  27.121  1.00  0.00    -0.462 OA
BRANCH   2   3
ATOM      3  C   UNL A   1      40.424  20.047  26.244  1.00  0.00     0.314 C 
ATOM      4  O   UNL A   1      39.752  19.250  25.602  1.00  0.00    -0.252 OA
BRANCH   3   5
ATOM      5  C   UNL A   1      40.165  21.543  26.214  1.00  0.00     0.154 C 
ATOM      6  N   UNL A   1      38.170  23.112  26.260  1.00  0.00    -0.334 N 
ATOM      7  C   UNL A   1      38.909  24.079  27.052  1.00  0.00     0.262 C 
ATOM      8  C   UNL A   1      38.678  21.787  25.955  1.00  0.00     0.277 C 
ATOM      9  H   UNL A   1      38.759  23.348  25.461  1.00  0.00     0.348 HD
ATOM     10  C   UNL A   1      40.387  23.755  27.283  1.00  0.00     0.062 C 
ATOM     11  C   UNL A   1      40.633  22.264  27.471  1.00  0.00     0.027 C 
BRANCH   6  12
ATOM     12  C   UNL A   1      36.768  23.418  25.962  1.00  0.00     0.272 C 
BRANCH  12  13
ATOM     13  C   UNL A   1      35.722  22.345  26.304  1.00  0.00     0.161 C 
BRANCH  13  14
ATOM     14  C   UNL A   1      35.052  21.642  25.128  1.00  0.00     0.230 C 
ATOM     15  O   UNL A   1      35.087  22.144  24.007  1.00  0.00    -0.275 OA
ATOM     16  N   UNL A   1      34.491  20.428  25.448  1.00  0.00    -0.326 N 
ATOM     17  H   UNL A   1      34.439  20.223  26.410  1.00  0.00     0.169 HD
BRANCH  16  18
ATOM     18  C   UNL A   1      33.984  19.440  24.589  1.00  0.00     0.044 A 
ATOM     19  C   UNL A   1      32.769  19.719  23.943  1.00  0.00     0.026 A 
ATOM     20  C   UNL A   1      34.589  18.203  24.388  1.00  0.00     0.065 A 
ATOM     21  C   UNL A   1      32.164  18.778  23.107  1.00  0.00     0.005 A 
ATOM     22  C   UNL A   1      33.974  17.265  23.563  1.00  0.00     0.125 A 
ATOM     23  C   UNL A   1      32.770  17.540  22.921  1.00  0.00     0.039 A 
ATOM     24  F   UNL A   1      34.542  16.065  23.390  1.00  0.00    -0.207 F 
ENDBRANCH  16  18
ENDBRANCH  13  14
ENDBRANCH  12  13
ENDBRANCH   6  12
ENDBRANCH   3   5
ENDBRANCH   2   3
ENDBRANCH   1   2
BRANCH   1  25
ATOM     25  C   UNL A   1      43.176  19.686  25.437  1.00  0.00     0.275 C 
BRANCH  25  26
ATOM     26  O   UNL A   1      43.890  20.822  25.953  1.00  0.00    -0.458 OA
BRANCH  26  27
ATOM     27  C   UNL A   1      44.050  21.852  25.093  1.00  0.00     0.338 C 
ATOM     28  O   UNL A   1      44.261  21.798  23.895  1.00  0.00    -0.246 OA
BRANCH  27  29
ATOM     29  C   UNL A   1      43.899  23.124  25.816  1.00  0.00     0.060 A 
ATOM     30  C   UNL A   1      43.600  24.291  25.116  1.00  0.00     0.016 A 
ATOM     31  C   UNL A   1      44.192  23.174  27.178  1.00  0.00     0.016 A 
ATOM     32  C   UNL A   1      43.696  25.527  25.753  1.00  0.00     0.010 A 
ATOM     33  C   UNL A   1      44.174  24.405  27.839  1.00  0.00     0.010 A 
ATOM     34  C   UNL A   1      43.961  25.599  27.128  1.00  0.00    -0.014 A 
BRANCH  34  35
ATOM     35  C   UNL A   1      44.024  26.909  27.833  1.00  0.00     0.031 A 
ATOM     36  C   UNL A   1      42.766  27.547  28.360  1.00  0.00     0.074 A 
ATOM     37  C   UNL A   1      45.201  27.549  27.975  1.00  0.00     0.049 A 
ATOM     38  N   UNL A   1      42.577  28.771  28.785  1.00  0.00    -0.248 NA
ATOM     39  C   UNL A   1      41.559  26.703  28.405  1.00  0.00     0.031 C 
ATOM     40  C   UNL A   1      46.510  27.035  27.564  1.00  0.00     0.029 A 
ATOM     41  N   UNL A   1      45.485  28.784  28.505  1.00  0.00    -0.354 N 
ATOM     42  C   UNL A   1      41.222  28.864  29.080  1.00  0.00     0.074 A 
ATOM     43  C   UNL A   1      40.638  27.570  28.803  1.00  0.00     0.031 C 
ATOM     44  C   UNL A   1      47.456  27.931  27.882  1.00  0.00     0.029 A 
ATOM     45  C   UNL A   1      46.816  29.119  28.431  1.00  0.00     0.049 A 
ATOM     46  H   UNL A   1      44.802  29.374  28.898  1.00  0.00     0.167 HD
ATOM     47  C   UNL A   1      40.526  29.937  29.528  1.00  0.00     0.031 A 
ATOM     48  C   UNL A   1      47.451  30.271  28.718  1.00  0.00     0.031 A 
ATOM     49  C   UNL A   1      41.114  31.211  29.849  1.00  0.00     0.049 A 
ATOM     50  C   UNL A   1      46.654  31.457  29.172  1.00  0.00     0.074 A 
ATOM     51  C   UNL A   1      40.494  32.348  30.336  1.00  0.00     0.029 A 
ATOM     52  N   UNL A   1      42.461  31.509  29.728  1.00  0.00    -0.354 N 
ATOM     53  N   UNL A   1      45.366  31.548  29.394  1.00  0.00    -0.248 NA
ATOM     54  C   UNL A   1      47.395  32.708  29.387  1.00  0.00     0.031 C 
ATOM     55  C   UNL A   1      41.462  33.347  30.480  1.00  0.00     0.029 A 
ATOM     56  C   UNL A   1      42.689  32.818  30.116  1.00  0.00     0.049 A 
ATOM     57  H   UNL A   1      43.153  30.884  29.413  1.00  0.00     0.167 HD
ATOM     58  C   UNL A   1      45.144  32.861  29.785  1.00  0.00     0.074 A 
ATOM     59  C   UNL A   1      46.429  33.526  29.783  1.00  0.00     0.031 C 
ATOM     60  C   UNL A   1      43.975  33.461  30.113  1.00  0.00     0.031 A 
BRANCH  47  61
ATOM     61  C   UNL A   1      39.038  29.799  29.656  1.00  0.00    -0.014 A 
ATOM     62  C   UNL A   1      38.433  29.450  30.873  1.00  0.00     0.009 A 
ATOM     63  C   UNL A   1      38.224  30.077  28.545  1.00  0.00     0.009 A 
ATOM     64  C   UNL A   1      37.043  29.363  30.968  1.00  0.00     0.001 A 
ATOM     65  C   UNL A   1      36.834  30.009  28.649  1.00  0.00     0.001 A 
ATOM     66  C   UNL A   1      36.244  29.646  29.858  1.00  0.00     0.000 A 
ENDBRANCH  47  61
BRANCH  48  67
ATOM     67  C   UNL A   1      48.920  30.373  28.524  1.00  0.00    -0.014 A 
ATOM     68  C   UNL A   1      49.446  30.774  27.288  1.00  0.00     0.009 A 
ATOM     69  C   UNL A   1      49.800  30.079  29.577  1.00  0.00     0.009 A 
ATOM     70  C   UNL A   1      50.827  30.870  27.108  1.00  0.00     0.001 A 
ATOM     71  C   UNL A   1      51.179  30.201  29.402  1.00  0.00     0.001 A 
ATOM     72  C   UNL A   1      51.692  30.590  28.165  1.00  0.00     0.000 A 
ENDBRANCH  48  67
BRANCH  60  73
ATOM     73  C   UNL A   1      44.041  34.899  30.530  1.00  0.00    -0.014 A 
ATOM     74  C   UNL A   1      43.896  35.930  29.590  1.00  0.00     0.009 A 
ATOM     75  C   UNL A   1      44.209  35.223  31.885  1.00  0.00     0.009 A 
ATOM     76  C   UNL A   1      43.939  37.264  30.000  1.00  0.00     0.001 A 
ATOM     77  C   UNL A   1      44.234  36.556  32.293  1.00  0.00     0.001 A 
ATOM     78  C   UNL A   1      44.104  37.575  31.350  1.00  0.00     0.000 A 
ENDBRANCH  60  73
ENDBRANCH  34  35
ENDBRANCH  27  29
ENDBRANCH  26  27
ENDBRANCH  25  26
ENDBRANCH   1  25
TORSDOF 15
ENDMDL
MODEL 2
REMARK VINA RESULT:     -10.3      3.379      9.095
REMARK SMILES O=C(CC[N@H+]1CCC[C@@H](C(=O)OCCOC(=O)c2ccc(-c3c4nc(c(-c5ccccc5)c5ccc([nH]5)c(-c5ccccc5)c5nc(c(-c6ccccc6)c6ccc3[nH]6)C=C5)C=C4)cc2)C1)Nc1cccc(F)c1
REMARK SMILES IDX 13 1 12 2 10 3 11 4 9 5 5 6 6 7 66 8 7 10 8 11 4 12 3 13
REMARK SMILES IDX 2 14 1 15 67 16 68 18 69 19 74 20 70 21 72 22 71 23 73 24
REMARK SMILES IDX 14 25 15 26 16 27 17 28 18 29 19 30 65 31 20 32 64 33 21 34
REMARK SMILES IDX 22 35 23 36 58 37 24 38 63 39 57 40 59 41 25 42 62 43 56 44
REMARK SMILES IDX 55 45 26 47 48 48 33 49 47 50 34 51 37 52 46 53 60 54 35 55
REMARK SMILES IDX 36 56 45 58 61 59 38 60 27 61 28 62 32 63 29 64 31 65 30 66
REMARK SMILES IDX 49 67 50 68 54 69 51 70 53 71 52 72 39 73 40 74 44 75 41 76
REMARK SMILES IDX 43 77 42 78
REMARK H PARENT 5 9 67 17 59 46 37 57
REMARK Flexibility Score: inf
ROOT
ATOM      1  C   UNL A   1      32.197  30.300  26.814  1.00  0.00     0.274 C 
ENDROOT
BRANCH   1   2
ATOM      2  O   UNL A   1      32.297  29.137  25.963  1.00  0.00    -0.462 OA
BRANCH   2   3
ATOM      3  C   UNL A   1      31.777  27.978  26.450  1.00  0.00     0.314 C 
ATOM      4  O   UNL A   1      31.311  27.833  27.573  1.00  0.00    -0.252 OA
BRANCH   3   5
ATOM      5  C   UNL A   1      31.741  26.879  25.402  1.00  0.00     0.154 C 
ATOM      6  N   UNL A   1      31.190  24.403  25.287  1.00  0.00    -0.334 N 
ATOM      7  C   UNL A   1      30.612  24.562  23.964  1.00  0.00     0.262 C 
ATOM      8  C   UNL A   1      31.615  25.526  26.104  1.00  0.00     0.277 C 
ATOM      9  H   UNL A   1      32.113  24.557  24.879  1.00  0.00     0.348 HD
ATOM     10  C   UNL A   1      30.764  25.949  23.337  1.00  0.00     0.062 C 
ATOM     11  C   UNL A   1      30.644  27.068  24.364  1.00  0.00     0.027 C 
BRANCH   6  12
ATOM     12  C   UNL A   1      31.124  23.072  25.895  1.00  0.00     0.272 C 
BRANCH  12  13
ATOM     13  C   UNL A   1      31.641  21.887  25.062  1.00  0.00     0.161 C 
BRANCH  13  14
ATOM     14  C   UNL A   1      33.112  21.921  24.663  1.00  0.00     0.230 C 
ATOM     15  O   UNL A   1      33.431  22.081  23.488  1.00  0.00    -0.275 OA
ATOM     16  N   UNL A   1      33.981  21.818  25.725  1.00  0.00    -0.326 N 
ATOM     17  H   UNL A   1      33.573  21.573  26.587  1.00  0.00     0.169 HD
BRANCH  16  18
ATOM     18  C   UNL A   1      35.371  22.014  25.746  1.00  0.00     0.044 A 
ATOM     19  C   UNL A   1      35.830  23.295  26.093  1.00  0.00     0.026 A 
ATOM     20  C   UNL A   1      36.297  21.035  25.397  1.00  0.00     0.065 A 
ATOM     21  C   UNL A   1      37.193  23.596  26.095  1.00  0.00     0.005 A 
ATOM     22  C   UNL A   1      37.654  21.346  25.389  1.00  0.00     0.125 A 
ATOM     23  C   UNL A   1      38.110  22.615  25.735  1.00  0.00     0.039 A 
ATOM     24  F   UNL A   1      38.544  20.413  25.029  1.00  0.00    -0.207 F 
ENDBRANCH  16  18
ENDBRANCH  13  14
ENDBRANCH  12  13
ENDBRANCH   6  12
ENDBRANCH   3   5
ENDBRANCH   2   3
ENDBRANCH   1   2
BRANCH   1  25
ATOM     25  C   UNL A   1      33.578  30.892  27.077  1.00  0.00     0.275 C 
BRANCH  25  26
ATOM     26  O   UNL A   1      34.225  30.137  28.116  1.00  0.00    -0.458 OA
BRANCH  26  27
ATOM     27  C   UNL A   1      35.132  30.815  28.853  1.00  0.00     0.338 C 
ATOM     28  O   UNL A   1      34.962  31.838  29.489  1.00  0.00    -0.246 OA
BRANCH  27  29
ATOM     29  C   UNL A   1      36.422  30.108  28.815  1.00  0.00     0.060 A 
ATOM     30  C   UNL A   1      36.909  29.486  29.963  1.00  0.00     0.016 A 
ATOM     31  C   UNL A   1      37.210  30.186  27.668  1.00  0.00     0.016 A 
ATOM     32  C   UNL A   1      38.225  29.030  30.002  1.00  0.00     0.010 A 
ATOM     33  C   UNL A   1      38.490  29.625  27.675  1.00  0.00     0.010 A 
ATOM     34  C   UNL A   1      39.026  29.072  28.851  1.00  0.00    -0.014 A 
BRANCH  34  35
ATOM     35  C   UNL A   1      40.420  28.551  28.863  1.00  0.00     0.031 A 
ATOM     36  C   UNL A   1      41.571  29.475  29.163  1.00  0.00     0.074 A 
ATOM     37  C   UNL A   1      40.667  27.259  28.572  1.00  0.00     0.049 A 
ATOM     38  N   UNL A   1      42.855  29.277  28.993  1.00  0.00    -0.248 NA
ATOM     39  C   UNL A   1      41.236  30.799  29.715  1.00  0.00     0.031 C 
ATOM     40  C   UNL A   1      39.654  26.233  28.312  1.00  0.00     0.029 A 
ATOM     41  N   UNL A   1      41.857  26.587  28.441  1.00  0.00    -0.354 N 
ATOM     42  C   UNL A   1      43.472  30.470  29.350  1.00  0.00     0.074 A 
ATOM     43  C   UNL A   1      42.427  31.382  29.762  1.00  0.00     0.031 C 
ATOM     44  C   UNL A   1      40.263  25.060  28.082  1.00  0.00     0.029 A 
ATOM     45  C   UNL A   1      41.705  25.268  28.085  1.00  0.00     0.049 A 
ATOM     46  H   UNL A   1      42.735  27.009  28.586  1.00  0.00     0.167 HD
ATOM     47  C   UNL A   1      44.790  30.780  29.322  1.00  0.00     0.031 A 
ATOM     48  C   UNL A   1      42.617  24.338  27.743  1.00  0.00     0.031 A 
ATOM     49  C   UNL A   1      45.835  29.860  28.958  1.00  0.00     0.049 A 
ATOM     50  C   UNL A   1      44.066  24.718  27.678  1.00  0.00     0.074 A 
ATOM     51  C   UNL A   1      47.202  30.076  28.927  1.00  0.00     0.029 A 
ATOM     52  N   UNL A   1      45.627  28.545  28.576  1.00  0.00    -0.354 N 
ATOM     53  N   UNL A   1      44.631  25.864  27.964  1.00  0.00    -0.248 NA
ATOM     54  C   UNL A   1      45.000  23.681  27.215  1.00  0.00     0.031 C 
ATOM     55  C   UNL A   1      47.820  28.898  28.494  1.00  0.00     0.029 A 
ATOM     56  C   UNL A   1      46.840  27.941  28.291  1.00  0.00     0.049 A 
ATOM     57  H   UNL A   1      44.749  28.106  28.515  1.00  0.00     0.167 HD
ATOM     58  C   UNL A   1      45.987  25.685  27.727  1.00  0.00     0.074 A 
ATOM     59  C   UNL A   1      46.162  24.317  27.287  1.00  0.00     0.031 C 
ATOM     60  C   UNL A   1      46.995  26.579  27.860  1.00  0.00     0.031 A 
BRANCH  47  61
ATOM     61  C   UNL A   1      45.182  32.191  29.651  1.00  0.00    -0.014 A 
ATOM     62  C   UNL A   1      45.529  32.573  30.956  1.00  0.00     0.009 A 
ATOM     63  C   UNL A   1      45.255  33.142  28.620  1.00  0.00     0.009 A 
ATOM     64  C   UNL A   1      45.922  33.886  31.224  1.00  0.00     0.001 A 
ATOM     65  C   UNL A   1      45.667  34.448  28.888  1.00  0.00     0.001 A 
ATOM     66  C   UNL A   1      45.995  34.821  30.190  1.00  0.00     0.000 A 
ENDBRANCH  47  61
BRANCH  48  67
ATOM     67  C   UNL A   1      42.173  22.970  27.373  1.00  0.00    -0.014 A 
ATOM     68  C   UNL A   1      41.758  22.067  28.362  1.00  0.00     0.009 A 
ATOM     69  C   UNL A   1      42.153  22.567  26.029  1.00  0.00     0.009 A 
ATOM     70  C   UNL A   1      41.340  20.782  28.012  1.00  0.00     0.001 A 
ATOM     71  C   UNL A   1      41.710  21.290  25.679  1.00  0.00     0.001 A 
ATOM     72  C   UNL A   1      41.310  20.396  26.672  1.00  0.00     0.000 A 
ENDBRANCH  48  67
BRANCH  60  73
ATOM     73  C   UNL A   1      48.381  26.092  27.558  1.00  0.00    -0.014 A 
ATOM     74  C   UNL A   1      48.941  26.255  26.283  1.00  0.00     0.009 A 
ATOM     75  C   UNL A   1      49.147  25.501  28.575  1.00  0.00     0.009 A 
ATOM     76  C   UNL A   1      50.240  25.815  26.026  1.00  0.00     0.001 A 
ATOM     77  C   UNL A   1      50.451  25.078  28.320  1.00  0.00     0.001 A 
ATOM     78  C   UNL A   1      50.994  25.231  27.044  1.00  0.00     0.000 A 
ENDBRANCH  60  73
ENDBRANCH  34  35
ENDBRANCH  27  29
ENDBRANCH  26  27
ENDBRANCH  25  26
ENDBRANCH   1  25
TORSDOF 15
ENDMDL
MODEL 3
REMARK VINA RESULT:     -10.2      4.598      8.427
REMARK SMILES O=C(CC[N@H+]1CCC[C@@H](C(=O)OCCOC(=O)c2ccc(-c3c4nc(c(-c5ccccc5)c5ccc([nH]5)c(-c5ccccc5)c5nc(c(-c6ccccc6)c6ccc3[nH]6)C=C5)C=C4)cc2)C1)Nc1cccc(F)c1
REMARK SMILES IDX 13 1 12 2 10 3 11 4 9 5 5 6 6 7 66 8 7 10 8 11 4 12 3 13
REMARK SMILES IDX 2 14 1 15 67 16 68 18 69 19 74 20 70 21 72 22 71 23 73 24
REMARK SMILES IDX 14 25 15 26 16 27 17 28 18 29 19 30 65 31 20 32 64 33 21 34
REMARK SMILES IDX 22 35 23 36 58 37 24 38 63 39 57 40 59 41 25 42 62 43 56 44
REMARK SMILES IDX 55 45 26 47 48 48 33 49 47 50 34 51 37 52 46 53 60 54 35 55
REMARK SMILES IDX 36 56 45 58 61 59 38 60 27 61 28 62 32 63 29 64 31 65 30 66
REMARK SMILES IDX 49 67 50 68 54 69 51 70 53 71 52 72 39 73 40 74 44 75 41 76
REMARK SMILES IDX 43 77 42 78
REMARK H PARENT 5 9 67 17 59 46 37 57
REMARK Flexibility Score: inf
ROOT
ATOM      1  C   UNL A   1      36.942  21.656  24.734  1.00  0.00     0.274 C 
ENDROOT
BRANCH   1   2
ATOM      2  O   UNL A   1      36.238  20.423  25.000  1.00  0.00    -0.462 OA
BRANCH   2   3
ATOM      3  C   UNL A   1      34.879  20.477  24.966  1.00  0.00     0.314 C 
ATOM      4  O   UNL A   1      34.156  19.644  24.433  1.00  0.00    -0.252 OA
BRANCH   3   5
ATOM      5  C   UNL A   1      34.329  21.648  25.760  1.00  0.00     0.154 C 
ATOM      6  N   UNL A   1      32.208  23.042  25.838  1.00  0.00    -0.334 N 
ATOM      7  C   UNL A   1      32.299  23.156  27.282  1.00  0.00     0.262 C 
ATOM      8  C   UNL A   1      33.083  22.186  25.056  1.00  0.00     0.277 C 
ATOM      9  H   UNL A   1      33.012  23.666  25.759  1.00  0.00     0.348 HD
ATOM     10  C   UNL A   1      33.567  22.578  27.914  1.00  0.00     0.062 C 
ATOM     11  C   UNL A   1      34.038  21.309  27.216  1.00  0.00     0.027 C 
BRANCH   6  12
ATOM     12  C   UNL A   1      31.040  23.642  25.187  1.00  0.00     0.272 C 
BRANCH  12  13
ATOM     13  C   UNL A   1      30.558  25.003  25.715  1.00  0.00     0.161 C 
BRANCH  13  14
ATOM     14  C   UNL A   1      31.504  26.184  25.528  1.00  0.00     0.230 C 
ATOM     15  O   UNL A   1      32.026  26.392  24.435  1.00  0.00    -0.275 OA
ATOM     16  N   UNL A   1      31.644  26.970  26.648  1.00  0.00    -0.326 N 
ATOM     17  H   UNL A   1      31.259  26.603  27.477  1.00  0.00     0.169 HD
BRANCH  16  18
ATOM     18  C   UNL A   1      32.263  28.225  26.769  1.00  0.00     0.044 A 
ATOM     19  C   UNL A   1      33.641  28.234  27.037  1.00  0.00     0.026 A 
ATOM     20  C   UNL A   1      31.580  29.435  26.688  1.00  0.00     0.065 A 
ATOM     21  C   UNL A   1      34.331  29.434  27.220  1.00  0.00     0.005 A 
ATOM     22  C   UNL A   1      32.273  30.627  26.885  1.00  0.00     0.125 A 
ATOM     23  C   UNL A   1      33.639  30.638  27.148  1.00  0.00     0.039 A 
ATOM     24  F   UNL A   1      31.613  31.791  26.832  1.00  0.00    -0.207 F 
ENDBRANCH  16  18
ENDBRANCH  13  14
ENDBRANCH  12  13
ENDBRANCH   6  12
ENDBRANCH   3   5
ENDBRANCH   2   3
ENDBRANCH   1   2
BRANCH   1  25
ATOM     25  C   UNL A   1      38.222  21.730  25.560  1.00  0.00     0.275 C 
BRANCH  25  26
ATOM     26  O   UNL A   1      38.440  23.090  25.973  1.00  0.00    -0.458 OA
BRANCH  26  27
ATOM     27  C   UNL A   1      39.681  23.372  26.426  1.00  0.00     0.338 C 
ATOM     28  O   UNL A   1      40.696  22.718  26.277  1.00  0.00    -0.246 OA
BRANCH  27  29
ATOM     29  C   UNL A   1      39.663  24.659  27.139  1.00  0.00     0.060 A 
ATOM     30  C   UNL A   1      40.420  25.729  26.664  1.00  0.00     0.016 A 
ATOM     31  C   UNL A   1      38.997  24.754  28.360  1.00  0.00     0.016 A 
ATOM     32  C   UNL A   1      40.599  26.860  27.458  1.00  0.00     0.010 A 
ATOM     33  C   UNL A   1      39.086  25.935  29.101  1.00  0.00     0.010 A 
ATOM     34  C   UNL A   1      39.915  26.989  28.676  1.00  0.00    -0.014 A 
BRANCH  34  35
ATOM     35  C   UNL A   1      40.062  28.209  29.517  1.00  0.00     0.031 A 
ATOM     36  C   UNL A   1      41.176  28.304  30.525  1.00  0.00     0.074 A 
ATOM     37  C   UNL A   1      39.179  29.221  29.407  1.00  0.00     0.049 A 
ATOM     38  N   UNL A   1      41.334  29.162  31.502  1.00  0.00    -0.248 NA
ATOM     39  C   UNL A   1      42.247  27.298  30.431  1.00  0.00     0.031 C 
ATOM     40  C   UNL A   1      38.079  29.296  28.442  1.00  0.00     0.029 A 
ATOM     41  N   UNL A   1      39.067  30.386  30.125  1.00  0.00    -0.354 N 
ATOM     42  C   UNL A   1      42.479  28.758  32.178  1.00  0.00     0.074 A 
ATOM     43  C   UNL A   1      42.987  27.590  31.493  1.00  0.00     0.031 C 
ATOM     44  C   UNL A   1      37.425  30.455  28.608  1.00  0.00     0.029 A 
ATOM     45  C   UNL A   1      37.996  31.161  29.748  1.00  0.00     0.049 A 
ATOM     46  H   UNL A   1      39.692  30.642  30.841  1.00  0.00     0.167 HD
ATOM     47  C   UNL A   1      43.046  29.305  33.280  1.00  0.00     0.031 A 
ATOM     48  C   UNL A   1      37.488  32.285  30.288  1.00  0.00     0.031 A 
ATOM     49  C   UNL A   1      42.569  30.495  33.935  1.00  0.00     0.049 A 
ATOM     50  C   UNL A   1      38.108  32.847  31.533  1.00  0.00     0.074 A 
ATOM     51  C   UNL A   1      43.096  31.140  35.041  1.00  0.00     0.029 A 
ATOM     52  N   UNL A   1      41.464  31.224  33.533  1.00  0.00    -0.354 N 
ATOM     53  N   UNL A   1      39.157  32.424  32.194  1.00  0.00    -0.248 NA
ATOM     54  C   UNL A   1      37.456  34.026  32.121  1.00  0.00     0.031 C 
ATOM     55  C   UNL A   1      42.288  32.244  35.329  1.00  0.00     0.029 A 
ATOM     56  C   UNL A   1      41.281  32.305  34.379  1.00  0.00     0.049 A 
ATOM     57  H   UNL A   1      40.893  31.008  32.762  1.00  0.00     0.167 HD
ATOM     58  C   UNL A   1      39.298  33.290  33.270  1.00  0.00     0.074 A 
ATOM     59  C   UNL A   1      38.236  34.269  33.165  1.00  0.00     0.031 C 
ATOM     60  C   UNL A   1      40.224  33.271  34.257  1.00  0.00     0.031 A 
BRANCH  47  61
ATOM     61  C   UNL A   1      44.225  28.597  33.882  1.00  0.00    -0.014 A 
ATOM     62  C   UNL A   1      45.542  28.935  33.536  1.00  0.00     0.009 A 
ATOM     63  C   UNL A   1      44.008  27.609  34.856  1.00  0.00     0.009 A 
ATOM     64  C   UNL A   1      46.618  28.281  34.139  1.00  0.00     0.001 A 
ATOM     65  C   UNL A   1      45.086  26.971  35.472  1.00  0.00     0.001 A 
ATOM     66  C   UNL A   1      46.389  27.303  35.109  1.00  0.00     0.000 A 
ENDBRANCH  47  61
BRANCH  48  67
ATOM     67  C   UNL A   1      36.288  32.917  29.686  1.00  0.00    -0.014 A 
ATOM     68  C   UNL A   1      35.014  32.672  30.217  1.00  0.00     0.009 A 
ATOM     69  C   UNL A   1      36.413  33.777  28.583  1.00  0.00     0.009 A 
ATOM     70  C   UNL A   1      33.887  33.269  29.649  1.00  0.00     0.001 A 
ATOM     71  C   UNL A   1      35.288  34.393  28.034  1.00  0.00     0.001 A 
ATOM     72  C   UNL A   1      34.025  34.133  28.563  1.00  0.00     0.000 A 
ENDBRANCH  48  67
BRANCH  60  73
ATOM     73  C   UNL A   1      40.148  34.362  35.282  1.00  0.00    -0.014 A 
ATOM     74  C   UNL A   1      39.406  34.195  36.460  1.00  0.00     0.009 A 
ATOM     75  C   UNL A   1      40.863  35.553  35.084  1.00  0.00     0.009 A 
ATOM     76  C   UNL A   1      39.365  35.214  37.414  1.00  0.00     0.001 A 
ATOM     77  C   UNL A   1      40.834  36.562  36.046  1.00  0.00     0.001 A 
ATOM     78  C   UNL A   1      40.081  36.394  37.208  1.00  0.00     0.000 A 
ENDBRANCH  60  73
ENDBRANCH  34  35
ENDBRANCH  27  29
ENDBRANCH  26  27
ENDBRANCH  25  26
ENDBRANCH   1  25
TORSDOF 15
ENDMDL
