MODEL 1
REMARK VINA RESULT:     -13.3      0.000      0.000
REMARK SMILES Cc1ccc(S(=O)(=O)n2cc(C(=O)C(=O)NCC(=O)N[C@H](Cc3c[nH]c4ccccc34)C(=O)OCCOC(=O)c3ccc(-c4c5nc(c(-c6ccccc6)c6ccc([nH]6)c(-c6ccccc6)c6nc(c(-c7ccccc7)c7ccc4[nH]7)C=C6)C=C5)cc3)c3ccccc32)cc1
REMARK SMILES IDX 32 1 33 2 21 3 20 4 18 5 19 6 17 8 16 9 14 10 15 11 12 13
REMARK SMILES IDX 13 14 11 15 9 16 10 17 93 18 88 19 92 20 89 21 91 22 90 23
REMARK SMILES IDX 6 24 7 25 8 26 5 27 1 28 2 29 3 30 95 31 4 32 94 33 22 34
REMARK SMILES IDX 23 35 24 36 31 37 25 38 26 39 30 40 27 42 29 43 28 44 34 45
REMARK SMILES IDX 35 46 36 47 37 48 38 49 39 50 40 51 41 52 87 53 42 54 86 55
REMARK SMILES IDX 43 56 44 57 45 58 80 59 46 60 85 61 79 62 81 63 47 64 84 65
REMARK SMILES IDX 78 66 77 67 48 69 70 70 55 71 69 72 56 73 59 74 68 75 82 76
REMARK SMILES IDX 57 77 58 78 67 80 83 81 60 82 49 83 50 84 54 85 51 86 53 87
REMARK SMILES IDX 52 88 71 89 72 90 76 91 73 92 75 93 74 94 61 95 62 96 66 97
REMARK SMILES IDX 63 98 65 99 64 100
REMARK H PARENT 20 7 16 12 25 41 81 68 59 79
REMARK Flexibility Score: inf
ROOT
ATOM      1  C   UNL A   1      41.227  20.968  26.137  1.00  0.00     0.329 C 
ATOM      2  O   UNL A   1      41.383  19.759  26.470  1.00  0.00    -0.250 OA
ENDROOT
BRANCH   1   3
ATOM      3  C   UNL A   1      39.539  22.368  26.383  1.00  0.00     0.196 C 
BRANCH   3   4
ATOM      4  N   UNL A   1      38.189  22.651  25.298  1.00  0.00    -0.341 N 
ATOM      5  C   UNL A   1      36.887  22.370  25.025  1.00  0.00     0.240 C 
ATOM      6  O   UNL A   1      36.452  23.138  24.137  1.00  0.00    -0.273 OA
ATOM      7  H   UNL A   1      38.504  23.268  24.598  1.00  0.00     0.164 HD
BRANCH   5   8
ATOM      8  C   UNL A   1      35.799  21.392  25.646  1.00  0.00     0.216 C 
BRANCH   8   9
ATOM      9  N   UNL A   1      35.309  20.019  25.377  1.00  0.00    -0.340 N 
ATOM     10  C   UNL A   1      34.183  19.589  24.665  1.00  0.00     0.292 C 
ATOM     11  O   UNL A   1      34.116  18.462  24.190  1.00  0.00    -0.265 OA
ATOM     12  H   UNL A   1      35.861  19.299  25.759  1.00  0.00     0.164 HD
BRANCH  10  13
ATOM     13  C   UNL A   1      33.001  20.527  24.515  1.00  0.00     0.252 C 
ATOM     14  O   UNL A   1      31.938  20.040  24.918  1.00  0.00    -0.283 OA
BRANCH  13  15
ATOM     15  C   UNL A   1      32.945  21.915  23.999  1.00  0.00     0.054 A 
ATOM     16  N   UNL A   1      32.289  23.789  22.887  1.00  0.00    -0.240 N 
ATOM     17  C   UNL A   1      33.115  22.637  22.798  1.00  0.00     0.117 A 
ATOM     18  C   UNL A   1      31.629  23.689  24.139  1.00  0.00     0.065 A 
ATOM     19  C   UNL A   1      32.462  22.887  24.897  1.00  0.00     0.012 A 
ATOM     20  C   UNL A   1      30.673  24.518  24.759  1.00  0.00     0.028 A 
ATOM     21  C   UNL A   1      32.511  23.038  26.291  1.00  0.00     0.011 A 
ATOM     22  C   UNL A   1      30.838  24.761  26.124  1.00  0.00     0.002 A 
ATOM     23  C   UNL A   1      31.773  24.061  26.874  1.00  0.00     0.001 A 
BRANCH  16  24
ATOM     24  S   UNL A   1      32.622  25.470  22.592  1.00  0.00     0.268 S 
ATOM     25  O   UNL A   1      31.586  25.760  21.607  1.00  0.00    -0.201 OA
ATOM     26  O   UNL A   1      34.028  25.356  22.214  1.00  0.00    -0.201 OA
BRANCH  24  27
ATOM     27  C   UNL A   1      32.760  27.014  23.408  1.00  0.00     0.088 A 
ATOM     28  C   UNL A   1      33.284  29.858  26.645  1.00  0.00     0.044 C 
ATOM     29  C   UNL A   1      33.114  28.932  25.476  1.00  0.00    -0.051 A 
ATOM     30  C   UNL A   1      33.747  27.709  25.576  1.00  0.00     0.005 A 
ATOM     31  C   UNL A   1      32.330  29.200  24.327  1.00  0.00     0.005 A 
ATOM     32  C   UNL A   1      33.581  26.794  24.558  1.00  0.00     0.022 A 
ATOM     33  C   UNL A   1      32.133  28.238  23.284  1.00  0.00     0.022 A 
ENDBRANCH  24  27
ENDBRANCH  16  24
ENDBRANCH  13  15
ENDBRANCH  10  13
ENDBRANCH   8   9
ENDBRANCH   5   8
ENDBRANCH   3   4
BRANCH   3  34
ATOM     34  C   UNL A   1      39.312  23.927  27.283  1.00  0.00     0.074 C 
BRANCH  34  35
ATOM     35  C   UNL A   1      39.924  25.257  26.874  1.00  0.00    -0.020 A 
ATOM     36  C   UNL A   1      40.774  25.509  25.810  1.00  0.00     0.087 A 
ATOM     37  C   UNL A   1      39.900  26.462  27.669  1.00  0.00     0.003 A 
ATOM     38  N   UNL A   1      41.492  26.642  26.121  1.00  0.00    -0.361 N 
ATOM     39  C   UNL A   1      41.016  27.207  27.283  1.00  0.00     0.046 A 
ATOM     40  C   UNL A   1      39.163  26.893  28.793  1.00  0.00     0.010 A 
ATOM     41  H   UNL A   1      42.239  26.998  25.588  1.00  0.00     0.166 HD
ATOM     42  C   UNL A   1      41.514  28.270  28.049  1.00  0.00     0.026 A 
ATOM     43  C   UNL A   1      39.594  28.015  29.512  1.00  0.00     0.001 A 
ATOM     44  C   UNL A   1      40.776  28.665  29.169  1.00  0.00     0.002 A 
ENDBRANCH  34  35
ENDBRANCH   3  34
ENDBRANCH   1   3
BRANCH   1  45
ATOM     45  O   UNL A   1      42.449  21.286  25.411  1.00  0.00    -0.461 OA
BRANCH  45  46
ATOM     46  C   UNL A   1      43.446  22.029  26.121  1.00  0.00     0.274 C 
BRANCH  46  47
ATOM     47  C   UNL A   1      43.918  23.229  25.281  1.00  0.00     0.275 C 
BRANCH  47  48
ATOM     48  O   UNL A   1      45.137  23.888  25.740  1.00  0.00    -0.458 OA
BRANCH  48  49
ATOM     49  C   UNL A   1      46.023  24.538  24.925  1.00  0.00     0.338 C 
ATOM     50  O   UNL A   1      46.783  23.969  24.159  1.00  0.00    -0.246 OA
BRANCH  49  51
ATOM     51  C   UNL A   1      46.347  25.904  25.397  1.00  0.00     0.060 A 
ATOM     52  C   UNL A   1      47.526  25.933  26.733  1.00  0.00     0.016 A 
ATOM     53  C   UNL A   1      45.028  27.094  25.351  1.00  0.00     0.016 A 
ATOM     54  C   UNL A   1      47.257  27.097  28.106  1.00  0.00     0.010 A 
ATOM     55  C   UNL A   1      44.813  28.307  26.647  1.00  0.00     0.010 A 
ATOM     56  C   UNL A   1      45.846  28.211  28.103  1.00  0.00    -0.014 A 
BRANCH  56  57
ATOM     57  C   UNL A   1      45.215  28.825  29.251  1.00  0.00     0.031 A 
ATOM     58  C   UNL A   1      44.481  27.888  30.143  1.00  0.00     0.074 A 
ATOM     59  C   UNL A   1      45.563  30.093  29.591  1.00  0.00     0.049 A 
ATOM     60  N   UNL A   1      43.609  28.263  31.005  1.00  0.00    -0.248 NA
ATOM     61  C   UNL A   1      44.570  26.419  30.085  1.00  0.00     0.031 C 
ATOM     62  C   UNL A   1      45.528  30.691  30.922  1.00  0.00     0.029 A 
ATOM     63  N   UNL A   1      45.980  31.159  28.791  1.00  0.00    -0.354 N 
ATOM     64  C   UNL A   1      43.348  27.173  31.815  1.00  0.00     0.074 A 
ATOM     65  C   UNL A   1      43.792  26.028  31.092  1.00  0.00     0.031 C 
ATOM     66  C   UNL A   1      45.672  32.027  30.834  1.00  0.00     0.029 A 
ATOM     67  C   UNL A   1      45.708  32.394  29.429  1.00  0.00     0.049 A 
ATOM     68  H   UNL A   1      46.403  31.065  27.907  1.00  0.00     0.167 HD
ATOM     69  C   UNL A   1      42.983  27.395  33.104  1.00  0.00     0.031 A 
ATOM     70  C   UNL A   1      44.869  33.340  28.884  1.00  0.00     0.031 A 
ATOM     71  C   UNL A   1      42.818  28.827  33.309  1.00  0.00     0.049 A 
ATOM     72  C   UNL A   1      43.485  33.265  29.513  1.00  0.00     0.074 A 
ATOM     73  C   UNL A   1      43.657  29.794  33.830  1.00  0.00     0.029 A 
ATOM     74  N   UNL A   1      41.876  29.487  32.534  1.00  0.00    -0.354 N 
ATOM     75  N   UNL A   1      43.108  32.281  30.286  1.00  0.00    -0.248 NA
ATOM     76  C   UNL A   1      42.437  34.273  29.363  1.00  0.00     0.031 C 
ATOM     77  C   UNL A   1      43.249  31.046  33.290  1.00  0.00     0.029 A 
ATOM     78  C   UNL A   1      42.153  30.836  32.469  1.00  0.00     0.049 A 
ATOM     79  H   UNL A   1      41.114  29.051  32.088  1.00  0.00     0.167 HD
ATOM     80  C   UNL A   1      41.863  32.528  30.787  1.00  0.00     0.074 A 
ATOM     81  C   UNL A   1      41.469  33.775  30.157  1.00  0.00     0.031 C 
ATOM     82  C   UNL A   1      41.271  31.715  31.711  1.00  0.00     0.031 A 
BRANCH  69  83
ATOM     83  C   UNL A   1      43.052  26.393  34.228  1.00  0.00    -0.014 A 
ATOM     84  C   UNL A   1      41.932  26.277  35.072  1.00  0.00     0.009 A 
ATOM     85  C   UNL A   1      44.155  25.586  34.561  1.00  0.00     0.009 A 
ATOM     86  C   UNL A   1      41.921  25.439  36.193  1.00  0.00     0.001 A 
ATOM     87  C   UNL A   1      44.152  24.742  35.683  1.00  0.00     0.001 A 
ATOM     88  C   UNL A   1      43.034  24.672  36.502  1.00  0.00     0.000 A 
ENDBRANCH  69  83
BRANCH  70  89
ATOM     89  C   UNL A   1      45.149  33.623  27.438  1.00  0.00    -0.014 A 
ATOM     90  C   UNL A   1      44.588  32.755  26.476  1.00  0.00     0.009 A 
ATOM     91  C   UNL A   1      45.234  34.969  27.119  1.00  0.00     0.009 A 
ATOM     92  C   UNL A   1      43.778  33.263  25.453  1.00  0.00     0.001 A 
ATOM     93  C   UNL A   1      44.382  35.456  26.128  1.00  0.00     0.001 A 
ATOM     94  C   UNL A   1      43.578  34.625  25.367  1.00  0.00     0.000 A 
ENDBRANCH  70  89
BRANCH  82  95
ATOM     95  C   UNL A   1      39.812  31.739  32.090  1.00  0.00    -0.014 A 
ATOM     96  C   UNL A   1      39.302  32.417  33.200  1.00  0.00     0.009 A 
ATOM     97  C   UNL A   1      38.862  31.138  31.229  1.00  0.00     0.009 A 
ATOM     98  C   UNL A   1      37.935  32.392  33.497  1.00  0.00     0.001 A 
ATOM     99  C   UNL A   1      37.492  31.190  31.470  1.00  0.00     0.001 A 
ATOM    100  C   UNL A   1      37.031  31.785  32.631  1.00  0.00     0.000 A 
ENDBRANCH  82  95
ENDBRANCH  56  57
ENDBRANCH  49  51
ENDBRANCH  48  49
ENDBRANCH  47  48
ENDBRANCH  46  47
ENDBRANCH  45  46
ENDBRANCH   1  45
TORSDOF 20
ENDMDL
MODEL 2
REMARK VINA RESULT:     -13.0      3.388      8.810
REMARK SMILES Cc1ccc(S(=O)(=O)n2cc(C(=O)C(=O)NCC(=O)N[C@H](Cc3c[nH]c4ccccc34)C(=O)OCCOC(=O)c3ccc(-c4c5nc(c(-c6ccccc6)c6ccc([nH]6)c(-c6ccccc6)c6nc(c(-c7ccccc7)c7ccc4[nH]7)C=C6)C=C5)cc3)c3ccccc32)cc1
REMARK SMILES IDX 32 1 33 2 21 3 20 4 18 5 19 6 17 8 16 9 14 10 15 11 12 13
REMARK SMILES IDX 13 14 11 15 9 16 10 17 93 18 88 19 92 20 89 21 91 22 90 23
REMARK SMILES IDX 6 24 7 25 8 26 5 27 1 28 2 29 3 30 95 31 4 32 94 33 22 34
REMARK SMILES IDX 23 35 24 36 31 37 25 38 26 39 30 40 27 42 29 43 28 44 34 45
REMARK SMILES IDX 35 46 36 47 37 48 38 49 39 50 40 51 41 52 87 53 42 54 86 55
REMARK SMILES IDX 43 56 44 57 45 58 80 59 46 60 85 61 79 62 81 63 47 64 84 65
REMARK SMILES IDX 78 66 77 67 48 69 70 70 55 71 69 72 56 73 59 74 68 75 82 76
REMARK SMILES IDX 57 77 58 78 67 80 83 81 60 82 49 83 50 84 54 85 51 86 53 87
REMARK SMILES IDX 52 88 71 89 72 90 76 91 73 92 75 93 74 94 61 95 62 96 66 97
REMARK SMILES IDX 63 98 65 99 64 100
REMARK H PARENT 20 7 16 12 25 41 81 68 59 79
REMARK Flexibility Score: inf
ROOT
ATOM      1  C   UNL A   1      37.354  29.159  30.964  1.00  0.00     0.329 C 
ATOM      2  O   UNL A   1      37.964  28.175  31.472  1.00  0.00    -0.250 OA
ENDROOT
BRANCH   1   3
ATOM      3  C   UNL A   1      37.479  30.113  28.978  1.00  0.00     0.196 C 
BRANCH   3   4
ATOM      4  N   UNL A   1      36.313  31.169  28.199  1.00  0.00    -0.341 N 
ATOM      5  C   UNL A   1      35.101  31.249  27.587  1.00  0.00     0.240 C 
ATOM      6  O   UNL A   1      34.764  32.445  27.445  1.00  0.00    -0.273 OA
ATOM      7  H   UNL A   1      36.692  32.077  28.209  1.00  0.00     0.164 HD
BRANCH   5   8
ATOM      8  C   UNL A   1      34.005  30.192  27.133  1.00  0.00     0.216 C 
BRANCH   8   9
ATOM      9  N   UNL A   1      32.708  29.698  27.652  1.00  0.00    -0.340 N 
ATOM     10  C   UNL A   1      31.951  28.584  27.269  1.00  0.00     0.292 C 
ATOM     11  O   UNL A   1      31.131  28.075  28.022  1.00  0.00    -0.265 OA
ATOM     12  H   UNL A   1      32.319  30.236  28.379  1.00  0.00     0.164 HD
BRANCH  10  13
ATOM     13  C   UNL A   1      32.121  28.021  25.871  1.00  0.00     0.252 C 
ATOM     14  O   UNL A   1      31.560  28.696  25.001  1.00  0.00    -0.283 OA
BRANCH  13  15
ATOM     15  C   UNL A   1      32.868  26.826  25.409  1.00  0.00     0.054 A 
ATOM     16  N   UNL A   1      34.433  25.185  25.232  1.00  0.00    -0.240 N 
ATOM     17  C   UNL A   1      34.077  26.480  24.770  1.00  0.00     0.117 A 
ATOM     18  C   UNL A   1      33.426  24.822  26.163  1.00  0.00     0.065 A 
ATOM     19  C   UNL A   1      32.332  25.580  25.790  1.00  0.00     0.012 A 
ATOM     20  C   UNL A   1      33.263  23.672  26.960  1.00  0.00     0.028 A 
ATOM     21  C   UNL A   1      31.032  25.107  26.024  1.00  0.00     0.011 A 
ATOM     22  C   UNL A   1      31.974  23.145  27.053  1.00  0.00     0.002 A 
ATOM     23  C   UNL A   1      30.875  23.832  26.554  1.00  0.00     0.001 A 
BRANCH  16  24
ATOM     24  S   UNL A   1      34.911  23.748  24.376  1.00  0.00     0.268 S 
ATOM     25  O   UNL A   1      36.350  23.782  24.617  1.00  0.00    -0.201 OA
ATOM     26  O   UNL A   1      34.345  24.068  23.068  1.00  0.00    -0.201 OA
BRANCH  24  27
ATOM     27  C   UNL A   1      34.618  22.023  24.303  1.00  0.00     0.088 A 
ATOM     28  C   UNL A   1      32.420  18.279  24.276  1.00  0.00     0.044 C 
ATOM     29  C   UNL A   1      33.242  19.536  24.260  1.00  0.00    -0.051 A 
ATOM     30  C   UNL A   1      32.619  20.660  23.754  1.00  0.00     0.005 A 
ATOM     31  C   UNL A   1      34.563  19.657  24.759  1.00  0.00     0.005 A 
ATOM     32  C   UNL A   1      33.304  21.856  23.766  1.00  0.00     0.022 A 
ATOM     33  C   UNL A   1      35.262  20.906  24.798  1.00  0.00     0.022 A 
ENDBRANCH  24  27
ENDBRANCH  16  24
ENDBRANCH  13  15
ENDBRANCH  10  13
ENDBRANCH   8   9
ENDBRANCH   5   8
ENDBRANCH   3   4
BRANCH   3  34
ATOM     34  C   UNL A   1      38.338  29.705  27.432  1.00  0.00     0.074 C 
BRANCH  34  35
ATOM     35  C   UNL A   1      39.624  28.900  27.345  1.00  0.00    -0.020 A 
ATOM     36  C   UNL A   1      40.809  29.257  26.724  1.00  0.00     0.087 A 
ATOM     37  C   UNL A   1      39.760  27.509  27.712  1.00  0.00     0.003 A 
ATOM     38  N   UNL A   1      41.473  28.092  26.411  1.00  0.00    -0.361 N 
ATOM     39  C   UNL A   1      40.818  27.007  26.952  1.00  0.00     0.046 A 
ATOM     40  C   UNL A   1      38.978  26.599  28.453  1.00  0.00     0.010 A 
ATOM     41  H   UNL A   1      42.298  28.041  25.877  1.00  0.00     0.166 HD
ATOM     42  C   UNL A   1      41.039  25.634  26.783  1.00  0.00     0.026 A 
ATOM     43  C   UNL A   1      39.250  25.228  28.371  1.00  0.00     0.001 A 
ATOM     44  C   UNL A   1      40.238  24.752  27.514  1.00  0.00     0.002 A 
ENDBRANCH  34  35
ENDBRANCH   3  34
ENDBRANCH   1   3
BRANCH   1  45
ATOM     45  O   UNL A   1      36.533  29.657  32.056  1.00  0.00    -0.461 OA
BRANCH  45  46
ATOM     46  C   UNL A   1      36.191  31.047  32.025  1.00  0.00     0.274 C 
BRANCH  46  47
ATOM     47  C   UNL A   1      37.464  31.912  32.001  1.00  0.00     0.275 C 
BRANCH  47  48
ATOM     48  O   UNL A   1      37.724  32.697  33.203  1.00  0.00    -0.458 OA
BRANCH  48  49
ATOM     49  C   UNL A   1      37.617  32.223  34.481  1.00  0.00     0.338 C 
ATOM     50  O   UNL A   1      36.873  32.700  35.322  1.00  0.00    -0.246 OA
BRANCH  49  51
ATOM     51  C   UNL A   1      38.802  31.445  34.909  1.00  0.00     0.060 A 
ATOM     52  C   UNL A   1      40.301  32.407  34.963  1.00  0.00     0.016 A 
ATOM     53  C   UNL A   1      38.858  29.741  34.407  1.00  0.00     0.016 A 
ATOM     54  C   UNL A   1      41.842  31.654  34.354  1.00  0.00     0.010 A 
ATOM     55  C   UNL A   1      40.386  28.962  33.900  1.00  0.00     0.010 A 
ATOM     56  C   UNL A   1      41.856  29.966  33.734  1.00  0.00    -0.014 A 
BRANCH  56  57
ATOM     57  C   UNL A   1      42.801  29.384  32.806  1.00  0.00     0.031 A 
ATOM     58  C   UNL A   1      42.779  29.963  31.436  1.00  0.00     0.074 A 
ATOM     59  C   UNL A   1      43.801  28.602  33.292  1.00  0.00     0.049 A 
ATOM     60  N   UNL A   1      43.292  29.387  30.412  1.00  0.00    -0.248 NA
ATOM     61  C   UNL A   1      42.082  31.203  31.053  1.00  0.00     0.031 C 
ATOM     62  C   UNL A   1      45.118  28.388  32.703  1.00  0.00     0.029 A 
ATOM     63  N   UNL A   1      43.830  27.770  34.412  1.00  0.00    -0.354 N 
ATOM     64  C   UNL A   1      43.320  30.323  29.395  1.00  0.00     0.074 A 
ATOM     65  C   UNL A   1      42.389  31.337  29.765  1.00  0.00     0.031 C 
ATOM     66  C   UNL A   1      45.730  27.348  33.301  1.00  0.00     0.029 A 
ATOM     67  C   UNL A   1      44.804  26.755  34.251  1.00  0.00     0.049 A 
ATOM     68  H   UNL A   1      43.255  27.875  35.204  1.00  0.00     0.167 HD
ATOM     69  C   UNL A   1      44.299  30.235  28.459  1.00  0.00     0.031 A 
ATOM     70  C   UNL A   1      44.484  25.416  34.242  1.00  0.00     0.031 A 
ATOM     71  C   UNL A   1      45.065  29.018  28.688  1.00  0.00     0.049 A 
ATOM     72  C   UNL A   1      44.400  24.888  32.817  1.00  0.00     0.074 A 
ATOM     73  C   UNL A   1      46.261  28.783  29.341  1.00  0.00     0.029 A 
ATOM     74  N   UNL A   1      44.388  27.808  28.640  1.00  0.00    -0.354 N 
ATOM     75  N   UNL A   1      44.403  25.668  31.768  1.00  0.00    -0.248 NA
ATOM     76  C   UNL A   1      44.339  23.475  32.446  1.00  0.00     0.031 C 
ATOM     77  C   UNL A   1      46.257  27.420  29.755  1.00  0.00     0.029 A 
ATOM     78  C   UNL A   1      45.077  26.833  29.329  1.00  0.00     0.049 A 
ATOM     79  H   UNL A   1      43.531  27.666  28.177  1.00  0.00     0.167 HD
ATOM     80  C   UNL A   1      44.423  24.920  30.627  1.00  0.00     0.074 A 
ATOM     81  C   UNL A   1      44.351  23.550  31.100  1.00  0.00     0.031 C 
ATOM     82  C   UNL A   1      44.540  25.480  29.387  1.00  0.00     0.031 A 
BRANCH  69  83
ATOM     83  C   UNL A   1      44.747  31.342  27.539  1.00  0.00    -0.014 A 
ATOM     84  C   UNL A   1      46.006  31.924  27.778  1.00  0.00     0.009 A 
ATOM     85  C   UNL A   1      44.006  31.901  26.482  1.00  0.00     0.009 A 
ATOM     86  C   UNL A   1      46.482  33.012  27.037  1.00  0.00     0.001 A 
ATOM     87  C   UNL A   1      44.477  32.992  25.734  1.00  0.00     0.001 A 
ATOM     88  C   UNL A   1      45.715  33.550  26.015  1.00  0.00     0.000 A 
ENDBRANCH  69  83
BRANCH  70  89
ATOM     89  C   UNL A   1      43.584  25.011  35.370  1.00  0.00    -0.014 A 
ATOM     90  C   UNL A   1      44.068  25.164  36.687  1.00  0.00     0.009 A 
ATOM     91  C   UNL A   1      42.236  25.249  35.148  1.00  0.00     0.009 A 
ATOM     92  C   UNL A   1      43.348  25.920  37.622  1.00  0.00     0.001 A 
ATOM     93  C   UNL A   1      41.557  26.043  36.071  1.00  0.00     0.001 A 
ATOM     94  C   UNL A   1      42.137  26.467  37.254  1.00  0.00     0.000 A 
ENDBRANCH  70  89
BRANCH  82  95
ATOM     95  C   UNL A   1      44.274  24.775  28.081  1.00  0.00    -0.014 A 
ATOM     96  C   UNL A   1      44.681  25.256  26.834  1.00  0.00     0.009 A 
ATOM     97  C   UNL A   1      43.674  23.493  28.094  1.00  0.00     0.009 A 
ATOM     98  C   UNL A   1      44.395  24.552  25.659  1.00  0.00     0.001 A 
ATOM     99  C   UNL A   1      43.471  22.746  26.938  1.00  0.00     0.001 A 
ATOM    100  C   UNL A   1      43.796  23.297  25.711  1.00  0.00     0.000 A 
ENDBRANCH  82  95
ENDBRANCH  56  57
ENDBRANCH  49  51
ENDBRANCH  48  49
ENDBRANCH  47  48
ENDBRANCH  46  47
ENDBRANCH  45  46
ENDBRANCH   1  45
TORSDOF 20
ENDMDL
MODEL 3
REMARK VINA RESULT:     -11.9      4.095      8.817
REMARK SMILES Cc1ccc(S(=O)(=O)n2cc(C(=O)C(=O)NCC(=O)N[C@H](Cc3c[nH]c4ccccc34)C(=O)OCCOC(=O)c3ccc(-c4c5nc(c(-c6ccccc6)c6ccc([nH]6)c(-c6ccccc6)c6nc(c(-c7ccccc7)c7ccc4[nH]7)C=C6)C=C5)cc3)c3ccccc32)cc1
REMARK SMILES IDX 32 1 33 2 21 3 20 4 18 5 19 6 17 8 16 9 14 10 15 11 12 13
REMARK SMILES IDX 13 14 11 15 9 16 10 17 93 18 88 19 92 20 89 21 91 22 90 23
REMARK SMILES IDX 6 24 7 25 8 26 5 27 1 28 2 29 3 30 95 31 4 32 94 33 22 34
REMARK SMILES IDX 23 35 24 36 31 37 25 38 26 39 30 40 27 42 29 43 28 44 34 45
REMARK SMILES IDX 35 46 36 47 37 48 38 49 39 50 40 51 41 52 87 53 42 54 86 55
REMARK SMILES IDX 43 56 44 57 45 58 80 59 46 60 85 61 79 62 81 63 47 64 84 65
REMARK SMILES IDX 78 66 77 67 48 69 70 70 55 71 69 72 56 73 59 74 68 75 82 76
REMARK SMILES IDX 57 77 58 78 67 80 83 81 60 82 49 83 50 84 54 85 51 86 53 87
REMARK SMILES IDX 52 88 71 89 72 90 76 91 73 92 75 93 74 94 61 95 62 96 66 97
REMARK SMILES IDX 63 98 65 99 64 100
REMARK H PARENT 20 7 16 12 25 41 81 68 59 79
REMARK Flexibility Score: inf
ROOT
ATOM      1  C   UNL A   1      37.573  29.333  29.539  1.00  0.00     0.329 C 
ATOM      2  O   UNL A   1      38.153  28.212  29.609  1.00  0.00    -0.250 OA
ENDROOT
BRANCH   1   3
ATOM      3  C   UNL A   1      35.803  30.017  28.412  1.00  0.00     0.196 C 
BRANCH   3   4
ATOM      4  N   UNL A   1      35.220  29.460  26.853  1.00  0.00    -0.341 N 
ATOM      5  C   UNL A   1      34.159  28.968  26.160  1.00  0.00     0.240 C 
ATOM      6  O   UNL A   1      34.396  28.986  24.931  1.00  0.00    -0.273 OA
ATOM      7  H   UNL A   1      35.970  29.535  26.220  1.00  0.00     0.164 HD
BRANCH   5   8
ATOM      8  C   UNL A   1      32.690  28.500  26.545  1.00  0.00     0.216 C 
BRANCH   8   9
ATOM      9  N   UNL A   1      31.386  28.374  25.854  1.00  0.00    -0.340 N 
ATOM     10  C   UNL A   1      30.976  27.474  24.861  1.00  0.00     0.292 C 
ATOM     11  O   UNL A   1      29.793  27.223  24.672  1.00  0.00    -0.265 OA
ATOM     12  H   UNL A   1      30.701  29.023  26.135  1.00  0.00     0.164 HD
BRANCH  10  13
ATOM     13  C   UNL A   1      32.022  26.830  23.972  1.00  0.00     0.252 C 
ATOM     14  O   UNL A   1      32.228  27.457  22.927  1.00  0.00    -0.283 OA
BRANCH  13  15
ATOM     15  C   UNL A   1      32.830  25.606  24.185  1.00  0.00     0.054 A 
ATOM     16  N   UNL A   1      34.357  24.134  25.010  1.00  0.00    -0.240 N 
ATOM     17  C   UNL A   1      34.148  25.130  24.019  1.00  0.00     0.117 A 
ATOM     18  C   UNL A   1      33.150  24.079  25.755  1.00  0.00     0.065 A 
ATOM     19  C   UNL A   1      32.192  24.560  24.883  1.00  0.00     0.012 A 
ATOM     20  C   UNL A   1      32.778  23.306  26.873  1.00  0.00     0.028 A 
ATOM     21  C   UNL A   1      30.864  24.119  24.979  1.00  0.00     0.011 A 
ATOM     22  C   UNL A   1      31.493  22.763  26.866  1.00  0.00     0.002 A 
ATOM     23  C   UNL A   1      30.558  23.132  25.907  1.00  0.00     0.001 A 
BRANCH  16  24
ATOM     24  S   UNL A   1      34.992  22.518  24.903  1.00  0.00     0.268 S 
ATOM     25  O   UNL A   1      35.936  22.548  26.014  1.00  0.00    -0.201 OA
ATOM     26  O   UNL A   1      35.442  22.547  23.514  1.00  0.00    -0.201 OA
BRANCH  24  27
ATOM     27  C   UNL A   1      34.500  20.838  24.918  1.00  0.00     0.088 A 
ATOM     28  C   UNL A   1      34.658  16.558  24.206  1.00  0.00     0.044 C 
ATOM     29  C   UNL A   1      34.546  18.026  24.501  1.00  0.00    -0.051 A 
ATOM     30  C   UNL A   1      35.738  18.701  24.673  1.00  0.00     0.005 A 
ATOM     31  C   UNL A   1      33.334  18.757  24.567  1.00  0.00     0.005 A 
ATOM     32  C   UNL A   1      35.701  20.062  24.891  1.00  0.00     0.022 A 
ATOM     33  C   UNL A   1      33.298  20.176  24.763  1.00  0.00     0.022 A 
ENDBRANCH  24  27
ENDBRANCH  16  24
ENDBRANCH  13  15
ENDBRANCH  10  13
ENDBRANCH   8   9
ENDBRANCH   5   8
ENDBRANCH   3   4
BRANCH   3  34
ATOM     34  C   UNL A   1      34.865  31.569  28.356  1.00  0.00     0.074 C 
BRANCH  34  35
ATOM     35  C   UNL A   1      34.824  32.595  29.476  1.00  0.00    -0.020 A 
ATOM     36  C   UNL A   1      34.826  32.363  30.841  1.00  0.00     0.087 A 
ATOM     37  C   UNL A   1      34.550  34.003  29.303  1.00  0.00     0.003 A 
ATOM     38  N   UNL A   1      34.244  33.456  31.442  1.00  0.00    -0.361 N 
ATOM     39  C   UNL A   1      34.011  34.447  30.513  1.00  0.00     0.046 A 
ATOM     40  C   UNL A   1      34.526  34.880  28.198  1.00  0.00     0.010 A 
ATOM     41  H   UNL A   1      34.026  33.522  32.399  1.00  0.00     0.166 HD
ATOM     42  C   UNL A   1      33.322  35.661  30.630  1.00  0.00     0.026 A 
ATOM     43  C   UNL A   1      33.925  36.138  28.329  1.00  0.00     0.001 A 
ATOM     44  C   UNL A   1      33.295  36.503  29.514  1.00  0.00     0.002 A 
ENDBRANCH  34  35
ENDBRANCH   3  34
ENDBRANCH   1   3
BRANCH   1  45
ATOM     45  O   UNL A   1      38.412  30.205  30.347  1.00  0.00    -0.461 OA
BRANCH  45  46
ATOM     46  C   UNL A   1      38.064  30.335  31.730  1.00  0.00     0.274 C 
BRANCH  46  47
ATOM     47  C   UNL A   1      39.028  31.305  32.437  1.00  0.00     0.275 C 
BRANCH  47  48
ATOM     48  O   UNL A   1      38.734  31.589  33.837  1.00  0.00    -0.458 OA
BRANCH  48  49
ATOM     49  C   UNL A   1      38.392  32.820  34.326  1.00  0.00     0.338 C 
ATOM     50  O   UNL A   1      37.412  33.024  35.024  1.00  0.00    -0.246 OA
BRANCH  49  51
ATOM     51  C   UNL A   1      38.984  33.935  33.552  1.00  0.00     0.060 A 
ATOM     52  C   UNL A   1      38.141  34.260  32.017  1.00  0.00     0.016 A 
ATOM     53  C   UNL A   1      40.748  34.123  33.654  1.00  0.00     0.016 A 
ATOM     54  C   UNL A   1      39.136  34.635  30.539  1.00  0.00     0.010 A 
ATOM     55  C   UNL A   1      41.726  34.589  32.230  1.00  0.00     0.010 A 
ATOM     56  C   UNL A   1      40.930  34.701  30.634  1.00  0.00    -0.014 A 
BRANCH  56  57
ATOM     57  C   UNL A   1      41.870  34.505  29.551  1.00  0.00     0.031 A 
ATOM     58  C   UNL A   1      42.343  33.106  29.372  1.00  0.00     0.074 A 
ATOM     59  C   UNL A   1      42.022  35.489  28.627  1.00  0.00     0.049 A 
ATOM     60  N   UNL A   1      43.390  32.789  28.702  1.00  0.00    -0.248 NA
ATOM     61  C   UNL A   1      41.750  31.923  30.018  1.00  0.00     0.031 C 
ATOM     62  C   UNL A   1      42.423  35.337  27.233  1.00  0.00     0.029 A 
ATOM     63  N   UNL A   1      41.900  36.874  28.758  1.00  0.00    -0.354 N 
ATOM     64  C   UNL A   1      43.360  31.417  28.532  1.00  0.00     0.074 A 
ATOM     65  C   UNL A   1      42.464  30.916  29.521  1.00  0.00     0.031 C 
ATOM     66  C   UNL A   1      42.735  36.536  26.706  1.00  0.00     0.029 A 
ATOM     67  C   UNL A   1      42.654  37.535  27.758  1.00  0.00     0.049 A 
ATOM     68  H   UNL A   1      41.365  37.327  29.448  1.00  0.00     0.167 HD
ATOM     69  C   UNL A   1      43.933  30.889  27.421  1.00  0.00     0.031 A 
ATOM     70  C   UNL A   1      43.692  38.388  28.056  1.00  0.00     0.031 A 
ATOM     71  C   UNL A   1      44.603  31.951  26.683  1.00  0.00     0.049 A 
ATOM     72  C   UNL A   1      45.033  37.682  27.916  1.00  0.00     0.074 A 
ATOM     73  C   UNL A   1      44.216  32.714  25.598  1.00  0.00     0.029 A 
ATOM     74  N   UNL A   1      45.611  32.652  27.330  1.00  0.00    -0.354 N 
ATOM     75  N   UNL A   1      45.143  36.389  27.764  1.00  0.00    -0.248 NA
ATOM     76  C   UNL A   1      46.336  38.345  27.903  1.00  0.00     0.031 C 
ATOM     77  C   UNL A   1      44.959  33.929  25.647  1.00  0.00     0.029 A 
ATOM     78  C   UNL A   1      45.807  33.883  26.742  1.00  0.00     0.049 A 
ATOM     79  H   UNL A   1      46.116  32.315  28.105  1.00  0.00     0.167 HD
ATOM     80  C   UNL A   1      46.449  36.048  27.561  1.00  0.00     0.074 A 
ATOM     81  C   UNL A   1      47.165  37.305  27.687  1.00  0.00     0.031 C 
ATOM     82  C   UNL A   1      46.836  34.773  27.265  1.00  0.00     0.031 A 
BRANCH  69  83
ATOM     83  C   UNL A   1      43.665  29.519  26.852  1.00  0.00    -0.014 A 
ATOM     84  C   UNL A   1      42.384  29.267  26.324  1.00  0.00     0.009 A 
ATOM     85  C   UNL A   1      44.556  28.431  26.840  1.00  0.00     0.009 A 
ATOM     86  C   UNL A   1      42.005  28.008  25.847  1.00  0.00     0.001 A 
ATOM     87  C   UNL A   1      44.183  27.163  26.363  1.00  0.00     0.001 A 
ATOM     88  C   UNL A   1      42.903  26.952  25.870  1.00  0.00     0.000 A 
ENDBRANCH  69  83
BRANCH  70  89
ATOM     89  C   UNL A   1      43.351  39.396  29.112  1.00  0.00    -0.014 A 
ATOM     90  C   UNL A   1      43.868  39.192  30.410  1.00  0.00     0.009 A 
ATOM     91  C   UNL A   1      43.254  40.701  28.656  1.00  0.00     0.009 A 
ATOM     92  C   UNL A   1      44.635  40.188  31.030  1.00  0.00     0.001 A 
ATOM     93  C   UNL A   1      44.063  41.662  29.262  1.00  0.00     0.001 A 
ATOM     94  C   UNL A   1      44.832  41.387  30.378  1.00  0.00     0.000 A 
ENDBRANCH  70  89
BRANCH  82  95
ATOM     95  C   UNL A   1      48.250  34.253  27.319  1.00  0.00    -0.014 A 
ATOM     96  C   UNL A   1      48.870  33.790  28.482  1.00  0.00     0.009 A 
ATOM     97  C   UNL A   1      48.984  34.112  26.117  1.00  0.00     0.009 A 
ATOM     98  C   UNL A   1      50.190  33.326  28.462  1.00  0.00     0.001 A 
ATOM     99  C   UNL A   1      50.263  33.565  26.077  1.00  0.00     0.001 A 
ATOM    100  C   UNL A   1      50.883  33.208  27.262  1.00  0.00     0.000 A 
ENDBRANCH  82  95
ENDBRANCH  56  57
ENDBRANCH  49  51
ENDBRANCH  48  49
ENDBRANCH  47  48
ENDBRANCH  46  47
ENDBRANCH  45  46
ENDBRANCH   1  45
TORSDOF 20
ENDMDL
