MODEL 1
REMARK VINA RESULT:     -10.0      0.000      0.000
REMARK SMILES COC(=O)[C@H]1Sc2nnc(CCC(=O)OCCOC(=O)c3ccc(-c4c5nc(c(-c6ccccc6)c6ccc([nH]6)c(-c6ccccc6)c6nc(c(-c7ccccc7)c7ccc4[nH]7)C=C6)C=C5)cc3)c(=O)n2N=C1C
REMARK SMILES IDX 16 1 15 2 13 3 14 4 12 5 11 6 10 7 5 8 6 9 73 10 7 11 72 12
REMARK SMILES IDX 74 13 8 14 71 15 9 16 69 17 70 18 3 19 4 20 2 21 1 22 17 23
REMARK SMILES IDX 18 24 19 25 20 26 21 27 22 28 68 29 23 30 67 31 24 32 25 33
REMARK SMILES IDX 26 34 61 35 27 36 66 37 60 38 62 39 28 40 65 41 59 42 58 43
REMARK SMILES IDX 29 45 51 46 36 47 50 48 37 49 40 50 49 51 63 52 38 53 39 54
REMARK SMILES IDX 48 56 64 57 41 58 30 59 31 60 35 61 32 62 34 63 33 64 52 65
REMARK SMILES IDX 53 66 57 67 54 68 56 69 55 70 42 71 43 72 47 73 44 74 46 75
REMARK SMILES IDX 45 76
REMARK H PARENT 62 44 40 55
REMARK Flexibility Score: inf
ROOT
ATOM      1  C   UNL A   1      42.475  19.071  26.790  1.00  0.00     0.274 C 
ENDROOT
BRANCH   1   2
ATOM      2  O   UNL A   1      41.601  20.068  26.225  1.00  0.00    -0.462 OA
BRANCH   2   3
ATOM      3  C   UNL A   1      41.780  21.349  26.634  1.00  0.00     0.306 C 
ATOM      4  O   UNL A   1      42.635  21.725  27.424  1.00  0.00    -0.252 OA
BRANCH   3   5
ATOM      5  C   UNL A   1      40.732  22.268  26.049  1.00  0.00     0.129 C 
BRANCH   5   6
ATOM      6  C   UNL A   1      39.421  22.295  26.832  1.00  0.00     0.076 C 
BRANCH   6   7
ATOM      7  C   UNL A   1      38.251  22.504  25.900  1.00  0.00     0.131 A 
ATOM      8  C   UNL A   1      33.443  21.746  24.353  1.00  0.00     0.210 C 
ATOM      9  S   UNL A   1      34.502  23.013  23.648  1.00  0.00    -0.063 SA
ATOM     10  C   UNL A   1      34.203  20.479  24.630  1.00  0.00     0.061 C 
ATOM     11  C   UNL A   1      35.924  22.787  24.624  1.00  0.00     0.214 A 
ATOM     12  N   UNL A   1      35.467  20.389  24.900  1.00  0.00    -0.171 NA
ATOM     13  C   UNL A   1      33.415  19.190  24.713  1.00  0.00     0.065 C 
ATOM     14  N   UNL A   1      36.652  23.830  24.873  1.00  0.00    -0.123 NA
ATOM     15  N   UNL A   1      36.258  21.510  24.991  1.00  0.00    -0.169 N 
ATOM     16  N   UNL A   1      37.795  23.697  25.677  1.00  0.00    -0.147 NA
ATOM     17  C   UNL A   1      37.572  21.286  25.336  1.00  0.00     0.296 A 
ATOM     18  O   UNL A   1      38.198  20.244  25.212  1.00  0.00    -0.265 OA
BRANCH   8  19
ATOM     19  C   UNL A   1      32.594  22.175  25.529  1.00  0.00     0.325 C 
ATOM     20  O   UNL A   1      32.992  22.071  26.687  1.00  0.00    -0.250 OA
BRANCH  19  21
ATOM     21  O   UNL A   1      31.375  22.662  25.193  1.00  0.00    -0.468 OA
ATOM     22  C   UNL A   1      30.441  22.715  26.275  1.00  0.00     0.282 C 
ENDBRANCH  19  21
ENDBRANCH   8  19
ENDBRANCH   6   7
ENDBRANCH   5   6
ENDBRANCH   3   5
ENDBRANCH   2   3
ENDBRANCH   1   2
BRANCH   1  23
ATOM     23  C   UNL A   1      43.377  18.442  25.726  1.00  0.00     0.275 C 
BRANCH  23  24
ATOM     24  O   UNL A   1      43.494  19.308  24.583  1.00  0.00    -0.458 OA
BRANCH  24  25
ATOM     25  C   UNL A   1      44.756  19.622  24.219  1.00  0.00     0.338 C 
ATOM     26  O   UNL A   1      45.562  18.943  23.613  1.00  0.00    -0.246 OA
BRANCH  25  27
ATOM     27  C   UNL A   1      45.036  21.012  24.575  1.00  0.00     0.060 A 
ATOM     28  C   UNL A   1      45.688  21.264  25.786  1.00  0.00     0.016 A 
ATOM     29  C   UNL A   1      44.549  22.053  23.786  1.00  0.00     0.016 A 
ATOM     30  C   UNL A   1      45.852  22.573  26.219  1.00  0.00     0.010 A 
ATOM     31  C   UNL A   1      44.718  23.368  24.220  1.00  0.00     0.010 A 
ATOM     32  C   UNL A   1      45.358  23.631  25.444  1.00  0.00    -0.014 A 
BRANCH  32  33
ATOM     33  C   UNL A   1      45.471  25.016  25.942  1.00  0.00     0.031 A 
ATOM     34  C   UNL A   1      46.788  25.730  25.873  1.00  0.00     0.074 A 
ATOM     35  C   UNL A   1      44.381  25.635  26.427  1.00  0.00     0.049 A 
ATOM     36  N   UNL A   1      47.101  26.924  26.304  1.00  0.00    -0.248 NA
ATOM     37  C   UNL A   1      47.896  25.006  25.230  1.00  0.00     0.031 C 
ATOM     38  C   UNL A   1      43.037  25.055  26.486  1.00  0.00     0.029 A 
ATOM     39  N   UNL A   1      44.231  26.890  26.956  1.00  0.00    -0.354 N 
ATOM     40  C   UNL A   1      48.443  27.095  25.992  1.00  0.00     0.074 A 
ATOM     41  C   UNL A   1      48.891  25.875  25.355  1.00  0.00     0.031 C 
ATOM     42  C   UNL A   1      42.196  25.961  27.011  1.00  0.00     0.029 A 
ATOM     43  C   UNL A   1      42.949  27.160  27.366  1.00  0.00     0.049 A 
ATOM     44  H   UNL A   1      44.971  27.533  27.036  1.00  0.00     0.167 HD
ATOM     45  C   UNL A   1      49.228  28.174  26.218  1.00  0.00     0.031 A 
ATOM     46  C   UNL A   1      42.446  28.247  27.977  1.00  0.00     0.031 A 
ATOM     47  C   UNL A   1      48.780  29.376  26.866  1.00  0.00     0.049 A 
ATOM     48  C   UNL A   1      43.359  29.394  28.301  1.00  0.00     0.074 A 
ATOM     49  C   UNL A   1      49.501  30.523  27.152  1.00  0.00     0.029 A 
ATOM     50  N   UNL A   1      47.491  29.586  27.333  1.00  0.00    -0.354 N 
ATOM     51  N   UNL A   1      44.633  29.536  28.023  1.00  0.00    -0.248 NA
ATOM     52  C   UNL A   1      42.770  30.523  29.032  1.00  0.00     0.031 C 
ATOM     53  C   UNL A   1      48.658  31.409  27.832  1.00  0.00     0.029 A 
ATOM     54  C   UNL A   1      47.402  30.832  27.928  1.00  0.00     0.049 A 
ATOM     55  H   UNL A   1      46.750  28.942  27.254  1.00  0.00     0.167 HD
ATOM     56  C   UNL A   1      44.997  30.772  28.538  1.00  0.00     0.074 A 
ATOM     57  C   UNL A   1      43.805  31.348  29.128  1.00  0.00     0.031 C 
ATOM     58  C   UNL A   1      46.210  31.376  28.525  1.00  0.00     0.031 A 
BRANCH  45  59
ATOM     59  C   UNL A   1      50.663  28.085  25.786  1.00  0.00    -0.014 A 
ATOM     60  C   UNL A   1      51.659  27.634  26.665  1.00  0.00     0.009 A 
ATOM     61  C   UNL A   1      51.017  28.425  24.471  1.00  0.00     0.009 A 
ATOM     62  C   UNL A   1      52.987  27.552  26.244  1.00  0.00     0.001 A 
ATOM     63  C   UNL A   1      52.343  28.320  24.046  1.00  0.00     0.001 A 
ATOM     64  C   UNL A   1      53.327  27.890  24.935  1.00  0.00     0.000 A 
ENDBRANCH  45  59
BRANCH  46  65
ATOM     65  C   UNL A   1      41.007  28.286  28.338  1.00  0.00    -0.014 A 
ATOM     66  C   UNL A   1      40.558  27.711  29.535  1.00  0.00     0.009 A 
ATOM     67  C   UNL A   1      40.079  28.926  27.500  1.00  0.00     0.009 A 
ATOM     68  C   UNL A   1      39.207  27.769  29.882  1.00  0.00     0.001 A 
ATOM     69  C   UNL A   1      38.733  29.002  27.861  1.00  0.00     0.001 A 
ATOM     70  C   UNL A   1      38.298  28.419  29.050  1.00  0.00     0.000 A 
ENDBRANCH  46  65
BRANCH  58  71
ATOM     71  C   UNL A   1      46.306  32.729  29.168  1.00  0.00    -0.014 A 
ATOM     72  C   UNL A   1      46.669  32.860  30.517  1.00  0.00     0.009 A 
ATOM     73  C   UNL A   1      46.087  33.884  28.402  1.00  0.00     0.009 A 
ATOM     74  C   UNL A   1      46.788  34.126  31.093  1.00  0.00     0.001 A 
ATOM     75  C   UNL A   1      46.230  35.148  28.975  1.00  0.00     0.001 A 
ATOM     76  C   UNL A   1      46.574  35.267  30.322  1.00  0.00     0.000 A 
ENDBRANCH  58  71
ENDBRANCH  32  33
ENDBRANCH  25  27
ENDBRANCH  24  25
ENDBRANCH  23  24
ENDBRANCH   1  23
TORSDOF 15
ENDMDL
MODEL 2
REMARK VINA RESULT:      -9.8      5.219      9.538
REMARK SMILES COC(=O)[C@H]1Sc2nnc(CCC(=O)OCCOC(=O)c3ccc(-c4c5nc(c(-c6ccccc6)c6ccc([nH]6)c(-c6ccccc6)c6nc(c(-c7ccccc7)c7ccc4[nH]7)C=C6)C=C5)cc3)c(=O)n2N=C1C
REMARK SMILES IDX 16 1 15 2 13 3 14 4 12 5 11 6 10 7 5 8 6 9 73 10 7 11 72 12
REMARK SMILES IDX 74 13 8 14 71 15 9 16 69 17 70 18 3 19 4 20 2 21 1 22 17 23
REMARK SMILES IDX 18 24 19 25 20 26 21 27 22 28 68 29 23 30 67 31 24 32 25 33
REMARK SMILES IDX 26 34 61 35 27 36 66 37 60 38 62 39 28 40 65 41 59 42 58 43
REMARK SMILES IDX 29 45 51 46 36 47 50 48 37 49 40 50 49 51 63 52 38 53 39 54
REMARK SMILES IDX 48 56 64 57 41 58 30 59 31 60 35 61 32 62 34 63 33 64 52 65
REMARK SMILES IDX 53 66 57 67 54 68 56 69 55 70 42 71 43 72 47 73 44 74 46 75
REMARK SMILES IDX 45 76
REMARK H PARENT 62 44 40 55
REMARK Flexibility Score: inf
ROOT
ATOM      1  C   UNL A   1      31.421  29.130  25.382  1.00  0.00     0.274 C 
ENDROOT
BRANCH   1   2
ATOM      2  O   UNL A   1      31.255  29.356  23.968  1.00  0.00    -0.462 OA
BRANCH   2   3
ATOM      3  C   UNL A   1      30.059  29.018  23.425  1.00  0.00     0.306 C 
ATOM      4  O   UNL A   1      29.114  29.779  23.270  1.00  0.00    -0.252 OA
BRANCH   3   5
ATOM      5  C   UNL A   1      29.997  27.544  23.094  1.00  0.00     0.129 C 
BRANCH   5   6
ATOM      6  C   UNL A   1      31.110  27.069  22.161  1.00  0.00     0.076 C 
BRANCH   6   7
ATOM      7  C   UNL A   1      31.437  25.618  22.422  1.00  0.00     0.131 A 
ATOM      8  C   UNL A   1      34.360  21.844  24.238  1.00  0.00     0.210 C 
ATOM      9  S   UNL A   1      32.684  21.579  23.653  1.00  0.00    -0.063 SA
ATOM     10  C   UNL A   1      35.098  22.829  23.376  1.00  0.00     0.061 C 
ATOM     11  C   UNL A   1      32.249  23.213  23.249  1.00  0.00     0.214 A 
ATOM     12  N   UNL A   1      34.570  23.791  22.689  1.00  0.00    -0.171 NA
ATOM     13  C   UNL A   1      36.611  22.775  23.385  1.00  0.00     0.065 C 
ATOM     14  N   UNL A   1      31.005  23.553  23.382  1.00  0.00    -0.123 NA
ATOM     15  N   UNL A   1      33.215  24.025  22.715  1.00  0.00    -0.169 N 
ATOM     16  N   UNL A   1      30.615  24.870  23.091  1.00  0.00    -0.147 NA
ATOM     17  C   UNL A   1      32.782  25.108  21.984  1.00  0.00     0.296 A 
ATOM     18  O   UNL A   1      33.362  25.646  21.053  1.00  0.00    -0.265 OA
BRANCH   8  19
ATOM     19  C   UNL A   1      34.503  22.151  25.713  1.00  0.00     0.325 C 
ATOM     20  O   UNL A   1      35.066  21.379  26.484  1.00  0.00    -0.250 OA
BRANCH  19  21
ATOM     21  O   UNL A   1      33.951  23.328  26.096  1.00  0.00    -0.468 OA
ATOM     22  C   UNL A   1      32.949  23.209  27.110  1.00  0.00     0.282 C 
ENDBRANCH  19  21
ENDBRANCH   8  19
ENDBRANCH   6   7
ENDBRANCH   5   6
ENDBRANCH   3   5
ENDBRANCH   2   3
ENDBRANCH   1   2
BRANCH   1  23
ATOM     23  C   UNL A   1      31.739  30.427  26.128  1.00  0.00     0.275 C 
BRANCH  23  24
ATOM     24  O   UNL A   1      33.162  30.604  26.255  1.00  0.00    -0.458 OA
BRANCH  24  25
ATOM     25  C   UNL A   1      33.554  31.553  27.132  1.00  0.00     0.338 C 
ATOM     26  O   UNL A   1      32.960  32.553  27.483  1.00  0.00    -0.246 OA
BRANCH  25  27
ATOM     27  C   UNL A   1      34.830  31.166  27.732  1.00  0.00     0.060 A 
ATOM     28  C   UNL A   1      34.996  29.835  28.128  1.00  0.00     0.016 A 
ATOM     29  C   UNL A   1      35.797  32.130  28.013  1.00  0.00     0.016 A 
ATOM     30  C   UNL A   1      36.141  29.462  28.820  1.00  0.00     0.010 A 
ATOM     31  C   UNL A   1      36.949  31.753  28.704  1.00  0.00     0.010 A 
ATOM     32  C   UNL A   1      37.117  30.421  29.121  1.00  0.00    -0.014 A 
BRANCH  32  33
ATOM     33  C   UNL A   1      38.299  30.036  29.919  1.00  0.00     0.031 A 
ATOM     34  C   UNL A   1      39.384  29.211  29.294  1.00  0.00     0.074 A 
ATOM     35  C   UNL A   1      38.401  30.453  31.192  1.00  0.00     0.049 A 
ATOM     36  N   UNL A   1      40.470  28.729  29.842  1.00  0.00    -0.248 NA
ATOM     37  C   UNL A   1      39.230  28.891  27.866  1.00  0.00     0.031 C 
ATOM     38  C   UNL A   1      37.432  31.309  31.880  1.00  0.00     0.029 A 
ATOM     39  N   UNL A   1      39.372  30.220  32.130  1.00  0.00    -0.354 N 
ATOM     40  C   UNL A   1      41.127  28.043  28.829  1.00  0.00     0.074 A 
ATOM     41  C   UNL A   1      40.309  28.152  27.640  1.00  0.00     0.031 C 
ATOM     42  C   UNL A   1      37.867  31.538  33.130  1.00  0.00     0.029 A 
ATOM     43  C   UNL A   1      39.115  30.811  33.341  1.00  0.00     0.049 A 
ATOM     44  H   UNL A   1      40.176  29.679  31.952  1.00  0.00     0.167 HD
ATOM     45  C   UNL A   1      42.307  27.383  28.888  1.00  0.00     0.031 A 
ATOM     46  C   UNL A   1      39.800  30.753  34.497  1.00  0.00     0.031 A 
ATOM     47  C   UNL A   1      43.106  27.265  30.077  1.00  0.00     0.049 A 
ATOM     48  C   UNL A   1      41.058  29.936  34.562  1.00  0.00     0.074 A 
ATOM     49  C   UNL A   1      44.314  26.608  30.244  1.00  0.00     0.029 A 
ATOM     50  N   UNL A   1      42.776  27.816  31.306  1.00  0.00    -0.354 N 
ATOM     51  N   UNL A   1      41.659  29.271  33.604  1.00  0.00    -0.248 NA
ATOM     52  C   UNL A   1      41.726  29.853  35.868  1.00  0.00     0.031 C 
ATOM     53  C   UNL A   1      44.691  26.725  31.587  1.00  0.00     0.029 A 
ATOM     54  C   UNL A   1      43.743  27.494  32.243  1.00  0.00     0.049 A 
ATOM     55  H   UNL A   1      41.972  28.357  31.485  1.00  0.00     0.167 HD
ATOM     56  C   UNL A   1      42.778  28.696  34.188  1.00  0.00     0.074 A 
ATOM     57  C   UNL A   1      42.784  29.105  35.579  1.00  0.00     0.031 C 
ATOM     58  C   UNL A   1      43.717  27.897  33.624  1.00  0.00     0.031 A 
BRANCH  45  59
ATOM     59  C   UNL A   1      42.785  26.711  27.634  1.00  0.00    -0.014 A 
ATOM     60  C   UNL A   1      42.286  25.457  27.248  1.00  0.00     0.009 A 
ATOM     61  C   UNL A   1      43.722  27.356  26.811  1.00  0.00     0.009 A 
ATOM     62  C   UNL A   1      42.737  24.850  26.074  1.00  0.00     0.001 A 
ATOM     63  C   UNL A   1      44.154  26.755  25.627  1.00  0.00     0.001 A 
ATOM     64  C   UNL A   1      43.667  25.501  25.263  1.00  0.00     0.000 A 
ENDBRANCH  45  59
BRANCH  46  65
ATOM     65  C   UNL A   1      39.293  31.478  35.689  1.00  0.00    -0.014 A 
ATOM     66  C   UNL A   1      38.248  30.943  36.455  1.00  0.00     0.009 A 
ATOM     67  C   UNL A   1      39.873  32.695  36.082  1.00  0.00     0.009 A 
ATOM     68  C   UNL A   1      37.788  31.617  37.588  1.00  0.00     0.001 A 
ATOM     69  C   UNL A   1      39.426  33.354  37.228  1.00  0.00     0.001 A 
ATOM     70  C   UNL A   1      38.381  32.817  37.978  1.00  0.00     0.000 A 
ENDBRANCH  46  65
BRANCH  58  71
ATOM     71  C   UNL A   1      44.827  27.416  34.513  1.00  0.00    -0.014 A 
ATOM     72  C   UNL A   1      44.748  26.170  35.153  1.00  0.00     0.009 A 
ATOM     73  C   UNL A   1      45.987  28.192  34.665  1.00  0.00     0.009 A 
ATOM     74  C   UNL A   1      45.803  25.720  35.948  1.00  0.00     0.001 A 
ATOM     75  C   UNL A   1      47.048  27.728  35.443  1.00  0.00     0.001 A 
ATOM     76  C   UNL A   1      46.953  26.496  36.088  1.00  0.00     0.000 A 
ENDBRANCH  58  71
ENDBRANCH  32  33
ENDBRANCH  25  27
ENDBRANCH  24  25
ENDBRANCH  23  24
ENDBRANCH   1  23
TORSDOF 15
ENDMDL
MODEL 3
REMARK VINA RESULT:      -9.8      2.759      7.215
REMARK SMILES COC(=O)[C@H]1Sc2nnc(CCC(=O)OCCOC(=O)c3ccc(-c4c5nc(c(-c6ccccc6)c6ccc([nH]6)c(-c6ccccc6)c6nc(c(-c7ccccc7)c7ccc4[nH]7)C=C6)C=C5)cc3)c(=O)n2N=C1C
REMARK SMILES IDX 16 1 15 2 13 3 14 4 12 5 11 6 10 7 5 8 6 9 73 10 7 11 72 12
REMARK SMILES IDX 74 13 8 14 71 15 9 16 69 17 70 18 3 19 4 20 2 21 1 22 17 23
REMARK SMILES IDX 18 24 19 25 20 26 21 27 22 28 68 29 23 30 67 31 24 32 25 33
REMARK SMILES IDX 26 34 61 35 27 36 66 37 60 38 62 39 28 40 65 41 59 42 58 43
REMARK SMILES IDX 29 45 51 46 36 47 50 48 37 49 40 50 49 51 63 52 38 53 39 54
REMARK SMILES IDX 48 56 64 57 41 58 30 59 31 60 35 61 32 62 34 63 33 64 52 65
REMARK SMILES IDX 53 66 57 67 54 68 56 69 55 70 42 71 43 72 47 73 44 74 46 75
REMARK SMILES IDX 45 76
REMARK H PARENT 62 44 40 55
REMARK Flexibility Score: inf
ROOT
ATOM      1  C   UNL A   1      38.073  20.890  25.341  1.00  0.00     0.274 C 
ENDROOT
BRANCH   1   2
ATOM      2  O   UNL A   1      36.722  20.486  25.043  1.00  0.00    -0.462 OA
BRANCH   2   3
ATOM      3  C   UNL A   1      35.736  21.371  25.330  1.00  0.00     0.306 C 
ATOM      4  O   UNL A   1      35.894  22.450  25.885  1.00  0.00    -0.252 OA
BRANCH   3   5
ATOM      5  C   UNL A   1      34.377  20.830  24.948  1.00  0.00     0.129 C 
BRANCH   5   6
ATOM      6  C   UNL A   1      33.293  21.070  25.998  1.00  0.00     0.076 C 
BRANCH   6   7
ATOM      7  C   UNL A   1      32.329  22.135  25.531  1.00  0.00     0.131 A 
ATOM      8  C   UNL A   1      30.832  26.971  24.855  1.00  0.00     0.210 C 
ATOM      9  S   UNL A   1      29.990  25.579  24.097  1.00  0.00    -0.063 SA
ATOM     10  C   UNL A   1      31.272  26.657  26.257  1.00  0.00     0.061 C 
ATOM     11  C   UNL A   1      31.002  24.280  24.657  1.00  0.00     0.214 A 
ATOM     12  N   UNL A   1      31.565  25.485  26.722  1.00  0.00    -0.171 NA
ATOM     13  C   UNL A   1      31.503  27.820  27.198  1.00  0.00     0.065 C 
ATOM     14  N   UNL A   1      31.130  23.245  23.888  1.00  0.00    -0.123 NA
ATOM     15  N   UNL A   1      31.527  24.369  25.920  1.00  0.00    -0.169 N 
ATOM     16  N   UNL A   1      31.957  22.184  24.289  1.00  0.00    -0.147 NA
ATOM     17  C   UNL A   1      31.911  23.190  26.517  1.00  0.00     0.296 A 
ATOM     18  O   UNL A   1      31.923  22.942  27.714  1.00  0.00    -0.265 OA
BRANCH   8  19
ATOM     19  C   UNL A   1      31.938  27.599  24.034  1.00  0.00     0.325 C 
ATOM     20  O   UNL A   1      31.768  28.643  23.409  1.00  0.00    -0.250 OA
BRANCH  19  21
ATOM     21  O   UNL A   1      33.104  26.908  24.041  1.00  0.00    -0.468 OA
ATOM     22  C   UNL A   1      33.462  26.339  22.779  1.00  0.00     0.282 C 
ENDBRANCH  19  21
ENDBRANCH   8  19
ENDBRANCH   6   7
ENDBRANCH   5   6
ENDBRANCH   3   5
ENDBRANCH   2   3
ENDBRANCH   1   2
BRANCH   1  23
ATOM     23  C   UNL A   1      39.040  19.705  25.297  1.00  0.00     0.275 C 
BRANCH  23  24
ATOM     24  O   UNL A   1      39.936  19.738  26.422  1.00  0.00    -0.458 OA
BRANCH  24  25
ATOM     25  C   UNL A   1      41.252  19.761  26.117  1.00  0.00     0.338 C 
ATOM     26  O   UNL A   1      41.899  18.946  25.489  1.00  0.00    -0.246 OA
BRANCH  25  27
ATOM     27  C   UNL A   1      41.838  21.018  26.579  1.00  0.00     0.060 A 
ATOM     28  C   UNL A   1      41.913  21.245  27.956  1.00  0.00     0.016 A 
ATOM     29  C   UNL A   1      42.192  22.008  25.663  1.00  0.00     0.016 A 
ATOM     30  C   UNL A   1      42.340  22.479  28.427  1.00  0.00     0.010 A 
ATOM     31  C   UNL A   1      42.627  23.246  26.137  1.00  0.00     0.010 A 
ATOM     32  C   UNL A   1      42.688  23.489  27.520  1.00  0.00    -0.014 A 
BRANCH  32  33
ATOM     33  C   UNL A   1      43.074  24.822  28.024  1.00  0.00     0.031 A 
ATOM     34  C   UNL A   1      42.018  25.851  28.297  1.00  0.00     0.074 A 
ATOM     35  C   UNL A   1      44.370  25.091  28.260  1.00  0.00     0.049 A 
ATOM     36  N   UNL A   1      42.158  27.091  28.690  1.00  0.00    -0.248 NA
ATOM     37  C   UNL A   1      40.621  25.429  28.106  1.00  0.00     0.031 C 
ATOM     38  C   UNL A   1      45.473  24.144  28.087  1.00  0.00     0.029 A 
ATOM     39  N   UNL A   1      44.975  26.237  28.704  1.00  0.00    -0.354 N 
ATOM     40  C   UNL A   1      40.870  27.600  28.788  1.00  0.00     0.074 A 
ATOM     41  C   UNL A   1      39.963  26.544  28.393  1.00  0.00     0.031 C 
ATOM     42  C   UNL A   1      46.621  24.747  28.434  1.00  0.00     0.029 A 
ATOM     43  C   UNL A   1      46.339  26.129  28.808  1.00  0.00     0.049 A 
ATOM     44  H   UNL A   1      44.478  27.058  28.926  1.00  0.00     0.167 HD
ATOM     45  C   UNL A   1      40.482  28.838  29.175  1.00  0.00     0.031 A 
ATOM     46  C   UNL A   1      47.258  27.051  29.146  1.00  0.00     0.031 A 
ATOM     47  C   UNL A   1      41.391  29.887  29.550  1.00  0.00     0.049 A 
ATOM     48  C   UNL A   1      46.809  28.445  29.480  1.00  0.00     0.074 A 
ATOM     49  C   UNL A   1      41.098  31.181  29.948  1.00  0.00     0.029 A 
ATOM     50  N   UNL A   1      42.771  29.763  29.573  1.00  0.00    -0.354 N 
ATOM     51  N   UNL A   1      45.589  28.923  29.547  1.00  0.00    -0.248 NA
ATOM     52  C   UNL A   1      47.861  29.426  29.773  1.00  0.00     0.031 C 
ATOM     53  C   UNL A   1      42.306  31.852  30.167  1.00  0.00     0.029 A 
ATOM     54  C   UNL A   1      43.347  30.963  29.952  1.00  0.00     0.049 A 
ATOM     55  H   UNL A   1      43.268  28.942  29.350  1.00  0.00     0.167 HD
ATOM     56  C   UNL A   1      45.726  30.259  29.897  1.00  0.00     0.074 A 
ATOM     57  C   UNL A   1      47.146  30.510  30.046  1.00  0.00     0.031 C 
ATOM     58  C   UNL A   1      44.762  31.195  30.076  1.00  0.00     0.031 A 
BRANCH  45  59
ATOM     59  C   UNL A   1      39.010  29.129  29.178  1.00  0.00    -0.014 A 
ATOM     60  C   UNL A   1      38.246  28.994  30.346  1.00  0.00     0.009 A 
ATOM     61  C   UNL A   1      38.386  29.576  28.002  1.00  0.00     0.009 A 
ATOM     62  C   UNL A   1      36.878  29.275  30.331  1.00  0.00     0.001 A 
ATOM     63  C   UNL A   1      37.023  29.877  27.996  1.00  0.00     0.001 A 
ATOM     64  C   UNL A   1      36.269  29.721  29.158  1.00  0.00     0.000 A 
ENDBRANCH  45  59
BRANCH  46  65
ATOM     65  C   UNL A   1      48.695  26.683  29.165  1.00  0.00    -0.014 A 
ATOM     66  C   UNL A   1      49.505  26.922  28.046  1.00  0.00     0.009 A 
ATOM     67  C   UNL A   1      49.271  26.116  30.314  1.00  0.00     0.009 A 
ATOM     68  C   UNL A   1      50.862  26.595  28.074  1.00  0.00     0.001 A 
ATOM     69  C   UNL A   1      50.632  25.811  30.347  1.00  0.00     0.001 A 
ATOM     70  C   UNL A   1      51.426  26.047  29.225  1.00  0.00     0.000 A 
ENDBRANCH  46  65
BRANCH  58  71
ATOM     71  C   UNL A   1      45.213  32.575  30.454  1.00  0.00    -0.014 A 
ATOM     72  C   UNL A   1      45.435  32.918  31.796  1.00  0.00     0.009 A 
ATOM     73  C   UNL A   1      45.472  33.525  29.453  1.00  0.00     0.009 A 
ATOM     74  C   UNL A   1      45.887  34.195  32.131  1.00  0.00     0.001 A 
ATOM     75  C   UNL A   1      45.946  34.793  29.790  1.00  0.00     0.001 A 
ATOM     76  C   UNL A   1      46.147  35.129  31.129  1.00  0.00     0.000 A 
ENDBRANCH  58  71
ENDBRANCH  32  33
ENDBRANCH  25  27
ENDBRANCH  24  25
ENDBRANCH  23  24
ENDBRANCH   1  23
TORSDOF 15
ENDMDL
