MODEL 1
REMARK VINA RESULT:     -11.5      0.000      0.000
REMARK SMILES Cc1nc(S[C@@H](C(=O)OCCOC(=O)c2ccc(-c3c4nc(c(-c5ccccc5)c5ccc([nH]5)c(-c5ccccc5)c5nc(c(-c6ccccc6)c6ccc3[nH]6)C=C5)C=C4)cc2)c2ccccc2)nc2ccccc12
REMARK SMILES IDX 10 1 9 2 7 3 8 4 6 5 5 6 4 7 1 8 2 9 3 10 75 11 70 12 74 13
REMARK SMILES IDX 69 14 71 15 73 16 72 17 63 18 64 19 68 20 65 21 67 22 66 23
REMARK SMILES IDX 11 24 12 25 13 26 14 27 15 28 16 29 62 30 17 31 61 32 18 33
REMARK SMILES IDX 19 34 20 35 55 36 21 37 60 38 54 39 56 40 22 41 59 42 53 43
REMARK SMILES IDX 52 44 23 46 45 47 30 48 44 49 31 50 34 51 43 52 57 53 32 54
REMARK SMILES IDX 33 55 42 57 58 58 35 59 24 60 25 61 29 62 26 63 28 64 27 65
REMARK SMILES IDX 46 66 47 67 51 68 48 69 50 70 49 71 36 72 37 73 41 74 38 75
REMARK SMILES IDX 40 76 39 77
REMARK H PARENT 56 45 34 56
REMARK Flexibility Score: inf
ROOT
ATOM      1  C   UNL A   1      36.421  22.683  23.722  1.00  0.00     0.274 C 
ENDROOT
BRANCH   1   2
ATOM      2  O   UNL A   1      35.153  23.075  24.295  1.00  0.00    -0.461 OA
BRANCH   2   3
ATOM      3  C   UNL A   1      34.083  23.019  23.450  1.00  0.00     0.324 C 
ATOM      4  O   UNL A   1      34.112  23.524  22.328  1.00  0.00    -0.251 OA
BRANCH   3   5
ATOM      5  C   UNL A   1      32.802  22.436  24.075  1.00  0.00     0.194 C 
BRANCH   5   6
ATOM      6  S   UNL A   1      32.131  23.397  25.476  1.00  0.00    -0.066 SA
BRANCH   6   7
ATOM      7  C   UNL A   1      32.035  25.087  24.934  1.00  0.00     0.189 A 
ATOM      8  C   UNL A   1      33.753  28.295  25.301  1.00  0.00     0.067 C 
ATOM      9  C   UNL A   1      32.732  27.273  24.886  1.00  0.00     0.050 A 
ATOM     10  N   UNL A   1      33.005  25.973  25.193  1.00  0.00    -0.227 NA
ATOM     11  C   UNL A   1      31.544  27.692  24.270  1.00  0.00     0.022 A 
ATOM     12  C   UNL A   1      30.602  26.680  24.082  1.00  0.00     0.075 A 
ATOM     13  C   UNL A   1      31.238  29.021  23.871  1.00  0.00     0.012 A 
ATOM     14  N   UNL A   1      30.840  25.406  24.408  1.00  0.00    -0.222 NA
ATOM     15  C   UNL A   1      29.358  27.025  23.565  1.00  0.00     0.029 A 
ATOM     16  C   UNL A   1      29.992  29.339  23.339  1.00  0.00     0.001 A 
ATOM     17  C   UNL A   1      29.041  28.339  23.201  1.00  0.00     0.002 A 
ENDBRANCH   6   7
ENDBRANCH   5   6
BRANCH   5  18
ATOM     18  C   UNL A   1      32.732  20.899  24.139  1.00  0.00    -0.023 A 
ATOM     19  C   UNL A   1      32.347  20.177  22.987  1.00  0.00     0.005 A 
ATOM     20  C   UNL A   1      32.978  20.146  25.299  1.00  0.00     0.005 A 
ATOM     21  C   UNL A   1      32.278  18.781  22.976  1.00  0.00     0.000 A 
ATOM     22  C   UNL A   1      32.902  18.748  25.293  1.00  0.00     0.000 A 
ATOM     23  C   UNL A   1      32.562  18.064  24.131  1.00  0.00     0.000 A 
ENDBRANCH   5  18
ENDBRANCH   3   5
ENDBRANCH   2   3
ENDBRANCH   1   2
BRANCH   1  24
ATOM     24  C   UNL A   1      36.973  21.435  24.406  1.00  0.00     0.275 C 
BRANCH  24  25
ATOM     25  O   UNL A   1      37.401  21.778  25.734  1.00  0.00    -0.458 OA
BRANCH  25  26
ATOM     26  C   UNL A   1      38.700  21.557  26.017  1.00  0.00     0.338 C 
ATOM     27  O   UNL A   1      39.334  20.523  25.850  1.00  0.00    -0.246 OA
BRANCH  26  28
ATOM     28  C   UNL A   1      39.284  22.778  26.597  1.00  0.00     0.060 A 
ATOM     29  C   UNL A   1      40.377  22.675  27.458  1.00  0.00     0.016 A 
ATOM     30  C   UNL A   1      38.839  24.035  26.180  1.00  0.00     0.016 A 
ATOM     31  C   UNL A   1      41.011  23.835  27.909  1.00  0.00     0.010 A 
ATOM     32  C   UNL A   1      39.499  25.189  26.592  1.00  0.00     0.010 A 
ATOM     33  C   UNL A   1      40.585  25.100  27.467  1.00  0.00    -0.014 A 
BRANCH  33  34
ATOM     34  C   UNL A   1      41.277  26.328  27.914  1.00  0.00     0.031 A 
ATOM     35  C   UNL A   1      42.665  26.621  27.430  1.00  0.00     0.074 A 
ATOM     36  C   UNL A   1      40.666  27.177  28.761  1.00  0.00     0.049 A 
ATOM     37  N   UNL A   1      43.340  27.738  27.517  1.00  0.00    -0.248 NA
ATOM     38  C   UNL A   1      43.390  25.526  26.764  1.00  0.00     0.031 C 
ATOM     39  C   UNL A   1      39.354  26.964  29.375  1.00  0.00     0.029 A 
ATOM     40  N   UNL A   1      41.068  28.397  29.243  1.00  0.00    -0.354 N 
ATOM     41  C   UNL A   1      44.541  27.497  26.868  1.00  0.00     0.074 A 
ATOM     42  C   UNL A   1      44.545  26.107  26.471  1.00  0.00     0.031 C 
ATOM     43  C   UNL A   1      39.049  28.030  30.135  1.00  0.00     0.029 A 
ATOM     44  C   UNL A   1      40.133  29.006  30.044  1.00  0.00     0.049 A 
ATOM     45  H   UNL A   1      41.943  28.798  29.036  1.00  0.00     0.167 HD
ATOM     46  C   UNL A   1      45.532  28.373  26.582  1.00  0.00     0.031 A 
ATOM     47  C   UNL A   1      40.130  30.232  30.602  1.00  0.00     0.031 A 
ATOM     48  C   UNL A   1      45.541  29.744  27.012  1.00  0.00     0.049 A 
ATOM     49  C   UNL A   1      41.262  31.179  30.311  1.00  0.00     0.074 A 
ATOM     50  C   UNL A   1      46.470  30.728  26.726  1.00  0.00     0.029 A 
ATOM     51  N   UNL A   1      44.584  30.316  27.834  1.00  0.00    -0.354 N 
ATOM     52  N   UNL A   1      42.317  30.995  29.557  1.00  0.00    -0.248 NA
ATOM     53  C   UNL A   1      41.181  32.518  30.916  1.00  0.00     0.031 C 
ATOM     54  C   UNL A   1      46.101  31.884  27.418  1.00  0.00     0.029 A 
ATOM     55  C   UNL A   1      44.915  31.633  28.090  1.00  0.00     0.049 A 
ATOM     56  H   UNL A   1      43.789  29.853  28.185  1.00  0.00     0.167 HD
ATOM     57  C   UNL A   1      43.001  32.204  29.557  1.00  0.00     0.074 A 
ATOM     58  C   UNL A   1      42.244  33.114  30.391  1.00  0.00     0.031 C 
ATOM     59  C   UNL A   1      44.146  32.531  28.912  1.00  0.00     0.031 A 
BRANCH  46  60
ATOM     60  C   UNL A   1      46.661  27.887  25.724  1.00  0.00    -0.014 A 
ATOM     61  C   UNL A   1      47.858  27.444  26.302  1.00  0.00     0.009 A 
ATOM     62  C   UNL A   1      46.561  27.950  24.324  1.00  0.00     0.009 A 
ATOM     63  C   UNL A   1      48.936  27.076  25.495  1.00  0.00     0.001 A 
ATOM     64  C   UNL A   1      47.632  27.561  23.519  1.00  0.00     0.001 A 
ATOM     65  C   UNL A   1      48.821  27.133  24.106  1.00  0.00     0.000 A 
ENDBRANCH  46  60
BRANCH  47  66
ATOM     66  C   UNL A   1      38.963  30.671  31.411  1.00  0.00    -0.014 A 
ATOM     67  C   UNL A   1      37.884  31.337  30.812  1.00  0.00     0.009 A 
ATOM     68  C   UNL A   1      38.934  30.431  32.793  1.00  0.00     0.009 A 
ATOM     69  C   UNL A   1      36.796  31.755  31.584  1.00  0.00     0.001 A 
ATOM     70  C   UNL A   1      37.837  30.832  33.558  1.00  0.00     0.001 A 
ATOM     71  C   UNL A   1      36.771  31.497  32.954  1.00  0.00     0.000 A 
ENDBRANCH  47  66
BRANCH  59  72
ATOM     72  C   UNL A   1      44.650  33.940  29.042  1.00  0.00    -0.014 A 
ATOM     73  C   UNL A   1      44.221  34.915  28.127  1.00  0.00     0.009 A 
ATOM     74  C   UNL A   1      45.630  34.274  29.988  1.00  0.00     0.009 A 
ATOM     75  C   UNL A   1      44.773  36.195  28.146  1.00  0.00     0.001 A 
ATOM     76  C   UNL A   1      46.163  35.565  30.019  1.00  0.00     0.001 A 
ATOM     77  C   UNL A   1      45.742  36.520  29.094  1.00  0.00     0.000 A 
ENDBRANCH  59  72
ENDBRANCH  33  34
ENDBRANCH  26  28
ENDBRANCH  25  26
ENDBRANCH  24  25
ENDBRANCH   1  24
TORSDOF 14
ENDMDL
MODEL 2
REMARK VINA RESULT:     -11.5      2.847      6.299
REMARK SMILES Cc1nc(S[C@@H](C(=O)OCCOC(=O)c2ccc(-c3c4nc(c(-c5ccccc5)c5ccc([nH]5)c(-c5ccccc5)c5nc(c(-c6ccccc6)c6ccc3[nH]6)C=C5)C=C4)cc2)c2ccccc2)nc2ccccc12
REMARK SMILES IDX 10 1 9 2 7 3 8 4 6 5 5 6 4 7 1 8 2 9 3 10 75 11 70 12 74 13
REMARK SMILES IDX 69 14 71 15 73 16 72 17 63 18 64 19 68 20 65 21 67 22 66 23
REMARK SMILES IDX 11 24 12 25 13 26 14 27 15 28 16 29 62 30 17 31 61 32 18 33
REMARK SMILES IDX 19 34 20 35 55 36 21 37 60 38 54 39 56 40 22 41 59 42 53 43
REMARK SMILES IDX 52 44 23 46 45 47 30 48 44 49 31 50 34 51 43 52 57 53 32 54
REMARK SMILES IDX 33 55 42 57 58 58 35 59 24 60 25 61 29 62 26 63 28 64 27 65
REMARK SMILES IDX 46 66 47 67 51 68 48 69 50 70 49 71 36 72 37 73 41 74 38 75
REMARK SMILES IDX 40 76 39 77
REMARK H PARENT 56 45 34 56
REMARK Flexibility Score: inf
ROOT
ATOM      1  C   UNL A   1      36.606  23.518  23.633  1.00  0.00     0.274 C 
ENDROOT
BRANCH   1   2
ATOM      2  O   UNL A   1      35.413  23.013  22.990  1.00  0.00    -0.461 OA
BRANCH   2   3
ATOM      3  C   UNL A   1      34.285  23.759  23.174  1.00  0.00     0.324 C 
ATOM      4  O   UNL A   1      34.094  24.811  22.565  1.00  0.00    -0.251 OA
BRANCH   3   5
ATOM      5  C   UNL A   1      33.374  23.273  24.316  1.00  0.00     0.194 C 
BRANCH   5   6
ATOM      6  S   UNL A   1      33.624  24.131  25.909  1.00  0.00    -0.066 SA
BRANCH   6   7
ATOM      7  C   UNL A   1      32.811  25.705  25.773  1.00  0.00     0.189 A 
ATOM      8  C   UNL A   1      30.417  27.499  23.668  1.00  0.00     0.067 C 
ATOM      9  C   UNL A   1      31.415  27.217  24.756  1.00  0.00     0.050 A 
ATOM     10  N   UNL A   1      31.830  25.925  24.889  1.00  0.00    -0.227 NA
ATOM     11  C   UNL A   1      31.913  28.275  25.530  1.00  0.00     0.022 A 
ATOM     12  C   UNL A   1      32.953  27.923  26.390  1.00  0.00     0.075 A 
ATOM     13  C   UNL A   1      31.470  29.624  25.477  1.00  0.00     0.012 A 
ATOM     14  N   UNL A   1      33.395  26.667  26.509  1.00  0.00    -0.222 NA
ATOM     15  C   UNL A   1      33.570  28.929  27.126  1.00  0.00     0.029 A 
ATOM     16  C   UNL A   1      32.093  30.611  26.236  1.00  0.00     0.001 A 
ATOM     17  C   UNL A   1      33.159  30.264  27.052  1.00  0.00     0.002 A 
ENDBRANCH   6   7
ENDBRANCH   5   6
BRANCH   5  18
ATOM     18  C   UNL A   1      33.078  21.762  24.335  1.00  0.00    -0.023 A 
ATOM     19  C   UNL A   1      32.459  21.166  23.213  1.00  0.00     0.005 A 
ATOM     20  C   UNL A   1      33.336  20.922  25.431  1.00  0.00     0.005 A 
ATOM     21  C   UNL A   1      32.178  19.798  23.162  1.00  0.00     0.000 A 
ATOM     22  C   UNL A   1      33.047  19.552  25.386  1.00  0.00     0.000 A 
ATOM     23  C   UNL A   1      32.478  18.988  24.249  1.00  0.00     0.000 A 
ENDBRANCH   5  18
ENDBRANCH   3   5
ENDBRANCH   2   3
ENDBRANCH   1   2
BRANCH   1  24
ATOM     24  C   UNL A   1      37.082  22.570  24.732  1.00  0.00     0.275 C 
BRANCH  24  25
ATOM     25  O   UNL A   1      37.565  23.343  25.842  1.00  0.00    -0.458 OA
BRANCH  25  26
ATOM     26  C   UNL A   1      38.827  23.089  26.241  1.00  0.00     0.338 C 
ATOM     27  O   UNL A   1      39.452  22.044  26.118  1.00  0.00    -0.246 OA
BRANCH  26  28
ATOM     28  C   UNL A   1      39.381  24.289  26.891  1.00  0.00     0.060 A 
ATOM     29  C   UNL A   1      40.142  25.187  26.143  1.00  0.00     0.016 A 
ATOM     30  C   UNL A   1      39.032  24.597  28.208  1.00  0.00     0.016 A 
ATOM     31  C   UNL A   1      40.561  26.386  26.724  1.00  0.00     0.010 A 
ATOM     32  C   UNL A   1      39.409  25.812  28.773  1.00  0.00     0.010 A 
ATOM     33  C   UNL A   1      40.185  26.713  28.038  1.00  0.00    -0.014 A 
BRANCH  33  34
ATOM     34  C   UNL A   1      40.597  27.998  28.643  1.00  0.00     0.031 A 
ATOM     35  C   UNL A   1      39.633  29.145  28.689  1.00  0.00     0.074 A 
ATOM     36  C   UNL A   1      41.838  28.142  29.143  1.00  0.00     0.049 A 
ATOM     37  N   UNL A   1      39.720  30.256  29.373  1.00  0.00    -0.248 NA
ATOM     38  C   UNL A   1      38.417  29.034  27.866  1.00  0.00     0.031 C 
ATOM     39  C   UNL A   1      42.899  27.135  29.080  1.00  0.00     0.029 A 
ATOM     40  N   UNL A   1      42.412  29.193  29.813  1.00  0.00    -0.354 N 
ATOM     41  C   UNL A   1      38.547  30.948  29.108  1.00  0.00     0.074 A 
ATOM     42  C   UNL A   1      37.806  30.180  28.134  1.00  0.00     0.031 C 
ATOM     43  C   UNL A   1      43.989  27.609  29.708  1.00  0.00     0.029 A 
ATOM     44  C   UNL A   1      43.695  28.941  30.234  1.00  0.00     0.049 A 
ATOM     45  H   UNL A   1      41.950  30.046  29.977  1.00  0.00     0.167 HD
ATOM     46  C   UNL A   1      38.105  32.097  29.669  1.00  0.00     0.031 A 
ATOM     47  C   UNL A   1      44.524  29.680  30.997  1.00  0.00     0.031 A 
ATOM     48  C   UNL A   1      38.863  32.876  30.608  1.00  0.00     0.049 A 
ATOM     49  C   UNL A   1      44.032  30.979  31.575  1.00  0.00     0.074 A 
ATOM     50  C   UNL A   1      38.481  34.025  31.277  1.00  0.00     0.029 A 
ATOM     51  N   UNL A   1      40.163  32.595  30.994  1.00  0.00    -0.354 N 
ATOM     52  N   UNL A   1      42.856  31.544  31.451  1.00  0.00    -0.248 NA
ATOM     53  C   UNL A   1      44.968  31.721  32.434  1.00  0.00     0.031 C 
ATOM     54  C   UNL A   1      39.571  34.468  32.032  1.00  0.00     0.029 A 
ATOM     55  C   UNL A   1      40.610  33.565  31.872  1.00  0.00     0.049 A 
ATOM     56  H   UNL A   1      40.690  31.822  30.688  1.00  0.00     0.167 HD
ATOM     57  C   UNL A   1      42.894  32.680  32.249  1.00  0.00     0.074 A 
ATOM     58  C   UNL A   1      44.210  32.727  32.851  1.00  0.00     0.031 C 
ATOM     59  C   UNL A   1      41.918  33.592  32.472  1.00  0.00     0.031 A 
BRANCH  46  60
ATOM     60  C   UNL A   1      36.720  32.551  29.319  1.00  0.00    -0.014 A 
ATOM     61  C   UNL A   1      36.498  33.375  28.207  1.00  0.00     0.009 A 
ATOM     62  C   UNL A   1      35.638  32.222  30.152  1.00  0.00     0.009 A 
ATOM     63  C   UNL A   1      35.219  33.865  27.938  1.00  0.00     0.001 A 
ATOM     64  C   UNL A   1      34.356  32.696  29.869  1.00  0.00     0.001 A 
ATOM     65  C   UNL A   1      34.150  33.523  28.767  1.00  0.00     0.000 A 
ENDBRANCH  46  60
BRANCH  47  66
ATOM     66  C   UNL A   1      45.871  29.158  31.342  1.00  0.00    -0.014 A 
ATOM     67  C   UNL A   1      46.066  28.374  32.488  1.00  0.00     0.009 A 
ATOM     68  C   UNL A   1      46.972  29.456  30.525  1.00  0.00     0.009 A 
ATOM     69  C   UNL A   1      47.339  27.896  32.810  1.00  0.00     0.001 A 
ATOM     70  C   UNL A   1      48.240  28.961  30.838  1.00  0.00     0.001 A 
ATOM     71  C   UNL A   1      48.423  28.185  31.981  1.00  0.00     0.000 A 
ENDBRANCH  47  66
BRANCH  59  72
ATOM     72  C   UNL A   1      42.206  34.712  33.431  1.00  0.00    -0.014 A 
ATOM     73  C   UNL A   1      41.791  34.600  34.768  1.00  0.00     0.009 A 
ATOM     74  C   UNL A   1      42.779  35.913  32.992  1.00  0.00     0.009 A 
ATOM     75  C   UNL A   1      41.928  35.676  35.644  1.00  0.00     0.001 A 
ATOM     76  C   UNL A   1      42.939  36.980  33.879  1.00  0.00     0.001 A 
ATOM     77  C   UNL A   1      42.505  36.865  35.200  1.00  0.00     0.000 A 
ENDBRANCH  59  72
ENDBRANCH  33  34
ENDBRANCH  26  28
ENDBRANCH  25  26
ENDBRANCH  24  25
ENDBRANCH   1  24
TORSDOF 14
ENDMDL
MODEL 3
REMARK VINA RESULT:     -11.4      1.439      4.360
REMARK SMILES Cc1nc(S[C@@H](C(=O)OCCOC(=O)c2ccc(-c3c4nc(c(-c5ccccc5)c5ccc([nH]5)c(-c5ccccc5)c5nc(c(-c6ccccc6)c6ccc3[nH]6)C=C5)C=C4)cc2)c2ccccc2)nc2ccccc12
REMARK SMILES IDX 10 1 9 2 7 3 8 4 6 5 5 6 4 7 1 8 2 9 3 10 75 11 70 12 74 13
REMARK SMILES IDX 69 14 71 15 73 16 72 17 63 18 64 19 68 20 65 21 67 22 66 23
REMARK SMILES IDX 11 24 12 25 13 26 14 27 15 28 16 29 62 30 17 31 61 32 18 33
REMARK SMILES IDX 19 34 20 35 55 36 21 37 60 38 54 39 56 40 22 41 59 42 53 43
REMARK SMILES IDX 52 44 23 46 45 47 30 48 44 49 31 50 34 51 43 52 57 53 32 54
REMARK SMILES IDX 33 55 42 57 58 58 35 59 24 60 25 61 29 62 26 63 28 64 27 65
REMARK SMILES IDX 46 66 47 67 51 68 48 69 50 70 49 71 36 72 37 73 41 74 38 75
REMARK SMILES IDX 40 76 39 77
REMARK H PARENT 56 45 34 56
REMARK Flexibility Score: inf
ROOT
ATOM      1  C   UNL A   1      36.504  22.251  23.918  1.00  0.00     0.274 C 
ENDROOT
BRANCH   1   2
ATOM      2  O   UNL A   1      35.511  22.916  24.732  1.00  0.00    -0.461 OA
BRANCH   2   3
ATOM      3  C   UNL A   1      34.360  23.266  24.087  1.00  0.00     0.324 C 
ATOM      4  O   UNL A   1      34.327  23.459  22.871  1.00  0.00    -0.251 OA
BRANCH   3   5
ATOM      5  C   UNL A   1      33.170  23.565  25.016  1.00  0.00     0.194 C 
BRANCH   5   6
ATOM      6  S   UNL A   1      31.645  22.638  24.625  1.00  0.00    -0.066 SA
BRANCH   6   7
ATOM      7  C   UNL A   1      32.154  21.015  24.111  1.00  0.00     0.189 A 
ATOM      8  C   UNL A   1      32.159  18.828  21.179  1.00  0.00     0.067 C 
ATOM      9  C   UNL A   1      32.349  19.307  22.592  1.00  0.00     0.050 A 
ATOM     10  N   UNL A   1      32.106  20.627  22.831  1.00  0.00    -0.227 NA
ATOM     11  C   UNL A   1      32.698  18.388  23.592  1.00  0.00     0.022 A 
ATOM     12  C   UNL A   1      32.682  18.908  24.886  1.00  0.00     0.075 A 
ATOM     13  C   UNL A   1      33.023  17.019  23.387  1.00  0.00     0.012 A 
ATOM     14  N   UNL A   1      32.414  20.192  25.142  1.00  0.00    -0.222 NA
ATOM     15  C   UNL A   1      32.923  18.043  25.948  1.00  0.00     0.029 A 
ATOM     16  C   UNL A   1      33.278  16.176  24.465  1.00  0.00     0.001 A 
ATOM     17  C   UNL A   1      33.211  16.688  25.753  1.00  0.00     0.002 A 
ENDBRANCH   6   7
ENDBRANCH   5   6
BRANCH   5  18
ATOM     18  C   UNL A   1      33.040  25.027  25.485  1.00  0.00    -0.023 A 
ATOM     19  C   UNL A   1      31.838  25.452  26.093  1.00  0.00     0.005 A 
ATOM     20  C   UNL A   1      34.032  26.004  25.302  1.00  0.00     0.005 A 
ATOM     21  C   UNL A   1      31.663  26.759  26.554  1.00  0.00     0.000 A 
ATOM     22  C   UNL A   1      33.856  27.317  25.755  1.00  0.00     0.000 A 
ATOM     23  C   UNL A   1      32.677  27.694  26.389  1.00  0.00     0.000 A 
ENDBRANCH   5  18
ENDBRANCH   3   5
ENDBRANCH   2   3
ENDBRANCH   1   2
BRANCH   1  24
ATOM     24  C   UNL A   1      37.131  21.077  24.666  1.00  0.00     0.275 C 
BRANCH  24  25
ATOM     25  O   UNL A   1      37.634  21.540  25.930  1.00  0.00    -0.458 OA
BRANCH  25  26
ATOM     26  C   UNL A   1      38.962  21.413  26.125  1.00  0.00     0.338 C 
ATOM     27  O   UNL A   1      39.657  20.429  25.909  1.00  0.00    -0.246 OA
BRANCH  26  28
ATOM     28  C   UNL A   1      39.493  22.672  26.674  1.00  0.00     0.060 A 
ATOM     29  C   UNL A   1      40.550  22.634  27.583  1.00  0.00     0.016 A 
ATOM     30  C   UNL A   1      39.036  23.899  26.185  1.00  0.00     0.016 A 
ATOM     31  C   UNL A   1      41.138  23.828  28.007  1.00  0.00     0.010 A 
ATOM     32  C   UNL A   1      39.650  25.086  26.572  1.00  0.00     0.010 A 
ATOM     33  C   UNL A   1      40.701  25.061  27.493  1.00  0.00    -0.014 A 
BRANCH  33  34
ATOM     34  C   UNL A   1      41.345  26.325  27.914  1.00  0.00     0.031 A 
ATOM     35  C   UNL A   1      42.715  26.667  27.413  1.00  0.00     0.074 A 
ATOM     36  C   UNL A   1      40.706  27.161  28.753  1.00  0.00     0.049 A 
ATOM     37  N   UNL A   1      43.344  27.813  27.475  1.00  0.00    -0.248 NA
ATOM     38  C   UNL A   1      43.479  25.593  26.757  1.00  0.00     0.031 C 
ATOM     39  C   UNL A   1      39.411  26.904  29.383  1.00  0.00     0.029 A 
ATOM     40  N   UNL A   1      41.062  28.405  29.211  1.00  0.00    -0.354 N 
ATOM     41  C   UNL A   1      44.548  27.611  26.818  1.00  0.00     0.074 A 
ATOM     42  C   UNL A   1      44.607  26.216  26.444  1.00  0.00     0.031 C 
ATOM     43  C   UNL A   1      39.068  27.969  30.128  1.00  0.00     0.029 A 
ATOM     44  C   UNL A   1      40.109  28.988  30.010  1.00  0.00     0.049 A 
ATOM     45  H   UNL A   1      41.917  28.838  28.989  1.00  0.00     0.167 HD
ATOM     46  C   UNL A   1      45.499  28.523  26.509  1.00  0.00     0.031 A 
ATOM     47  C   UNL A   1      40.059  30.222  30.549  1.00  0.00     0.031 A 
ATOM     48  C   UNL A   1      45.454  29.900  26.916  1.00  0.00     0.049 A 
ATOM     49  C   UNL A   1      41.148  31.210  30.232  1.00  0.00     0.074 A 
ATOM     50  C   UNL A   1      46.339  30.917  26.606  1.00  0.00     0.029 A 
ATOM     51  N   UNL A   1      44.482  30.445  27.738  1.00  0.00    -0.354 N 
ATOM     52  N   UNL A   1      42.203  31.057  29.471  1.00  0.00    -0.248 NA
ATOM     53  C   UNL A   1      41.017  32.554  30.816  1.00  0.00     0.031 C 
ATOM     54  C   UNL A   1      45.928  32.068  27.283  1.00  0.00     0.029 A 
ATOM     55  C   UNL A   1      44.759  31.779  27.970  1.00  0.00     0.049 A 
ATOM     56  H   UNL A   1      43.710  29.955  28.103  1.00  0.00     0.167 HD
ATOM     57  C   UNL A   1      42.836  32.294  29.445  1.00  0.00     0.074 A 
ATOM     58  C   UNL A   1      42.049  33.185  30.271  1.00  0.00     0.031 C 
ATOM     59  C   UNL A   1      43.960  32.658  28.784  1.00  0.00     0.031 A 
BRANCH  46  60
ATOM     60  C   UNL A   1      46.640  28.071  25.648  1.00  0.00    -0.014 A 
ATOM     61  C   UNL A   1      46.533  28.094  24.251  1.00  0.00     0.009 A 
ATOM     62  C   UNL A   1      47.800  27.540  26.236  1.00  0.00     0.009 A 
ATOM     63  C   UNL A   1      47.565  27.590  23.457  1.00  0.00     0.001 A 
ATOM     64  C   UNL A   1      48.840  27.058  25.440  1.00  0.00     0.001 A 
ATOM     65  C   UNL A   1      48.717  27.075  24.052  1.00  0.00     0.000 A 
ENDBRANCH  46  60
BRANCH  47  66
ATOM     66  C   UNL A   1      38.882  30.625  31.362  1.00  0.00    -0.014 A 
ATOM     67  C   UNL A   1      38.883  30.463  32.756  1.00  0.00     0.009 A 
ATOM     68  C   UNL A   1      37.747  31.164  30.739  1.00  0.00     0.009 A 
ATOM     69  C   UNL A   1      37.767  30.836  33.510  1.00  0.00     0.001 A 
ATOM     70  C   UNL A   1      36.641  31.553  31.497  1.00  0.00     0.001 A 
ATOM     71  C   UNL A   1      36.650  31.386  32.881  1.00  0.00     0.000 A 
ENDBRANCH  47  66
BRANCH  59  72
ATOM     72  C   UNL A   1      44.407  34.088  28.887  1.00  0.00    -0.014 A 
ATOM     73  C   UNL A   1      45.240  34.477  29.948  1.00  0.00     0.009 A 
ATOM     74  C   UNL A   1      43.915  35.066  28.010  1.00  0.00     0.009 A 
ATOM     75  C   UNL A   1      45.561  35.820  30.140  1.00  0.00     0.001 A 
ATOM     76  C   UNL A   1      44.258  36.407  28.191  1.00  0.00     0.001 A 
ATOM     77  C   UNL A   1      45.072  36.785  29.260  1.00  0.00     0.000 A 
ENDBRANCH  59  72
ENDBRANCH  33  34
ENDBRANCH  26  28
ENDBRANCH  25  26
ENDBRANCH  24  25
ENDBRANCH   1  24
TORSDOF 14
ENDMDL
