MODEL 1
REMARK VINA RESULT:     -13.5      0.000      0.000
REMARK SMILES Cc1cnn(C2(C(=O)OCCOC(=O)c3ccc(-c4c5nc(c(-c6ccccc6)c6ccc([nH]6)c(-c6ccccc6)c6nc(c(-c7ccccc7)c7ccc4[nH]7)C=C6)C=C5)cc3)CCN(C(=O)c3cc4ccccc4[nH]3)CC2)c1
REMARK SMILES IDX 11 1 10 2 9 3 7 4 8 5 6 6 63 7 78 8 64 9 77 10 65 11 66 12
REMARK SMILES IDX 67 13 5 14 1 15 2 16 3 17 79 18 4 19 68 20 69 21 76 22 70 23
REMARK SMILES IDX 75 24 71 26 74 27 72 28 73 29 12 30 13 31 14 32 15 33 16 34
REMARK SMILES IDX 62 35 17 36 61 37 18 38 19 39 20 40 55 41 21 42 60 43 54 44
REMARK SMILES IDX 56 45 22 46 59 47 53 48 52 49 23 51 45 52 30 53 44 54 31 55
REMARK SMILES IDX 34 56 43 57 57 58 32 59 33 60 42 62 58 63 35 64 24 65 25 66
REMARK SMILES IDX 29 67 26 68 28 69 27 70 46 71 47 72 51 73 48 74 50 75 49 76
REMARK SMILES IDX 36 77 37 78 41 79 38 80 40 81 39 82
REMARK H PARENT 76 25 56 50 34 61
REMARK Flexibility Score: inf
ROOT
ATOM      1  C   UNL A   1      37.709  20.620  24.931  1.00  0.00     0.275 C 
ENDROOT
BRANCH   1   2
ATOM      2  C   UNL A   1      37.130  21.828  24.210  1.00  0.00     0.274 C 
BRANCH   2   3
ATOM      3  O   UNL A   1      35.840  22.243  24.715  1.00  0.00    -0.460 OA
BRANCH   3   4
ATOM      4  C   UNL A   1      34.874  22.399  23.752  1.00  0.00     0.334 C 
ATOM      5  O   UNL A   1      35.085  23.014  22.705  1.00  0.00    -0.249 OA
BRANCH   4   6
ATOM      6  C   UNL A   1      33.451  22.107  24.266  1.00  0.00     0.163 C 
ATOM      7  C   UNL A   1      32.974  22.534  25.678  1.00  0.00     0.064 C 
ATOM      8  C   UNL A   1      32.687  22.986  23.221  1.00  0.00     0.064 C 
ATOM      9  C   UNL A   1      31.431  22.436  25.708  1.00  0.00     0.123 C 
ATOM     10  C   UNL A   1      31.217  23.272  23.439  1.00  0.00     0.123 C 
ATOM     11  N   UNL A   1      30.906  23.484  24.845  1.00  0.00    -0.337 N 
ATOM     12  C   UNL A   1      30.375  24.615  25.480  1.00  0.00     0.270 C 
ATOM     13  O   UNL A   1      30.118  24.581  26.686  1.00  0.00    -0.267 OA
BRANCH   6  14
ATOM     14  N   UNL A   1      33.362  20.637  24.274  1.00  0.00    -0.255 N 
ATOM     15  C   UNL A   1      34.249  17.096  24.599  1.00  0.00     0.048 C 
ATOM     16  C   UNL A   1      33.737  18.462  24.348  1.00  0.00    -0.013 A 
ATOM     17  C   UNL A   1      32.740  18.788  23.412  1.00  0.00     0.138 A 
ATOM     18  C   UNL A   1      34.103  19.678  24.907  1.00  0.00     0.113 A 
ATOM     19  N   UNL A   1      32.505  20.092  23.367  1.00  0.00    -0.180 NA
ENDBRANCH   6  14
BRANCH  12  20
ATOM     20  C   UNL A   1      30.268  25.886  24.792  1.00  0.00     0.105 A 
ATOM     21  C   UNL A   1      31.077  26.994  24.627  1.00  0.00     0.042 A 
ATOM     22  N   UNL A   1      29.123  26.160  24.060  1.00  0.00    -0.351 N 
ATOM     23  C   UNL A   1      30.297  28.035  24.056  1.00  0.00     0.000 A 
ATOM     24  C   UNL A   1      29.086  27.473  23.667  1.00  0.00     0.046 A 
ATOM     25  H   UNL A   1      28.427  25.496  23.849  1.00  0.00     0.167 HD
ATOM     26  C   UNL A   1      30.512  29.408  23.835  1.00  0.00     0.010 A 
ATOM     27  C   UNL A   1      28.087  28.202  23.013  1.00  0.00     0.026 A 
ATOM     28  C   UNL A   1      29.506  30.166  23.228  1.00  0.00     0.001 A 
ATOM     29  C   UNL A   1      28.320  29.566  22.807  1.00  0.00     0.002 A 
ENDBRANCH  12  20
ENDBRANCH   4   6
ENDBRANCH   3   4
ENDBRANCH   2   3
ENDBRANCH   1   2
BRANCH   1  30
ATOM     30  O   UNL A   1      38.743  21.012  25.822  1.00  0.00    -0.458 OA
BRANCH  30  31
ATOM     31  C   UNL A   1      39.818  20.209  25.758  1.00  0.00     0.338 C 
ATOM     32  O   UNL A   1      39.868  19.029  25.396  1.00  0.00    -0.246 OA
BRANCH  31  33
ATOM     33  C   UNL A   1      40.935  20.845  26.417  1.00  0.00     0.060 A 
ATOM     34  C   UNL A   1      40.890  20.860  27.813  1.00  0.00     0.016 A 
ATOM     35  C   UNL A   1      41.587  21.816  25.650  1.00  0.00     0.016 A 
ATOM     36  C   UNL A   1      41.281  22.009  28.443  1.00  0.00     0.010 A 
ATOM     37  C   UNL A   1      41.966  22.963  26.277  1.00  0.00     0.010 A 
ATOM     38  C   UNL A   1      41.723  23.072  27.648  1.00  0.00    -0.014 A 
BRANCH  38  39
ATOM     39  C   UNL A   1      42.153  24.279  28.307  1.00  0.00     0.031 A 
ATOM     40  C   UNL A   1      41.205  25.383  28.010  1.00  0.00     0.074 A 
ATOM     41  C   UNL A   1      43.170  24.241  29.191  1.00  0.00     0.049 A 
ATOM     42  N   UNL A   1      41.470  26.527  27.479  1.00  0.00    -0.248 NA
ATOM     43  C   UNL A   1      39.753  25.098  28.110  1.00  0.00     0.031 C 
ATOM     44  C   UNL A   1      43.923  23.054  29.629  1.00  0.00     0.029 A 
ATOM     45  N   UNL A   1      43.644  25.209  30.015  1.00  0.00    -0.354 N 
ATOM     46  C   UNL A   1      40.250  27.193  27.417  1.00  0.00     0.074 A 
ATOM     47  C   UNL A   1      39.223  26.208  27.600  1.00  0.00     0.031 C 
ATOM     48  C   UNL A   1      44.525  23.317  30.810  1.00  0.00     0.029 A 
ATOM     49  C   UNL A   1      44.315  24.718  31.132  1.00  0.00     0.049 A 
ATOM     50  H   UNL A   1      43.524  26.171  29.840  1.00  0.00     0.167 HD
ATOM     51  C   UNL A   1      40.207  28.536  27.613  1.00  0.00     0.031 A 
ATOM     52  C   UNL A   1      44.601  25.406  32.265  1.00  0.00     0.031 A 
ATOM     53  C   UNL A   1      41.507  29.120  27.408  1.00  0.00     0.049 A 
ATOM     54  C   UNL A   1      44.460  26.843  31.947  1.00  0.00     0.074 A 
ATOM     55  C   UNL A   1      42.318  29.368  26.325  1.00  0.00     0.029 A 
ATOM     56  N   UNL A   1      42.301  29.097  28.529  1.00  0.00    -0.354 N 
ATOM     57  N   UNL A   1      45.252  27.468  31.125  1.00  0.00    -0.248 NA
ATOM     58  C   UNL A   1      43.194  27.510  32.223  1.00  0.00     0.031 C 
ATOM     59  C   UNL A   1      43.655  29.285  26.815  1.00  0.00     0.029 A 
ATOM     60  C   UNL A   1      43.625  29.058  28.191  1.00  0.00     0.049 A 
ATOM     61  H   UNL A   1      41.961  29.108  29.452  1.00  0.00     0.167 HD
ATOM     62  C   UNL A   1      44.419  28.339  30.445  1.00  0.00     0.074 A 
ATOM     63  C   UNL A   1      43.227  28.457  31.279  1.00  0.00     0.031 C 
ATOM     64  C   UNL A   1      44.637  28.618  29.127  1.00  0.00     0.031 A 
BRANCH  51  65
ATOM     65  C   UNL A   1      39.204  29.173  28.553  1.00  0.00    -0.014 A 
ATOM     66  C   UNL A   1      39.188  28.744  29.890  1.00  0.00     0.009 A 
ATOM     67  C   UNL A   1      38.088  29.916  28.116  1.00  0.00     0.009 A 
ATOM     68  C   UNL A   1      38.086  28.990  30.720  1.00  0.00     0.001 A 
ATOM     69  C   UNL A   1      37.001  30.190  28.948  1.00  0.00     0.001 A 
ATOM     70  C   UNL A   1      36.990  29.704  30.246  1.00  0.00     0.000 A 
ENDBRANCH  51  65
BRANCH  52  71
ATOM     71  C   UNL A   1      44.724  24.930  33.662  1.00  0.00    -0.014 A 
ATOM     72  C   UNL A   1      43.597  24.866  34.496  1.00  0.00     0.009 A 
ATOM     73  C   UNL A   1      45.891  24.269  34.087  1.00  0.00     0.009 A 
ATOM     74  C   UNL A   1      43.619  24.125  35.687  1.00  0.00     0.001 A 
ATOM     75  C   UNL A   1      45.913  23.529  35.275  1.00  0.00     0.001 A 
ATOM     76  C   UNL A   1      44.772  23.442  36.066  1.00  0.00     0.000 A 
ENDBRANCH  52  71
BRANCH  64  77
ATOM     77  C   UNL A   1      45.997  28.294  28.571  1.00  0.00    -0.014 A 
ATOM     78  C   UNL A   1      46.331  27.066  27.976  1.00  0.00     0.009 A 
ATOM     79  C   UNL A   1      46.949  29.322  28.566  1.00  0.00     0.009 A 
ATOM     80  C   UNL A   1      47.599  26.869  27.416  1.00  0.00     0.001 A 
ATOM     81  C   UNL A   1      48.204  29.133  27.990  1.00  0.00     0.001 A 
ATOM     82  C   UNL A   1      48.532  27.905  27.421  1.00  0.00     0.000 A 
ENDBRANCH  64  77
ENDBRANCH  38  39
ENDBRANCH  31  33
ENDBRANCH  30  31
ENDBRANCH   1  30
TORSDOF 13
ENDMDL
MODEL 2
REMARK VINA RESULT:     -13.2      3.832      9.328
REMARK SMILES Cc1cnn(C2(C(=O)OCCOC(=O)c3ccc(-c4c5nc(c(-c6ccccc6)c6ccc([nH]6)c(-c6ccccc6)c6nc(c(-c7ccccc7)c7ccc4[nH]7)C=C6)C=C5)cc3)CCN(C(=O)c3cc4ccccc4[nH]3)CC2)c1
REMARK SMILES IDX 11 1 10 2 9 3 7 4 8 5 6 6 63 7 78 8 64 9 77 10 65 11 66 12
REMARK SMILES IDX 67 13 5 14 1 15 2 16 3 17 79 18 4 19 68 20 69 21 76 22 70 23
REMARK SMILES IDX 75 24 71 26 74 27 72 28 73 29 12 30 13 31 14 32 15 33 16 34
REMARK SMILES IDX 62 35 17 36 61 37 18 38 19 39 20 40 55 41 21 42 60 43 54 44
REMARK SMILES IDX 56 45 22 46 59 47 53 48 52 49 23 51 45 52 30 53 44 54 31 55
REMARK SMILES IDX 34 56 43 57 57 58 32 59 33 60 42 62 58 63 35 64 24 65 25 66
REMARK SMILES IDX 29 67 26 68 28 69 27 70 46 71 47 72 51 73 48 74 50 75 49 76
REMARK SMILES IDX 36 77 37 78 41 79 38 80 40 81 39 82
REMARK H PARENT 76 25 56 50 34 61
REMARK Flexibility Score: inf
ROOT
ATOM      1  C   UNL A   1      31.858  31.129  26.926  1.00  0.00     0.275 C 
ENDROOT
BRANCH   1   2
ATOM      2  C   UNL A   1      31.913  29.617  27.085  1.00  0.00     0.274 C 
BRANCH   2   3
ATOM      3  O   UNL A   1      32.026  28.904  25.832  1.00  0.00    -0.460 OA
BRANCH   3   4
ATOM      4  C   UNL A   1      31.186  27.824  25.713  1.00  0.00     0.334 C 
ATOM      5  O   UNL A   1      30.893  27.112  26.675  1.00  0.00    -0.249 OA
BRANCH   4   6
ATOM      6  C   UNL A   1      30.991  27.364  24.256  1.00  0.00     0.163 C 
ATOM      7  C   UNL A   1      32.167  27.273  23.249  1.00  0.00     0.064 C 
ATOM      8  C   UNL A   1      30.528  25.905  24.577  1.00  0.00     0.064 C 
ATOM      9  C   UNL A   1      31.694  26.430  22.041  1.00  0.00     0.123 C 
ATOM     10  C   UNL A   1      30.447  24.896  23.450  1.00  0.00     0.123 C 
ATOM     11  N   UNL A   1      31.536  25.057  22.497  1.00  0.00    -0.337 N 
ATOM     12  C   UNL A   1      32.541  24.152  22.133  1.00  0.00     0.270 C 
ATOM     13  O   UNL A   1      33.347  24.451  21.247  1.00  0.00    -0.267 OA
BRANCH   6  14
ATOM     14  N   UNL A   1      30.084  28.370  23.675  1.00  0.00    -0.255 N 
ATOM     15  C   UNL A   1      28.413  31.551  22.960  1.00  0.00     0.048 C 
ATOM     16  C   UNL A   1      28.920  30.177  23.173  1.00  0.00    -0.013 A 
ATOM     17  C   UNL A   1      28.157  29.006  23.023  1.00  0.00     0.138 A 
ATOM     18  C   UNL A   1      30.171  29.730  23.574  1.00  0.00     0.113 A 
ATOM     19  N   UNL A   1      28.852  27.917  23.316  1.00  0.00    -0.180 NA
ENDBRANCH   6  14
BRANCH  12  20
ATOM     20  C   UNL A   1      32.766  22.931  22.880  1.00  0.00     0.105 A 
ATOM     21  C   UNL A   1      33.547  22.559  23.958  1.00  0.00     0.042 A 
ATOM     22  N   UNL A   1      32.053  21.793  22.538  1.00  0.00    -0.351 N 
ATOM     23  C   UNL A   1      33.523  21.142  24.058  1.00  0.00     0.000 A 
ATOM     24  C   UNL A   1      32.543  20.687  23.184  1.00  0.00     0.046 A 
ATOM     25  H   UNL A   1      31.292  21.781  21.912  1.00  0.00     0.167 HD
ATOM     26  C   UNL A   1      34.250  20.204  24.814  1.00  0.00     0.010 A 
ATOM     27  C   UNL A   1      32.205  19.334  23.062  1.00  0.00     0.026 A 
ATOM     28  C   UNL A   1      33.962  18.843  24.669  1.00  0.00     0.001 A 
ATOM     29  C   UNL A   1      32.941  18.419  23.819  1.00  0.00     0.002 A 
ENDBRANCH  12  20
ENDBRANCH   4   6
ENDBRANCH   3   4
ENDBRANCH   2   3
ENDBRANCH   1   2
BRANCH   1  30
ATOM     30  O   UNL A   1      33.076  31.725  27.347  1.00  0.00    -0.458 OA
BRANCH  30  31
ATOM     31  C   UNL A   1      32.907  32.961  27.845  1.00  0.00     0.338 C 
ATOM     32  O   UNL A   1      32.002  33.765  27.596  1.00  0.00    -0.246 OA
BRANCH  31  33
ATOM     33  C   UNL A   1      34.093  33.356  28.568  1.00  0.00     0.060 A 
ATOM     34  C   UNL A   1      35.141  33.856  27.791  1.00  0.00     0.016 A 
ATOM     35  C   UNL A   1      34.275  32.701  29.790  1.00  0.00     0.016 A 
ATOM     36  C   UNL A   1      36.409  33.460  28.117  1.00  0.00     0.010 A 
ATOM     37  C   UNL A   1      35.536  32.299  30.107  1.00  0.00     0.010 A 
ATOM     38  C   UNL A   1      36.566  32.610  29.217  1.00  0.00    -0.014 A 
BRANCH  38  39
ATOM     39  C   UNL A   1      37.901  32.204  29.576  1.00  0.00     0.031 A 
ATOM     40  C   UNL A   1      38.056  30.742  29.376  1.00  0.00     0.074 A 
ATOM     41  C   UNL A   1      38.839  33.133  29.851  1.00  0.00     0.049 A 
ATOM     42  N   UNL A   1      38.411  29.861  30.247  1.00  0.00    -0.248 NA
ATOM     43  C   UNL A   1      37.540  30.153  28.117  1.00  0.00     0.031 C 
ATOM     44  C   UNL A   1      38.684  34.596  29.796  1.00  0.00     0.029 A 
ATOM     45  N   UNL A   1      40.170  32.987  30.073  1.00  0.00    -0.354 N 
ATOM     46  C   UNL A   1      38.405  28.648  29.566  1.00  0.00     0.074 A 
ATOM     47  C   UNL A   1      37.660  28.849  28.356  1.00  0.00     0.031 C 
ATOM     48  C   UNL A   1      39.903  35.171  29.688  1.00  0.00     0.029 A 
ATOM     49  C   UNL A   1      40.913  34.134  29.807  1.00  0.00     0.049 A 
ATOM     50  H   UNL A   1      40.573  32.147  30.394  1.00  0.00     0.167 HD
ATOM     51  C   UNL A   1      39.335  27.704  29.864  1.00  0.00     0.031 A 
ATOM     52  C   UNL A   1      42.255  34.198  29.622  1.00  0.00     0.031 A 
ATOM     53  C   UNL A   1      39.905  27.947  31.163  1.00  0.00     0.049 A 
ATOM     54  C   UNL A   1      42.826  32.945  30.161  1.00  0.00     0.074 A 
ATOM     55  C   UNL A   1      39.475  27.843  32.466  1.00  0.00     0.029 A 
ATOM     56  N   UNL A   1      40.965  28.821  31.142  1.00  0.00    -0.354 N 
ATOM     57  N   UNL A   1      42.810  32.645  31.428  1.00  0.00    -0.248 NA
ATOM     58  C   UNL A   1      43.060  31.825  29.257  1.00  0.00     0.031 C 
ATOM     59  C   UNL A   1      40.183  28.847  33.190  1.00  0.00     0.029 A 
ATOM     60  C   UNL A   1      41.074  29.489  32.330  1.00  0.00     0.049 A 
ATOM     61  H   UNL A   1      41.566  28.949  30.372  1.00  0.00     0.167 HD
ATOM     62  C   UNL A   1      42.572  31.282  31.452  1.00  0.00     0.074 A 
ATOM     63  C   UNL A   1      42.922  30.809  30.116  1.00  0.00     0.031 C 
ATOM     64  C   UNL A   1      41.811  30.730  32.441  1.00  0.00     0.031 A 
BRANCH  51  65
ATOM     65  C   UNL A   1      40.126  26.996  28.783  1.00  0.00    -0.014 A 
ATOM     66  C   UNL A   1      40.886  27.781  27.900  1.00  0.00     0.009 A 
ATOM     67  C   UNL A   1      39.901  25.656  28.403  1.00  0.00     0.009 A 
ATOM     68  C   UNL A   1      41.337  27.268  26.676  1.00  0.00     0.001 A 
ATOM     69  C   UNL A   1      40.375  25.133  27.198  1.00  0.00     0.001 A 
ATOM     70  C   UNL A   1      41.074  25.948  26.322  1.00  0.00     0.000 A 
ENDBRANCH  51  65
BRANCH  52  71
ATOM     71  C   UNL A   1      43.058  35.118  28.787  1.00  0.00    -0.014 A 
ATOM     72  C   UNL A   1      42.679  35.397  27.464  1.00  0.00     0.009 A 
ATOM     73  C   UNL A   1      44.032  35.945  29.376  1.00  0.00     0.009 A 
ATOM     74  C   UNL A   1      43.215  36.493  26.773  1.00  0.00     0.001 A 
ATOM     75  C   UNL A   1      44.568  37.040  28.686  1.00  0.00     0.001 A 
ATOM     76  C   UNL A   1      44.146  37.324  27.391  1.00  0.00     0.000 A 
ENDBRANCH  52  71
BRANCH  64  77
ATOM     77  C   UNL A   1      41.597  31.549  33.684  1.00  0.00    -0.014 A 
ATOM     78  C   UNL A   1      40.505  32.412  33.879  1.00  0.00     0.009 A 
ATOM     79  C   UNL A   1      42.498  31.360  34.740  1.00  0.00     0.009 A 
ATOM     80  C   UNL A   1      40.340  33.085  35.095  1.00  0.00     0.001 A 
ATOM     81  C   UNL A   1      42.322  32.014  35.958  1.00  0.00     0.001 A 
ATOM     82  C   UNL A   1      41.247  32.882  36.134  1.00  0.00     0.000 A 
ENDBRANCH  64  77
ENDBRANCH  38  39
ENDBRANCH  31  33
ENDBRANCH  30  31
ENDBRANCH   1  30
TORSDOF 13
ENDMDL
MODEL 3
REMARK VINA RESULT:     -13.0      2.513      7.556
REMARK SMILES Cc1cnn(C2(C(=O)OCCOC(=O)c3ccc(-c4c5nc(c(-c6ccccc6)c6ccc([nH]6)c(-c6ccccc6)c6nc(c(-c7ccccc7)c7ccc4[nH]7)C=C6)C=C5)cc3)CCN(C(=O)c3cc4ccccc4[nH]3)CC2)c1
REMARK SMILES IDX 11 1 10 2 9 3 7 4 8 5 6 6 63 7 78 8 64 9 77 10 65 11 66 12
REMARK SMILES IDX 67 13 5 14 1 15 2 16 3 17 79 18 4 19 68 20 69 21 76 22 70 23
REMARK SMILES IDX 75 24 71 26 74 27 72 28 73 29 12 30 13 31 14 32 15 33 16 34
REMARK SMILES IDX 62 35 17 36 61 37 18 38 19 39 20 40 55 41 21 42 60 43 54 44
REMARK SMILES IDX 56 45 22 46 59 47 53 48 52 49 23 51 45 52 30 53 44 54 31 55
REMARK SMILES IDX 34 56 43 57 57 58 32 59 33 60 42 62 58 63 35 64 24 65 25 66
REMARK SMILES IDX 29 67 26 68 28 69 27 70 46 71 47 72 51 73 48 74 50 75 49 76
REMARK SMILES IDX 36 77 37 78 41 79 38 80 40 81 39 82
REMARK H PARENT 76 25 56 50 34 61
REMARK Flexibility Score: inf
ROOT
ATOM      1  C   UNL A   1      34.283  29.989  27.286  1.00  0.00     0.275 C 
ENDROOT
BRANCH   1   2
ATOM      2  C   UNL A   1      34.031  28.987  26.169  1.00  0.00     0.274 C 
BRANCH   2   3
ATOM      3  O   UNL A   1      33.029  29.415  25.219  1.00  0.00    -0.460 OA
BRANCH   3   4
ATOM      4  C   UNL A   1      31.820  28.774  25.337  1.00  0.00     0.334 C 
ATOM      5  O   UNL A   1      31.346  28.466  26.432  1.00  0.00    -0.249 OA
BRANCH   4   6
ATOM      6  C   UNL A   1      31.340  28.136  24.020  1.00  0.00     0.163 C 
ATOM      7  C   UNL A   1      32.231  28.076  22.753  1.00  0.00     0.064 C 
ATOM      8  C   UNL A   1      31.186  26.676  24.560  1.00  0.00     0.064 C 
ATOM      9  C   UNL A   1      31.602  27.055  21.777  1.00  0.00     0.123 C 
ATOM     10  C   UNL A   1      30.976  25.547  23.573  1.00  0.00     0.123 C 
ATOM     11  N   UNL A   1      31.760  25.731  22.361  1.00  0.00    -0.337 N 
ATOM     12  C   UNL A   1      32.765  24.919  21.818  1.00  0.00     0.270 C 
ATOM     13  O   UNL A   1      33.275  25.213  20.734  1.00  0.00    -0.267 OA
BRANCH   6  14
ATOM     14  N   UNL A   1      30.183  28.955  23.620  1.00  0.00    -0.255 N 
ATOM     15  C   UNL A   1      27.693  31.640  23.500  1.00  0.00     0.048 C 
ATOM     16  C   UNL A   1      28.560  30.442  23.449  1.00  0.00    -0.013 A 
ATOM     17  C   UNL A   1      28.143  29.165  23.035  1.00  0.00     0.138 A 
ATOM     18  C   UNL A   1      29.892  30.279  23.801  1.00  0.00     0.113 A 
ATOM     19  N   UNL A   1      29.115  28.269  23.128  1.00  0.00    -0.180 NA
ENDBRANCH   6  14
BRANCH  12  20
ATOM     20  C   UNL A   1      33.340  23.824  22.572  1.00  0.00     0.105 A 
ATOM     21  C   UNL A   1      32.979  22.521  22.858  1.00  0.00     0.042 A 
ATOM     22  N   UNL A   1      34.574  24.001  23.180  1.00  0.00    -0.351 N 
ATOM     23  C   UNL A   1      33.843  22.031  23.875  1.00  0.00     0.000 A 
ATOM     24  C   UNL A   1      34.863  22.963  24.028  1.00  0.00     0.046 A 
ATOM     25  H   UNL A   1      35.165  24.772  23.022  1.00  0.00     0.167 HD
ATOM     26  C   UNL A   1      33.848  20.878  24.680  1.00  0.00     0.010 A 
ATOM     27  C   UNL A   1      35.931  22.779  24.913  1.00  0.00     0.026 A 
ATOM     28  C   UNL A   1      34.879  20.700  25.608  1.00  0.00     0.001 A 
ATOM     29  C   UNL A   1      35.915  21.628  25.707  1.00  0.00     0.002 A 
ENDBRANCH  12  20
ENDBRANCH   4   6
ENDBRANCH   3   4
ENDBRANCH   2   3
ENDBRANCH   1   2
BRANCH   1  30
ATOM     30  O   UNL A   1      35.454  29.648  28.014  1.00  0.00    -0.458 OA
BRANCH  30  31
ATOM     31  C   UNL A   1      36.193  30.720  28.345  1.00  0.00     0.338 C 
ATOM     32  O   UNL A   1      36.164  31.850  27.845  1.00  0.00    -0.246 OA
BRANCH  31  33
ATOM     33  C   UNL A   1      37.247  30.320  29.247  1.00  0.00     0.060 A 
ATOM     34  C   UNL A   1      38.512  30.849  28.977  1.00  0.00     0.016 A 
ATOM     35  C   UNL A   1      37.037  29.089  29.877  1.00  0.00     0.016 A 
ATOM     36  C   UNL A   1      39.584  30.009  29.105  1.00  0.00     0.010 A 
ATOM     37  C   UNL A   1      38.104  28.252  29.994  1.00  0.00     0.010 A 
ATOM     38  C   UNL A   1      39.341  28.697  29.523  1.00  0.00    -0.014 A 
BRANCH  38  39
ATOM     39  C   UNL A   1      40.469  27.813  29.677  1.00  0.00     0.031 A 
ATOM     40  C   UNL A   1      41.034  27.949  31.042  1.00  0.00     0.074 A 
ATOM     41  C   UNL A   1      40.753  26.907  28.720  1.00  0.00     0.049 A 
ATOM     42  N   UNL A   1      42.243  28.254  31.368  1.00  0.00    -0.248 NA
ATOM     43  C   UNL A   1      40.092  27.965  32.187  1.00  0.00     0.031 C 
ATOM     44  C   UNL A   1      39.999  26.656  27.480  1.00  0.00     0.029 A 
ATOM     45  N   UNL A   1      41.665  25.902  28.716  1.00  0.00    -0.354 N 
ATOM     46  C   UNL A   1      42.261  28.248  32.760  1.00  0.00     0.074 A 
ATOM     47  C   UNL A   1      40.895  28.290  33.197  1.00  0.00     0.031 C 
ATOM     48  C   UNL A   1      40.297  25.422  27.017  1.00  0.00     0.029 A 
ATOM     49  C   UNL A   1      41.354  24.864  27.842  1.00  0.00     0.049 A 
ATOM     50  H   UNL A   1      42.473  25.907  29.279  1.00  0.00     0.167 HD
ATOM     51  C   UNL A   1      43.369  27.816  33.416  1.00  0.00     0.031 A 
ATOM     52  C   UNL A   1      41.880  23.613  27.859  1.00  0.00     0.031 A 
ATOM     53  C   UNL A   1      44.518  27.855  32.551  1.00  0.00     0.049 A 
ATOM     54  C   UNL A   1      43.115  23.674  28.670  1.00  0.00     0.074 A 
ATOM     55  C   UNL A   1      45.306  28.840  32.000  1.00  0.00     0.029 A 
ATOM     56  N   UNL A   1      44.669  26.724  31.787  1.00  0.00    -0.354 N 
ATOM     57  N   UNL A   1      44.174  24.335  28.301  1.00  0.00    -0.248 NA
ATOM     58  C   UNL A   1      43.052  23.338  30.087  1.00  0.00     0.031 C 
ATOM     59  C   UNL A   1      45.772  28.315  30.758  1.00  0.00     0.029 A 
ATOM     60  C   UNL A   1      45.315  27.005  30.615  1.00  0.00     0.049 A 
ATOM     61  H   UNL A   1      44.354  25.829  32.050  1.00  0.00     0.167 HD
ATOM     62  C   UNL A   1      44.660  24.883  29.475  1.00  0.00     0.074 A 
ATOM     63  C   UNL A   1      44.056  24.094  30.544  1.00  0.00     0.031 C 
ATOM     64  C   UNL A   1      45.239  26.119  29.473  1.00  0.00     0.031 A 
BRANCH  51  65
ATOM     65  C   UNL A   1      43.282  26.822  34.556  1.00  0.00    -0.014 A 
ATOM     66  C   UNL A   1      43.111  25.465  34.237  1.00  0.00     0.009 A 
ATOM     67  C   UNL A   1      43.038  27.190  35.895  1.00  0.00     0.009 A 
ATOM     68  C   UNL A   1      42.658  24.544  35.191  1.00  0.00     0.001 A 
ATOM     69  C   UNL A   1      42.616  26.270  36.857  1.00  0.00     0.001 A 
ATOM     70  C   UNL A   1      42.402  24.949  36.498  1.00  0.00     0.000 A 
ENDBRANCH  51  65
BRANCH  52  71
ATOM     71  C   UNL A   1      41.276  22.321  27.464  1.00  0.00    -0.014 A 
ATOM     72  C   UNL A   1      40.025  22.282  26.827  1.00  0.00     0.009 A 
ATOM     73  C   UNL A   1      42.053  21.148  27.452  1.00  0.00     0.009 A 
ATOM     74  C   UNL A   1      39.589  21.129  26.158  1.00  0.00     0.001 A 
ATOM     75  C   UNL A   1      41.618  19.997  26.783  1.00  0.00     0.001 A 
ATOM     76  C   UNL A   1      40.394  19.994  26.121  1.00  0.00     0.000 A 
ENDBRANCH  52  71
BRANCH  64  77
ATOM     77  C   UNL A   1      45.695  26.664  28.147  1.00  0.00    -0.014 A 
ATOM     78  C   UNL A   1      44.907  27.485  27.322  1.00  0.00     0.009 A 
ATOM     79  C   UNL A   1      47.019  26.409  27.769  1.00  0.00     0.009 A 
ATOM     80  C   UNL A   1      45.431  28.011  26.135  1.00  0.00     0.001 A 
ATOM     81  C   UNL A   1      47.547  26.951  26.599  1.00  0.00     0.001 A 
ATOM     82  C   UNL A   1      46.752  27.746  25.778  1.00  0.00     0.000 A 
ENDBRANCH  64  77
ENDBRANCH  38  39
ENDBRANCH  31  33
ENDBRANCH  30  31
ENDBRANCH   1  30
TORSDOF 13
ENDMDL
