MODEL 1
REMARK VINA RESULT:     -11.1      0.000      0.000
REMARK SMILES NS(=O)(=O)c1ccc(N2N=C(C(=O)OCCOC(=O)c3ccc(-c4c5nc(c(-c6ccccc6)c6ccc([nH]6)c(-c6ccccc6)c6nc(c(-c7ccccc7)c7ccc4[nH]7)C=C6)C=C5)cc3)C[C@H]2c2cccs2)cc1
REMARK SMILES IDX 15 1 14 2 12 3 13 4 11 5 9 6 10 7 69 8 68 9 8 10 5 11 6 12
REMARK SMILES IDX 76 13 7 14 75 15 2 16 3 17 4 18 1 19 70 22 71 23 74 24 72 25
REMARK SMILES IDX 73 26 16 27 17 28 18 29 19 30 20 31 21 32 67 33 22 34 66 35
REMARK SMILES IDX 23 36 24 37 25 38 60 39 26 40 65 41 59 42 61 43 27 44 64 45
REMARK SMILES IDX 58 46 57 47 28 49 50 50 35 51 49 52 36 53 39 54 48 55 62 56
REMARK SMILES IDX 37 57 38 58 47 60 63 61 40 62 29 63 30 64 34 65 31 66 33 67
REMARK SMILES IDX 32 68 51 69 52 70 56 71 53 72 55 73 54 74 41 75 42 76 46 77
REMARK SMILES IDX 43 78 45 79 44 80
REMARK H PARENT 1 20 1 21 61 48 39 59
REMARK Flexibility Score: inf
ROOT
ATOM      1  C   UNL A   1      34.760  22.296  26.582  1.00  0.00     0.275 C 
ENDROOT
BRANCH   1   2
ATOM      2  O   UNL A   1      34.538  23.463  25.765  1.00  0.00    -0.458 OA
BRANCH   2   3
ATOM      3  C   UNL A   1      33.419  24.156  26.044  1.00  0.00     0.354 C 
ATOM      4  O   UNL A   1      32.427  23.756  26.628  1.00  0.00    -0.245 OA
BRANCH   3   5
ATOM      5  C   UNL A   1      33.567  25.604  25.640  1.00  0.00     0.148 C 
ATOM      6  N   UNL A   1      33.598  27.714  25.785  1.00  0.00    -0.256 N 
ATOM      7  N   UNL A   1      33.512  26.573  26.505  1.00  0.00    -0.169 NA
ATOM      8  C   UNL A   1      33.382  27.482  24.350  1.00  0.00     0.154 C 
ATOM      9  C   UNL A   1      33.835  26.012  24.229  1.00  0.00     0.099 C 
BRANCH   6  10
ATOM     10  C   UNL A   1      33.694  28.936  26.425  1.00  0.00     0.060 A 
ATOM     11  C   UNL A   1      33.958  31.471  27.628  1.00  0.00     0.082 A 
ATOM     12  C   UNL A   1      35.041  30.591  27.626  1.00  0.00     0.024 A 
ATOM     13  C   UNL A   1      32.731  31.075  27.096  1.00  0.00     0.024 A 
ATOM     14  C   UNL A   1      34.898  29.328  27.034  1.00  0.00     0.029 A 
ATOM     15  C   UNL A   1      32.608  29.814  26.506  1.00  0.00     0.029 A 
BRANCH  11  16
ATOM     16  S   UNL A   1      34.092  33.097  28.305  1.00  0.00     0.238 S 
ATOM     17  O   UNL A   1      35.153  33.801  27.625  1.00  0.00    -0.207 OA
ATOM     18  O   UNL A   1      34.028  32.991  29.745  1.00  0.00    -0.207 OA
BRANCH  16  19
ATOM     19  N   UNL A   1      32.678  33.873  27.837  1.00  0.00    -0.225 NA
ATOM     20  H   UNL A   1      31.885  33.243  27.964  1.00  0.00     0.137 HD
ATOM     21  H   UNL A   1      32.745  34.140  26.856  1.00  0.00     0.137 HD
ENDBRANCH  16  19
ENDBRANCH  11  16
ENDBRANCH   6  10
BRANCH   8  22
ATOM     22  C   UNL A   1      31.958  27.733  23.872  1.00  0.00     0.030 A 
ATOM     23  C   UNL A   1      30.797  27.229  24.435  1.00  0.00     0.017 A 
ATOM     24  S   UNL A   1      31.597  28.643  22.458  1.00  0.00    -0.147 S 
ATOM     25  C   UNL A   1      29.632  27.553  23.683  1.00  0.00     0.012 A 
ATOM     26  C   UNL A   1      29.925  28.343  22.597  1.00  0.00     0.065 A 
ENDBRANCH   8  22
ENDBRANCH   3   5
ENDBRANCH   2   3
ENDBRANCH   1   2
BRANCH   1  27
ATOM     27  C   UNL A   1      35.590  21.254  25.824  1.00  0.00     0.275 C 
BRANCH  27  28
ATOM     28  O   UNL A   1      36.712  21.860  25.156  1.00  0.00    -0.458 OA
BRANCH  28  29
ATOM     29  C   UNL A   1      37.924  21.392  25.535  1.00  0.00     0.338 C 
ATOM     30  O   UNL A   1      38.364  20.265  25.378  1.00  0.00    -0.246 OA
BRANCH  29  31
ATOM     31  C   UNL A   1      38.728  22.493  26.078  1.00  0.00     0.060 A 
ATOM     32  C   UNL A   1      38.306  23.791  25.815  1.00  0.00     0.016 A 
ATOM     33  C   UNL A   1      39.931  22.270  26.740  1.00  0.00     0.016 A 
ATOM     34  C   UNL A   1      39.105  24.879  26.125  1.00  0.00     0.010 A 
ATOM     35  C   UNL A   1      40.697  23.371  27.144  1.00  0.00     0.010 A 
ATOM     36  C   UNL A   1      40.295  24.684  26.828  1.00  0.00    -0.014 A 
BRANCH  36  37
ATOM     37  C   UNL A   1      41.088  25.860  27.255  1.00  0.00     0.031 A 
ATOM     38  C   UNL A   1      40.507  26.861  28.207  1.00  0.00     0.074 A 
ATOM     39  C   UNL A   1      42.341  26.018  26.782  1.00  0.00     0.049 A 
ATOM     40  N   UNL A   1      40.990  28.017  28.585  1.00  0.00    -0.248 NA
ATOM     41  C   UNL A   1      39.209  26.523  28.814  1.00  0.00     0.031 C 
ATOM     42  C   UNL A   1      43.041  25.074  25.906  1.00  0.00     0.029 A 
ATOM     43  N   UNL A   1      43.248  27.028  26.972  1.00  0.00    -0.354 N 
ATOM     44  C   UNL A   1      40.042  28.560  29.441  1.00  0.00     0.074 A 
ATOM     45  C   UNL A   1      38.950  27.614  29.519  1.00  0.00     0.031 C 
ATOM     46  C   UNL A   1      44.272  25.542  25.648  1.00  0.00     0.029 A 
ATOM     47  C   UNL A   1      44.415  26.852  26.268  1.00  0.00     0.049 A 
ATOM     48  H   UNL A   1      43.080  27.803  27.555  1.00  0.00     0.167 HD
ATOM     49  C   UNL A   1      40.083  29.745  30.096  1.00  0.00     0.031 A 
ATOM     50  C   UNL A   1      45.466  27.676  26.098  1.00  0.00     0.031 A 
ATOM     51  C   UNL A   1      41.179  30.676  30.009  1.00  0.00     0.049 A 
ATOM     52  C   UNL A   1      45.439  29.026  26.753  1.00  0.00     0.074 A 
ATOM     53  C   UNL A   1      41.323  31.898  30.642  1.00  0.00     0.029 A 
ATOM     54  N   UNL A   1      42.316  30.488  29.236  1.00  0.00    -0.354 N 
ATOM     55  N   UNL A   1      44.533  29.538  27.552  1.00  0.00    -0.248 NA
ATOM     56  C   UNL A   1      46.571  29.918  26.475  1.00  0.00     0.031 C 
ATOM     57  C   UNL A   1      42.518  32.478  30.201  1.00  0.00     0.029 A 
ATOM     58  C   UNL A   1      43.148  31.589  29.346  1.00  0.00     0.049 A 
ATOM     59  H   UNL A   1      42.502  29.690  28.690  1.00  0.00     0.167 HD
ATOM     60  C   UNL A   1      44.994  30.803  27.886  1.00  0.00     0.074 A 
ATOM     61  C   UNL A   1      46.270  30.973  27.220  1.00  0.00     0.031 C 
ATOM     62  C   UNL A   1      44.413  31.742  28.671  1.00  0.00     0.031 A 
BRANCH  49  63
ATOM     63  C   UNL A   1      38.886  30.126  30.922  1.00  0.00    -0.014 A 
ATOM     64  C   UNL A   1      37.794  30.809  30.365  1.00  0.00     0.009 A 
ATOM     65  C   UNL A   1      38.838  29.763  32.277  1.00  0.00     0.009 A 
ATOM     66  C   UNL A   1      36.694  31.149  31.157  1.00  0.00     0.001 A 
ATOM     67  C   UNL A   1      37.726  30.078  33.059  1.00  0.00     0.001 A 
ATOM     68  C   UNL A   1      36.659  30.779  32.501  1.00  0.00     0.000 A 
ENDBRANCH  49  63
BRANCH  50  69
ATOM     69  C   UNL A   1      46.596  27.269  25.223  1.00  0.00    -0.014 A 
ATOM     70  C   UNL A   1      47.529  26.315  25.656  1.00  0.00     0.009 A 
ATOM     71  C   UNL A   1      46.751  27.836  23.947  1.00  0.00     0.009 A 
ATOM     72  C   UNL A   1      48.603  25.953  24.838  1.00  0.00     0.001 A 
ATOM     73  C   UNL A   1      47.805  27.449  23.118  1.00  0.00     0.001 A 
ATOM     74  C   UNL A   1      48.736  26.516  23.568  1.00  0.00     0.000 A 
ENDBRANCH  50  69
BRANCH  62  75
ATOM     75  C   UNL A   1      45.165  33.025  28.874  1.00  0.00    -0.014 A 
ATOM     76  C   UNL A   1      44.950  34.134  28.042  1.00  0.00     0.009 A 
ATOM     77  C   UNL A   1      46.067  33.139  29.944  1.00  0.00     0.009 A 
ATOM     78  C   UNL A   1      45.643  35.326  28.263  1.00  0.00     0.001 A 
ATOM     79  C   UNL A   1      46.735  34.341  30.181  1.00  0.00     0.001 A 
ATOM     80  C   UNL A   1      46.529  35.430  29.336  1.00  0.00     0.000 A 
ENDBRANCH  62  75
ENDBRANCH  36  37
ENDBRANCH  29  31
ENDBRANCH  28  29
ENDBRANCH  27  28
ENDBRANCH   1  27
TORSDOF 15
ENDMDL
MODEL 2
REMARK VINA RESULT:     -11.0      3.841      9.158
REMARK SMILES NS(=O)(=O)c1ccc(N2N=C(C(=O)OCCOC(=O)c3ccc(-c4c5nc(c(-c6ccccc6)c6ccc([nH]6)c(-c6ccccc6)c6nc(c(-c7ccccc7)c7ccc4[nH]7)C=C6)C=C5)cc3)C[C@H]2c2cccs2)cc1
REMARK SMILES IDX 15 1 14 2 12 3 13 4 11 5 9 6 10 7 69 8 68 9 8 10 5 11 6 12
REMARK SMILES IDX 76 13 7 14 75 15 2 16 3 17 4 18 1 19 70 22 71 23 74 24 72 25
REMARK SMILES IDX 73 26 16 27 17 28 18 29 19 30 20 31 21 32 67 33 22 34 66 35
REMARK SMILES IDX 23 36 24 37 25 38 60 39 26 40 65 41 59 42 61 43 27 44 64 45
REMARK SMILES IDX 58 46 57 47 28 49 50 50 35 51 49 52 36 53 39 54 48 55 62 56
REMARK SMILES IDX 37 57 38 58 47 60 63 61 40 62 29 63 30 64 34 65 31 66 33 67
REMARK SMILES IDX 32 68 51 69 52 70 56 71 53 72 55 73 54 74 41 75 42 76 46 77
REMARK SMILES IDX 43 78 45 79 44 80
REMARK H PARENT 1 20 1 21 61 48 39 59
REMARK Flexibility Score: inf
ROOT
ATOM      1  C   UNL A   1      33.005  28.650  24.132  1.00  0.00     0.275 C 
ENDROOT
BRANCH   1   2
ATOM      2  O   UNL A   1      33.324  27.441  24.850  1.00  0.00    -0.458 OA
BRANCH   2   3
ATOM      3  C   UNL A   1      33.635  26.381  24.081  1.00  0.00     0.354 C 
ATOM      4  O   UNL A   1      33.590  26.309  22.866  1.00  0.00    -0.245 OA
BRANCH   3   5
ATOM      5  C   UNL A   1      34.190  25.254  24.919  1.00  0.00     0.148 C 
ATOM      6  N   UNL A   1      35.499  23.730  25.584  1.00  0.00    -0.256 N 
ATOM      7  N   UNL A   1      35.377  24.762  24.718  1.00  0.00    -0.169 NA
ATOM      8  C   UNL A   1      34.207  23.333  26.159  1.00  0.00     0.154 C 
ATOM      9  C   UNL A   1      33.432  24.664  26.062  1.00  0.00     0.099 C 
BRANCH   6  10
ATOM     10  C   UNL A   1      36.705  23.066  25.710  1.00  0.00     0.060 A 
ATOM     11  C   UNL A   1      39.138  21.696  26.094  1.00  0.00     0.082 A 
ATOM     12  C   UNL A   1      39.013  23.017  26.527  1.00  0.00     0.024 A 
ATOM     13  C   UNL A   1      38.087  21.077  25.417  1.00  0.00     0.024 A 
ATOM     14  C   UNL A   1      37.802  23.695  26.323  1.00  0.00     0.029 A 
ATOM     15  C   UNL A   1      36.887  21.766  25.226  1.00  0.00     0.029 A 
BRANCH  11  16
ATOM     16  S   UNL A   1      40.616  20.769  26.374  1.00  0.00     0.238 S 
ATOM     17  O   UNL A   1      40.781  20.571  27.795  1.00  0.00    -0.207 OA
ATOM     18  O   UNL A   1      41.658  21.324  25.541  1.00  0.00    -0.207 OA
BRANCH  16  19
ATOM     19  N   UNL A   1      40.289  19.245  25.751  1.00  0.00    -0.225 NA
ATOM     20  H   UNL A   1      41.027  18.979  25.098  1.00  0.00     0.137 HD
ATOM     21  H   UNL A   1      39.394  19.261  25.263  1.00  0.00     0.137 HD
ENDBRANCH  16  19
ENDBRANCH  11  16
ENDBRANCH   6  10
BRANCH   8  22
ATOM     22  C   UNL A   1      33.526  22.167  25.453  1.00  0.00     0.030 A 
ATOM     23  C   UNL A   1      33.310  20.902  25.971  1.00  0.00     0.017 A 
ATOM     24  S   UNL A   1      32.995  22.250  23.820  1.00  0.00    -0.147 S 
ATOM     25  C   UNL A   1      32.754  20.002  25.018  1.00  0.00     0.012 A 
ATOM     26  C   UNL A   1      32.507  20.617  23.814  1.00  0.00     0.065 A 
ENDBRANCH   8  22
ENDBRANCH   3   5
ENDBRANCH   2   3
ENDBRANCH   1   2
BRANCH   1  27
ATOM     27  C   UNL A   1      32.163  29.590  25.001  1.00  0.00     0.275 C 
BRANCH  27  28
ATOM     28  O   UNL A   1      32.606  29.577  26.371  1.00  0.00    -0.458 OA
BRANCH  28  29
ATOM     29  C   UNL A   1      33.003  30.777  26.855  1.00  0.00     0.338 C 
ATOM     30  O   UNL A   1      32.362  31.815  26.876  1.00  0.00    -0.246 OA
BRANCH  29  31
ATOM     31  C   UNL A   1      34.318  30.640  27.492  1.00  0.00     0.060 A 
ATOM     32  C   UNL A   1      34.696  29.374  27.926  1.00  0.00     0.016 A 
ATOM     33  C   UNL A   1      35.125  31.741  27.760  1.00  0.00     0.016 A 
ATOM     34  C   UNL A   1      35.829  29.194  28.701  1.00  0.00     0.010 A 
ATOM     35  C   UNL A   1      36.323  31.549  28.461  1.00  0.00     0.010 A 
ATOM     36  C   UNL A   1      36.677  30.275  28.947  1.00  0.00    -0.014 A 
BRANCH  36  37
ATOM     37  C   UNL A   1      37.944  30.051  29.681  1.00  0.00     0.031 A 
ATOM     38  C   UNL A   1      39.048  29.247  29.064  1.00  0.00     0.074 A 
ATOM     39  C   UNL A   1      38.097  30.586  30.910  1.00  0.00     0.049 A 
ATOM     40  N   UNL A   1      40.164  28.829  29.602  1.00  0.00    -0.248 NA
ATOM     41  C   UNL A   1      38.872  28.853  27.656  1.00  0.00     0.031 C 
ATOM     42  C   UNL A   1      37.123  31.447  31.587  1.00  0.00     0.029 A 
ATOM     43  N   UNL A   1      39.128  30.484  31.807  1.00  0.00    -0.354 N 
ATOM     44  C   UNL A   1      40.807  28.094  28.614  1.00  0.00     0.074 A 
ATOM     45  C   UNL A   1      39.951  28.113  27.448  1.00  0.00     0.031 C 
ATOM     46  C   UNL A   1      37.611  31.807  32.784  1.00  0.00     0.029 A 
ATOM     47  C   UNL A   1      38.887  31.136  32.992  1.00  0.00     0.049 A 
ATOM     48  H   UNL A   1      39.961  29.992  31.621  1.00  0.00     0.167 HD
ATOM     49  C   UNL A   1      42.002  27.460  28.683  1.00  0.00     0.031 A 
ATOM     50  C   UNL A   1      39.589  31.153  34.141  1.00  0.00     0.031 A 
ATOM     51  C   UNL A   1      42.844  27.452  29.852  1.00  0.00     0.049 A 
ATOM     52  C   UNL A   1      40.859  30.357  34.222  1.00  0.00     0.074 A 
ATOM     53  C   UNL A   1      44.078  26.849  30.021  1.00  0.00     0.029 A 
ATOM     54  N   UNL A   1      42.533  28.074  31.053  1.00  0.00    -0.354 N 
ATOM     55  N   UNL A   1      41.455  29.655  33.287  1.00  0.00    -0.248 NA
ATOM     56  C   UNL A   1      41.548  30.344  35.518  1.00  0.00     0.031 C 
ATOM     57  C   UNL A   1      44.484  27.052  31.345  1.00  0.00     0.029 A 
ATOM     58  C   UNL A   1      43.535  27.836  31.979  1.00  0.00     0.049 A 
ATOM     59  H   UNL A   1      41.721  28.605  31.222  1.00  0.00     0.167 HD
ATOM     60  C   UNL A   1      42.596  29.131  33.876  1.00  0.00     0.074 A 
ATOM     61  C   UNL A   1      42.621  29.615  35.243  1.00  0.00     0.031 C 
ATOM     62  C   UNL A   1      43.539  28.322  33.336  1.00  0.00     0.031 A 
BRANCH  49  63
ATOM     63  C   UNL A   1      42.445  26.677  27.478  1.00  0.00    -0.014 A 
ATOM     64  C   UNL A   1      43.254  27.248  26.485  1.00  0.00     0.009 A 
ATOM     65  C   UNL A   1      42.071  25.329  27.355  1.00  0.00     0.009 A 
ATOM     66  C   UNL A   1      43.652  26.495  25.377  1.00  0.00     0.001 A 
ATOM     67  C   UNL A   1      42.493  24.571  26.263  1.00  0.00     0.001 A 
ATOM     68  C   UNL A   1      43.275  25.157  25.269  1.00  0.00     0.000 A 
ENDBRANCH  49  63
BRANCH  50  69
ATOM     69  C   UNL A   1      39.073  31.898  35.318  1.00  0.00    -0.014 A 
ATOM     70  C   UNL A   1      38.276  31.258  36.278  1.00  0.00     0.009 A 
ATOM     71  C   UNL A   1      39.375  33.260  35.489  1.00  0.00     0.009 A 
ATOM     72  C   UNL A   1      37.776  31.970  37.371  1.00  0.00     0.001 A 
ATOM     73  C   UNL A   1      38.902  33.961  36.599  1.00  0.00     0.001 A 
ATOM     74  C   UNL A   1      38.094  33.318  37.534  1.00  0.00     0.000 A 
ENDBRANCH  50  69
BRANCH  62  75
ATOM     75  C   UNL A   1      44.690  27.930  34.218  1.00  0.00    -0.014 A 
ATOM     76  C   UNL A   1      44.626  26.791  35.035  1.00  0.00     0.009 A 
ATOM     77  C   UNL A   1      45.873  28.686  34.191  1.00  0.00     0.009 A 
ATOM     78  C   UNL A   1      45.717  26.432  35.828  1.00  0.00     0.001 A 
ATOM     79  C   UNL A   1      46.972  28.307  34.962  1.00  0.00     0.001 A 
ATOM     80  C   UNL A   1      46.890  27.185  35.786  1.00  0.00     0.000 A 
ENDBRANCH  62  75
ENDBRANCH  36  37
ENDBRANCH  29  31
ENDBRANCH  28  29
ENDBRANCH  27  28
ENDBRANCH   1  27
TORSDOF 15
ENDMDL
MODEL 3
REMARK VINA RESULT:     -11.0      2.994      4.421
REMARK SMILES NS(=O)(=O)c1ccc(N2N=C(C(=O)OCCOC(=O)c3ccc(-c4c5nc(c(-c6ccccc6)c6ccc([nH]6)c(-c6ccccc6)c6nc(c(-c7ccccc7)c7ccc4[nH]7)C=C6)C=C5)cc3)C[C@H]2c2cccs2)cc1
REMARK SMILES IDX 15 1 14 2 12 3 13 4 11 5 9 6 10 7 69 8 68 9 8 10 5 11 6 12
REMARK SMILES IDX 76 13 7 14 75 15 2 16 3 17 4 18 1 19 70 22 71 23 74 24 72 25
REMARK SMILES IDX 73 26 16 27 17 28 18 29 19 30 20 31 21 32 67 33 22 34 66 35
REMARK SMILES IDX 23 36 24 37 25 38 60 39 26 40 65 41 59 42 61 43 27 44 64 45
REMARK SMILES IDX 58 46 57 47 28 49 50 50 35 51 49 52 36 53 39 54 48 55 62 56
REMARK SMILES IDX 37 57 38 58 47 60 63 61 40 62 29 63 30 64 34 65 31 66 33 67
REMARK SMILES IDX 32 68 51 69 52 70 56 71 53 72 55 73 54 74 41 75 42 76 46 77
REMARK SMILES IDX 43 78 45 79 44 80
REMARK H PARENT 1 20 1 21 61 48 39 59
REMARK Flexibility Score: inf
ROOT
ATOM      1  C   UNL A   1      38.970  21.282  26.175  1.00  0.00     0.275 C 
ENDROOT
BRANCH   1   2
ATOM      2  O   UNL A   1      38.256  21.988  25.141  1.00  0.00    -0.458 OA
BRANCH   2   3
ATOM      3  C   UNL A   1      37.648  23.123  25.534  1.00  0.00     0.354 C 
ATOM      4  O   UNL A   1      37.998  23.881  26.422  1.00  0.00    -0.245 OA
BRANCH   3   5
ATOM      5  C   UNL A   1      36.480  23.448  24.633  1.00  0.00     0.148 C 
ATOM      6  N   UNL A   1      34.763  24.428  23.882  1.00  0.00    -0.256 N 
ATOM      7  N   UNL A   1      35.748  24.508  24.804  1.00  0.00    -0.169 NA
ATOM      8  C   UNL A   1      34.667  23.088  23.288  1.00  0.00     0.154 C 
ATOM      9  C   UNL A   1      36.119  22.597  23.461  1.00  0.00     0.099 C 
BRANCH   6  10
ATOM     10  C   UNL A   1      33.877  25.476  23.716  1.00  0.00     0.060 A 
ATOM     11  C   UNL A   1      31.974  27.526  23.367  1.00  0.00     0.082 A 
ATOM     12  C   UNL A   1      32.396  26.781  22.265  1.00  0.00     0.024 A 
ATOM     13  C   UNL A   1      32.537  27.303  24.623  1.00  0.00     0.024 A 
ATOM     14  C   UNL A   1      33.351  25.770  22.446  1.00  0.00     0.029 A 
ATOM     15  C   UNL A   1      33.484  26.288  24.786  1.00  0.00     0.029 A 
BRANCH  11  16
ATOM     16  S   UNL A   1      30.732  28.774  23.215  1.00  0.00     0.238 S 
ATOM     17  O   UNL A   1      30.782  29.627  24.379  1.00  0.00    -0.207 OA
ATOM     18  O   UNL A   1      29.512  28.141  22.768  1.00  0.00    -0.207 OA
BRANCH  16  19
ATOM     19  N   UNL A   1      31.247  29.737  21.940  1.00  0.00    -0.225 NA
ATOM     20  H   UNL A   1      32.264  29.818  21.963  1.00  0.00     0.137 HD
ATOM     21  H   UNL A   1      30.830  30.663  22.023  1.00  0.00     0.137 HD
ENDBRANCH  16  19
ENDBRANCH  11  16
ENDBRANCH   6  10
BRANCH   8  22
ATOM     22  C   UNL A   1      33.626  22.180  23.929  1.00  0.00     0.030 A 
ATOM     23  C   UNL A   1      32.273  22.442  24.063  1.00  0.00     0.017 A 
ATOM     24  S   UNL A   1      34.029  20.685  24.678  1.00  0.00    -0.147 S 
ATOM     25  C   UNL A   1      31.588  21.444  24.814  1.00  0.00     0.012 A 
ATOM     26  C   UNL A   1      32.423  20.417  25.185  1.00  0.00     0.065 A 
ENDBRANCH   8  22
ENDBRANCH   3   5
ENDBRANCH   2   3
ENDBRANCH   1   2
BRANCH   1  27
ATOM     27  C   UNL A   1      39.629  20.019  25.613  1.00  0.00     0.275 C 
BRANCH  27  28
ATOM     28  O   UNL A   1      40.741  19.599  26.426  1.00  0.00    -0.458 OA
BRANCH  28  29
ATOM     29  C   UNL A   1      41.960  19.934  25.944  1.00  0.00     0.338 C 
ATOM     30  O   UNL A   1      42.623  19.326  25.119  1.00  0.00    -0.246 OA
BRANCH  29  31
ATOM     31  C   UNL A   1      42.354  21.246  26.472  1.00  0.00     0.060 A 
ATOM     32  C   UNL A   1      42.265  21.440  27.846  1.00  0.00     0.016 A 
ATOM     33  C   UNL A   1      42.700  22.303  25.637  1.00  0.00     0.016 A 
ATOM     34  C   UNL A   1      42.433  22.698  28.401  1.00  0.00     0.010 A 
ATOM     35  C   UNL A   1      42.967  23.556  26.204  1.00  0.00     0.010 A 
ATOM     36  C   UNL A   1      42.823  23.765  27.590  1.00  0.00    -0.014 A 
BRANCH  36  37
ATOM     37  C   UNL A   1      43.110  25.080  28.209  1.00  0.00     0.031 A 
ATOM     38  C   UNL A   1      42.003  26.060  28.457  1.00  0.00     0.074 A 
ATOM     39  C   UNL A   1      44.378  25.384  28.553  1.00  0.00     0.049 A 
ATOM     40  N   UNL A   1      42.076  27.303  28.856  1.00  0.00    -0.248 NA
ATOM     41  C   UNL A   1      40.631  25.583  28.220  1.00  0.00     0.031 C 
ATOM     42  C   UNL A   1      45.529  24.486  28.427  1.00  0.00     0.029 A 
ATOM     43  N   UNL A   1      44.910  26.533  29.079  1.00  0.00    -0.354 N 
ATOM     44  C   UNL A   1      40.768  27.769  28.883  1.00  0.00     0.074 A 
ATOM     45  C   UNL A   1      39.922  26.679  28.449  1.00  0.00     0.031 C 
ATOM     46  C   UNL A   1      46.627  25.111  28.878  1.00  0.00     0.029 A 
ATOM     47  C   UNL A   1      46.273  26.476  29.243  1.00  0.00     0.049 A 
ATOM     48  H   UNL A   1      44.370  27.321  29.316  1.00  0.00     0.167 HD
ATOM     49  C   UNL A   1      40.322  28.998  29.235  1.00  0.00     0.031 A 
ATOM     50  C   UNL A   1      47.152  27.432  29.600  1.00  0.00     0.031 A 
ATOM     51  C   UNL A   1      41.177  30.073  29.667  1.00  0.00     0.049 A 
ATOM     52  C   UNL A   1      46.639  28.813  29.885  1.00  0.00     0.074 A 
ATOM     53  C   UNL A   1      40.823  31.353  30.056  1.00  0.00     0.029 A 
ATOM     54  N   UNL A   1      42.560  29.994  29.760  1.00  0.00    -0.354 N 
ATOM     55  N   UNL A   1      45.402  29.249  29.897  1.00  0.00    -0.248 NA
ATOM     56  C   UNL A   1      47.644  29.839  30.194  1.00  0.00     0.031 C 
ATOM     57  C   UNL A   1      41.997  32.067  30.323  1.00  0.00     0.029 A 
ATOM     58  C   UNL A   1      43.076  31.213  30.164  1.00  0.00     0.049 A 
ATOM     59  H   UNL A   1      43.094  29.189  29.567  1.00  0.00     0.167 HD
ATOM     60  C   UNL A   1      45.477  30.593  30.231  1.00  0.00     0.074 A 
ATOM     61  C   UNL A   1      46.880  30.896  30.435  1.00  0.00     0.031 C 
ATOM     62  C   UNL A   1      44.476  31.497  30.357  1.00  0.00     0.031 A 
BRANCH  49  63
ATOM     63  C   UNL A   1      38.846  29.263  29.116  1.00  0.00    -0.014 A 
ATOM     64  C   UNL A   1      37.981  29.121  30.212  1.00  0.00     0.009 A 
ATOM     65  C   UNL A   1      38.319  29.697  27.890  1.00  0.00     0.009 A 
ATOM     66  C   UNL A   1      36.615  29.376  30.072  1.00  0.00     0.001 A 
ATOM     67  C   UNL A   1      36.958  29.979  27.760  1.00  0.00     0.001 A 
ATOM     68  C   UNL A   1      36.106  29.808  28.849  1.00  0.00     0.000 A 
ENDBRANCH  49  63
BRANCH  50  69
ATOM     69  C   UNL A   1      48.606  27.127  29.645  1.00  0.00    -0.014 A 
ATOM     70  C   UNL A   1      49.422  27.366  28.530  1.00  0.00     0.009 A 
ATOM     71  C   UNL A   1      49.187  26.592  30.807  1.00  0.00     0.009 A 
ATOM     72  C   UNL A   1      50.784  27.057  28.571  1.00  0.00     0.001 A 
ATOM     73  C   UNL A   1      50.554  26.316  30.857  1.00  0.00     0.001 A 
ATOM     74  C   UNL A   1      51.350  26.538  29.736  1.00  0.00     0.000 A 
ENDBRANCH  50  69
BRANCH  62  75
ATOM     75  C   UNL A   1      44.860  32.892  30.758  1.00  0.00    -0.014 A 
ATOM     76  C   UNL A   1      45.108  33.883  29.796  1.00  0.00     0.009 A 
ATOM     77  C   UNL A   1      44.926  33.230  32.118  1.00  0.00     0.009 A 
ATOM     78  C   UNL A   1      45.441  35.180  30.190  1.00  0.00     0.001 A 
ATOM     79  C   UNL A   1      45.229  34.534  32.509  1.00  0.00     0.001 A 
ATOM     80  C   UNL A   1      45.494  35.506  31.546  1.00  0.00     0.000 A 
ENDBRANCH  62  75
ENDBRANCH  36  37
ENDBRANCH  29  31
ENDBRANCH  28  29
ENDBRANCH  27  28
ENDBRANCH   1  27
TORSDOF 15
ENDMDL
