MODEL 1
REMARK VINA RESULT:     -11.0      0.000      0.000
REMARK SMILES C[C@@H](C(=O)OCCOC(=O)c1ccc(-c2c3nc(c(-c4ccccc4)c4ccc([nH]4)c(-c4ccccc4)c4nc(c(-c5ccccc5)c5ccc2[nH]5)C=C4)C=C3)cc1)S(=O)(=O)N[C@@]12C[C@@H]3C[C@@](C)(C[C@@](C)(C3)C1)C2
REMARK SMILES IDX 6 1 5 2 3 3 4 4 2 5 1 6 59 7 60 8 61 9 62 10 63 12 64 13
REMARK SMILES IDX 73 14 74 15 65 16 70 17 67 18 72 19 66 20 69 21 71 22 68 23
REMARK SMILES IDX 7 24 8 25 9 26 10 27 11 28 12 29 58 30 13 31 57 32 14 33
REMARK SMILES IDX 15 34 16 35 51 36 17 37 56 38 50 39 52 40 18 41 55 42 49 43
REMARK SMILES IDX 48 44 19 46 41 47 26 48 40 49 27 50 30 51 39 52 53 53 28 54
REMARK SMILES IDX 29 55 38 57 54 58 31 59 20 60 21 61 25 62 22 63 24 64 23 65
REMARK SMILES IDX 42 66 43 67 47 68 44 69 46 70 45 71 32 72 33 73 37 74 34 75
REMARK SMILES IDX 36 76 35 77
REMARK H PARENT 62 11 52 45 30 56
REMARK Flexibility Score: inf
ROOT
ATOM      1  C   UNL A   1      35.325  21.191  25.544  1.00  0.00     0.274 C 
ENDROOT
BRANCH   1   2
ATOM      2  O   UNL A   1      35.309  22.484  24.891  1.00  0.00    -0.461 OA
BRANCH   2   3
ATOM      3  C   UNL A   1      34.503  22.583  23.795  1.00  0.00     0.325 C 
ATOM      4  O   UNL A   1      34.865  23.097  22.742  1.00  0.00    -0.251 OA
BRANCH   3   5
ATOM      5  C   UNL A   1      33.088  22.142  24.046  1.00  0.00     0.230 C 
ATOM      6  C   UNL A   1      32.324  21.485  22.903  1.00  0.00     0.039 C 
BRANCH   5   7
ATOM      7  S   UNL A   1      32.163  23.381  24.943  1.00  0.00     0.225 S 
ATOM      8  O   UNL A   1      31.046  23.798  24.126  1.00  0.00    -0.212 OA
ATOM      9  O   UNL A   1      31.888  22.868  26.270  1.00  0.00    -0.212 OA
BRANCH   7  10
ATOM     10  N   UNL A   1      33.154  24.695  25.231  1.00  0.00    -0.208 NA
ATOM     11  H   UNL A   1      33.822  24.685  24.460  1.00  0.00     0.141 HD
BRANCH  10  12
ATOM     12  C   UNL A   1      32.781  26.124  25.380  1.00  0.00     0.034 C 
ATOM     13  C   UNL A   1      31.489  26.345  26.183  1.00  0.00     0.027 C 
ATOM     14  C   UNL A   1      33.933  26.851  26.145  1.00  0.00     0.030 C 
ATOM     15  C   UNL A   1      32.706  26.780  23.992  1.00  0.00     0.030 C 
ATOM     16  C   UNL A   1      31.177  27.839  26.314  1.00  0.00    -0.008 C 
ATOM     17  C   UNL A   1      33.643  28.369  26.288  1.00  0.00    -0.030 C 
ATOM     18  C   UNL A   1      32.343  28.276  24.107  1.00  0.00    -0.030 C 
ATOM     19  C   UNL A   1      32.318  28.543  27.060  1.00  0.00     0.010 C 
ATOM     20  C   UNL A   1      31.026  28.428  24.902  1.00  0.00     0.010 C 
ATOM     21  C   UNL A   1      33.473  28.989  24.880  1.00  0.00     0.013 C 
ATOM     22  C   UNL A   1      34.779  29.077  27.033  1.00  0.00     0.011 C 
ATOM     23  C   UNL A   1      32.183  28.874  22.706  1.00  0.00     0.011 C 
ENDBRANCH  10  12
ENDBRANCH   7  10
ENDBRANCH   5   7
ENDBRANCH   3   5
ENDBRANCH   2   3
ENDBRANCH   1   2
BRANCH   1  24
ATOM     24  C   UNL A   1      36.418  20.288  24.980  1.00  0.00     0.275 C 
BRANCH  24  25
ATOM     25  O   UNL A   1      37.608  21.061  24.770  1.00  0.00    -0.458 OA
BRANCH  25  26
ATOM     26  C   UNL A   1      38.665  20.743  25.551  1.00  0.00     0.338 C 
ATOM     27  O   UNL A   1      39.120  19.629  25.751  1.00  0.00    -0.246 OA
BRANCH  26  28
ATOM     28  C   UNL A   1      39.259  21.969  26.127  1.00  0.00     0.060 A 
ATOM     29  C   UNL A   1      38.664  23.215  25.939  1.00  0.00     0.016 A 
ATOM     30  C   UNL A   1      40.497  21.891  26.765  1.00  0.00     0.016 A 
ATOM     31  C   UNL A   1      39.352  24.380  26.277  1.00  0.00     0.010 A 
ATOM     32  C   UNL A   1      41.134  23.058  27.206  1.00  0.00     0.010 A 
ATOM     33  C   UNL A   1      40.590  24.324  26.931  1.00  0.00    -0.014 A 
BRANCH  33  34
ATOM     34  C   UNL A   1      41.318  25.571  27.311  1.00  0.00     0.031 A 
ATOM     35  C   UNL A   1      40.711  26.553  28.283  1.00  0.00     0.074 A 
ATOM     36  C   UNL A   1      42.534  25.839  26.792  1.00  0.00     0.049 A 
ATOM     37  N   UNL A   1      41.092  27.772  28.574  1.00  0.00    -0.248 NA
ATOM     38  C   UNL A   1      39.513  26.113  29.018  1.00  0.00     0.031 C 
ATOM     39  C   UNL A   1      43.287  24.971  25.883  1.00  0.00     0.029 A 
ATOM     40  N   UNL A   1      43.359  26.923  26.967  1.00  0.00    -0.354 N 
ATOM     41  C   UNL A   1      40.150  28.265  29.471  1.00  0.00     0.074 A 
ATOM     42  C   UNL A   1      39.183  27.211  29.685  1.00  0.00     0.031 C 
ATOM     43  C   UNL A   1      44.482  25.524  25.633  1.00  0.00     0.029 A 
ATOM     44  C   UNL A   1      44.537  26.836  26.264  1.00  0.00     0.049 A 
ATOM     45  H   UNL A   1      43.130  27.690  27.542  1.00  0.00     0.167 HD
ATOM     46  C   UNL A   1      40.089  29.488  30.051  1.00  0.00     0.031 A 
ATOM     47  C   UNL A   1      45.533  27.725  26.092  1.00  0.00     0.031 A 
ATOM     48  C   UNL A   1      41.070  30.526  29.876  1.00  0.00     0.049 A 
ATOM     49  C   UNL A   1      45.418  29.089  26.700  1.00  0.00     0.074 A 
ATOM     50  C   UNL A   1      41.092  31.795  30.432  1.00  0.00     0.029 A 
ATOM     51  N   UNL A   1      42.213  30.411  29.101  1.00  0.00    -0.354 N 
ATOM     52  N   UNL A   1      44.475  29.571  27.472  1.00  0.00    -0.248 NA
ATOM     53  C   UNL A   1      46.488  30.044  26.381  1.00  0.00     0.031 C 
ATOM     54  C   UNL A   1      42.228  32.462  29.959  1.00  0.00     0.029 A 
ATOM     55  C   UNL A   1      42.935  31.592  29.146  1.00  0.00     0.049 A 
ATOM     56  H   UNL A   1      42.472  29.609  28.592  1.00  0.00     0.167 HD
ATOM     57  C   UNL A   1      44.838  30.885  27.731  1.00  0.00     0.074 A 
ATOM     58  C   UNL A   1      46.097  31.117  27.055  1.00  0.00     0.031 C 
ATOM     59  C   UNL A   1      44.177  31.818  28.457  1.00  0.00     0.031 A 
BRANCH  46  60
ATOM     60  C   UNL A   1      38.887  29.797  30.899  1.00  0.00    -0.014 A 
ATOM     61  C   UNL A   1      38.887  29.584  32.285  1.00  0.00     0.009 A 
ATOM     62  C   UNL A   1      37.754  30.371  30.298  1.00  0.00     0.009 A 
ATOM     63  C   UNL A   1      37.767  29.920  33.049  1.00  0.00     0.001 A 
ATOM     64  C   UNL A   1      36.646  30.727  31.068  1.00  0.00     0.001 A 
ATOM     65  C   UNL A   1      36.650  30.496  32.442  1.00  0.00     0.000 A 
ENDBRANCH  46  60
BRANCH  47  66
ATOM     66  C   UNL A   1      46.696  27.366  25.239  1.00  0.00    -0.014 A 
ATOM     67  C   UNL A   1      47.709  26.532  25.729  1.00  0.00     0.009 A 
ATOM     68  C   UNL A   1      46.778  27.836  23.918  1.00  0.00     0.009 A 
ATOM     69  C   UNL A   1      48.785  26.175  24.912  1.00  0.00     0.001 A 
ATOM     70  C   UNL A   1      47.838  27.453  23.095  1.00  0.00     0.001 A 
ATOM     71  C   UNL A   1      48.843  26.627  23.594  1.00  0.00     0.000 A 
ENDBRANCH  47  66
BRANCH  59  72
ATOM     72  C   UNL A   1      44.817  33.169  28.565  1.00  0.00    -0.014 A 
ATOM     73  C   UNL A   1      45.741  33.450  29.584  1.00  0.00     0.009 A 
ATOM     74  C   UNL A   1      44.502  34.170  27.634  1.00  0.00     0.009 A 
ATOM     75  C   UNL A   1      46.312  34.719  29.687  1.00  0.00     0.001 A 
ATOM     76  C   UNL A   1      45.090  35.431  27.728  1.00  0.00     0.001 A 
ATOM     77  C   UNL A   1      45.987  35.708  28.758  1.00  0.00     0.000 A 
ENDBRANCH  59  72
ENDBRANCH  33  34
ENDBRANCH  26  28
ENDBRANCH  25  26
ENDBRANCH  24  25
ENDBRANCH   1  24
TORSDOF 14
ENDMDL
MODEL 2
REMARK VINA RESULT:     -10.8      2.698      6.866
REMARK SMILES C[C@@H](C(=O)OCCOC(=O)c1ccc(-c2c3nc(c(-c4ccccc4)c4ccc([nH]4)c(-c4ccccc4)c4nc(c(-c5ccccc5)c5ccc2[nH]5)C=C4)C=C3)cc1)S(=O)(=O)N[C@@]12C[C@@H]3C[C@@](C)(C[C@@](C)(C3)C1)C2
REMARK SMILES IDX 6 1 5 2 3 3 4 4 2 5 1 6 59 7 60 8 61 9 62 10 63 12 64 13
REMARK SMILES IDX 73 14 74 15 65 16 70 17 67 18 72 19 66 20 69 21 71 22 68 23
REMARK SMILES IDX 7 24 8 25 9 26 10 27 11 28 12 29 58 30 13 31 57 32 14 33
REMARK SMILES IDX 15 34 16 35 51 36 17 37 56 38 50 39 52 40 18 41 55 42 49 43
REMARK SMILES IDX 48 44 19 46 41 47 26 48 40 49 27 50 30 51 39 52 53 53 28 54
REMARK SMILES IDX 29 55 38 57 54 58 31 59 20 60 21 61 25 62 22 63 24 64 23 65
REMARK SMILES IDX 42 66 43 67 47 68 44 69 46 70 45 71 32 72 33 73 37 74 34 75
REMARK SMILES IDX 36 76 35 77
REMARK H PARENT 62 11 52 45 30 56
REMARK Flexibility Score: inf
ROOT
ATOM      1  C   UNL A   1      33.173  28.418  25.459  1.00  0.00     0.274 C 
ENDROOT
BRANCH   1   2
ATOM      2  O   UNL A   1      32.718  29.037  24.231  1.00  0.00    -0.461 OA
BRANCH   2   3
ATOM      3  C   UNL A   1      33.156  28.455  23.078  1.00  0.00     0.325 C 
ATOM      4  O   UNL A   1      34.263  28.673  22.597  1.00  0.00    -0.251 OA
BRANCH   3   5
ATOM      5  C   UNL A   1      32.105  27.643  22.375  1.00  0.00     0.230 C 
ATOM      6  C   UNL A   1      30.650  27.839  22.782  1.00  0.00     0.039 C 
BRANCH   5   7
ATOM      7  S   UNL A   1      32.603  25.935  22.198  1.00  0.00     0.225 S 
ATOM      8  O   UNL A   1      31.458  25.095  22.463  1.00  0.00    -0.212 OA
ATOM      9  O   UNL A   1      33.280  25.790  20.926  1.00  0.00    -0.212 OA
BRANCH   7  10
ATOM     10  N   UNL A   1      33.800  25.601  23.315  1.00  0.00    -0.208 NA
ATOM     11  H   UNL A   1      33.689  26.319  24.031  1.00  0.00     0.141 HD
BRANCH  10  12
ATOM     12  C   UNL A   1      34.034  24.349  24.079  1.00  0.00     0.034 C 
ATOM     13  C   UNL A   1      33.936  23.076  23.223  1.00  0.00     0.027 C 
ATOM     14  C   UNL A   1      35.479  24.401  24.669  1.00  0.00     0.030 C 
ATOM     15  C   UNL A   1      33.080  24.300  25.283  1.00  0.00     0.030 C 
ATOM     16  C   UNL A   1      34.207  21.828  24.070  1.00  0.00    -0.008 C 
ATOM     17  C   UNL A   1      35.778  23.148  25.535  1.00  0.00    -0.030 C 
ATOM     18  C   UNL A   1      33.309  23.021  26.117  1.00  0.00    -0.030 C 
ATOM     19  C   UNL A   1      35.626  21.894  24.649  1.00  0.00     0.010 C 
ATOM     20  C   UNL A   1      33.174  21.779  25.206  1.00  0.00     0.010 C 
ATOM     21  C   UNL A   1      34.744  23.065  26.683  1.00  0.00     0.013 C 
ATOM     22  C   UNL A   1      37.195  23.209  26.117  1.00  0.00     0.011 C 
ATOM     23  C   UNL A   1      32.281  22.956  27.250  1.00  0.00     0.011 C 
ENDBRANCH  10  12
ENDBRANCH   7  10
ENDBRANCH   5   7
ENDBRANCH   3   5
ENDBRANCH   2   3
ENDBRANCH   1   2
BRANCH   1  24
ATOM     24  C   UNL A   1      32.907  29.305  26.671  1.00  0.00     0.275 C 
BRANCH  24  25
ATOM     25  O   UNL A   1      33.965  29.132  27.625  1.00  0.00    -0.458 OA
BRANCH  25  26
ATOM     26  C   UNL A   1      34.604  30.260  28.009  1.00  0.00     0.338 C 
ATOM     27  O   UNL A   1      34.107  31.361  28.184  1.00  0.00    -0.246 OA
BRANCH  26  28
ATOM     28  C   UNL A   1      36.037  29.979  28.247  1.00  0.00     0.060 A 
ATOM     29  C   UNL A   1      36.986  30.190  27.250  1.00  0.00     0.016 A 
ATOM     30  C   UNL A   1      36.424  29.382  29.447  1.00  0.00     0.016 A 
ATOM     31  C   UNL A   1      38.284  29.701  27.401  1.00  0.00     0.010 A 
ATOM     32  C   UNL A   1      37.756  28.995  29.639  1.00  0.00     0.010 A 
ATOM     33  C   UNL A   1      38.697  29.110  28.602  1.00  0.00    -0.014 A 
BRANCH  33  34
ATOM     34  C   UNL A   1      40.092  28.604  28.772  1.00  0.00     0.031 A 
ATOM     35  C   UNL A   1      41.184  29.510  29.286  1.00  0.00     0.074 A 
ATOM     36  C   UNL A   1      40.398  27.324  28.471  1.00  0.00     0.049 A 
ATOM     37  N   UNL A   1      42.480  29.315  29.306  1.00  0.00    -0.248 NA
ATOM     38  C   UNL A   1      40.770  30.809  29.840  1.00  0.00     0.031 C 
ATOM     39  C   UNL A   1      39.451  26.303  28.017  1.00  0.00     0.029 A 
ATOM     40  N   UNL A   1      41.600  26.661  28.515  1.00  0.00    -0.354 N 
ATOM     41  C   UNL A   1      43.036  30.485  29.812  1.00  0.00     0.074 A 
ATOM     42  C   UNL A   1      41.938  31.383  30.096  1.00  0.00     0.031 C 
ATOM     43  C   UNL A   1      40.093  25.134  27.886  1.00  0.00     0.029 A 
ATOM     44  C   UNL A   1      41.514  25.344  28.130  1.00  0.00     0.049 A 
ATOM     45  H   UNL A   1      42.442  27.087  28.794  1.00  0.00     0.167 HD
ATOM     46  C   UNL A   1      44.342  30.788  30.008  1.00  0.00     0.031 A 
ATOM     47  C   UNL A   1      42.467  24.414  27.937  1.00  0.00     0.031 A 
ATOM     48  C   UNL A   1      45.436  29.884  29.769  1.00  0.00     0.049 A 
ATOM     49  C   UNL A   1      43.908  24.788  28.109  1.00  0.00     0.074 A 
ATOM     50  C   UNL A   1      46.792  30.105  29.947  1.00  0.00     0.029 A 
ATOM     51  N   UNL A   1      45.301  28.581  29.317  1.00  0.00    -0.354 N 
ATOM     52  N   UNL A   1      44.423  25.928  28.501  1.00  0.00    -0.248 NA
ATOM     53  C   UNL A   1      44.900  23.757  27.777  1.00  0.00     0.031 C 
ATOM     54  C   UNL A   1      47.480  28.948  29.563  1.00  0.00     0.029 A 
ATOM     55  C   UNL A   1      46.549  27.994  29.190  1.00  0.00     0.049 A 
ATOM     56  H   UNL A   1      44.445  28.140  29.114  1.00  0.00     0.167 HD
ATOM     57  C   UNL A   1      45.798  25.751  28.461  1.00  0.00     0.074 A 
ATOM     58  C   UNL A   1      46.038  24.388  28.032  1.00  0.00     0.031 C 
ATOM     59  C   UNL A   1      46.775  26.645  28.746  1.00  0.00     0.031 A 
BRANCH  46  60
ATOM     60  C   UNL A   1      44.673  32.182  30.463  1.00  0.00    -0.014 A 
ATOM     61  C   UNL A   1      44.971  33.204  29.551  1.00  0.00     0.009 A 
ATOM     62  C   UNL A   1      44.624  32.484  31.834  1.00  0.00     0.009 A 
ATOM     63  C   UNL A   1      45.235  34.498  30.006  1.00  0.00     0.001 A 
ATOM     64  C   UNL A   1      44.866  33.783  32.283  1.00  0.00     0.001 A 
ATOM     65  C   UNL A   1      45.177  34.788  31.370  1.00  0.00     0.000 A 
ENDBRANCH  46  60
BRANCH  47  66
ATOM     66  C   UNL A   1      42.082  23.053  27.483  1.00  0.00    -0.014 A 
ATOM     67  C   UNL A   1      41.540  22.128  28.385  1.00  0.00     0.009 A 
ATOM     68  C   UNL A   1      42.230  22.686  26.135  1.00  0.00     0.009 A 
ATOM     69  C   UNL A   1      41.153  20.859  27.944  1.00  0.00     0.001 A 
ATOM     70  C   UNL A   1      41.814  21.430  25.693  1.00  0.00     0.001 A 
ATOM     71  C   UNL A   1      41.281  20.515  26.600  1.00  0.00     0.000 A 
ENDBRANCH  47  66
BRANCH  59  72
ATOM     72  C   UNL A   1      48.190  26.166  28.614  1.00  0.00    -0.014 A 
ATOM     73  C   UNL A   1      48.863  26.232  27.384  1.00  0.00     0.009 A 
ATOM     74  C   UNL A   1      48.862  25.652  29.733  1.00  0.00     0.009 A 
ATOM     75  C   UNL A   1      50.172  25.761  27.271  1.00  0.00     0.001 A 
ATOM     76  C   UNL A   1      50.177  25.202  29.622  1.00  0.00     0.001 A 
ATOM     77  C   UNL A   1      50.828  25.248  28.390  1.00  0.00     0.000 A 
ENDBRANCH  59  72
ENDBRANCH  33  34
ENDBRANCH  26  28
ENDBRANCH  25  26
ENDBRANCH  24  25
ENDBRANCH   1  24
TORSDOF 14
ENDMDL
MODEL 3
REMARK VINA RESULT:     -10.8      1.154      2.166
REMARK SMILES C[C@@H](C(=O)OCCOC(=O)c1ccc(-c2c3nc(c(-c4ccccc4)c4ccc([nH]4)c(-c4ccccc4)c4nc(c(-c5ccccc5)c5ccc2[nH]5)C=C4)C=C3)cc1)S(=O)(=O)N[C@@]12C[C@@H]3C[C@@](C)(C[C@@](C)(C3)C1)C2
REMARK SMILES IDX 6 1 5 2 3 3 4 4 2 5 1 6 59 7 60 8 61 9 62 10 63 12 64 13
REMARK SMILES IDX 73 14 74 15 65 16 70 17 67 18 72 19 66 20 69 21 71 22 68 23
REMARK SMILES IDX 7 24 8 25 9 26 10 27 11 28 12 29 58 30 13 31 57 32 14 33
REMARK SMILES IDX 15 34 16 35 51 36 17 37 56 38 50 39 52 40 18 41 55 42 49 43
REMARK SMILES IDX 48 44 19 46 41 47 26 48 40 49 27 50 30 51 39 52 53 53 28 54
REMARK SMILES IDX 29 55 38 57 54 58 31 59 20 60 21 61 25 62 22 63 24 64 23 65
REMARK SMILES IDX 42 66 43 67 47 68 44 69 46 70 45 71 32 72 33 73 37 74 34 75
REMARK SMILES IDX 36 76 35 77
REMARK H PARENT 62 11 52 45 30 56
REMARK Flexibility Score: inf
ROOT
ATOM      1  C   UNL A   1      35.249  21.434  26.125  1.00  0.00     0.274 C 
ENDROOT
BRANCH   1   2
ATOM      2  O   UNL A   1      33.997  20.733  26.323  1.00  0.00    -0.461 OA
BRANCH   2   3
ATOM      3  C   UNL A   1      32.884  21.372  25.862  1.00  0.00     0.325 C 
ATOM      4  O   UNL A   1      32.310  22.255  26.491  1.00  0.00    -0.251 OA
BRANCH   3   5
ATOM      5  C   UNL A   1      32.339  20.791  24.588  1.00  0.00     0.230 C 
ATOM      6  C   UNL A   1      32.725  19.363  24.222  1.00  0.00     0.039 C 
BRANCH   5   7
ATOM      7  S   UNL A   1      32.444  21.958  23.236  1.00  0.00     0.225 S 
ATOM      8  O   UNL A   1      33.775  22.519  23.220  1.00  0.00    -0.212 OA
ATOM      9  O   UNL A   1      31.961  21.305  22.037  1.00  0.00    -0.212 OA
BRANCH   7  10
ATOM     10  N   UNL A   1      31.334  23.180  23.488  1.00  0.00    -0.208 NA
ATOM     11  H   UNL A   1      30.966  23.003  24.423  1.00  0.00     0.141 HD
BRANCH  10  12
ATOM     12  C   UNL A   1      31.546  24.649  23.447  1.00  0.00     0.034 C 
ATOM     13  C   UNL A   1      32.268  25.134  22.179  1.00  0.00     0.027 C 
ATOM     14  C   UNL A   1      30.147  25.344  23.478  1.00  0.00     0.030 C 
ATOM     15  C   UNL A   1      32.276  25.097  24.723  1.00  0.00     0.030 C 
ATOM     16  C   UNL A   1      32.434  26.657  22.194  1.00  0.00    -0.008 C 
ATOM     17  C   UNL A   1      30.288  26.890  23.497  1.00  0.00    -0.030 C 
ATOM     18  C   UNL A   1      32.494  26.625  24.728  1.00  0.00    -0.030 C 
ATOM     19  C   UNL A   1      31.055  27.327  22.231  1.00  0.00     0.010 C 
ATOM     20  C   UNL A   1      33.244  27.043  23.441  1.00  0.00     0.010 C 
ATOM     21  C   UNL A   1      31.111  27.310  24.738  1.00  0.00     0.013 C 
ATOM     22  C   UNL A   1      28.912  27.565  23.534  1.00  0.00     0.011 C 
ATOM     23  C   UNL A   1      33.307  27.024  25.963  1.00  0.00     0.011 C 
ENDBRANCH  10  12
ENDBRANCH   7  10
ENDBRANCH   5   7
ENDBRANCH   3   5
ENDBRANCH   2   3
ENDBRANCH   1   2
BRANCH   1  24
ATOM     24  C   UNL A   1      36.173  20.684  25.171  1.00  0.00     0.275 C 
BRANCH  24  25
ATOM     25  O   UNL A   1      37.336  21.483  24.914  1.00  0.00    -0.458 OA
BRANCH  25  26
ATOM     26  C   UNL A   1      38.453  21.134  25.591  1.00  0.00     0.338 C 
ATOM     27  O   UNL A   1      38.929  20.016  25.694  1.00  0.00    -0.246 OA
BRANCH  26  28
ATOM     28  C   UNL A   1      39.084  22.333  26.185  1.00  0.00     0.060 A 
ATOM     29  C   UNL A   1      38.541  23.601  25.993  1.00  0.00     0.016 A 
ATOM     30  C   UNL A   1      40.306  22.203  26.847  1.00  0.00     0.016 A 
ATOM     31  C   UNL A   1      39.268  24.737  26.351  1.00  0.00     0.010 A 
ATOM     32  C   UNL A   1      40.978  23.342  27.306  1.00  0.00     0.010 A 
ATOM     33  C   UNL A   1      40.490  24.630  27.027  1.00  0.00    -0.014 A 
BRANCH  33  34
ATOM     34  C   UNL A   1      41.258  25.846  27.428  1.00  0.00     0.031 A 
ATOM     35  C   UNL A   1      40.676  26.841  28.402  1.00  0.00     0.074 A 
ATOM     36  C   UNL A   1      42.491  26.074  26.926  1.00  0.00     0.049 A 
ATOM     37  N   UNL A   1      41.098  28.042  28.709  1.00  0.00    -0.248 NA
ATOM     38  C   UNL A   1      39.454  26.439  29.118  1.00  0.00     0.031 C 
ATOM     39  C   UNL A   1      43.221  25.187  26.019  1.00  0.00     0.029 A 
ATOM     40  N   UNL A   1      43.353  27.125  27.122  1.00  0.00    -0.354 N 
ATOM     41  C   UNL A   1      40.164  28.561  29.599  1.00  0.00     0.074 A 
ATOM     42  C   UNL A   1      39.156  27.542  29.792  1.00  0.00     0.031 C 
ATOM     43  C   UNL A   1      44.439  25.697  25.789  1.00  0.00     0.029 A 
ATOM     44  C   UNL A   1      44.535  27.000  26.432  1.00  0.00     0.049 A 
ATOM     45  H   UNL A   1      43.144  27.894  27.701  1.00  0.00     0.167 HD
ATOM     46  C   UNL A   1      40.141  29.780  30.190  1.00  0.00     0.031 A 
ATOM     47  C   UNL A   1      45.565  27.853  26.281  1.00  0.00     0.031 A 
ATOM     48  C   UNL A   1      41.162  30.783  30.037  1.00  0.00     0.049 A 
ATOM     49  C   UNL A   1      45.493  29.215  26.900  1.00  0.00     0.074 A 
ATOM     50  C   UNL A   1      41.224  32.045  30.605  1.00  0.00     0.029 A 
ATOM     51  N   UNL A   1      42.309  30.633  29.275  1.00  0.00    -0.354 N 
ATOM     52  N   UNL A   1      44.559  29.724  27.665  1.00  0.00    -0.248 NA
ATOM     53  C   UNL A   1      46.601  30.133  26.604  1.00  0.00     0.031 C 
ATOM     54  C   UNL A   1      42.389  32.674  30.153  1.00  0.00     0.029 A 
ATOM     55  C   UNL A   1      43.074  31.786  29.340  1.00  0.00     0.049 A 
ATOM     56  H   UNL A   1      42.545  29.827  28.761  1.00  0.00     0.167 HD
ATOM     57  C   UNL A   1      44.966  31.022  27.941  1.00  0.00     0.074 A 
ATOM     58  C   UNL A   1      46.242  31.214  27.283  1.00  0.00     0.031 C 
ATOM     59  C   UNL A   1      44.331  31.972  28.668  1.00  0.00     0.031 A 
BRANCH  46  60
ATOM     60  C   UNL A   1      38.941  30.126  31.027  1.00  0.00    -0.014 A 
ATOM     61  C   UNL A   1      37.817  30.760  30.479  1.00  0.00     0.009 A 
ATOM     62  C   UNL A   1      38.919  29.751  32.381  1.00  0.00     0.009 A 
ATOM     63  C   UNL A   1      36.702  31.031  31.276  1.00  0.00     0.001 A 
ATOM     64  C   UNL A   1      37.795  30.003  33.168  1.00  0.00     0.001 A 
ATOM     65  C   UNL A   1      36.690  30.648  32.618  1.00  0.00     0.000 A 
ENDBRANCH  46  60
BRANCH  47  66
ATOM     66  C   UNL A   1      46.724  27.459  25.438  1.00  0.00    -0.014 A 
ATOM     67  C   UNL A   1      47.746  26.657  25.963  1.00  0.00     0.009 A 
ATOM     68  C   UNL A   1      46.795  27.863  24.095  1.00  0.00     0.009 A 
ATOM     69  C   UNL A   1      48.819  26.267  25.156  1.00  0.00     0.001 A 
ATOM     70  C   UNL A   1      47.851  27.446  23.285  1.00  0.00     0.001 A 
ATOM     71  C   UNL A   1      48.865  26.652  23.818  1.00  0.00     0.000 A 
ENDBRANCH  47  66
BRANCH  59  72
ATOM     72  C   UNL A   1      45.020  33.298  28.797  1.00  0.00    -0.014 A 
ATOM     73  C   UNL A   1      44.759  34.337  27.891  1.00  0.00     0.009 A 
ATOM     74  C   UNL A   1      45.931  33.514  29.841  1.00  0.00     0.009 A 
ATOM     75  C   UNL A   1      45.425  35.558  28.010  1.00  0.00     0.001 A 
ATOM     76  C   UNL A   1      46.579  34.742  29.970  1.00  0.00     0.001 A 
ATOM     77  C   UNL A   1      46.332  35.760  29.050  1.00  0.00     0.000 A 
ENDBRANCH  59  72
ENDBRANCH  33  34
ENDBRANCH  26  28
ENDBRANCH  25  26
ENDBRANCH  24  25
ENDBRANCH   1  24
TORSDOF 14
ENDMDL
