MODEL 1
REMARK VINA RESULT:     -11.3      0.000      0.000
REMARK SMILES Cc1ccc(-c2ncccc2C(=O)OCCOC(=O)c2ccc(-c3c4nc(c(-c5ccccc5)c5ccc([nH]5)c(-c5ccccc5)c5nc(c(-c6ccccc6)c6ccc3[nH]6)C=C5)C=C4)cc2)c(C)c1
REMARK SMILES IDX 16 1 15 2 14 3 12 4 13 5 11 6 6 7 7 8 8 9 10 10 9 11 5 12
REMARK SMILES IDX 1 13 2 14 3 15 70 16 4 17 68 18 69 19 17 20 18 21 19 22
REMARK SMILES IDX 20 23 21 24 67 25 22 26 66 27 23 28 24 29 25 30 60 31 26 32
REMARK SMILES IDX 65 33 59 34 61 35 27 36 64 37 58 38 57 39 28 41 50 42 35 43
REMARK SMILES IDX 49 44 36 45 39 46 48 47 62 48 37 49 38 50 47 52 63 53 40 54
REMARK SMILES IDX 29 55 30 56 34 57 31 58 33 59 32 60 51 61 52 62 56 63 53 64
REMARK SMILES IDX 55 65 54 66 41 67 42 68 46 69 43 70 45 71 44 72
REMARK H PARENT 61 40 39 51
REMARK Flexibility Score: inf
ROOT
ATOM      1  C   UNL A   1      45.240  23.519  38.637  1.00  0.00     0.275 C 
ENDROOT
BRANCH   1   2
ATOM      2  C   UNL A   1      46.093  22.688  39.590  1.00  0.00     0.275 C 
BRANCH   2   3
ATOM      3  O   UNL A   1      45.780  21.283  39.433  1.00  0.00    -0.458 OA
BRANCH   3   4
ATOM      4  C   UNL A   1      45.797  20.535  40.566  1.00  0.00     0.340 C 
ATOM      5  O   UNL A   1      45.143  20.736  41.574  1.00  0.00    -0.246 OA
BRANCH   4   6
ATOM      6  C   UNL A   1      46.850  19.503  40.472  1.00  0.00     0.086 A 
ATOM      7  C   UNL A   1      46.614  18.112  40.500  1.00  0.00     0.085 A 
ATOM      8  N   UNL A   1      47.636  17.223  40.600  1.00  0.00    -0.255 NA
ATOM      9  C   UNL A   1      48.893  17.727  40.699  1.00  0.00     0.112 A 
ATOM     10  C   UNL A   1      48.163  19.982  40.544  1.00  0.00     0.019 A 
ATOM     11  C   UNL A   1      49.205  19.078  40.671  1.00  0.00     0.021 A 
BRANCH   7  12
ATOM     12  C   UNL A   1      45.261  17.522  40.581  1.00  0.00     0.004 A 
ATOM     13  C   UNL A   1      41.429  13.981  40.381  1.00  0.00     0.044 C 
ATOM     14  C   UNL A   1      42.591  14.912  40.457  1.00  0.00    -0.051 A 
ATOM     15  C   UNL A   1      43.120  15.510  42.061  1.00  0.00     0.004 A 
ATOM     16  C   UNL A   1      43.325  15.611  39.027  1.00  0.00     0.007 A 
ATOM     17  C   UNL A   1      44.534  16.956  42.146  1.00  0.00     0.011 A 
ATOM     18  C   UNL A   1      44.592  16.856  39.077  1.00  0.00    -0.041 A 
ATOM     19  C   UNL A   1      44.875  17.606  37.800  1.00  0.00     0.045 C 
ENDBRANCH   7  12
ENDBRANCH   4   6
ENDBRANCH   3   4
ENDBRANCH   2   3
ENDBRANCH   1   2
BRANCH   1  20
ATOM     20  O   UNL A   1      46.048  23.852  37.498  1.00  0.00    -0.458 OA
BRANCH  20  21
ATOM     21  C   UNL A   1      45.605  23.319  36.344  1.00  0.00     0.338 C 
ATOM     22  O   UNL A   1      45.599  22.144  36.012  1.00  0.00    -0.246 OA
BRANCH  21  23
ATOM     23  C   UNL A   1      44.995  24.348  35.513  1.00  0.00     0.060 A 
ATOM     24  C   UNL A   1      45.946  25.739  34.879  1.00  0.00     0.016 A 
ATOM     25  C   UNL A   1      43.250  24.518  35.631  1.00  0.00     0.016 A 
ATOM     26  C   UNL A   1      44.938  27.422  34.388  1.00  0.00     0.010 A 
ATOM     27  C   UNL A   1      42.378  25.981  35.125  1.00  0.00     0.010 A 
ATOM     28  C   UNL A   1      43.146  27.447  34.479  1.00  0.00    -0.014 A 
BRANCH  28  29
ATOM     29  C   UNL A   1      42.304  28.404  33.627  1.00  0.00     0.031 A 
ATOM     30  C   UNL A   1      41.395  29.399  34.321  1.00  0.00     0.074 A 
ATOM     31  C   UNL A   1      42.139  28.276  32.282  1.00  0.00     0.049 A 
ATOM     32  N   UNL A   1      40.287  29.964  33.900  1.00  0.00    -0.248 NA
ATOM     33  C   UNL A   1      41.775  29.785  35.688  1.00  0.00     0.031 C 
ATOM     34  C   UNL A   1      42.930  27.482  31.348  1.00  0.00     0.029 A 
ATOM     35  N   UNL A   1      41.146  28.782  31.451  1.00  0.00    -0.354 N 
ATOM     36  C   UNL A   1      39.820  30.725  34.967  1.00  0.00     0.074 A 
ATOM     37  C   UNL A   1      40.705  30.461  36.083  1.00  0.00     0.031 C 
ATOM     38  C   UNL A   1      42.350  27.433  30.145  1.00  0.00     0.029 A 
ATOM     39  C   UNL A   1      41.140  28.217  30.187  1.00  0.00     0.049 A 
ATOM     40  H   UNL A   1      40.507  29.475  31.734  1.00  0.00     0.167 HD
ATOM     41  C   UNL A   1      38.798  31.618  35.011  1.00  0.00     0.031 A 
ATOM     42  C   UNL A   1      40.287  28.283  29.147  1.00  0.00     0.031 A 
ATOM     43  C   UNL A   1      37.976  31.979  33.887  1.00  0.00     0.049 A 
ATOM     44  C   UNL A   1      39.131  29.224  29.216  1.00  0.00     0.074 A 
ATOM     45  C   UNL A   1      36.986  32.946  33.817  1.00  0.00     0.029 A 
ATOM     46  N   UNL A   1      38.072  31.417  32.625  1.00  0.00    -0.354 N 
ATOM     47  N   UNL A   1      38.728  29.947  30.227  1.00  0.00    -0.248 NA
ATOM     48  C   UNL A   1      38.361  29.419  27.979  1.00  0.00     0.031 C 
ATOM     49  C   UNL A   1      36.473  32.959  32.516  1.00  0.00     0.029 A 
ATOM     50  C   UNL A   1      37.168  32.025  31.767  1.00  0.00     0.049 A 
ATOM     51  H   UNL A   1      38.691  30.693  32.373  1.00  0.00     0.167 HD
ATOM     52  C   UNL A   1      37.717  30.749  29.727  1.00  0.00     0.074 A 
ATOM     53  C   UNL A   1      37.546  30.404  28.331  1.00  0.00     0.031 C 
ATOM     54  C   UNL A   1      37.017  31.710  30.373  1.00  0.00     0.031 A 
BRANCH  41  55
ATOM     55  C   UNL A   1      38.562  32.329  36.319  1.00  0.00    -0.014 A 
ATOM     56  C   UNL A   1      39.173  33.566  36.586  1.00  0.00     0.009 A 
ATOM     57  C   UNL A   1      37.708  31.777  37.287  1.00  0.00     0.009 A 
ATOM     58  C   UNL A   1      38.991  34.201  37.815  1.00  0.00     0.001 A 
ATOM     59  C   UNL A   1      37.496  32.434  38.502  1.00  0.00     0.001 A 
ATOM     60  C   UNL A   1      38.152  33.634  38.771  1.00  0.00     0.000 A 
ENDBRANCH  41  55
BRANCH  42  61
ATOM     61  C   UNL A   1      40.533  27.477  27.917  1.00  0.00    -0.014 A 
ATOM     62  C   UNL A   1      39.939  26.216  27.754  1.00  0.00     0.009 A 
ATOM     63  C   UNL A   1      41.373  27.964  26.901  1.00  0.00     0.009 A 
ATOM     64  C   UNL A   1      40.219  25.438  26.628  1.00  0.00     0.001 A 
ATOM     65  C   UNL A   1      41.631  27.193  25.763  1.00  0.00     0.001 A 
ATOM     66  C   UNL A   1      41.066  25.926  25.635  1.00  0.00     0.000 A 
ENDBRANCH  42  61
BRANCH  54  67
ATOM     67  C   UNL A   1      36.066  32.531  29.559  1.00  0.00    -0.014 A 
ATOM     68  C   UNL A   1      36.421  33.794  29.063  1.00  0.00     0.009 A 
ATOM     69  C   UNL A   1      34.802  32.004  29.248  1.00  0.00     0.009 A 
ATOM     70  C   UNL A   1      35.520  34.519  28.283  1.00  0.00     0.001 A 
ATOM     71  C   UNL A   1      33.915  32.719  28.446  1.00  0.00     0.001 A 
ATOM     72  C   UNL A   1      34.273  33.978  27.968  1.00  0.00     0.000 A 
ENDBRANCH  54  67
ENDBRANCH  28  29
ENDBRANCH  21  23
ENDBRANCH  20  21
ENDBRANCH   1  20
TORSDOF 12
ENDMDL
MODEL 2
REMARK VINA RESULT:     -11.1      9.355     18.523
REMARK SMILES Cc1ccc(-c2ncccc2C(=O)OCCOC(=O)c2ccc(-c3c4nc(c(-c5ccccc5)c5ccc([nH]5)c(-c5ccccc5)c5nc(c(-c6ccccc6)c6ccc3[nH]6)C=C5)C=C4)cc2)c(C)c1
REMARK SMILES IDX 16 1 15 2 14 3 12 4 13 5 11 6 6 7 7 8 8 9 10 10 9 11 5 12
REMARK SMILES IDX 1 13 2 14 3 15 70 16 4 17 68 18 69 19 17 20 18 21 19 22
REMARK SMILES IDX 20 23 21 24 67 25 22 26 66 27 23 28 24 29 25 30 60 31 26 32
REMARK SMILES IDX 65 33 59 34 61 35 27 36 64 37 58 38 57 39 28 41 50 42 35 43
REMARK SMILES IDX 49 44 36 45 39 46 48 47 62 48 37 49 38 50 47 52 63 53 40 54
REMARK SMILES IDX 29 55 30 56 34 57 31 58 33 59 32 60 51 61 52 62 56 63 53 64
REMARK SMILES IDX 55 65 54 66 41 67 42 68 46 69 43 70 45 71 44 72
REMARK H PARENT 61 40 39 51
REMARK Flexibility Score: inf
ROOT
ATOM      1  C   UNL A   1      46.261  39.390  26.758  1.00  0.00     0.275 C 
ENDROOT
BRANCH   1   2
ATOM      2  C   UNL A   1      46.811  39.719  25.374  1.00  0.00     0.275 C 
BRANCH   2   3
ATOM      3  O   UNL A   1      45.874  40.559  24.659  1.00  0.00    -0.458 OA
BRANCH   3   4
ATOM      4  C   UNL A   1      46.409  41.592  23.958  1.00  0.00     0.340 C 
ATOM      5  O   UNL A   1      47.229  41.507  23.061  1.00  0.00    -0.246 OA
BRANCH   4   6
ATOM      6  C   UNL A   1      45.968  42.876  24.538  1.00  0.00     0.086 A 
ATOM      7  C   UNL A   1      45.033  43.748  23.938  1.00  0.00     0.085 A 
ATOM      8  N   UNL A   1      44.815  44.996  24.428  1.00  0.00    -0.255 NA
ATOM      9  C   UNL A   1      45.550  45.382  25.503  1.00  0.00     0.112 A 
ATOM     10  C   UNL A   1      46.683  43.299  25.664  1.00  0.00     0.019 A 
ATOM     11  C   UNL A   1      46.479  44.581  26.150  1.00  0.00     0.021 A 
BRANCH   7  12
ATOM     12  C   UNL A   1      44.346  43.447  22.665  1.00  0.00     0.004 A 
ATOM     13  C   UNL A   1      40.905  43.754  18.750  1.00  0.00     0.044 C 
ATOM     14  C   UNL A   1      41.869  43.770  19.888  1.00  0.00    -0.051 A 
ATOM     15  C   UNL A   1      43.554  44.303  19.589  1.00  0.00     0.004 A 
ATOM     16  C   UNL A   1      41.479  43.088  21.454  1.00  0.00     0.007 A 
ATOM     17  C   UNL A   1      44.920  44.094  21.068  1.00  0.00     0.011 A 
ATOM     18  C   UNL A   1      42.653  42.926  22.779  1.00  0.00    -0.041 A 
ATOM     19  C   UNL A   1      42.282  42.018  23.924  1.00  0.00     0.045 C 
ENDBRANCH   7  12
ENDBRANCH   4   6
ENDBRANCH   3   4
ENDBRANCH   2   3
ENDBRANCH   1   2
BRANCH   1  20
ATOM     20  O   UNL A   1      45.738  38.053  26.718  1.00  0.00    -0.458 OA
BRANCH  20  21
ATOM     21  C   UNL A   1      44.559  37.913  27.352  1.00  0.00     0.338 C 
ATOM     22  O   UNL A   1      43.707  38.765  27.551  1.00  0.00    -0.246 OA
BRANCH  21  23
ATOM     23  C   UNL A   1      44.340  36.519  27.713  1.00  0.00     0.060 A 
ATOM     24  C   UNL A   1      45.021  35.814  29.223  1.00  0.00     0.016 A 
ATOM     25  C   UNL A   1      43.917  35.427  26.402  1.00  0.00     0.016 A 
ATOM     26  C   UNL A   1      45.296  33.812  29.286  1.00  0.00     0.010 A 
ATOM     27  C   UNL A   1      44.100  33.663  26.508  1.00  0.00     0.010 A 
ATOM     28  C   UNL A   1      44.752  32.793  27.913  1.00  0.00    -0.014 A 
BRANCH  28  29
ATOM     29  C   UNL A   1      44.395  31.313  28.093  1.00  0.00     0.031 A 
ATOM     30  C   UNL A   1      45.193  30.268  27.338  1.00  0.00     0.074 A 
ATOM     31  C   UNL A   1      43.262  30.876  28.707  1.00  0.00     0.049 A 
ATOM     32  N   UNL A   1      44.845  29.066  26.941  1.00  0.00    -0.248 NA
ATOM     33  C   UNL A   1      46.562  30.644  26.956  1.00  0.00     0.031 C 
ATOM     34  C   UNL A   1      42.363  31.624  29.578  1.00  0.00     0.029 A 
ATOM     35  N   UNL A   1      42.610  29.651  28.614  1.00  0.00    -0.354 N 
ATOM     36  C   UNL A   1      45.930  28.574  26.223  1.00  0.00     0.074 A 
ATOM     37  C   UNL A   1      46.900  29.648  26.150  1.00  0.00     0.031 C 
ATOM     38  C   UNL A   1      41.246  30.933  29.827  1.00  0.00     0.029 A 
ATOM     39  C   UNL A   1      41.337  29.658  29.157  1.00  0.00     0.049 A 
ATOM     40  H   UNL A   1      43.015  28.855  28.201  1.00  0.00     0.167 HD
ATOM     41  C   UNL A   1      46.147  27.328  25.729  1.00  0.00     0.031 A 
ATOM     42  C   UNL A   1      40.320  28.776  29.145  1.00  0.00     0.031 A 
ATOM     43  C   UNL A   1      45.248  26.216  25.885  1.00  0.00     0.049 A 
ATOM     44  C   UNL A   1      40.539  27.425  28.552  1.00  0.00     0.074 A 
ATOM     45  C   UNL A   1      45.433  24.896  25.505  1.00  0.00     0.029 A 
ATOM     46  N   UNL A   1      44.011  26.281  26.505  1.00  0.00    -0.354 N 
ATOM     47  N   UNL A   1      41.582  26.980  27.902  1.00  0.00    -0.248 NA
ATOM     48  C   UNL A   1      39.477  26.430  28.758  1.00  0.00     0.031 C 
ATOM     49  C   UNL A   1      44.300  24.166  25.880  1.00  0.00     0.029 A 
ATOM     50  C   UNL A   1      43.427  25.024  26.526  1.00  0.00     0.049 A 
ATOM     51  H   UNL A   1      43.605  27.099  26.875  1.00  0.00     0.167 HD
ATOM     52  C   UNL A   1      41.342  25.631  27.700  1.00  0.00     0.074 A 
ATOM     53  C   UNL A   1      40.044  25.337  28.269  1.00  0.00     0.031 C 
ATOM     54  C   UNL A   1      42.154  24.718  27.119  1.00  0.00     0.031 A 
BRANCH  41  55
ATOM     55  C   UNL A   1      47.459  27.085  25.027  1.00  0.00    -0.014 A 
ATOM     56  C   UNL A   1      48.550  26.528  25.716  1.00  0.00     0.009 A 
ATOM     57  C   UNL A   1      47.607  27.392  23.665  1.00  0.00     0.009 A 
ATOM     58  C   UNL A   1      49.777  26.347  25.078  1.00  0.00     0.001 A 
ATOM     59  C   UNL A   1      48.826  27.173  23.018  1.00  0.00     0.001 A 
ATOM     60  C   UNL A   1      49.914  26.669  23.730  1.00  0.00     0.000 A 
ENDBRANCH  41  55
BRANCH  42  61
ATOM     61  C   UNL A   1      39.014  29.121  29.778  1.00  0.00    -0.014 A 
ATOM     62  C   UNL A   1      38.739  28.751  31.103  1.00  0.00     0.009 A 
ATOM     63  C   UNL A   1      38.031  29.816  29.053  1.00  0.00     0.009 A 
ATOM     64  C   UNL A   1      37.493  29.022  31.673  1.00  0.00     0.001 A 
ATOM     65  C   UNL A   1      36.793  30.107  29.635  1.00  0.00     0.001 A 
ATOM     66  C   UNL A   1      36.520  29.697  30.939  1.00  0.00     0.000 A 
ENDBRANCH  42  61
BRANCH  54  67
ATOM     67  C   UNL A   1      41.710  23.288  27.151  1.00  0.00    -0.014 A 
ATOM     68  C   UNL A   1      40.883  22.752  26.154  1.00  0.00     0.009 A 
ATOM     69  C   UNL A   1      42.171  22.453  28.181  1.00  0.00     0.009 A 
ATOM     70  C   UNL A   1      40.513  21.407  26.199  1.00  0.00     0.001 A 
ATOM     71  C   UNL A   1      41.821  21.104  28.208  1.00  0.00     0.001 A 
ATOM     72  C   UNL A   1      40.989  20.584  27.219  1.00  0.00     0.000 A 
ENDBRANCH  54  67
ENDBRANCH  28  29
ENDBRANCH  21  23
ENDBRANCH  20  21
ENDBRANCH   1  20
TORSDOF 12
ENDMDL
MODEL 3
REMARK VINA RESULT:     -10.8      6.778     15.170
REMARK SMILES Cc1ccc(-c2ncccc2C(=O)OCCOC(=O)c2ccc(-c3c4nc(c(-c5ccccc5)c5ccc([nH]5)c(-c5ccccc5)c5nc(c(-c6ccccc6)c6ccc3[nH]6)C=C5)C=C4)cc2)c(C)c1
REMARK SMILES IDX 16 1 15 2 14 3 12 4 13 5 11 6 6 7 7 8 8 9 10 10 9 11 5 12
REMARK SMILES IDX 1 13 2 14 3 15 70 16 4 17 68 18 69 19 17 20 18 21 19 22
REMARK SMILES IDX 20 23 21 24 67 25 22 26 66 27 23 28 24 29 25 30 60 31 26 32
REMARK SMILES IDX 65 33 59 34 61 35 27 36 64 37 58 38 57 39 28 41 50 42 35 43
REMARK SMILES IDX 49 44 36 45 39 46 48 47 62 48 37 49 38 50 47 52 63 53 40 54
REMARK SMILES IDX 29 55 30 56 34 57 31 58 33 59 32 60 51 61 52 62 56 63 53 64
REMARK SMILES IDX 55 65 54 66 41 67 42 68 46 69 43 70 45 71 44 72
REMARK H PARENT 61 40 39 51
REMARK Flexibility Score: inf
ROOT
ATOM      1  C   UNL A   1      31.689  28.918  26.022  1.00  0.00     0.275 C 
ENDROOT
BRANCH   1   2
ATOM      2  C   UNL A   1      31.468  27.488  26.506  1.00  0.00     0.275 C 
BRANCH   2   3
ATOM      3  O   UNL A   1      32.703  26.739  26.408  1.00  0.00    -0.458 OA
BRANCH   3   4
ATOM      4  C   UNL A   1      32.578  25.403  26.203  1.00  0.00     0.340 C 
ATOM      5  O   UNL A   1      31.864  24.639  26.829  1.00  0.00    -0.246 OA
BRANCH   4   6
ATOM      6  C   UNL A   1      33.555  24.955  25.191  1.00  0.00     0.086 A 
ATOM      7  C   UNL A   1      33.442  25.196  23.804  1.00  0.00     0.085 A 
ATOM      8  N   UNL A   1      34.273  24.596  22.912  1.00  0.00    -0.255 NA
ATOM      9  C   UNL A   1      35.201  23.736  23.405  1.00  0.00     0.112 A 
ATOM     10  C   UNL A   1      34.546  24.086  25.661  1.00  0.00     0.019 A 
ATOM     11  C   UNL A   1      35.378  23.455  24.751  1.00  0.00     0.021 A 
BRANCH   7  12
ATOM     12  C   UNL A   1      32.337  25.975  23.205  1.00  0.00     0.004 A 
ATOM     13  C   UNL A   1      28.043  28.922  22.843  1.00  0.00     0.044 C 
ATOM     14  C   UNL A   1      29.285  28.122  23.044  1.00  0.00    -0.051 A 
ATOM     15  C   UNL A   1      30.868  28.867  22.657  1.00  0.00     0.004 A 
ATOM     16  C   UNL A   1      29.245  26.415  23.439  1.00  0.00     0.007 A 
ATOM     17  C   UNL A   1      32.527  27.707  22.697  1.00  0.00     0.011 A 
ATOM     18  C   UNL A   1      30.691  25.385  23.513  1.00  0.00    -0.041 A 
ATOM     19  C   UNL A   1      30.478  23.892  23.517  1.00  0.00     0.045 C 
ENDBRANCH   7  12
ENDBRANCH   4   6
ENDBRANCH   3   4
ENDBRANCH   2   3
ENDBRANCH   1   2
BRANCH   1  20
ATOM     20  O   UNL A   1      31.771  29.767  27.178  1.00  0.00    -0.458 OA
BRANCH  20  21
ATOM     21  C   UNL A   1      32.436  30.916  26.960  1.00  0.00     0.338 C 
ATOM     22  O   UNL A   1      32.064  31.892  26.328  1.00  0.00    -0.246 OA
BRANCH  21  23
ATOM     23  C   UNL A   1      33.695  30.920  27.694  1.00  0.00     0.060 A 
ATOM     24  C   UNL A   1      34.583  32.447  28.040  1.00  0.00     0.016 A 
ATOM     25  C   UNL A   1      34.596  29.411  27.713  1.00  0.00     0.016 A 
ATOM     26  C   UNL A   1      36.573  32.321  28.382  1.00  0.00     0.010 A 
ATOM     27  C   UNL A   1      36.329  29.317  28.089  1.00  0.00     0.010 A 
ATOM     28  C   UNL A   1      37.366  30.714  28.453  1.00  0.00    -0.014 A 
BRANCH  28  29
ATOM     29  C   UNL A   1      38.662  30.483  29.238  1.00  0.00     0.031 A 
ATOM     30  C   UNL A   1      39.656  29.456  28.730  1.00  0.00     0.074 A 
ATOM     31  C   UNL A   1      38.888  30.970  30.488  1.00  0.00     0.049 A 
ATOM     32  N   UNL A   1      40.545  28.748  29.385  1.00  0.00    -0.248 NA
ATOM     33  C   UNL A   1      39.618  29.171  27.288  1.00  0.00     0.031 C 
ATOM     34  C   UNL A   1      38.169  32.028  31.187  1.00  0.00     0.029 A 
ATOM     35  N   UNL A   1      39.790  30.553  31.461  1.00  0.00    -0.354 N 
ATOM     36  C   UNL A   1      41.128  27.905  28.445  1.00  0.00     0.074 A 
ATOM     37  C   UNL A   1      40.415  28.116  27.202  1.00  0.00     0.031 C 
ATOM     38  C   UNL A   1      38.534  32.094  32.471  1.00  0.00     0.029 A 
ATOM     39  C   UNL A   1      39.548  31.096  32.710  1.00  0.00     0.049 A 
ATOM     40  H   UNL A   1      40.529  29.929  31.279  1.00  0.00     0.167 HD
ATOM     41  C   UNL A   1      42.201  27.081  28.567  1.00  0.00     0.031 A 
ATOM     42  C   UNL A   1      40.048  30.857  33.938  1.00  0.00     0.031 A 
ATOM     43  C   UNL A   1      42.992  26.939  29.761  1.00  0.00     0.049 A 
ATOM     44  C   UNL A   1      41.192  29.910  34.082  1.00  0.00     0.074 A 
ATOM     45  C   UNL A   1      44.153  26.205  29.943  1.00  0.00     0.029 A 
ATOM     46  N   UNL A   1      42.729  27.571  30.964  1.00  0.00    -0.354 N 
ATOM     47  N   UNL A   1      41.737  29.146  33.173  1.00  0.00    -0.248 NA
ATOM     48  C   UNL A   1      41.840  29.850  35.400  1.00  0.00     0.031 C 
ATOM     49  C   UNL A   1      44.584  26.382  31.262  1.00  0.00     0.029 A 
ATOM     50  C   UNL A   1      43.711  27.254  31.889  1.00  0.00     0.049 A 
ATOM     51  H   UNL A   1      41.958  28.159  31.137  1.00  0.00     0.167 HD
ATOM     52  C   UNL A   1      42.846  28.583  33.781  1.00  0.00     0.074 A 
ATOM     53  C   UNL A   1      42.880  29.069  35.144  1.00  0.00     0.031 C 
ATOM     54  C   UNL A   1      43.769  27.759  33.234  1.00  0.00     0.031 A 
BRANCH  41  55
ATOM     55  C   UNL A   1      42.627  26.320  27.339  1.00  0.00    -0.014 A 
ATOM     56  C   UNL A   1      42.044  25.080  27.023  1.00  0.00     0.009 A 
ATOM     57  C   UNL A   1      43.600  26.847  26.475  1.00  0.00     0.009 A 
ATOM     58  C   UNL A   1      42.473  24.355  25.911  1.00  0.00     0.001 A 
ATOM     59  C   UNL A   1      43.999  26.136  25.339  1.00  0.00     0.001 A 
ATOM     60  C   UNL A   1      43.449  24.884  25.070  1.00  0.00     0.000 A 
ENDBRANCH  41  55
BRANCH  42  61
ATOM     61  C   UNL A   1      39.512  31.581  35.126  1.00  0.00    -0.014 A 
ATOM     62  C   UNL A   1      40.066  32.806  35.530  1.00  0.00     0.009 A 
ATOM     63  C   UNL A   1      38.447  31.044  35.869  1.00  0.00     0.009 A 
ATOM     64  C   UNL A   1      39.601  33.451  36.679  1.00  0.00     0.001 A 
ATOM     65  C   UNL A   1      37.968  31.705  37.004  1.00  0.00     0.001 A 
ATOM     66  C   UNL A   1      38.555  32.900  37.416  1.00  0.00     0.000 A 
ENDBRANCH  42  61
BRANCH  54  67
ATOM     67  C   UNL A   1      44.954  27.401  34.076  1.00  0.00    -0.014 A 
ATOM     68  C   UNL A   1      44.966  26.254  34.881  1.00  0.00     0.009 A 
ATOM     69  C   UNL A   1      46.099  28.212  34.024  1.00  0.00     0.009 A 
ATOM     70  C   UNL A   1      46.098  25.934  35.631  1.00  0.00     0.001 A 
ATOM     71  C   UNL A   1      47.239  27.876  34.753  1.00  0.00     0.001 A 
ATOM     72  C   UNL A   1      47.235  26.739  35.559  1.00  0.00     0.000 A 
ENDBRANCH  54  67
ENDBRANCH  28  29
ENDBRANCH  21  23
ENDBRANCH  20  21
ENDBRANCH   1  20
TORSDOF 12
ENDMDL
