MODEL 1
REMARK VINA RESULT:     -13.1      0.000      0.000
REMARK SMILES Cc1cccc(N2C(=O)/C(=C/c3ccc(C(=O)OCCOC(=O)c4ccc(-c5c6nc(c(-c7ccccc7)c7ccc([nH]7)c(-c7ccccc7)c7nc(c(-c8ccccc8)c8ccc5[nH]8)C=C7)C=C6)cc4)cc3)c3ccccc3C2=O)c1
REMARK SMILES IDX 19 1 18 2 16 3 17 4 15 5 12 6 13 7 73 8 14 9 72 10 11 11
REMARK SMILES IDX 7 12 8 13 80 14 9 15 10 16 79 17 81 18 74 19 78 20 75 21
REMARK SMILES IDX 77 22 76 23 6 24 1 25 2 26 3 27 82 28 4 29 5 30 20 31 21 32
REMARK SMILES IDX 22 33 23 34 24 35 25 36 71 37 26 38 70 39 27 40 28 41 29 42
REMARK SMILES IDX 64 43 30 44 69 45 63 46 65 47 31 48 68 49 62 50 61 51 32 53
REMARK SMILES IDX 54 54 39 55 53 56 40 57 43 58 52 59 66 60 41 61 42 62 51 64
REMARK SMILES IDX 67 65 44 66 33 67 34 68 38 69 35 70 37 71 36 72 55 73 56 74
REMARK SMILES IDX 60 75 57 76 59 77 58 78 45 79 46 80 50 81 47 82 49 83 48 84
REMARK H PARENT 65 52 43 63
REMARK Flexibility Score: inf
ROOT
ATOM      1  C   UNL A   1      31.408  32.890  26.385  1.00  0.00     0.275 C 
ENDROOT
BRANCH   1   2
ATOM      2  O   UNL A   1      30.784  31.610  26.517  1.00  0.00    -0.458 OA
BRANCH   2   3
ATOM      3  C   UNL A   1      31.063  30.799  25.461  1.00  0.00     0.338 C 
ATOM      4  O   UNL A   1      30.516  30.863  24.369  1.00  0.00    -0.246 OA
BRANCH   3   5
ATOM      5  C   UNL A   1      32.093  29.775  25.765  1.00  0.00     0.060 A 
ATOM      6  C   UNL A   1      33.640  27.491  26.122  1.00  0.00    -0.025 A 
ATOM      7  C   UNL A   1      33.156  28.178  27.240  1.00  0.00     0.009 A 
ATOM      8  C   UNL A   1      33.546  28.068  24.852  1.00  0.00     0.009 A 
ATOM      9  C   UNL A   1      32.372  29.321  27.060  1.00  0.00     0.016 A 
ATOM     10  C   UNL A   1      32.748  29.193  24.672  1.00  0.00     0.016 A 
BRANCH   6  11
ATOM     11  C   UNL A   1      34.009  26.077  26.251  1.00  0.00     0.022 C 
ATOM     12  N   UNL A   1      33.433  22.826  24.893  1.00  0.00    -0.242 N 
ATOM     13  C   UNL A   1      33.809  23.688  25.947  1.00  0.00     0.265 C 
ATOM     14  C   UNL A   1      32.600  23.284  23.846  1.00  0.00     0.265 C 
ATOM     15  O   UNL A   1      34.624  23.470  26.842  1.00  0.00    -0.268 OA
ATOM     16  C   UNL A   1      33.197  25.053  25.888  1.00  0.00     0.049 C 
ATOM     17  C   UNL A   1      31.635  24.362  24.173  1.00  0.00     0.048 A 
ATOM     18  O   UNL A   1      32.568  22.889  22.683  1.00  0.00    -0.268 OA
ATOM     19  C   UNL A   1      31.871  25.175  25.273  1.00  0.00    -0.000 A 
ATOM     20  C   UNL A   1      30.495  24.557  23.378  1.00  0.00     0.014 A 
ATOM     21  C   UNL A   1      30.881  26.088  25.664  1.00  0.00     0.010 A 
ATOM     22  C   UNL A   1      29.565  25.540  23.716  1.00  0.00     0.001 A 
ATOM     23  C   UNL A   1      29.747  26.290  24.874  1.00  0.00     0.001 A 
BRANCH  12  24
ATOM     24  C   UNL A   1      34.017  21.485  24.828  1.00  0.00     0.053 A 
ATOM     25  C   UNL A   1      32.826  17.840  24.608  1.00  0.00     0.044 C 
ATOM     26  C   UNL A   1      33.737  19.030  24.682  1.00  0.00    -0.049 A 
ATOM     27  C   UNL A   1      35.117  18.857  24.683  1.00  0.00     0.003 A 
ATOM     28  C   UNL A   1      33.209  20.334  24.730  1.00  0.00     0.030 A 
ATOM     29  C   UNL A   1      35.947  19.966  24.745  1.00  0.00     0.002 A 
ATOM     30  C   UNL A   1      35.404  21.256  24.819  1.00  0.00     0.027 A 
ENDBRANCH  12  24
ENDBRANCH   6  11
ENDBRANCH   3   5
ENDBRANCH   2   3
ENDBRANCH   1   2
BRANCH   1  31
ATOM     31  C   UNL A   1      32.526  33.148  27.404  1.00  0.00     0.275 C 
BRANCH  31  32
ATOM     32  O   UNL A   1      32.589  34.414  28.124  1.00  0.00    -0.458 OA
BRANCH  32  33
ATOM     33  C   UNL A   1      33.426  34.818  29.107  1.00  0.00     0.338 C 
ATOM     34  O   UNL A   1      33.196  35.813  29.790  1.00  0.00    -0.246 OA
BRANCH  33  35
ATOM     35  C   UNL A   1      34.623  34.013  29.368  1.00  0.00     0.060 A 
ATOM     36  C   UNL A   1      34.541  32.918  30.248  1.00  0.00     0.016 A 
ATOM     37  C   UNL A   1      35.787  34.285  28.663  1.00  0.00     0.016 A 
ATOM     38  C   UNL A   1      35.601  32.025  30.342  1.00  0.00     0.010 A 
ATOM     39  C   UNL A   1      36.770  33.334  28.641  1.00  0.00     0.010 A 
ATOM     40  C   UNL A   1      36.702  32.241  29.517  1.00  0.00    -0.014 A 
BRANCH  40  41
ATOM     41  C   UNL A   1      37.987  31.598  29.703  1.00  0.00     0.031 A 
ATOM     42  C   UNL A   1      38.305  30.305  29.071  1.00  0.00     0.074 A 
ATOM     43  C   UNL A   1      38.856  32.409  30.352  1.00  0.00     0.049 A 
ATOM     44  N   UNL A   1      39.144  29.450  29.546  1.00  0.00    -0.248 NA
ATOM     45  C   UNL A   1      37.662  29.827  27.846  1.00  0.00     0.031 C 
ATOM     46  C   UNL A   1      40.296  32.343  30.477  1.00  0.00     0.029 A 
ATOM     47  N   UNL A   1      38.523  33.513  31.160  1.00  0.00    -0.354 N 
ATOM     48  C   UNL A   1      39.438  28.577  28.512  1.00  0.00     0.074 A 
ATOM     49  C   UNL A   1      38.358  28.715  27.571  1.00  0.00     0.031 C 
ATOM     50  C   UNL A   1      40.662  33.089  31.540  1.00  0.00     0.029 A 
ATOM     51  C   UNL A   1      39.437  33.516  32.208  1.00  0.00     0.049 A 
ATOM     52  H   UNL A   1      37.792  34.154  31.013  1.00  0.00     0.167 HD
ATOM     53  C   UNL A   1      40.693  28.047  28.431  1.00  0.00     0.031 A 
ATOM     54  C   UNL A   1      39.054  33.175  33.477  1.00  0.00     0.031 A 
ATOM     55  C   UNL A   1      41.515  28.575  29.512  1.00  0.00     0.049 A 
ATOM     56  C   UNL A   1      39.801  31.933  33.906  1.00  0.00     0.074 A 
ATOM     57  C   UNL A   1      42.412  29.630  29.530  1.00  0.00     0.029 A 
ATOM     58  N   UNL A   1      41.192  28.292  30.828  1.00  0.00    -0.354 N 
ATOM     59  N   UNL A   1      40.090  30.946  33.100  1.00  0.00    -0.248 NA
ATOM     60  C   UNL A   1      40.357  31.760  35.243  1.00  0.00     0.031 C 
ATOM     61  C   UNL A   1      42.580  30.025  30.880  1.00  0.00     0.029 A 
ATOM     62  C   UNL A   1      41.784  29.210  31.668  1.00  0.00     0.049 A 
ATOM     63  H   UNL A   1      40.621  27.543  31.121  1.00  0.00     0.167 HD
ATOM     64  C   UNL A   1      40.969  30.106  33.735  1.00  0.00     0.074 A 
ATOM     65  C   UNL A   1      41.058  30.624  35.089  1.00  0.00     0.031 C 
ATOM     66  C   UNL A   1      41.632  29.093  33.105  1.00  0.00     0.031 A 
BRANCH  53  67
ATOM     67  C   UNL A   1      41.309  27.375  27.223  1.00  0.00    -0.014 A 
ATOM     68  C   UNL A   1      41.193  25.973  27.098  1.00  0.00     0.009 A 
ATOM     69  C   UNL A   1      42.007  28.025  26.193  1.00  0.00     0.009 A 
ATOM     70  C   UNL A   1      41.791  25.252  26.059  1.00  0.00     0.001 A 
ATOM     71  C   UNL A   1      42.620  27.306  25.150  1.00  0.00     0.001 A 
ATOM     72  C   UNL A   1      42.520  25.920  25.088  1.00  0.00     0.000 A 
ENDBRANCH  53  67
BRANCH  54  73
ATOM     73  C   UNL A   1      37.619  33.465  33.809  1.00  0.00    -0.014 A 
ATOM     74  C   UNL A   1      37.157  34.794  33.687  1.00  0.00     0.009 A 
ATOM     75  C   UNL A   1      36.658  32.446  33.906  1.00  0.00     0.009 A 
ATOM     76  C   UNL A   1      35.794  35.081  33.538  1.00  0.00     0.001 A 
ATOM     77  C   UNL A   1      35.290  32.741  33.782  1.00  0.00     0.001 A 
ATOM     78  C   UNL A   1      34.863  34.050  33.559  1.00  0.00     0.000 A 
ENDBRANCH  54  73
BRANCH  66  79
ATOM     79  C   UNL A   1      42.322  27.935  33.775  1.00  0.00    -0.014 A 
ATOM     80  C   UNL A   1      41.692  27.071  34.673  1.00  0.00     0.009 A 
ATOM     81  C   UNL A   1      43.628  27.577  33.358  1.00  0.00     0.009 A 
ATOM     82  C   UNL A   1      42.348  25.939  35.171  1.00  0.00     0.001 A 
ATOM     83  C   UNL A   1      44.261  26.419  33.800  1.00  0.00     0.001 A 
ATOM     84  C   UNL A   1      43.624  25.607  34.724  1.00  0.00     0.000 A 
ENDBRANCH  66  79
ENDBRANCH  40  41
ENDBRANCH  33  35
ENDBRANCH  32  33
ENDBRANCH  31  32
ENDBRANCH   1  31
TORSDOF 13
ENDMDL
MODEL 2
REMARK VINA RESULT:     -13.0      2.286      4.149
REMARK SMILES Cc1cccc(N2C(=O)/C(=C/c3ccc(C(=O)OCCOC(=O)c4ccc(-c5c6nc(c(-c7ccccc7)c7ccc([nH]7)c(-c7ccccc7)c7nc(c(-c8ccccc8)c8ccc5[nH]8)C=C7)C=C6)cc4)cc3)c3ccccc3C2=O)c1
REMARK SMILES IDX 19 1 18 2 16 3 17 4 15 5 12 6 13 7 73 8 14 9 72 10 11 11
REMARK SMILES IDX 7 12 8 13 80 14 9 15 10 16 79 17 81 18 74 19 78 20 75 21
REMARK SMILES IDX 77 22 76 23 6 24 1 25 2 26 3 27 82 28 4 29 5 30 20 31 21 32
REMARK SMILES IDX 22 33 23 34 24 35 25 36 71 37 26 38 70 39 27 40 28 41 29 42
REMARK SMILES IDX 64 43 30 44 69 45 63 46 65 47 31 48 68 49 62 50 61 51 32 53
REMARK SMILES IDX 54 54 39 55 53 56 40 57 43 58 52 59 66 60 41 61 42 62 51 64
REMARK SMILES IDX 67 65 44 66 33 67 34 68 38 69 35 70 37 71 36 72 55 73 56 74
REMARK SMILES IDX 60 75 57 76 59 77 58 78 45 79 46 80 50 81 47 82 49 83 48 84
REMARK H PARENT 65 52 43 63
REMARK Flexibility Score: inf
ROOT
ATOM      1  C   UNL A   1      32.356  29.669  25.790  1.00  0.00     0.275 C 
ENDROOT
BRANCH   1   2
ATOM      2  O   UNL A   1      31.704  28.407  25.622  1.00  0.00    -0.458 OA
BRANCH   2   3
ATOM      3  C   UNL A   1      31.059  28.326  24.427  1.00  0.00     0.338 C 
ATOM      4  O   UNL A   1      30.705  29.286  23.758  1.00  0.00    -0.246 OA
BRANCH   3   5
ATOM      5  C   UNL A   1      30.779  26.929  24.008  1.00  0.00     0.060 A 
ATOM      6  C   UNL A   1      30.739  24.195  23.498  1.00  0.00    -0.025 A 
ATOM      7  C   UNL A   1      30.935  25.091  22.443  1.00  0.00     0.009 A 
ATOM      8  C   UNL A   1      30.339  24.668  24.751  1.00  0.00     0.009 A 
ATOM      9  C   UNL A   1      30.963  26.464  22.700  1.00  0.00     0.016 A 
ATOM     10  C   UNL A   1      30.389  26.034  25.012  1.00  0.00     0.016 A 
BRANCH   6  11
ATOM     11  C   UNL A   1      31.195  22.808  23.359  1.00  0.00     0.022 C 
ATOM     12  N   UNL A   1      33.357  20.342  24.770  1.00  0.00    -0.242 N 
ATOM     13  C   UNL A   1      32.632  20.893  23.690  1.00  0.00     0.265 C 
ATOM     14  C   UNL A   1      33.758  21.150  25.859  1.00  0.00     0.265 C 
ATOM     15  O   UNL A   1      32.108  20.294  22.752  1.00  0.00    -0.268 OA
ATOM     16  C   UNL A   1      32.410  22.371  23.773  1.00  0.00     0.049 C 
ATOM     17  C   UNL A   1      34.008  22.585  25.580  1.00  0.00     0.048 A 
ATOM     18  O   UNL A   1      33.938  20.805  27.025  1.00  0.00    -0.268 OA
ATOM     19  C   UNL A   1      33.430  23.171  24.462  1.00  0.00    -0.000 A 
ATOM     20  C   UNL A   1      34.822  23.342  26.436  1.00  0.00     0.014 A 
ATOM     21  C   UNL A   1      33.792  24.482  24.121  1.00  0.00     0.010 A 
ATOM     22  C   UNL A   1      35.094  24.678  26.144  1.00  0.00     0.001 A 
ATOM     23  C   UNL A   1      34.597  25.242  24.973  1.00  0.00     0.001 A 
BRANCH  12  24
ATOM     24  C   UNL A   1      33.582  18.896  24.810  1.00  0.00     0.053 A 
ATOM     25  C   UNL A   1      31.795  15.745  26.090  1.00  0.00     0.044 C 
ATOM     26  C   UNL A   1      32.826  16.627  25.447  1.00  0.00    -0.049 A 
ATOM     27  C   UNL A   1      33.976  16.071  24.894  1.00  0.00     0.003 A 
ATOM     28  C   UNL A   1      32.635  18.019  25.378  1.00  0.00     0.030 A 
ATOM     29  C   UNL A   1      34.917  16.897  24.298  1.00  0.00     0.002 A 
ATOM     30  C   UNL A   1      34.722  18.285  24.260  1.00  0.00     0.027 A 
ENDBRANCH  12  24
ENDBRANCH   6  11
ENDBRANCH   3   5
ENDBRANCH   2   3
ENDBRANCH   1   2
BRANCH   1  31
ATOM     31  C   UNL A   1      33.170  29.785  27.085  1.00  0.00     0.275 C 
BRANCH  31  32
ATOM     32  O   UNL A   1      34.490  30.402  27.074  1.00  0.00    -0.458 OA
BRANCH  32  33
ATOM     33  C   UNL A   1      35.254  30.850  28.097  1.00  0.00     0.338 C 
ATOM     34  O   UNL A   1      34.899  31.780  28.816  1.00  0.00    -0.246 OA
BRANCH  33  35
ATOM     35  C   UNL A   1      36.526  30.169  28.357  1.00  0.00     0.060 A 
ATOM     36  C   UNL A   1      36.670  29.396  29.524  1.00  0.00     0.016 A 
ATOM     37  C   UNL A   1      37.527  30.217  27.396  1.00  0.00     0.016 A 
ATOM     38  C   UNL A   1      37.784  28.580  29.679  1.00  0.00     0.010 A 
ATOM     39  C   UNL A   1      38.548  29.311  27.476  1.00  0.00     0.010 A 
ATOM     40  C   UNL A   1      38.704  28.538  28.636  1.00  0.00    -0.014 A 
BRANCH  40  41
ATOM     41  C   UNL A   1      40.040  27.989  28.760  1.00  0.00     0.031 A 
ATOM     42  C   UNL A   1      40.370  26.637  28.274  1.00  0.00     0.074 A 
ATOM     43  C   UNL A   1      40.919  28.923  29.195  1.00  0.00     0.049 A 
ATOM     44  N   UNL A   1      41.306  25.898  28.760  1.00  0.00    -0.248 NA
ATOM     45  C   UNL A   1      39.634  25.965  27.202  1.00  0.00     0.031 C 
ATOM     46  C   UNL A   1      42.366  28.943  29.165  1.00  0.00     0.029 A 
ATOM     47  N   UNL A   1      40.604  30.110  29.882  1.00  0.00    -0.354 N 
ATOM     48  C   UNL A   1      41.544  24.905  27.826  1.00  0.00     0.074 A 
ATOM     49  C   UNL A   1      40.366  24.860  27.001  1.00  0.00     0.031 C 
ATOM     50  C   UNL A   1      42.794  29.846  30.072  1.00  0.00     0.029 A 
ATOM     51  C   UNL A   1      41.620  30.302  30.811  1.00  0.00     0.049 A 
ATOM     52  H   UNL A   1      39.823  30.690  29.734  1.00  0.00     0.167 HD
ATOM     53  C   UNL A   1      42.814  24.429  27.675  1.00  0.00     0.031 A 
ATOM     54  C   UNL A   1      41.394  30.123  32.148  1.00  0.00     0.031 A 
ATOM     55  C   UNL A   1      43.711  25.140  28.577  1.00  0.00     0.049 A 
ATOM     56  C   UNL A   1      42.258  28.989  32.652  1.00  0.00     0.074 A 
ATOM     57  C   UNL A   1      44.537  26.229  28.355  1.00  0.00     0.029 A 
ATOM     58  N   UNL A   1      43.544  25.027  29.948  1.00  0.00    -0.354 N 
ATOM     59  N   UNL A   1      42.522  27.914  31.956  1.00  0.00    -0.248 NA
ATOM     60  C   UNL A   1      42.960  29.030  33.929  1.00  0.00     0.031 C 
ATOM     61  C   UNL A   1      44.820  26.815  29.613  1.00  0.00     0.029 A 
ATOM     62  C   UNL A   1      44.163  26.080  30.586  1.00  0.00     0.049 A 
ATOM     63  H   UNL A   1      43.055  24.300  30.399  1.00  0.00     0.167 HD
ATOM     64  C   UNL A   1      43.513  27.214  32.595  1.00  0.00     0.074 A 
ATOM     65  C   UNL A   1      43.711  27.918  33.850  1.00  0.00     0.031 C 
ATOM     66  C   UNL A   1      44.169  26.156  32.035  1.00  0.00     0.031 A 
BRANCH  53  67
ATOM     67  C   UNL A   1      43.342  23.627  26.505  1.00  0.00    -0.014 A 
ATOM     68  C   UNL A   1      43.423  22.222  26.632  1.00  0.00     0.009 A 
ATOM     69  C   UNL A   1      43.775  24.156  25.279  1.00  0.00     0.009 A 
ATOM     70  C   UNL A   1      43.966  21.401  25.638  1.00  0.00     0.001 A 
ATOM     71  C   UNL A   1      44.330  23.337  24.278  1.00  0.00     0.001 A 
ATOM     72  C   UNL A   1      44.434  21.962  24.462  1.00  0.00     0.000 A 
ENDBRANCH  53  67
BRANCH  54  73
ATOM     73  C   UNL A   1      39.986  30.386  32.597  1.00  0.00    -0.014 A 
ATOM     74  C   UNL A   1      39.391  31.620  32.250  1.00  0.00     0.009 A 
ATOM     75  C   UNL A   1      39.143  29.357  33.044  1.00  0.00     0.009 A 
ATOM     76  C   UNL A   1      37.999  31.775  32.224  1.00  0.00     0.001 A 
ATOM     77  C   UNL A   1      37.748  29.526  33.042  1.00  0.00     0.001 A 
ATOM     78  C   UNL A   1      37.177  30.718  32.596  1.00  0.00     0.000 A 
ENDBRANCH  54  73
BRANCH  66  79
ATOM     79  C   UNL A   1      44.996  25.136  32.770  1.00  0.00    -0.014 A 
ATOM     80  C   UNL A   1      46.299  25.369  33.216  1.00  0.00     0.009 A 
ATOM     81  C   UNL A   1      44.384  23.931  33.196  1.00  0.00     0.009 A 
ATOM     82  C   UNL A   1      46.975  24.427  34.000  1.00  0.00     0.001 A 
ATOM     83  C   UNL A   1      45.029  23.021  34.030  1.00  0.00     0.001 A 
ATOM     84  C   UNL A   1      46.336  23.263  34.418  1.00  0.00     0.000 A 
ENDBRANCH  66  79
ENDBRANCH  40  41
ENDBRANCH  33  35
ENDBRANCH  32  33
ENDBRANCH  31  32
ENDBRANCH   1  31
TORSDOF 13
ENDMDL
MODEL 3
REMARK VINA RESULT:     -13.0      3.793      9.920
REMARK SMILES Cc1cccc(N2C(=O)/C(=C/c3ccc(C(=O)OCCOC(=O)c4ccc(-c5c6nc(c(-c7ccccc7)c7ccc([nH]7)c(-c7ccccc7)c7nc(c(-c8ccccc8)c8ccc5[nH]8)C=C7)C=C6)cc4)cc3)c3ccccc3C2=O)c1
REMARK SMILES IDX 19 1 18 2 16 3 17 4 15 5 12 6 13 7 73 8 14 9 72 10 11 11
REMARK SMILES IDX 7 12 8 13 80 14 9 15 10 16 79 17 81 18 74 19 78 20 75 21
REMARK SMILES IDX 77 22 76 23 6 24 1 25 2 26 3 27 82 28 4 29 5 30 20 31 21 32
REMARK SMILES IDX 22 33 23 34 24 35 25 36 71 37 26 38 70 39 27 40 28 41 29 42
REMARK SMILES IDX 64 43 30 44 69 45 63 46 65 47 31 48 68 49 62 50 61 51 32 53
REMARK SMILES IDX 54 54 39 55 53 56 40 57 43 58 52 59 66 60 41 61 42 62 51 64
REMARK SMILES IDX 67 65 44 66 33 67 34 68 38 69 35 70 37 71 36 72 55 73 56 74
REMARK SMILES IDX 60 75 57 76 59 77 58 78 45 79 46 80 50 81 47 82 49 83 48 84
REMARK H PARENT 65 52 43 63
REMARK Flexibility Score: inf
ROOT
ATOM      1  C   UNL A   1      38.866  21.081  25.427  1.00  0.00     0.275 C 
ENDROOT
BRANCH   1   2
ATOM      2  O   UNL A   1      37.623  21.372  26.073  1.00  0.00    -0.458 OA
BRANCH   2   3
ATOM      3  C   UNL A   1      36.564  21.174  25.243  1.00  0.00     0.338 C 
ATOM      4  O   UNL A   1      36.060  20.086  25.001  1.00  0.00    -0.246 OA
BRANCH   3   5
ATOM      5  C   UNL A   1      36.078  22.424  24.607  1.00  0.00     0.060 A 
ATOM      6  C   UNL A   1      34.656  24.597  23.608  1.00  0.00    -0.025 A 
ATOM      7  C   UNL A   1      35.219  23.674  22.722  1.00  0.00     0.009 A 
ATOM      8  C   UNL A   1      34.996  24.560  24.964  1.00  0.00     0.009 A 
ATOM      9  C   UNL A   1      35.926  22.578  23.223  1.00  0.00     0.016 A 
ATOM     10  C   UNL A   1      35.681  23.457  25.465  1.00  0.00     0.016 A 
BRANCH   6  11
ATOM     11  C   UNL A   1      33.532  25.428  23.165  1.00  0.00     0.022 C 
ATOM     12  N   UNL A   1      30.184  26.385  23.955  1.00  0.00    -0.242 N 
ATOM     13  C   UNL A   1      31.242  26.191  23.039  1.00  0.00     0.265 C 
ATOM     14  C   UNL A   1      30.147  25.674  25.178  1.00  0.00     0.265 C 
ATOM     15  O   UNL A   1      31.474  26.828  22.013  1.00  0.00    -0.268 OA
ATOM     16  C   UNL A   1      32.234  25.145  23.440  1.00  0.00     0.049 C 
ATOM     17  C   UNL A   1      30.782  24.334  25.200  1.00  0.00     0.048 A 
ATOM     18  O   UNL A   1      29.637  26.028  26.238  1.00  0.00    -0.268 OA
ATOM     19  C   UNL A   1      31.746  24.023  24.250  1.00  0.00    -0.000 A 
ATOM     20  C   UNL A   1      30.413  23.391  26.171  1.00  0.00     0.014 A 
ATOM     21  C   UNL A   1      32.229  22.708  24.182  1.00  0.00     0.010 A 
ATOM     22  C   UNL A   1      30.977  22.115  26.159  1.00  0.00     0.001 A 
ATOM     23  C   UNL A   1      31.869  21.767  25.149  1.00  0.00     0.001 A 
BRANCH  12  24
ATOM     24  C   UNL A   1      29.189  27.423  23.683  1.00  0.00     0.053 A 
ATOM     25  C   UNL A   1      29.105  31.108  22.601  1.00  0.00     0.044 C 
ATOM     26  C   UNL A   1      28.640  29.742  23.012  1.00  0.00    -0.049 A 
ATOM     27  C   UNL A   1      27.281  29.470  23.126  1.00  0.00     0.003 A 
ATOM     28  C   UNL A   1      29.569  28.716  23.267  1.00  0.00     0.030 A 
ATOM     29  C   UNL A   1      26.865  28.201  23.501  1.00  0.00     0.002 A 
ATOM     30  C   UNL A   1      27.805  27.198  23.776  1.00  0.00     0.027 A 
ENDBRANCH  12  24
ENDBRANCH   6  11
ENDBRANCH   3   5
ENDBRANCH   2   3
ENDBRANCH   1   2
BRANCH   1  31
ATOM     31  C   UNL A   1      39.654  19.935  26.078  1.00  0.00     0.275 C 
BRANCH  31  32
ATOM     32  O   UNL A   1      41.003  19.619  25.626  1.00  0.00    -0.458 OA
BRANCH  32  33
ATOM     33  C   UNL A   1      42.194  20.137  26.005  1.00  0.00     0.338 C 
ATOM     34  O   UNL A   1      43.249  19.526  25.850  1.00  0.00    -0.246 OA
BRANCH  33  35
ATOM     35  C   UNL A   1      42.208  21.482  26.588  1.00  0.00     0.060 A 
ATOM     36  C   UNL A   1      42.186  21.629  27.987  1.00  0.00     0.016 A 
ATOM     37  C   UNL A   1      42.346  22.580  25.750  1.00  0.00     0.016 A 
ATOM     38  C   UNL A   1      42.411  22.877  28.554  1.00  0.00     0.010 A 
ATOM     39  C   UNL A   1      42.711  23.776  26.302  1.00  0.00     0.010 A 
ATOM     40  C   UNL A   1      42.688  23.937  27.695  1.00  0.00    -0.014 A 
BRANCH  40  41
ATOM     41  C   UNL A   1      42.646  25.330  28.093  1.00  0.00     0.031 A 
ATOM     42  C   UNL A   1      41.417  26.134  27.972  1.00  0.00     0.074 A 
ATOM     43  C   UNL A   1      43.788  25.697  28.722  1.00  0.00     0.049 A 
ATOM     44  N   UNL A   1      41.396  27.411  27.809  1.00  0.00    -0.248 NA
ATOM     45  C   UNL A   1      40.073  25.555  27.981  1.00  0.00     0.031 C 
ATOM     46  C   UNL A   1      44.078  26.845  29.556  1.00  0.00     0.029 A 
ATOM     47  N   UNL A   1      45.035  25.050  28.637  1.00  0.00    -0.354 N 
ATOM     48  C   UNL A   1      40.110  27.822  28.114  1.00  0.00     0.074 A 
ATOM     49  C   UNL A   1      39.292  26.644  28.004  1.00  0.00     0.031 C 
ATOM     50  C   UNL A   1      45.417  27.008  29.597  1.00  0.00     0.029 A 
ATOM     51  C   UNL A   1      45.995  26.055  28.654  1.00  0.00     0.049 A 
ATOM     52  H   UNL A   1      45.195  24.081  28.577  1.00  0.00     0.167 HD
ATOM     53  C   UNL A   1      39.927  29.042  28.699  1.00  0.00     0.031 A 
ATOM     54  C   UNL A   1      46.704  26.370  27.528  1.00  0.00     0.031 A 
ATOM     55  C   UNL A   1      41.219  29.679  28.913  1.00  0.00     0.049 A 
ATOM     56  C   UNL A   1      46.396  27.796  27.128  1.00  0.00     0.074 A 
ATOM     57  C   UNL A   1      42.027  29.725  30.037  1.00  0.00     0.029 A 
ATOM     58  N   UNL A   1      42.011  30.019  27.828  1.00  0.00    -0.354 N 
ATOM     59  N   UNL A   1      45.214  28.342  27.245  1.00  0.00    -0.248 NA
ATOM     60  C   UNL A   1      47.414  28.730  26.662  1.00  0.00     0.031 C 
ATOM     61  C   UNL A   1      43.340  30.039  29.608  1.00  0.00     0.029 A 
ATOM     62  C   UNL A   1      43.319  30.178  28.230  1.00  0.00     0.049 A 
ATOM     63  H   UNL A   1      41.685  30.131  26.905  1.00  0.00     0.167 HD
ATOM     64  C   UNL A   1      45.333  29.691  27.028  1.00  0.00     0.074 A 
ATOM     65  C   UNL A   1      46.712  29.875  26.609  1.00  0.00     0.031 C 
ATOM     66  C   UNL A   1      44.334  30.585  27.277  1.00  0.00     0.031 A 
BRANCH  53  67
ATOM     67  C   UNL A   1      38.682  29.518  29.415  1.00  0.00    -0.014 A 
ATOM     68  C   UNL A   1      38.190  30.811  29.127  1.00  0.00     0.009 A 
ATOM     69  C   UNL A   1      37.953  28.786  30.365  1.00  0.00     0.009 A 
ATOM     70  C   UNL A   1      37.093  31.370  29.790  1.00  0.00     0.001 A 
ATOM     71  C   UNL A   1      36.854  29.344  31.043  1.00  0.00     0.001 A 
ATOM     72  C   UNL A   1      36.430  30.639  30.762  1.00  0.00     0.000 A 
ENDBRANCH  53  67
BRANCH  54  73
ATOM     73  C   UNL A   1      46.905  25.239  26.563  1.00  0.00    -0.014 A 
ATOM     74  C   UNL A   1      46.412  23.962  26.915  1.00  0.00     0.009 A 
ATOM     75  C   UNL A   1      47.249  25.459  25.220  1.00  0.00     0.009 A 
ATOM     76  C   UNL A   1      46.152  22.988  25.942  1.00  0.00     0.001 A 
ATOM     77  C   UNL A   1      47.010  24.469  24.251  1.00  0.00     0.001 A 
ATOM     78  C   UNL A   1      46.427  23.253  24.606  1.00  0.00     0.000 A 
ENDBRANCH  54  73
BRANCH  66  79
ATOM     79  C   UNL A   1      44.253  31.994  26.751  1.00  0.00    -0.014 A 
ATOM     80  C   UNL A   1      44.153  32.311  25.394  1.00  0.00     0.009 A 
ATOM     81  C   UNL A   1      44.095  33.063  27.668  1.00  0.00     0.009 A 
ATOM     82  C   UNL A   1      43.958  33.630  24.972  1.00  0.00     0.001 A 
ATOM     83  C   UNL A   1      43.837  34.367  27.254  1.00  0.00     0.001 A 
ATOM     84  C   UNL A   1      43.787  34.654  25.900  1.00  0.00     0.000 A 
ENDBRANCH  66  79
ENDBRANCH  40  41
ENDBRANCH  33  35
ENDBRANCH  32  33
ENDBRANCH  31  32
ENDBRANCH   1  31
TORSDOF 13
ENDMDL
