MODEL 1
REMARK VINA RESULT:     -11.0      0.000      0.000
REMARK SMILES CC[C@H](C(=O)OCCOC(=O)c1ccc(-c2c3nc(c(-c4ccccc4)c4ccc([nH]4)c(-c4ccccc4)c4nc(c(-c5ccccc5)c5ccc2[nH]5)C=C4)C=C3)cc1)N1C(=O)c2ccc([N+](=O)[O-])cc2C1=O
REMARK SMILES IDX 7 1 6 2 4 3 5 4 3 5 2 6 1 7 60 8 61 9 72 10 62 11 63 12
REMARK SMILES IDX 71 13 73 14 64 15 70 16 65 17 66 18 67 19 68 20 69 21 8 22
REMARK SMILES IDX 9 23 10 24 11 25 12 26 13 27 59 28 14 29 58 30 15 31 16 32
REMARK SMILES IDX 17 33 52 34 18 35 57 36 51 37 53 38 19 39 56 40 50 41 49 42
REMARK SMILES IDX 20 44 42 45 27 46 41 47 28 48 31 49 40 50 54 51 29 52 30 53
REMARK SMILES IDX 39 55 55 56 32 57 21 58 22 59 26 60 23 61 25 62 24 63 43 64
REMARK SMILES IDX 44 65 48 66 45 67 47 68 46 69 33 70 34 71 38 72 35 73 37 74
REMARK SMILES IDX 36 75
REMARK H PARENT 53 43 31 54
REMARK Flexibility Score: inf
ROOT
ATOM      1  C   UNL A   1      31.629  28.289  26.813  1.00  0.00     0.274 C 
ENDROOT
BRANCH   1   2
ATOM      2  O   UNL A   1      32.636  27.437  26.221  1.00  0.00    -0.461 OA
BRANCH   2   3
ATOM      3  C   UNL A   1      32.178  26.309  25.603  1.00  0.00     0.329 C 
ATOM      4  O   UNL A   1      31.751  25.327  26.198  1.00  0.00    -0.250 OA
BRANCH   3   5
ATOM      5  C   UNL A   1      32.330  26.401  24.072  1.00  0.00     0.203 C 
BRANCH   5   6
ATOM      6  C   UNL A   1      32.484  25.031  23.397  1.00  0.00     0.034 C 
ATOM      7  C   UNL A   1      32.592  25.042  21.876  1.00  0.00     0.007 C 
ENDBRANCH   5   6
BRANCH   5   8
ATOM      8  N   UNL A   1      31.252  27.222  23.484  1.00  0.00    -0.260 N 
ATOM      9  C   UNL A   1      29.908  26.983  23.613  1.00  0.00     0.262 C 
ATOM     10  C   UNL A   1      31.476  28.380  22.785  1.00  0.00     0.262 C 
ATOM     11  O   UNL A   1      29.316  26.037  24.083  1.00  0.00    -0.269 OA
ATOM     12  C   UNL A   1      29.216  28.144  23.053  1.00  0.00     0.053 A 
ATOM     13  C   UNL A   1      30.171  28.986  22.513  1.00  0.00     0.060 A 
ATOM     14  O   UNL A   1      32.533  28.898  22.478  1.00  0.00    -0.269 OA
ATOM     15  C   UNL A   1      27.881  28.500  23.132  1.00  0.00     0.022 A 
ATOM     16  C   UNL A   1      29.846  30.232  22.000  1.00  0.00     0.100 A 
ATOM     17  C   UNL A   1      27.519  29.761  22.643  1.00  0.00     0.086 A 
ATOM     18  C   UNL A   1      28.495  30.619  22.076  1.00  0.00     0.270 A 
BRANCH  18  19
ATOM     19  N   UNL A   1      28.094  31.955  21.605  1.00  0.00     0.062 N 
ATOM     20  O   UNL A   1      27.965  32.119  20.386  1.00  0.00    -0.258 OA
ATOM     21  O   UNL A   1      27.931  32.835  22.462  1.00  0.00    -0.258 OA
ENDBRANCH  18  19
ENDBRANCH   5   8
ENDBRANCH   3   5
ENDBRANCH   2   3
ENDBRANCH   1   2
BRANCH   1  22
ATOM     22  C   UNL A   1      31.552  29.684  26.180  1.00  0.00     0.275 C 
BRANCH  22  23
ATOM     23  O   UNL A   1      32.854  30.281  26.061  1.00  0.00    -0.458 OA
BRANCH  23  24
ATOM     24  C   UNL A   1      33.067  31.373  26.832  1.00  0.00     0.338 C 
ATOM     25  O   UNL A   1      32.287  32.277  27.071  1.00  0.00    -0.246 OA
BRANCH  24  26
ATOM     26  C   UNL A   1      34.325  31.183  27.570  1.00  0.00     0.060 A 
ATOM     27  C   UNL A   1      34.589  29.884  27.982  1.00  0.00     0.016 A 
ATOM     28  C   UNL A   1      35.211  32.213  27.884  1.00  0.00     0.016 A 
ATOM     29  C   UNL A   1      35.761  29.592  28.655  1.00  0.00     0.010 A 
ATOM     30  C   UNL A   1      36.380  31.919  28.610  1.00  0.00     0.010 A 
ATOM     31  C   UNL A   1      36.664  30.598  28.988  1.00  0.00    -0.014 A 
BRANCH  31  32
ATOM     32  C   UNL A   1      37.830  30.201  29.810  1.00  0.00     0.031 A 
ATOM     33  C   UNL A   1      38.966  29.458  29.171  1.00  0.00     0.074 A 
ATOM     34  C   UNL A   1      37.990  30.698  31.052  1.00  0.00     0.049 A 
ATOM     35  N   UNL A   1      40.054  28.986  29.719  1.00  0.00    -0.248 NA
ATOM     36  C   UNL A   1      38.885  29.266  27.715  1.00  0.00     0.031 C 
ATOM     37  C   UNL A   1      37.081  31.638  31.710  1.00  0.00     0.029 A 
ATOM     38  N   UNL A   1      39.002  30.519  31.962  1.00  0.00    -0.354 N 
ATOM     39  C   UNL A   1      40.777  28.411  28.682  1.00  0.00     0.074 A 
ATOM     40  C   UNL A   1      40.017  28.622  27.469  1.00  0.00     0.031 C 
ATOM     41  C   UNL A   1      37.589  31.966  32.911  1.00  0.00     0.029 A 
ATOM     42  C   UNL A   1      38.808  31.196  33.142  1.00  0.00     0.049 A 
ATOM     43  H   UNL A   1      39.792  29.959  31.786  1.00  0.00     0.167 HD
ATOM     44  C   UNL A   1      41.950  27.737  28.744  1.00  0.00     0.031 A 
ATOM     45  C   UNL A   1      39.508  31.157  34.293  1.00  0.00     0.031 A 
ATOM     46  C   UNL A   1      42.687  27.504  29.957  1.00  0.00     0.049 A 
ATOM     47  C   UNL A   1      40.692  30.231  34.396  1.00  0.00     0.074 A 
ATOM     48  C   UNL A   1      43.811  26.720  30.151  1.00  0.00     0.029 A 
ATOM     49  N   UNL A   1      42.375  28.067  31.184  1.00  0.00    -0.354 N 
ATOM     50  N   UNL A   1      41.288  29.544  33.452  1.00  0.00    -0.248 NA
ATOM     51  C   UNL A   1      41.275  30.043  35.734  1.00  0.00     0.031 C 
ATOM     52  C   UNL A   1      44.138  26.756  31.511  1.00  0.00     0.029 A 
ATOM     53  C   UNL A   1      43.254  27.610  32.150  1.00  0.00     0.049 A 
ATOM     54  H   UNL A   1      41.637  28.698  31.344  1.00  0.00     0.167 HD
ATOM     55  C   UNL A   1      42.319  28.853  34.078  1.00  0.00     0.074 A 
ATOM     56  C   UNL A   1      42.283  29.221  35.477  1.00  0.00     0.031 C 
ATOM     57  C   UNL A   1      43.207  27.981  33.541  1.00  0.00     0.031 A 
BRANCH  44  58
ATOM     58  C   UNL A   1      42.433  27.096  27.476  1.00  0.00    -0.014 A 
ATOM     59  C   UNL A   1      43.327  27.744  26.612  1.00  0.00     0.009 A 
ATOM     60  C   UNL A   1      41.970  25.812  27.145  1.00  0.00     0.009 A 
ATOM     61  C   UNL A   1      43.724  27.127  25.422  1.00  0.00     0.001 A 
ATOM     62  C   UNL A   1      42.387  25.189  25.969  1.00  0.00     0.001 A 
ATOM     63  C   UNL A   1      43.257  25.850  25.104  1.00  0.00     0.000 A 
ENDBRANCH  44  58
BRANCH  45  64
ATOM     64  C   UNL A   1      39.064  31.937  35.480  1.00  0.00    -0.014 A 
ATOM     65  C   UNL A   1      38.226  31.361  36.446  1.00  0.00     0.009 A 
ATOM     66  C   UNL A   1      39.433  33.285  35.625  1.00  0.00     0.009 A 
ATOM     67  C   UNL A   1      37.756  32.121  37.521  1.00  0.00     0.001 A 
ATOM     68  C   UNL A   1      38.988  34.034  36.716  1.00  0.00     0.001 A 
ATOM     69  C   UNL A   1      38.141  33.454  37.658  1.00  0.00     0.000 A 
ENDBRANCH  45  64
BRANCH  57  70
ATOM     70  C   UNL A   1      44.223  27.370  34.464  1.00  0.00    -0.014 A 
ATOM     71  C   UNL A   1      43.976  26.145  35.102  1.00  0.00     0.009 A 
ATOM     72  C   UNL A   1      45.467  27.994  34.647  1.00  0.00     0.009 A 
ATOM     73  C   UNL A   1      44.946  25.569  35.926  1.00  0.00     0.001 A 
ATOM     74  C   UNL A   1      46.445  27.403  35.448  1.00  0.00     0.001 A 
ATOM     75  C   UNL A   1      46.181  26.195  36.092  1.00  0.00     0.000 A 
ENDBRANCH  57  70
ENDBRANCH  31  32
ENDBRANCH  24  26
ENDBRANCH  23  24
ENDBRANCH  22  23
ENDBRANCH   1  22
TORSDOF 14
ENDMDL
MODEL 2
REMARK VINA RESULT:     -10.9      6.527     10.545
REMARK SMILES CC[C@H](C(=O)OCCOC(=O)c1ccc(-c2c3nc(c(-c4ccccc4)c4ccc([nH]4)c(-c4ccccc4)c4nc(c(-c5ccccc5)c5ccc2[nH]5)C=C4)C=C3)cc1)N1C(=O)c2ccc([N+](=O)[O-])cc2C1=O
REMARK SMILES IDX 7 1 6 2 4 3 5 4 3 5 2 6 1 7 60 8 61 9 72 10 62 11 63 12
REMARK SMILES IDX 71 13 73 14 64 15 70 16 65 17 66 18 67 19 68 20 69 21 8 22
REMARK SMILES IDX 9 23 10 24 11 25 12 26 13 27 59 28 14 29 58 30 15 31 16 32
REMARK SMILES IDX 17 33 52 34 18 35 57 36 51 37 53 38 19 39 56 40 50 41 49 42
REMARK SMILES IDX 20 44 42 45 27 46 41 47 28 48 31 49 40 50 54 51 29 52 30 53
REMARK SMILES IDX 39 55 55 56 32 57 21 58 22 59 26 60 23 61 25 62 24 63 43 64
REMARK SMILES IDX 44 65 48 66 45 67 47 68 46 69 33 70 34 71 38 72 35 73 37 74
REMARK SMILES IDX 36 75
REMARK H PARENT 53 43 31 54
REMARK Flexibility Score: inf
ROOT
ATOM      1  C   UNL A   1      36.215  22.136  24.129  1.00  0.00     0.274 C 
ENDROOT
BRANCH   1   2
ATOM      2  O   UNL A   1      35.318  23.248  24.353  1.00  0.00    -0.461 OA
BRANCH   2   3
ATOM      3  C   UNL A   1      34.168  23.247  23.617  1.00  0.00     0.329 C 
ATOM      4  O   UNL A   1      34.097  23.632  22.456  1.00  0.00    -0.250 OA
BRANCH   3   5
ATOM      5  C   UNL A   1      32.964  22.767  24.450  1.00  0.00     0.203 C 
BRANCH   5   6
ATOM      6  C   UNL A   1      31.668  23.526  24.133  1.00  0.00     0.034 C 
ATOM      7  C   UNL A   1      30.935  24.128  25.327  1.00  0.00     0.007 C 
ENDBRANCH   5   6
BRANCH   5   8
ATOM      8  N   UNL A   1      32.815  21.299  24.364  1.00  0.00    -0.260 N 
ATOM      9  C   UNL A   1      32.425  20.602  23.249  1.00  0.00     0.262 C 
ATOM     10  C   UNL A   1      33.122  20.444  25.391  1.00  0.00     0.262 C 
ATOM     11  O   UNL A   1      32.004  20.991  22.183  1.00  0.00    -0.269 OA
ATOM     12  C   UNL A   1      32.612  19.183  23.551  1.00  0.00     0.053 A 
ATOM     13  C   UNL A   1      33.005  19.080  24.873  1.00  0.00     0.060 A 
ATOM     14  O   UNL A   1      33.496  20.704  26.519  1.00  0.00    -0.269 OA
ATOM     15  C   UNL A   1      32.577  18.088  22.706  1.00  0.00     0.022 A 
ATOM     16  C   UNL A   1      33.370  17.868  25.438  1.00  0.00     0.100 A 
ATOM     17  C   UNL A   1      32.960  16.850  23.237  1.00  0.00     0.086 A 
ATOM     18  C   UNL A   1      33.349  16.741  24.595  1.00  0.00     0.270 A 
BRANCH  18  19
ATOM     19  N   UNL A   1      33.784  15.434  25.118  1.00  0.00     0.062 N 
ATOM     20  O   UNL A   1      32.912  14.586  25.339  1.00  0.00    -0.258 OA
ATOM     21  O   UNL A   1      34.996  15.279  25.321  1.00  0.00    -0.258 OA
ENDBRANCH  18  19
ENDBRANCH   5   8
ENDBRANCH   3   5
ENDBRANCH   2   3
ENDBRANCH   1   2
BRANCH   1  22
ATOM     22  C   UNL A   1      36.746  21.503  25.420  1.00  0.00     0.275 C 
BRANCH  22  23
ATOM     23  O   UNL A   1      38.047  22.012  25.760  1.00  0.00    -0.458 OA
BRANCH  23  24
ATOM     24  C   UNL A   1      39.035  21.089  25.825  1.00  0.00     0.338 C 
ATOM     25  O   UNL A   1      39.029  19.962  25.364  1.00  0.00    -0.246 OA
BRANCH  24  26
ATOM     26  C   UNL A   1      40.252  21.745  26.326  1.00  0.00     0.060 A 
ATOM     27  C   UNL A   1      40.100  23.066  26.728  1.00  0.00     0.016 A 
ATOM     28  C   UNL A   1      41.503  21.133  26.386  1.00  0.00     0.016 A 
ATOM     29  C   UNL A   1      41.175  23.764  27.245  1.00  0.00     0.010 A 
ATOM     30  C   UNL A   1      42.605  21.862  26.870  1.00  0.00     0.010 A 
ATOM     31  C   UNL A   1      42.439  23.182  27.314  1.00  0.00    -0.014 A 
BRANCH  31  32
ATOM     32  C   UNL A   1      43.547  24.050  27.773  1.00  0.00     0.031 A 
ATOM     33  C   UNL A   1      43.906  24.082  29.230  1.00  0.00     0.074 A 
ATOM     34  C   UNL A   1      44.380  24.624  26.882  1.00  0.00     0.049 A 
ATOM     35  N   UNL A   1      44.811  24.800  29.841  1.00  0.00    -0.248 NA
ATOM     36  C   UNL A   1      43.183  23.144  30.102  1.00  0.00     0.031 C 
ATOM     37  C   UNL A   1      44.297  24.471  25.429  1.00  0.00     0.029 A 
ATOM     38  N   UNL A   1      45.489  25.409  27.074  1.00  0.00    -0.354 N 
ATOM     39  C   UNL A   1      44.746  24.427  31.177  1.00  0.00     0.074 A 
ATOM     40  C   UNL A   1      43.736  23.396  31.280  1.00  0.00     0.031 C 
ATOM     41  C   UNL A   1      45.325  25.128  24.864  1.00  0.00     0.029 A 
ATOM     42  C   UNL A   1      46.085  25.816  25.905  1.00  0.00     0.049 A 
ATOM     43  H   UNL A   1      45.827  25.657  27.965  1.00  0.00     0.167 HD
ATOM     44  C   UNL A   1      45.442  24.925  32.227  1.00  0.00     0.031 A 
ATOM     45  C   UNL A   1      47.094  26.684  25.698  1.00  0.00     0.031 A 
ATOM     46  C   UNL A   1      46.425  25.970  32.124  1.00  0.00     0.049 A 
ATOM     47  C   UNL A   1      47.709  27.383  26.883  1.00  0.00     0.074 A 
ATOM     48  C   UNL A   1      47.087  26.640  33.138  1.00  0.00     0.029 A 
ATOM     49  N   UNL A   1      46.894  26.489  30.928  1.00  0.00    -0.354 N 
ATOM     50  N   UNL A   1      47.531  27.155  28.160  1.00  0.00    -0.248 NA
ATOM     51  C   UNL A   1      48.634  28.490  26.594  1.00  0.00     0.031 C 
ATOM     52  C   UNL A   1      47.907  27.612  32.555  1.00  0.00     0.029 A 
ATOM     53  C   UNL A   1      47.800  27.505  31.178  1.00  0.00     0.049 A 
ATOM     54  H   UNL A   1      46.623  26.181  30.034  1.00  0.00     0.167 HD
ATOM     55  C   UNL A   1      48.327  28.079  28.827  1.00  0.00     0.074 A 
ATOM     56  C   UNL A   1      49.007  28.856  27.813  1.00  0.00     0.031 C 
ATOM     57  C   UNL A   1      48.470  28.274  30.160  1.00  0.00     0.031 A 
BRANCH  44  58
ATOM     58  C   UNL A   1      45.063  24.428  33.591  1.00  0.00    -0.014 A 
ATOM     59  C   UNL A   1      44.040  25.027  34.340  1.00  0.00     0.009 A 
ATOM     60  C   UNL A   1      45.757  23.334  34.133  1.00  0.00     0.009 A 
ATOM     61  C   UNL A   1      43.743  24.556  35.623  1.00  0.00     0.001 A 
ATOM     62  C   UNL A   1      45.441  22.851  35.402  1.00  0.00     0.001 A 
ATOM     63  C   UNL A   1      44.441  23.468  36.150  1.00  0.00     0.000 A 
ENDBRANCH  44  58
BRANCH  45  64
ATOM     64  C   UNL A   1      47.533  27.027  24.317  1.00  0.00    -0.014 A 
ATOM     65  C   UNL A   1      48.632  26.381  23.732  1.00  0.00     0.009 A 
ATOM     66  C   UNL A   1      46.886  28.044  23.596  1.00  0.00     0.009 A 
ATOM     67  C   UNL A   1      49.082  26.758  22.463  1.00  0.00     0.001 A 
ATOM     68  C   UNL A   1      47.317  28.396  22.316  1.00  0.00     0.001 A 
ATOM     69  C   UNL A   1      48.422  27.760  21.755  1.00  0.00     0.000 A 
ENDBRANCH  45  64
BRANCH  57  70
ATOM     70  C   UNL A   1      49.405  29.362  30.606  1.00  0.00    -0.014 A 
ATOM     71  C   UNL A   1      50.771  29.109  30.797  1.00  0.00     0.009 A 
ATOM     72  C   UNL A   1      48.925  30.671  30.775  1.00  0.00     0.009 A 
ATOM     73  C   UNL A   1      51.636  30.139  31.172  1.00  0.00     0.001 A 
ATOM     74  C   UNL A   1      49.796  31.705  31.123  1.00  0.00     0.001 A 
ATOM     75  C   UNL A   1      51.149  31.437  31.328  1.00  0.00     0.000 A 
ENDBRANCH  57  70
ENDBRANCH  31  32
ENDBRANCH  24  26
ENDBRANCH  23  24
ENDBRANCH  22  23
ENDBRANCH   1  22
TORSDOF 14
ENDMDL
MODEL 3
REMARK VINA RESULT:     -10.9      5.079      8.206
REMARK SMILES CC[C@H](C(=O)OCCOC(=O)c1ccc(-c2c3nc(c(-c4ccccc4)c4ccc([nH]4)c(-c4ccccc4)c4nc(c(-c5ccccc5)c5ccc2[nH]5)C=C4)C=C3)cc1)N1C(=O)c2ccc([N+](=O)[O-])cc2C1=O
REMARK SMILES IDX 7 1 6 2 4 3 5 4 3 5 2 6 1 7 60 8 61 9 72 10 62 11 63 12
REMARK SMILES IDX 71 13 73 14 64 15 70 16 65 17 66 18 67 19 68 20 69 21 8 22
REMARK SMILES IDX 9 23 10 24 11 25 12 26 13 27 59 28 14 29 58 30 15 31 16 32
REMARK SMILES IDX 17 33 52 34 18 35 57 36 51 37 53 38 19 39 56 40 50 41 49 42
REMARK SMILES IDX 20 44 42 45 27 46 41 47 28 48 31 49 40 50 54 51 29 52 30 53
REMARK SMILES IDX 39 55 55 56 32 57 21 58 22 59 26 60 23 61 25 62 24 63 43 64
REMARK SMILES IDX 44 65 48 66 45 67 47 68 46 69 33 70 34 71 38 72 35 73 37 74
REMARK SMILES IDX 36 75
REMARK H PARENT 53 43 31 54
REMARK Flexibility Score: inf
ROOT
ATOM      1  C   UNL A   1      36.532  22.616  23.630  1.00  0.00     0.274 C 
ENDROOT
BRANCH   1   2
ATOM      2  O   UNL A   1      35.461  23.415  24.181  1.00  0.00    -0.461 OA
BRANCH   2   3
ATOM      3  C   UNL A   1      34.268  23.355  23.518  1.00  0.00     0.329 C 
ATOM      4  O   UNL A   1      34.120  23.672  22.344  1.00  0.00    -0.250 OA
BRANCH   3   5
ATOM      5  C   UNL A   1      33.126  22.906  24.450  1.00  0.00     0.203 C 
BRANCH   5   6
ATOM      6  C   UNL A   1      31.826  23.694  24.235  1.00  0.00     0.034 C 
ATOM      7  C   UNL A   1      30.762  23.540  25.316  1.00  0.00     0.007 C 
ENDBRANCH   5   6
BRANCH   5   8
ATOM      8  N   UNL A   1      32.937  21.442  24.384  1.00  0.00    -0.260 N 
ATOM      9  C   UNL A   1      32.449  20.749  23.306  1.00  0.00     0.262 C 
ATOM     10  C   UNL A   1      33.300  20.585  25.391  1.00  0.00     0.262 C 
ATOM     11  O   UNL A   1      31.958  21.143  22.272  1.00  0.00    -0.269 OA
ATOM     12  C   UNL A   1      32.625  19.328  23.602  1.00  0.00     0.053 A 
ATOM     13  C   UNL A   1      33.113  19.221  24.892  1.00  0.00     0.060 A 
ATOM     14  O   UNL A   1      33.763  20.841  26.486  1.00  0.00    -0.269 OA
ATOM     15  C   UNL A   1      32.501  18.230  22.769  1.00  0.00     0.022 A 
ATOM     16  C   UNL A   1      33.492  18.004  25.436  1.00  0.00     0.100 A 
ATOM     17  C   UNL A   1      32.894  16.985  23.278  1.00  0.00     0.086 A 
ATOM     18  C   UNL A   1      33.381  16.874  24.604  1.00  0.00     0.270 A 
BRANCH  18  19
ATOM     19  N   UNL A   1      33.824  15.560  25.101  1.00  0.00     0.062 N 
ATOM     20  O   UNL A   1      32.956  14.704  25.312  1.00  0.00    -0.258 OA
ATOM     21  O   UNL A   1      35.038  15.405  25.295  1.00  0.00    -0.258 OA
ENDBRANCH  18  19
ENDBRANCH   5   8
ENDBRANCH   3   5
ENDBRANCH   2   3
ENDBRANCH   1   2
BRANCH   1  22
ATOM     22  C   UNL A   1      36.935  21.430  24.514  1.00  0.00     0.275 C 
BRANCH  22  23
ATOM     23  O   UNL A   1      37.432  21.868  25.790  1.00  0.00    -0.458 OA
BRANCH  23  24
ATOM     24  C   UNL A   1      38.684  21.460  26.098  1.00  0.00     0.338 C 
ATOM     25  O   UNL A   1      39.203  20.390  25.834  1.00  0.00    -0.246 OA
BRANCH  24  26
ATOM     26  C   UNL A   1      39.443  22.619  26.593  1.00  0.00     0.060 A 
ATOM     27  C   UNL A   1      39.043  23.853  26.098  1.00  0.00     0.016 A 
ATOM     28  C   UNL A   1      40.518  22.531  27.476  1.00  0.00     0.016 A 
ATOM     29  C   UNL A   1      39.669  25.010  26.524  1.00  0.00     0.010 A 
ATOM     30  C   UNL A   1      41.183  23.707  27.871  1.00  0.00     0.010 A 
ATOM     31  C   UNL A   1      40.749  24.956  27.402  1.00  0.00    -0.014 A 
BRANCH  31  32
ATOM     32  C   UNL A   1      41.425  26.238  27.705  1.00  0.00     0.031 A 
ATOM     33  C   UNL A   1      42.744  26.549  27.059  1.00  0.00     0.074 A 
ATOM     34  C   UNL A   1      40.770  27.218  28.357  1.00  0.00     0.049 A 
ATOM     35  N   UNL A   1      43.515  27.591  27.219  1.00  0.00    -0.248 NA
ATOM     36  C   UNL A   1      43.230  25.580  26.065  1.00  0.00     0.031 C 
ATOM     37  C   UNL A   1      39.386  27.142  28.826  1.00  0.00     0.029 A 
ATOM     38  N   UNL A   1      41.168  28.488  28.693  1.00  0.00    -0.354 N 
ATOM     39  C   UNL A   1      44.597  27.391  26.371  1.00  0.00     0.074 A 
ATOM     40  C   UNL A   1      44.364  26.143  25.675  1.00  0.00     0.031 C 
ATOM     41  C   UNL A   1      39.047  28.322  29.373  1.00  0.00     0.029 A 
ATOM     42  C   UNL A   1      40.211  29.205  29.371  1.00  0.00     0.049 A 
ATOM     43  H   UNL A   1      42.055  28.852  28.470  1.00  0.00     0.167 HD
ATOM     44  C   UNL A   1      45.700  28.161  26.215  1.00  0.00     0.031 A 
ATOM     45  C   UNL A   1      40.285  30.412  29.965  1.00  0.00     0.031 A 
ATOM     46  C   UNL A   1      45.940  29.386  26.930  1.00  0.00     0.049 A 
ATOM     47  C   UNL A   1      41.597  31.152  29.952  1.00  0.00     0.074 A 
ATOM     48  C   UNL A   1      47.081  30.169  26.948  1.00  0.00     0.029 A 
ATOM     49  N   UNL A   1      45.013  30.010  27.748  1.00  0.00    -0.354 N 
ATOM     50  N   UNL A   1      42.691  30.882  29.284  1.00  0.00    -0.248 NA
ATOM     51  C   UNL A   1      41.696  32.343  30.810  1.00  0.00     0.031 C 
ATOM     52  C   UNL A   1      46.866  31.232  27.832  1.00  0.00     0.029 A 
ATOM     53  C   UNL A   1      45.571  31.142  28.315  1.00  0.00     0.049 A 
ATOM     54  H   UNL A   1      44.094  29.695  27.903  1.00  0.00     0.167 HD
ATOM     55  C   UNL A   1      43.604  31.871  29.631  1.00  0.00     0.074 A 
ATOM     56  C   UNL A   1      42.928  32.762  30.551  1.00  0.00     0.031 C 
ATOM     57  C   UNL A   1      44.890  32.020  29.232  1.00  0.00     0.031 A 
BRANCH  44  58
ATOM     58  C   UNL A   1      46.783  27.624  25.326  1.00  0.00    -0.014 A 
ATOM     59  C   UNL A   1      47.750  26.724  25.796  1.00  0.00     0.009 A 
ATOM     60  C   UNL A   1      46.830  28.040  23.986  1.00  0.00     0.009 A 
ATOM     61  C   UNL A   1      48.764  26.277  24.945  1.00  0.00     0.001 A 
ATOM     62  C   UNL A   1      47.829  27.572  23.132  1.00  0.00     0.001 A 
ATOM     63  C   UNL A   1      48.801  26.698  23.614  1.00  0.00     0.000 A 
ENDBRANCH  44  58
BRANCH  45  64
ATOM     64  C   UNL A   1      39.121  30.966  30.710  1.00  0.00    -0.014 A 
ATOM     65  C   UNL A   1      38.229  31.853  30.089  1.00  0.00     0.009 A 
ATOM     66  C   UNL A   1      38.928  30.652  32.065  1.00  0.00     0.009 A 
ATOM     67  C   UNL A   1      37.179  32.425  30.815  1.00  0.00     0.001 A 
ATOM     68  C   UNL A   1      37.860  31.199  32.779  1.00  0.00     0.001 A 
ATOM     69  C   UNL A   1      36.993  32.094  32.157  1.00  0.00     0.000 A 
ENDBRANCH  45  64
BRANCH  57  70
ATOM     70  C   UNL A   1      45.654  33.193  29.777  1.00  0.00    -0.014 A 
ATOM     71  C   UNL A   1      45.643  34.432  29.120  1.00  0.00     0.009 A 
ATOM     72  C   UNL A   1      46.340  33.076  30.997  1.00  0.00     0.009 A 
ATOM     73  C   UNL A   1      46.324  35.526  29.660  1.00  0.00     0.001 A 
ATOM     74  C   UNL A   1      46.997  34.177  31.548  1.00  0.00     0.001 A 
ATOM     75  C   UNL A   1      46.994  35.399  30.876  1.00  0.00     0.000 A 
ENDBRANCH  57  70
ENDBRANCH  31  32
ENDBRANCH  24  26
ENDBRANCH  23  24
ENDBRANCH  22  23
ENDBRANCH   1  22
TORSDOF 14
ENDMDL
