MODEL 1
REMARK VINA RESULT:      -9.9      0.000      0.000
REMARK SMILES CCC(CC)(NC(=O)c1c(C)noc1C)C(=O)OCCOC(=O)c1ccc(-c2c3nc(c(-c4ccccc4)c4ccc([nH]4)c(-c4ccccc4)c4nc(c(-c5ccccc5)c5ccc2[nH]5)C=C4)C=C3)cc1
REMARK SMILES IDX 19 1 18 2 16 3 17 4 3 5 2 6 1 7 4 8 5 9 6 10 7 11 8 13 9 14
REMARK SMILES IDX 10 15 14 16 11 17 12 18 13 19 15 20 20 21 21 22 22 23 23 24
REMARK SMILES IDX 24 25 25 26 71 27 26 28 70 29 27 30 28 31 29 32 64 33 30 34
REMARK SMILES IDX 69 35 63 36 65 37 31 38 68 39 62 40 61 41 32 43 54 44 39 45
REMARK SMILES IDX 53 46 40 47 43 48 52 49 66 50 41 51 42 52 51 54 67 55 44 56
REMARK SMILES IDX 33 57 34 58 38 59 35 60 37 61 36 62 55 63 56 64 60 65 57 66
REMARK SMILES IDX 59 67 58 68 45 69 46 70 50 71 47 72 49 73 48 74
REMARK H PARENT 6 12 65 42 43 53
REMARK Flexibility Score: inf
ROOT
ATOM      1  C   UNL A   1      32.357  27.980  24.654  1.00  0.00     0.274 C 
ENDROOT
BRANCH   1   2
ATOM      2  O   UNL A   1      32.955  27.115  25.649  1.00  0.00    -0.460 OA
BRANCH   2   3
ATOM      3  C   UNL A   1      32.160  26.104  26.078  1.00  0.00     0.331 C 
ATOM      4  O   UNL A   1      31.232  26.272  26.864  1.00  0.00    -0.249 OA
BRANCH   3   5
ATOM      5  C   UNL A   1      32.515  24.705  25.479  1.00  0.00     0.137 C 
BRANCH   5   6
ATOM      6  C   UNL A   1      31.180  24.085  24.926  1.00  0.00     0.037 C 
ATOM      7  C   UNL A   1      30.636  24.603  23.602  1.00  0.00     0.007 C 
ENDBRANCH   5   6
BRANCH   5   8
ATOM      8  C   UNL A   1      33.091  23.845  26.642  1.00  0.00     0.037 C 
ATOM      9  C   UNL A   1      32.148  22.814  27.253  1.00  0.00     0.007 C 
ENDBRANCH   5   8
BRANCH   5  10
ATOM     10  N   UNL A   1      33.435  24.627  24.298  1.00  0.00    -0.336 N 
ATOM     11  C   UNL A   1      34.127  23.688  23.588  1.00  0.00     0.257 C 
ATOM     12  H   UNL A   1      33.585  25.522  23.921  1.00  0.00     0.165 HD
ATOM     13  O   UNL A   1      34.395  23.996  22.424  1.00  0.00    -0.269 OA
BRANCH  11  14
ATOM     14  C   UNL A   1      34.708  22.508  24.172  1.00  0.00     0.105 A 
ATOM     15  C   UNL A   1      34.035  21.257  24.339  1.00  0.00     0.093 A 
ATOM     16  C   UNL A   1      35.897  22.318  24.842  1.00  0.00     0.146 A 
ATOM     17  C   UNL A   1      32.662  20.879  23.915  1.00  0.00     0.071 C 
ATOM     18  N   UNL A   1      34.796  20.370  24.988  1.00  0.00    -0.084 NA
ATOM     19  O   UNL A   1      35.960  21.037  25.296  1.00  0.00    -0.361 OA
ATOM     20  C   UNL A   1      37.053  23.151  25.208  1.00  0.00     0.092 C 
ENDBRANCH  11  14
ENDBRANCH   5  10
ENDBRANCH   3   5
ENDBRANCH   2   3
ENDBRANCH   1   2
BRANCH   1  21
ATOM     21  C   UNL A   1      31.940  29.302  25.288  1.00  0.00     0.275 C 
BRANCH  21  22
ATOM     22  O   UNL A   1      33.137  30.062  25.516  1.00  0.00    -0.458 OA
BRANCH  22  23
ATOM     23  C   UNL A   1      33.087  30.919  26.554  1.00  0.00     0.338 C 
ATOM     24  O   UNL A   1      32.180  31.664  26.894  1.00  0.00    -0.246 OA
BRANCH  23  25
ATOM     25  C   UNL A   1      34.280  30.698  27.365  1.00  0.00     0.060 A 
ATOM     26  C   UNL A   1      35.086  31.801  27.647  1.00  0.00     0.016 A 
ATOM     27  C   UNL A   1      34.641  29.419  27.773  1.00  0.00     0.016 A 
ATOM     28  C   UNL A   1      36.296  31.628  28.302  1.00  0.00     0.010 A 
ATOM     29  C   UNL A   1      35.820  29.258  28.502  1.00  0.00     0.010 A 
ATOM     30  C   UNL A   1      36.661  30.357  28.761  1.00  0.00    -0.014 A 
BRANCH  30  31
ATOM     31  C   UNL A   1      37.917  30.163  29.523  1.00  0.00     0.031 A 
ATOM     32  C   UNL A   1      39.035  29.361  28.926  1.00  0.00     0.074 A 
ATOM     33  C   UNL A   1      38.036  30.679  30.761  1.00  0.00     0.049 A 
ATOM     34  N   UNL A   1      40.092  28.860  29.509  1.00  0.00    -0.248 NA
ATOM     35  C   UNL A   1      38.945  29.074  27.485  1.00  0.00     0.031 C 
ATOM     36  C   UNL A   1      37.046  31.531  31.428  1.00  0.00     0.029 A 
ATOM     37  N   UNL A   1      39.040  30.552  31.686  1.00  0.00    -0.354 N 
ATOM     38  C   UNL A   1      40.762  28.148  28.523  1.00  0.00     0.074 A 
ATOM     39  C   UNL A   1      40.002  28.294  27.300  1.00  0.00     0.031 C 
ATOM     40  C   UNL A   1      37.501  31.863  32.645  1.00  0.00     0.029 A 
ATOM     41  C   UNL A   1      38.765  31.175  32.878  1.00  0.00     0.049 A 
ATOM     42  H   UNL A   1      39.876  30.063  31.511  1.00  0.00     0.167 HD
ATOM     43  C   UNL A   1      41.899  27.422  28.638  1.00  0.00     0.031 A 
ATOM     44  C   UNL A   1      39.424  31.148  34.050  1.00  0.00     0.031 A 
ATOM     45  C   UNL A   1      42.654  27.301  29.857  1.00  0.00     0.049 A 
ATOM     46  C   UNL A   1      40.658  30.303  34.166  1.00  0.00     0.074 A 
ATOM     47  C   UNL A   1      43.808  26.574  30.092  1.00  0.00     0.029 A 
ATOM     48  N   UNL A   1      42.331  27.939  31.046  1.00  0.00    -0.354 N 
ATOM     49  N   UNL A   1      41.242  29.568  33.250  1.00  0.00    -0.248 NA
ATOM     50  C   UNL A   1      41.310  30.266  35.482  1.00  0.00     0.031 C 
ATOM     51  C   UNL A   1      44.168  26.750  31.433  1.00  0.00     0.029 A 
ATOM     52  C   UNL A   1      43.260  27.617  32.021  1.00  0.00     0.049 A 
ATOM     53  H   UNL A   1      41.556  28.531  31.177  1.00  0.00     0.167 HD
ATOM     54  C   UNL A   1      42.333  28.984  33.876  1.00  0.00     0.074 A 
ATOM     55  C   UNL A   1      42.342  29.468  35.242  1.00  0.00     0.031 C 
ATOM     56  C   UNL A   1      43.242  28.114  33.371  1.00  0.00     0.031 A 
BRANCH  43  57
ATOM     57  C   UNL A   1      42.358  26.660  27.430  1.00  0.00    -0.014 A 
ATOM     58  C   UNL A   1      43.252  27.219  26.504  1.00  0.00     0.009 A 
ATOM     59  C   UNL A   1      41.901  25.348  27.227  1.00  0.00     0.009 A 
ATOM     60  C   UNL A   1      43.656  26.487  25.384  1.00  0.00     0.001 A 
ATOM     61  C   UNL A   1      42.323  24.612  26.119  1.00  0.00     0.001 A 
ATOM     62  C   UNL A   1      43.195  25.185  25.195  1.00  0.00     0.000 A 
ENDBRANCH  43  57
BRANCH  44  63
ATOM     63  C   UNL A   1      38.888  31.890  35.219  1.00  0.00    -0.014 A 
ATOM     64  C   UNL A   1      38.152  31.223  36.210  1.00  0.00     0.009 A 
ATOM     65  C   UNL A   1      39.128  33.266  35.361  1.00  0.00     0.009 A 
ATOM     66  C   UNL A   1      37.657  31.924  37.313  1.00  0.00     0.001 A 
ATOM     67  C   UNL A   1      38.656  33.957  36.479  1.00  0.00     0.001 A 
ATOM     68  C   UNL A   1      37.916  33.287  37.450  1.00  0.00     0.000 A 
ENDBRANCH  44  63
BRANCH  56  69
ATOM     69  C   UNL A   1      44.329  27.664  34.298  1.00  0.00    -0.014 A 
ATOM     70  C   UNL A   1      44.177  26.511  35.083  1.00  0.00     0.009 A 
ATOM     71  C   UNL A   1      45.528  28.390  34.368  1.00  0.00     0.009 A 
ATOM     72  C   UNL A   1      45.199  26.110  35.946  1.00  0.00     0.001 A 
ATOM     73  C   UNL A   1      46.554  27.975  35.217  1.00  0.00     0.001 A 
ATOM     74  C   UNL A   1      46.385  26.840  36.010  1.00  0.00     0.000 A 
ENDBRANCH  56  69
ENDBRANCH  30  31
ENDBRANCH  23  25
ENDBRANCH  22  23
ENDBRANCH  21  22
ENDBRANCH   1  21
TORSDOF 15
ENDMDL
MODEL 2
REMARK VINA RESULT:      -9.9      3.454      8.602
REMARK SMILES CCC(CC)(NC(=O)c1c(C)noc1C)C(=O)OCCOC(=O)c1ccc(-c2c3nc(c(-c4ccccc4)c4ccc([nH]4)c(-c4ccccc4)c4nc(c(-c5ccccc5)c5ccc2[nH]5)C=C4)C=C3)cc1
REMARK SMILES IDX 19 1 18 2 16 3 17 4 3 5 2 6 1 7 4 8 5 9 6 10 7 11 8 13 9 14
REMARK SMILES IDX 10 15 14 16 11 17 12 18 13 19 15 20 20 21 21 22 22 23 23 24
REMARK SMILES IDX 24 25 25 26 71 27 26 28 70 29 27 30 28 31 29 32 64 33 30 34
REMARK SMILES IDX 69 35 63 36 65 37 31 38 68 39 62 40 61 41 32 43 54 44 39 45
REMARK SMILES IDX 53 46 40 47 43 48 52 49 66 50 41 51 42 52 51 54 67 55 44 56
REMARK SMILES IDX 33 57 34 58 38 59 35 60 37 61 36 62 55 63 56 64 60 65 57 66
REMARK SMILES IDX 59 67 58 68 45 69 46 70 50 71 47 72 49 73 48 74
REMARK H PARENT 6 12 65 42 43 53
REMARK Flexibility Score: inf
ROOT
ATOM      1  C   UNL A   1      34.436  20.832  25.789  1.00  0.00     0.274 C 
ENDROOT
BRANCH   1   2
ATOM      2  O   UNL A   1      33.395  21.702  25.284  1.00  0.00    -0.460 OA
BRANCH   2   3
ATOM      3  C   UNL A   1      33.059  22.727  26.105  1.00  0.00     0.331 C 
ATOM      4  O   UNL A   1      33.237  22.695  27.320  1.00  0.00    -0.249 OA
BRANCH   3   5
ATOM      5  C   UNL A   1      32.439  23.961  25.376  1.00  0.00     0.137 C 
BRANCH   5   6
ATOM      6  C   UNL A   1      31.089  23.486  24.725  1.00  0.00     0.037 C 
ATOM      7  C   UNL A   1      31.047  23.278  23.217  1.00  0.00     0.007 C 
ENDBRANCH   5   6
BRANCH   5   8
ATOM      8  C   UNL A   1      33.458  24.406  24.285  1.00  0.00     0.037 C 
ATOM      9  C   UNL A   1      34.852  24.784  24.775  1.00  0.00     0.007 C 
ENDBRANCH   5   8
BRANCH   5  10
ATOM     10  N   UNL A   1      32.020  25.154  26.182  1.00  0.00    -0.336 N 
ATOM     11  C   UNL A   1      31.256  26.277  26.046  1.00  0.00     0.257 C 
ATOM     12  H   UNL A   1      32.417  25.116  27.081  1.00  0.00     0.165 HD
ATOM     13  O   UNL A   1      30.821  26.752  27.097  1.00  0.00    -0.269 OA
BRANCH  11  14
ATOM     14  C   UNL A   1      31.117  27.009  24.814  1.00  0.00     0.105 A 
ATOM     15  C   UNL A   1      32.046  27.982  24.328  1.00  0.00     0.093 A 
ATOM     16  C   UNL A   1      30.063  27.110  23.932  1.00  0.00     0.146 A 
ATOM     17  C   UNL A   1      33.341  28.405  24.920  1.00  0.00     0.071 C 
ATOM     18  N   UNL A   1      31.612  28.558  23.202  1.00  0.00    -0.084 NA
ATOM     19  O   UNL A   1      30.375  28.006  22.957  1.00  0.00    -0.361 OA
ATOM     20  C   UNL A   1      28.714  26.534  23.821  1.00  0.00     0.092 C 
ENDBRANCH  11  14
ENDBRANCH   5  10
ENDBRANCH   3   5
ENDBRANCH   2   3
ENDBRANCH   1   2
BRANCH   1  21
ATOM     21  C   UNL A   1      35.722  21.034  24.996  1.00  0.00     0.275 C 
BRANCH  21  22
ATOM     22  O   UNL A   1      36.638  21.748  25.842  1.00  0.00    -0.458 OA
BRANCH  22  23
ATOM     23  C   UNL A   1      37.927  21.370  25.744  1.00  0.00     0.338 C 
ATOM     24  O   UNL A   1      38.394  20.336  25.290  1.00  0.00    -0.246 OA
BRANCH  23  25
ATOM     25  C   UNL A   1      38.750  22.512  26.129  1.00  0.00     0.060 A 
ATOM     26  C   UNL A   1      39.921  22.256  26.842  1.00  0.00     0.016 A 
ATOM     27  C   UNL A   1      38.338  23.813  25.864  1.00  0.00     0.016 A 
ATOM     28  C   UNL A   1      40.673  23.308  27.344  1.00  0.00     0.010 A 
ATOM     29  C   UNL A   1      39.137  24.869  26.301  1.00  0.00     0.010 A 
ATOM     30  C   UNL A   1      40.302  24.626  27.053  1.00  0.00    -0.014 A 
BRANCH  30  31
ATOM     31  C   UNL A   1      41.130  25.762  27.522  1.00  0.00     0.031 A 
ATOM     32  C   UNL A   1      40.550  26.764  28.476  1.00  0.00     0.074 A 
ATOM     33  C   UNL A   1      42.388  25.908  27.064  1.00  0.00     0.049 A 
ATOM     34  N   UNL A   1      40.999  27.947  28.803  1.00  0.00    -0.248 NA
ATOM     35  C   UNL A   1      39.291  26.389  29.141  1.00  0.00     0.031 C 
ATOM     36  C   UNL A   1      43.088  24.969  26.183  1.00  0.00     0.029 A 
ATOM     37  N   UNL A   1      43.298  26.913  27.267  1.00  0.00    -0.354 N 
ATOM     38  C   UNL A   1      40.050  28.484  29.662  1.00  0.00     0.074 A 
ATOM     39  C   UNL A   1      39.008  27.492  29.820  1.00  0.00     0.031 C 
ATOM     40  C   UNL A   1      44.322  25.434  25.938  1.00  0.00     0.029 A 
ATOM     41  C   UNL A   1      44.466  26.741  26.565  1.00  0.00     0.049 A 
ATOM     42  H   UNL A   1      43.130  27.682  27.860  1.00  0.00     0.167 HD
ATOM     43  C   UNL A   1      40.045  29.705  30.249  1.00  0.00     0.031 A 
ATOM     44  C   UNL A   1      45.511  27.570  26.395  1.00  0.00     0.031 A 
ATOM     45  C   UNL A   1      41.098  30.673  30.095  1.00  0.00     0.049 A 
ATOM     46  C   UNL A   1      45.464  28.933  27.019  1.00  0.00     0.074 A 
ATOM     47  C   UNL A   1      41.185  31.949  30.626  1.00  0.00     0.029 A 
ATOM     48  N   UNL A   1      42.257  30.462  29.364  1.00  0.00    -0.354 N 
ATOM     49  N   UNL A   1      44.526  29.464  27.766  1.00  0.00    -0.248 NA
ATOM     50  C   UNL A   1      46.607  29.817  26.758  1.00  0.00     0.031 C 
ATOM     51  C   UNL A   1      42.386  32.520  30.191  1.00  0.00     0.029 A 
ATOM     52  C   UNL A   1      43.063  31.586  29.423  1.00  0.00     0.049 A 
ATOM     53  H   UNL A   1      42.473  29.636  28.875  1.00  0.00     0.167 HD
ATOM     54  C   UNL A   1      44.967  30.744  28.068  1.00  0.00     0.074 A 
ATOM     55  C   UNL A   1      46.265  30.900  27.443  1.00  0.00     0.031 C 
ATOM     56  C   UNL A   1      44.349  31.711  28.790  1.00  0.00     0.031 A 
BRANCH  43  57
ATOM     57  C   UNL A   1      38.837  30.077  31.058  1.00  0.00    -0.014 A 
ATOM     58  C   UNL A   1      38.790  29.869  32.445  1.00  0.00     0.009 A 
ATOM     59  C   UNL A   1      37.735  30.667  30.421  1.00  0.00     0.009 A 
ATOM     60  C   UNL A   1      37.649  30.219  33.172  1.00  0.00     0.001 A 
ATOM     61  C   UNL A   1      36.605  31.036  31.152  1.00  0.00     0.001 A 
ATOM     62  C   UNL A   1      36.560  30.805  32.526  1.00  0.00     0.000 A 
ENDBRANCH  43  57
BRANCH  44  63
ATOM     63  C   UNL A   1      46.654  27.154  25.542  1.00  0.00    -0.014 A 
ATOM     64  C   UNL A   1      46.767  27.620  24.224  1.00  0.00     0.009 A 
ATOM     65  C   UNL A   1      47.650  26.304  26.049  1.00  0.00     0.009 A 
ATOM     66  C   UNL A   1      47.848  27.234  23.428  1.00  0.00     0.001 A 
ATOM     67  C   UNL A   1      48.744  25.943  25.262  1.00  0.00     0.001 A 
ATOM     68  C   UNL A   1      48.839  26.402  23.949  1.00  0.00     0.000 A 
ENDBRANCH  44  63
BRANCH  56  69
ATOM     69  C   UNL A   1      45.091  33.002  28.959  1.00  0.00    -0.014 A 
ATOM     70  C   UNL A   1      45.977  33.191  30.030  1.00  0.00     0.009 A 
ATOM     71  C   UNL A   1      44.917  34.031  28.022  1.00  0.00     0.009 A 
ATOM     72  C   UNL A   1      46.655  34.402  30.174  1.00  0.00     0.001 A 
ATOM     73  C   UNL A   1      45.611  35.233  28.158  1.00  0.00     0.001 A 
ATOM     74  C   UNL A   1      46.473  35.420  29.238  1.00  0.00     0.000 A 
ENDBRANCH  56  69
ENDBRANCH  30  31
ENDBRANCH  23  25
ENDBRANCH  22  23
ENDBRANCH  21  22
ENDBRANCH   1  21
TORSDOF 15
ENDMDL
MODEL 3
REMARK VINA RESULT:      -9.9      4.986      9.352
REMARK SMILES CCC(CC)(NC(=O)c1c(C)noc1C)C(=O)OCCOC(=O)c1ccc(-c2c3nc(c(-c4ccccc4)c4ccc([nH]4)c(-c4ccccc4)c4nc(c(-c5ccccc5)c5ccc2[nH]5)C=C4)C=C3)cc1
REMARK SMILES IDX 19 1 18 2 16 3 17 4 3 5 2 6 1 7 4 8 5 9 6 10 7 11 8 13 9 14
REMARK SMILES IDX 10 15 14 16 11 17 12 18 13 19 15 20 20 21 21 22 22 23 23 24
REMARK SMILES IDX 24 25 25 26 71 27 26 28 70 29 27 30 28 31 29 32 64 33 30 34
REMARK SMILES IDX 69 35 63 36 65 37 31 38 68 39 62 40 61 41 32 43 54 44 39 45
REMARK SMILES IDX 53 46 40 47 43 48 52 49 66 50 41 51 42 52 51 54 67 55 44 56
REMARK SMILES IDX 33 57 34 58 38 59 35 60 37 61 36 62 55 63 56 64 60 65 57 66
REMARK SMILES IDX 59 67 58 68 45 69 46 70 50 71 47 72 49 73 48 74
REMARK H PARENT 6 12 65 42 43 53
REMARK Flexibility Score: inf
ROOT
ATOM      1  C   UNL A   1      36.199  21.187  25.474  1.00  0.00     0.274 C 
ENDROOT
BRANCH   1   2
ATOM      2  O   UNL A   1      35.778  22.279  26.325  1.00  0.00    -0.460 OA
BRANCH   2   3
ATOM      3  C   UNL A   1      34.501  22.198  26.769  1.00  0.00     0.331 C 
ATOM      4  O   UNL A   1      34.148  21.414  27.647  1.00  0.00    -0.249 OA
BRANCH   3   5
ATOM      5  C   UNL A   1      33.513  23.194  26.081  1.00  0.00     0.137 C 
BRANCH   5   6
ATOM      6  C   UNL A   1      33.054  22.534  24.730  1.00  0.00     0.037 C 
ATOM      7  C   UNL A   1      32.411  21.155  24.782  1.00  0.00     0.007 C 
ENDBRANCH   5   6
BRANCH   5   8
ATOM      8  C   UNL A   1      34.303  24.510  25.819  1.00  0.00     0.037 C 
ATOM      9  C   UNL A   1      34.422  24.950  24.364  1.00  0.00     0.007 C 
ENDBRANCH   5   8
BRANCH   5  10
ATOM     10  N   UNL A   1      32.214  23.519  26.754  1.00  0.00    -0.336 N 
ATOM     11  C   UNL A   1      31.042  24.164  26.482  1.00  0.00     0.257 C 
ATOM     12  H   UNL A   1      32.202  23.158  27.669  1.00  0.00     0.165 HD
ATOM     13  O   UNL A   1      30.072  23.806  27.153  1.00  0.00    -0.269 OA
BRANCH  11  14
ATOM     14  C   UNL A   1      30.943  25.326  25.638  1.00  0.00     0.105 A 
ATOM     15  C   UNL A   1      30.678  25.300  24.233  1.00  0.00     0.093 A 
ATOM     16  C   UNL A   1      31.233  26.651  25.881  1.00  0.00     0.146 A 
ATOM     17  C   UNL A   1      30.395  24.129  23.363  1.00  0.00     0.071 C 
ATOM     18  N   UNL A   1      30.729  26.526  23.699  1.00  0.00    -0.084 NA
ATOM     19  O   UNL A   1      31.072  27.365  24.733  1.00  0.00    -0.361 OA
ATOM     20  C   UNL A   1      31.701  27.441  27.029  1.00  0.00     0.092 C 
ENDBRANCH  11  14
ENDBRANCH   5  10
ENDBRANCH   3   5
ENDBRANCH   2   3
ENDBRANCH   1   2
BRANCH   1  21
ATOM     21  C   UNL A   1      37.424  21.592  24.662  1.00  0.00     0.275 C 
BRANCH  21  22
ATOM     22  O   UNL A   1      38.442  21.986  25.595  1.00  0.00    -0.458 OA
BRANCH  22  23
ATOM     23  C   UNL A   1      39.345  21.033  25.898  1.00  0.00     0.338 C 
ATOM     24  O   UNL A   1      39.299  19.832  25.682  1.00  0.00    -0.246 OA
BRANCH  23  25
ATOM     25  C   UNL A   1      40.537  21.703  26.409  1.00  0.00     0.060 A 
ATOM     26  C   UNL A   1      40.400  23.014  26.864  1.00  0.00     0.016 A 
ATOM     27  C   UNL A   1      41.780  21.082  26.367  1.00  0.00     0.016 A 
ATOM     28  C   UNL A   1      41.520  23.741  27.239  1.00  0.00     0.010 A 
ATOM     29  C   UNL A   1      42.895  21.787  26.819  1.00  0.00     0.010 A 
ATOM     30  C   UNL A   1      42.776  23.124  27.247  1.00  0.00    -0.014 A 
BRANCH  30  31
ATOM     31  C   UNL A   1      43.975  23.862  27.709  1.00  0.00     0.031 A 
ATOM     32  C   UNL A   1      44.269  23.963  29.176  1.00  0.00     0.074 A 
ATOM     33  C   UNL A   1      44.776  24.468  26.812  1.00  0.00     0.049 A 
ATOM     34  N   UNL A   1      45.097  24.760  29.798  1.00  0.00    -0.248 NA
ATOM     35  C   UNL A   1      43.522  23.055  30.063  1.00  0.00     0.031 C 
ATOM     36  C   UNL A   1      44.634  24.392  25.355  1.00  0.00     0.029 A 
ATOM     37  N   UNL A   1      45.865  25.280  26.996  1.00  0.00    -0.354 N 
ATOM     38  C   UNL A   1      44.929  24.495  31.150  1.00  0.00     0.074 A 
ATOM     39  C   UNL A   1      43.932  23.452  31.260  1.00  0.00     0.031 C 
ATOM     40  C   UNL A   1      45.609  25.111  24.780  1.00  0.00     0.029 A 
ATOM     41  C   UNL A   1      46.384  25.770  25.823  1.00  0.00     0.049 A 
ATOM     42  H   UNL A   1      46.239  25.489  27.883  1.00  0.00     0.167 HD
ATOM     43  C   UNL A   1      45.540  25.087  32.204  1.00  0.00     0.031 A 
ATOM     44  C   UNL A   1      47.337  26.695  25.610  1.00  0.00     0.031 A 
ATOM     45  C   UNL A   1      46.543  26.111  32.078  1.00  0.00     0.049 A 
ATOM     46  C   UNL A   1      47.970  27.367  26.792  1.00  0.00     0.074 A 
ATOM     47  C   UNL A   1      47.212  26.794  33.078  1.00  0.00     0.029 A 
ATOM     48  N   UNL A   1      47.030  26.588  30.870  1.00  0.00    -0.354 N 
ATOM     49  N   UNL A   1      47.749  27.167  28.069  1.00  0.00    -0.248 NA
ATOM     50  C   UNL A   1      48.967  28.407  26.503  1.00  0.00     0.031 C 
ATOM     51  C   UNL A   1      48.085  27.706  32.474  1.00  0.00     0.029 A 
ATOM     52  C   UNL A   1      47.987  27.562  31.099  1.00  0.00     0.049 A 
ATOM     53  H   UNL A   1      46.737  26.280  29.983  1.00  0.00     0.167 HD
ATOM     54  C   UNL A   1      48.581  28.053  28.738  1.00  0.00     0.074 A 
ATOM     55  C   UNL A   1      49.327  28.774  27.725  1.00  0.00     0.031 C 
ATOM     56  C   UNL A   1      48.710  28.261  30.071  1.00  0.00     0.031 A 
BRANCH  43  57
ATOM     57  C   UNL A   1      45.097  24.679  33.578  1.00  0.00    -0.014 A 
ATOM     58  C   UNL A   1      44.017  25.306  34.218  1.00  0.00     0.009 A 
ATOM     59  C   UNL A   1      45.761  23.632  34.236  1.00  0.00     0.009 A 
ATOM     60  C   UNL A   1      43.630  24.910  35.501  1.00  0.00     0.001 A 
ATOM     61  C   UNL A   1      45.359  23.224  35.508  1.00  0.00     0.001 A 
ATOM     62  C   UNL A   1      44.299  23.868  36.143  1.00  0.00     0.000 A 
ENDBRANCH  43  57
BRANCH  44  63
ATOM     63  C   UNL A   1      47.695  27.084  24.222  1.00  0.00    -0.014 A 
ATOM     64  C   UNL A   1      46.956  28.064  23.543  1.00  0.00     0.009 A 
ATOM     65  C   UNL A   1      48.791  26.490  23.576  1.00  0.00     0.009 A 
ATOM     66  C   UNL A   1      47.301  28.433  22.241  1.00  0.00     0.001 A 
ATOM     67  C   UNL A   1      49.151  26.881  22.285  1.00  0.00     0.001 A 
ATOM     68  C   UNL A   1      48.402  27.847  21.616  1.00  0.00     0.000 A 
ENDBRANCH  44  63
BRANCH  56  69
ATOM     69  C   UNL A   1      49.715  29.287  30.497  1.00  0.00    -0.014 A 
ATOM     70  C   UNL A   1      49.345  30.628  30.680  1.00  0.00     0.009 A 
ATOM     71  C   UNL A   1      51.043  28.903  30.739  1.00  0.00     0.009 A 
ATOM     72  C   UNL A   1      50.296  31.572  31.071  1.00  0.00     0.001 A 
ATOM     73  C   UNL A   1      51.986  29.844  31.149  1.00  0.00     0.001 A 
ATOM     74  C   UNL A   1      51.614  31.179  31.307  1.00  0.00     0.000 A 
ENDBRANCH  56  69
ENDBRANCH  30  31
ENDBRANCH  23  25
ENDBRANCH  22  23
ENDBRANCH  21  22
ENDBRANCH   1  21
TORSDOF 15
ENDMDL
