MODEL 1
REMARK VINA RESULT:     -11.7      0.000      0.000
REMARK SMILES Cc1ccc(Nc2c(Cl)cccc2Cl)c(CC(=O)OCCOC(=O)c2ccc(-c3c4nc(c(-c5ccccc5)c5ccc([nH]5)c(-c5ccccc5)c5nc(c(-c6ccccc6)c6ccc3[nH]6)C=C5)C=C4)cc2)c1
REMARK SMILES IDX 20 1 19 2 17 3 18 4 16 5 15 6 1 7 2 8 3 9 73 10 4 11 5 12
REMARK SMILES IDX 6 13 7 15 8 16 13 17 9 18 10 19 12 20 14 21 11 22 21 23
REMARK SMILES IDX 22 24 23 25 24 26 25 27 26 28 72 29 27 30 71 31 28 32 29 33
REMARK SMILES IDX 30 34 65 35 31 36 70 37 64 38 66 39 32 40 69 41 63 42 62 43
REMARK SMILES IDX 33 45 55 46 40 47 54 48 41 49 44 50 53 51 67 52 42 53 43 54
REMARK SMILES IDX 52 56 68 57 45 58 34 59 35 60 39 61 36 62 38 63 37 64 56 65
REMARK SMILES IDX 57 66 61 67 58 68 60 69 59 70 46 71 47 72 51 73 48 74 50 75
REMARK SMILES IDX 49 76
REMARK H PARENT 6 14 66 44 44 55
REMARK Flexibility Score: inf
ROOT
ATOM      1  C   UNL A   1      33.609  28.676  26.821  1.00  0.00     0.274 C 
ENDROOT
BRANCH   1   2
ATOM      2  O   UNL A   1      32.246  29.052  26.706  1.00  0.00    -0.462 OA
BRANCH   2   3
ATOM      3  C   UNL A   1      31.893  29.887  25.688  1.00  0.00     0.310 C 
ATOM      4  O   UNL A   1      31.406  30.986  25.805  1.00  0.00    -0.252 OA
BRANCH   3   5
ATOM      5  C   UNL A   1      32.214  29.198  24.375  1.00  0.00     0.160 C 
BRANCH   5   6
ATOM      6  C   UNL A   1      31.004  28.423  23.934  1.00  0.00    -0.013 A 
ATOM      7  C   UNL A   1      27.605  29.538  22.656  1.00  0.00     0.044 C 
ATOM      8  C   UNL A   1      28.714  28.664  23.154  1.00  0.00    -0.051 A 
ATOM      9  C   UNL A   1      28.487  27.328  23.485  1.00  0.00     0.005 A 
ATOM     10  C   UNL A   1      29.980  29.196  23.358  1.00  0.00     0.009 A 
ATOM     11  C   UNL A   1      29.514  26.540  24.016  1.00  0.00     0.026 A 
ATOM     12  C   UNL A   1      30.787  27.064  24.262  1.00  0.00     0.042 A 
BRANCH  12  13
ATOM     13  N   UNL A   1      31.765  26.270  24.896  1.00  0.00    -0.353 N 
ATOM     14  H   UNL A   1      32.120  26.635  25.738  1.00  0.00     0.167 HD
BRANCH  13  15
ATOM     15  C   UNL A   1      32.313  25.021  24.498  1.00  0.00     0.076 A 
ATOM     16  C   UNL A   1      32.005  23.835  25.189  1.00  0.00     0.066 A 
ATOM     17  C   UNL A   1      33.008  24.885  23.279  1.00  0.00     0.066 A 
ATOM     18  Cl  UNL A   1      31.138  23.855  26.688  1.00  0.00    -0.082 Cl
ATOM     19  C   UNL A   1      32.389  22.583  24.690  1.00  0.00     0.023 A 
ATOM     20  C   UNL A   1      33.319  23.631  22.740  1.00  0.00     0.023 A 
ATOM     21  Cl  UNL A   1      33.671  26.244  22.456  1.00  0.00    -0.082 Cl
ATOM     22  C   UNL A   1      33.018  22.477  23.452  1.00  0.00     0.003 A 
ENDBRANCH  13  15
ENDBRANCH  12  13
ENDBRANCH   5   6
ENDBRANCH   3   5
ENDBRANCH   2   3
ENDBRANCH   1   2
BRANCH   1  23
ATOM     23  C   UNL A   1      34.379  29.790  27.547  1.00  0.00     0.275 C 
BRANCH  23  24
ATOM     24  O   UNL A   1      35.812  29.984  27.216  1.00  0.00    -0.458 OA
BRANCH  24  25
ATOM     25  C   UNL A   1      36.836  30.510  27.949  1.00  0.00     0.338 C 
ATOM     26  O   UNL A   1      36.840  31.666  28.351  1.00  0.00    -0.246 OA
BRANCH  25  27
ATOM     27  C   UNL A   1      37.924  29.598  28.316  1.00  0.00     0.060 A 
ATOM     28  C   UNL A   1      37.842  28.716  29.408  1.00  0.00     0.016 A 
ATOM     29  C   UNL A   1      38.969  29.525  27.426  1.00  0.00     0.016 A 
ATOM     30  C   UNL A   1      38.767  27.679  29.504  1.00  0.00     0.010 A 
ATOM     31  C   UNL A   1      39.634  28.347  27.324  1.00  0.00     0.010 A 
ATOM     32  C   UNL A   1      39.640  27.497  28.430  1.00  0.00    -0.014 A 
BRANCH  32  33
ATOM     33  C   UNL A   1      40.856  26.707  28.453  1.00  0.00     0.031 A 
ATOM     34  C   UNL A   1      40.809  25.257  28.265  1.00  0.00     0.074 A 
ATOM     35  C   UNL A   1      41.976  27.470  28.545  1.00  0.00     0.049 A 
ATOM     36  N   UNL A   1      41.488  24.415  28.963  1.00  0.00    -0.248 NA
ATOM     37  C   UNL A   1      39.951  24.618  27.266  1.00  0.00     0.031 C 
ATOM     38  C   UNL A   1      43.377  27.129  28.436  1.00  0.00     0.029 A 
ATOM     39  N   UNL A   1      42.019  28.838  28.877  1.00  0.00    -0.354 N 
ATOM     40  C   UNL A   1      41.475  23.241  28.236  1.00  0.00     0.074 A 
ATOM     41  C   UNL A   1      40.355  23.342  27.334  1.00  0.00     0.031 C 
ATOM     42  C   UNL A   1      44.091  28.100  29.050  1.00  0.00     0.029 A 
ATOM     43  C   UNL A   1      43.147  29.043  29.650  1.00  0.00     0.049 A 
ATOM     44  H   UNL A   1      41.366  29.524  28.608  1.00  0.00     0.167 HD
ATOM     45  C   UNL A   1      42.581  22.445  28.223  1.00  0.00     0.031 A 
ATOM     46  C   UNL A   1      42.986  29.347  30.975  1.00  0.00     0.031 A 
ATOM     47  C   UNL A   1      43.675  23.090  28.947  1.00  0.00     0.049 A 
ATOM     48  C   UNL A   1      43.457  28.177  31.809  1.00  0.00     0.074 A 
ATOM     49  C   UNL A   1      44.753  23.835  28.497  1.00  0.00     0.029 A 
ATOM     50  N   UNL A   1      43.527  23.386  30.296  1.00  0.00    -0.354 N 
ATOM     51  N   UNL A   1      43.484  26.945  31.375  1.00  0.00    -0.248 NA
ATOM     52  C   UNL A   1      43.975  28.307  33.166  1.00  0.00     0.031 C 
ATOM     53  C   UNL A   1      45.204  24.646  29.573  1.00  0.00     0.029 A 
ATOM     54  C   UNL A   1      44.401  24.390  30.671  1.00  0.00     0.049 A 
ATOM     55  H   UNL A   1      42.890  22.942  30.902  1.00  0.00     0.167 HD
ATOM     56  C   UNL A   1      44.119  26.156  32.292  1.00  0.00     0.074 A 
ATOM     57  C   UNL A   1      44.371  27.046  33.415  1.00  0.00     0.031 C 
ATOM     58  C   UNL A   1      44.431  24.850  32.051  1.00  0.00     0.031 A 
BRANCH  45  59
ATOM     59  C   UNL A   1      42.778  21.315  27.245  1.00  0.00    -0.014 A 
ATOM     60  C   UNL A   1      43.706  21.451  26.194  1.00  0.00     0.009 A 
ATOM     61  C   UNL A   1      42.095  20.088  27.318  1.00  0.00     0.009 A 
ATOM     62  C   UNL A   1      43.900  20.449  25.234  1.00  0.00     0.001 A 
ATOM     63  C   UNL A   1      42.270  19.087  26.346  1.00  0.00     0.001 A 
ATOM     64  C   UNL A   1      43.170  19.271  25.303  1.00  0.00     0.000 A 
ENDBRANCH  45  59
BRANCH  46  65
ATOM     65  C   UNL A   1      41.800  30.223  31.287  1.00  0.00    -0.014 A 
ATOM     66  C   UNL A   1      41.583  31.360  30.472  1.00  0.00     0.009 A 
ATOM     67  C   UNL A   1      40.744  29.815  32.115  1.00  0.00     0.009 A 
ATOM     68  C   UNL A   1      40.334  31.994  30.407  1.00  0.00     0.001 A 
ATOM     69  C   UNL A   1      39.498  30.471  32.067  1.00  0.00     0.001 A 
ATOM     70  C   UNL A   1      39.283  31.533  31.190  1.00  0.00     0.000 A 
ENDBRANCH  46  65
BRANCH  58  71
ATOM     71  C   UNL A   1      44.886  23.861  33.087  1.00  0.00    -0.014 A 
ATOM     72  C   UNL A   1      46.157  23.876  33.668  1.00  0.00     0.009 A 
ATOM     73  C   UNL A   1      43.937  22.968  33.640  1.00  0.00     0.009 A 
ATOM     74  C   UNL A   1      46.480  23.007  34.715  1.00  0.00     0.001 A 
ATOM     75  C   UNL A   1      44.236  22.148  34.724  1.00  0.00     0.001 A 
ATOM     76  C   UNL A   1      45.518  22.156  35.251  1.00  0.00     0.000 A 
ENDBRANCH  58  71
ENDBRANCH  32  33
ENDBRANCH  25  27
ENDBRANCH  24  25
ENDBRANCH  23  24
ENDBRANCH   1  23
TORSDOF 14
ENDMDL
MODEL 2
REMARK VINA RESULT:     -11.4      3.679      9.310
REMARK SMILES Cc1ccc(Nc2c(Cl)cccc2Cl)c(CC(=O)OCCOC(=O)c2ccc(-c3c4nc(c(-c5ccccc5)c5ccc([nH]5)c(-c5ccccc5)c5nc(c(-c6ccccc6)c6ccc3[nH]6)C=C5)C=C4)cc2)c1
REMARK SMILES IDX 20 1 19 2 17 3 18 4 16 5 15 6 1 7 2 8 3 9 73 10 4 11 5 12
REMARK SMILES IDX 6 13 7 15 8 16 13 17 9 18 10 19 12 20 14 21 11 22 21 23
REMARK SMILES IDX 22 24 23 25 24 26 25 27 26 28 72 29 27 30 71 31 28 32 29 33
REMARK SMILES IDX 30 34 65 35 31 36 70 37 64 38 66 39 32 40 69 41 63 42 62 43
REMARK SMILES IDX 33 45 55 46 40 47 54 48 41 49 44 50 53 51 67 52 42 53 43 54
REMARK SMILES IDX 52 56 68 57 45 58 34 59 35 60 39 61 36 62 38 63 37 64 56 65
REMARK SMILES IDX 57 66 61 67 58 68 60 69 59 70 46 71 47 72 51 73 48 74 50 75
REMARK SMILES IDX 49 76
REMARK H PARENT 6 14 66 44 44 55
REMARK Flexibility Score: inf
ROOT
ATOM      1  C   UNL A   1      37.398  22.385  25.619  1.00  0.00     0.274 C 
ENDROOT
BRANCH   1   2
ATOM      2  O   UNL A   1      37.090  23.195  24.495  1.00  0.00    -0.462 OA
BRANCH   2   3
ATOM      3  C   UNL A   1      35.854  23.075  23.935  1.00  0.00     0.310 C 
ATOM      4  O   UNL A   1      35.591  23.169  22.760  1.00  0.00    -0.252 OA
BRANCH   3   5
ATOM      5  C   UNL A   1      34.854  22.806  25.045  1.00  0.00     0.160 C 
BRANCH   5   6
ATOM      6  C   UNL A   1      33.886  21.758  24.573  1.00  0.00    -0.013 A 
ATOM      7  C   UNL A   1      34.105  17.968  24.461  1.00  0.00     0.044 C 
ATOM      8  C   UNL A   1      33.611  19.365  24.249  1.00  0.00    -0.051 A 
ATOM      9  C   UNL A   1      32.540  19.629  23.395  1.00  0.00     0.005 A 
ATOM     10  C   UNL A   1      34.262  20.432  24.852  1.00  0.00     0.009 A 
ATOM     11  C   UNL A   1      32.130  20.944  23.149  1.00  0.00     0.026 A 
ATOM     12  C   UNL A   1      32.793  22.036  23.719  1.00  0.00     0.042 A 
BRANCH  12  13
ATOM     13  N   UNL A   1      32.420  23.349  23.365  1.00  0.00    -0.353 N 
ATOM     14  H   UNL A   1      32.252  23.493  22.406  1.00  0.00     0.167 HD
BRANCH  13  15
ATOM     15  C   UNL A   1      32.251  24.494  24.188  1.00  0.00     0.076 A 
ATOM     16  C   UNL A   1      31.543  24.423  25.402  1.00  0.00     0.066 A 
ATOM     17  C   UNL A   1      32.960  25.686  23.935  1.00  0.00     0.066 A 
ATOM     18  Cl  UNL A   1      30.647  23.011  25.850  1.00  0.00    -0.082 Cl
ATOM     19  C   UNL A   1      31.536  25.497  26.302  1.00  0.00     0.023 A 
ATOM     20  C   UNL A   1      33.019  26.726  24.870  1.00  0.00     0.023 A 
ATOM     21  Cl  UNL A   1      33.656  26.017  22.394  1.00  0.00    -0.082 Cl
ATOM     22  C   UNL A   1      32.297  26.636  26.052  1.00  0.00     0.003 A 
ENDBRANCH  13  15
ENDBRANCH  12  13
ENDBRANCH   5   6
ENDBRANCH   3   5
ENDBRANCH   2   3
ENDBRANCH   1   2
BRANCH   1  23
ATOM     23  C   UNL A   1      38.807  22.738  26.123  1.00  0.00     0.275 C 
BRANCH  23  24
ATOM     24  O   UNL A   1      38.993  24.018  26.848  1.00  0.00    -0.458 OA
BRANCH  24  25
ATOM     25  C   UNL A   1      39.975  24.428  27.701  1.00  0.00     0.338 C 
ATOM     26  O   UNL A   1      40.843  23.677  28.125  1.00  0.00    -0.246 OA
BRANCH  25  27
ATOM     27  C   UNL A   1      40.006  25.854  28.039  1.00  0.00     0.060 A 
ATOM     28  C   UNL A   1      40.285  26.856  27.092  1.00  0.00     0.016 A 
ATOM     29  C   UNL A   1      39.574  26.178  29.304  1.00  0.00     0.016 A 
ATOM     30  C   UNL A   1      39.990  28.180  27.410  1.00  0.00     0.010 A 
ATOM     31  C   UNL A   1      38.976  27.383  29.479  1.00  0.00     0.010 A 
ATOM     32  C   UNL A   1      39.307  28.417  28.603  1.00  0.00    -0.014 A 
BRANCH  32  33
ATOM     33  C   UNL A   1      39.185  29.701  29.267  1.00  0.00     0.031 A 
ATOM     34  C   UNL A   1      38.164  30.663  28.851  1.00  0.00     0.074 A 
ATOM     35  C   UNL A   1      40.015  29.820  30.335  1.00  0.00     0.049 A 
ATOM     36  N   UNL A   1      38.373  31.926  28.718  1.00  0.00    -0.248 NA
ATOM     37  C   UNL A   1      36.795  30.267  28.519  1.00  0.00     0.031 C 
ATOM     38  C   UNL A   1      40.112  30.834  31.363  1.00  0.00     0.029 A 
ATOM     39  N   UNL A   1      41.096  28.969  30.643  1.00  0.00    -0.354 N 
ATOM     40  C   UNL A   1      37.121  32.506  28.712  1.00  0.00     0.074 A 
ATOM     41  C   UNL A   1      36.194  31.455  28.371  1.00  0.00     0.031 C 
ATOM     42  C   UNL A   1      41.350  30.762  31.903  1.00  0.00     0.029 A 
ATOM     43  C   UNL A   1      42.108  29.754  31.163  1.00  0.00     0.049 A 
ATOM     44  H   UNL A   1      41.123  27.994  30.511  1.00  0.00     0.167 HD
ATOM     45  C   UNL A   1      36.937  33.718  29.309  1.00  0.00     0.031 A 
ATOM     46  C   UNL A   1      43.245  29.930  30.420  1.00  0.00     0.031 A 
ATOM     47  C   UNL A   1      38.166  34.143  29.975  1.00  0.00     0.049 A 
ATOM     48  C   UNL A   1      43.304  31.364  29.943  1.00  0.00     0.074 A 
ATOM     49  C   UNL A   1      38.567  34.052  31.298  1.00  0.00     0.029 A 
ATOM     50  N   UNL A   1      39.321  34.342  29.227  1.00  0.00    -0.354 N 
ATOM     51  N   UNL A   1      42.249  32.118  29.790  1.00  0.00    -0.248 NA
ATOM     52  C   UNL A   1      44.546  32.069  29.650  1.00  0.00     0.031 C 
ATOM     53  C   UNL A   1      39.986  34.117  31.331  1.00  0.00     0.029 A 
ATOM     54  C   UNL A   1      40.441  34.249  30.032  1.00  0.00     0.049 A 
ATOM     55  H   UNL A   1      39.338  34.525  28.260  1.00  0.00     0.167 HD
ATOM     56  C   UNL A   1      42.642  33.399  29.521  1.00  0.00     0.074 A 
ATOM     57  C   UNL A   1      44.089  33.309  29.401  1.00  0.00     0.031 C 
ATOM     58  C   UNL A   1      41.765  34.442  29.459  1.00  0.00     0.031 A 
BRANCH  45  59
ATOM     59  C   UNL A   1      35.578  34.294  29.616  1.00  0.00    -0.014 A 
ATOM     60  C   UNL A   1      34.809  34.864  28.584  1.00  0.00     0.009 A 
ATOM     61  C   UNL A   1      34.995  34.286  30.896  1.00  0.00     0.009 A 
ATOM     62  C   UNL A   1      33.558  35.450  28.820  1.00  0.00     0.001 A 
ATOM     63  C   UNL A   1      33.750  34.890  31.143  1.00  0.00     0.001 A 
ATOM     64  C   UNL A   1      33.034  35.474  30.104  1.00  0.00     0.000 A 
ENDBRANCH  45  59
BRANCH  46  65
ATOM     65  C   UNL A   1      43.680  28.725  29.627  1.00  0.00    -0.014 A 
ATOM     66  C   UNL A   1      43.775  27.485  30.302  1.00  0.00     0.009 A 
ATOM     67  C   UNL A   1      43.689  28.695  28.224  1.00  0.00     0.009 A 
ATOM     68  C   UNL A   1      43.769  26.265  29.611  1.00  0.00     0.001 A 
ATOM     69  C   UNL A   1      43.710  27.468  27.531  1.00  0.00     0.001 A 
ATOM     70  C   UNL A   1      43.713  26.257  28.223  1.00  0.00     0.000 A 
ENDBRANCH  46  65
BRANCH  58  71
ATOM     71  C   UNL A   1      42.080  35.809  28.920  1.00  0.00    -0.014 A 
ATOM     72  C   UNL A   1      42.856  36.751  29.601  1.00  0.00     0.009 A 
ATOM     73  C   UNL A   1      41.726  36.112  27.584  1.00  0.00     0.009 A 
ATOM     74  C   UNL A   1      43.216  37.958  28.996  1.00  0.00     0.001 A 
ATOM     75  C   UNL A   1      42.138  37.285  26.957  1.00  0.00     0.001 A 
ATOM     76  C   UNL A   1      42.871  38.219  27.672  1.00  0.00     0.000 A 
ENDBRANCH  58  71
ENDBRANCH  32  33
ENDBRANCH  25  27
ENDBRANCH  24  25
ENDBRANCH  23  24
ENDBRANCH   1  23
TORSDOF 14
ENDMDL
MODEL 3
REMARK VINA RESULT:     -11.3      3.255      7.852
REMARK SMILES Cc1ccc(Nc2c(Cl)cccc2Cl)c(CC(=O)OCCOC(=O)c2ccc(-c3c4nc(c(-c5ccccc5)c5ccc([nH]5)c(-c5ccccc5)c5nc(c(-c6ccccc6)c6ccc3[nH]6)C=C5)C=C4)cc2)c1
REMARK SMILES IDX 20 1 19 2 17 3 18 4 16 5 15 6 1 7 2 8 3 9 73 10 4 11 5 12
REMARK SMILES IDX 6 13 7 15 8 16 13 17 9 18 10 19 12 20 14 21 11 22 21 23
REMARK SMILES IDX 22 24 23 25 24 26 25 27 26 28 72 29 27 30 71 31 28 32 29 33
REMARK SMILES IDX 30 34 65 35 31 36 70 37 64 38 66 39 32 40 69 41 63 42 62 43
REMARK SMILES IDX 33 45 55 46 40 47 54 48 41 49 44 50 53 51 67 52 42 53 43 54
REMARK SMILES IDX 52 56 68 57 45 58 34 59 35 60 39 61 36 62 38 63 37 64 56 65
REMARK SMILES IDX 57 66 61 67 58 68 60 69 59 70 46 71 47 72 51 73 48 74 50 75
REMARK SMILES IDX 49 76
REMARK H PARENT 6 14 66 44 44 55
REMARK Flexibility Score: inf
ROOT
ATOM      1  C   UNL A   1      36.276  22.635  23.376  1.00  0.00     0.274 C 
ENDROOT
BRANCH   1   2
ATOM      2  O   UNL A   1      36.188  23.899  24.015  1.00  0.00    -0.462 OA
BRANCH   2   3
ATOM      3  C   UNL A   1      34.978  24.525  24.037  1.00  0.00     0.310 C 
ATOM      4  O   UNL A   1      34.244  24.691  23.092  1.00  0.00    -0.252 OA
BRANCH   3   5
ATOM      5  C   UNL A   1      34.708  24.986  25.458  1.00  0.00     0.160 C 
BRANCH   5   6
ATOM      6  C   UNL A   1      33.453  25.813  25.462  1.00  0.00    -0.013 A 
ATOM      7  C   UNL A   1      32.878  29.552  25.118  1.00  0.00     0.044 C 
ATOM      8  C   UNL A   1      32.624  28.096  25.356  1.00  0.00    -0.051 A 
ATOM      9  C   UNL A   1      31.405  27.650  25.867  1.00  0.00     0.005 A 
ATOM     10  C   UNL A   1      33.633  27.169  25.134  1.00  0.00     0.009 A 
ATOM     11  C   UNL A   1      31.202  26.296  26.152  1.00  0.00     0.026 A 
ATOM     12  C   UNL A   1      32.216  25.349  25.968  1.00  0.00     0.042 A 
BRANCH  12  13
ATOM     13  N   UNL A   1      32.012  24.012  26.366  1.00  0.00    -0.353 N 
ATOM     14  H   UNL A   1      31.648  23.896  27.273  1.00  0.00     0.167 HD
BRANCH  13  15
ATOM     15  C   UNL A   1      32.252  22.809  25.650  1.00  0.00     0.076 A 
ATOM     16  C   UNL A   1      31.764  22.627  24.343  1.00  0.00     0.066 A 
ATOM     17  C   UNL A   1      33.160  21.843  26.130  1.00  0.00     0.066 A 
ATOM     18  Cl  UNL A   1      30.659  23.748  23.620  1.00  0.00    -0.082 Cl
ATOM     19  C   UNL A   1      32.157  21.527  23.568  1.00  0.00     0.023 A 
ATOM     20  C   UNL A   1      33.613  20.790  25.328  1.00  0.00     0.023 A 
ATOM     21  Cl  UNL A   1      33.639  21.792  27.784  1.00  0.00    -0.082 Cl
ATOM     22  C   UNL A   1      33.103  20.625  24.047  1.00  0.00     0.003 A 
ENDBRANCH  13  15
ENDBRANCH  12  13
ENDBRANCH   5   6
ENDBRANCH   3   5
ENDBRANCH   2   3
ENDBRANCH   1   2
BRANCH   1  23
ATOM     23  C   UNL A   1      37.090  21.679  24.262  1.00  0.00     0.275 C 
BRANCH  23  24
ATOM     24  O   UNL A   1      37.846  22.251  25.403  1.00  0.00    -0.458 OA
BRANCH  24  25
ATOM     25  C   UNL A   1      38.994  21.837  26.013  1.00  0.00     0.338 C 
ATOM     26  O   UNL A   1      39.515  20.754  25.783  1.00  0.00    -0.246 OA
BRANCH  25  27
ATOM     27  C   UNL A   1      39.643  22.790  26.918  1.00  0.00     0.060 A 
ATOM     28  C   UNL A   1      40.761  22.454  27.703  1.00  0.00     0.016 A 
ATOM     29  C   UNL A   1      39.206  24.091  26.832  1.00  0.00     0.016 A 
ATOM     30  C   UNL A   1      41.502  23.478  28.289  1.00  0.00     0.010 A 
ATOM     31  C   UNL A   1      40.099  25.077  27.098  1.00  0.00     0.010 A 
ATOM     32  C   UNL A   1      41.167  24.788  27.946  1.00  0.00    -0.014 A 
BRANCH  32  33
ATOM     33  C   UNL A   1      41.582  25.981  28.660  1.00  0.00     0.031 A 
ATOM     34  C   UNL A   1      40.611  27.016  29.015  1.00  0.00     0.074 A 
ATOM     35  C   UNL A   1      42.888  25.943  29.030  1.00  0.00     0.049 A 
ATOM     36  N   UNL A   1      40.822  28.279  28.892  1.00  0.00    -0.248 NA
ATOM     37  C   UNL A   1      39.276  26.702  29.529  1.00  0.00     0.031 C 
ATOM     38  C   UNL A   1      43.667  26.816  29.881  1.00  0.00     0.029 A 
ATOM     39  N   UNL A   1      43.855  25.031  28.562  1.00  0.00    -0.354 N 
ATOM     40  C   UNL A   1      39.868  28.889  29.681  1.00  0.00     0.074 A 
ATOM     41  C   UNL A   1      38.821  27.915  29.868  1.00  0.00     0.031 C 
ATOM     42  C   UNL A   1      44.972  26.643  29.572  1.00  0.00     0.029 A 
ATOM     43  C   UNL A   1      45.050  25.716  28.443  1.00  0.00     0.049 A 
ATOM     44  H   UNL A   1      43.706  24.080  28.358  1.00  0.00     0.167 HD
ATOM     45  C   UNL A   1      40.187  30.021  30.371  1.00  0.00     0.031 A 
ATOM     46  C   UNL A   1      45.545  25.953  27.190  1.00  0.00     0.031 A 
ATOM     47  C   UNL A   1      41.608  30.325  30.208  1.00  0.00     0.049 A 
ATOM     48  C   UNL A   1      45.451  27.433  26.895  1.00  0.00     0.074 A 
ATOM     49  C   UNL A   1      42.697  30.057  31.021  1.00  0.00     0.029 A 
ATOM     50  N   UNL A   1      42.116  30.585  28.942  1.00  0.00    -0.354 N 
ATOM     51  N   UNL A   1      44.586  28.229  27.463  1.00  0.00    -0.248 NA
ATOM     52  C   UNL A   1      46.346  28.135  25.982  1.00  0.00     0.031 C 
ATOM     53  C   UNL A   1      43.864  30.079  30.211  1.00  0.00     0.029 A 
ATOM     54  C   UNL A   1      43.480  30.362  28.912  1.00  0.00     0.049 A 
ATOM     55  H   UNL A   1      41.580  30.888  28.173  1.00  0.00     0.167 HD
ATOM     56  C   UNL A   1      44.868  29.522  27.124  1.00  0.00     0.074 A 
ATOM     57  C   UNL A   1      45.952  29.409  26.161  1.00  0.00     0.031 C 
ATOM     58  C   UNL A   1      44.227  30.589  27.683  1.00  0.00     0.031 A 
BRANCH  45  59
ATOM     59  C   UNL A   1      39.331  30.591  31.473  1.00  0.00    -0.014 A 
ATOM     60  C   UNL A   1      38.402  31.609  31.183  1.00  0.00     0.009 A 
ATOM     61  C   UNL A   1      39.380  30.153  32.808  1.00  0.00     0.009 A 
ATOM     62  C   UNL A   1      37.610  32.202  32.175  1.00  0.00     0.001 A 
ATOM     63  C   UNL A   1      38.602  30.758  33.811  1.00  0.00     0.001 A 
ATOM     64  C   UNL A   1      37.720  31.784  33.493  1.00  0.00     0.000 A 
ENDBRANCH  45  59
BRANCH  46  65
ATOM     65  C   UNL A   1      45.313  24.846  26.194  1.00  0.00    -0.014 A 
ATOM     66  C   UNL A   1      46.073  23.660  26.330  1.00  0.00     0.009 A 
ATOM     67  C   UNL A   1      44.191  24.797  25.352  1.00  0.00     0.009 A 
ATOM     68  C   UNL A   1      45.670  22.453  25.743  1.00  0.00     0.001 A 
ATOM     69  C   UNL A   1      43.804  23.588  24.741  1.00  0.00     0.001 A 
ATOM     70  C   UNL A   1      44.520  22.412  24.964  1.00  0.00     0.000 A 
ENDBRANCH  46  65
BRANCH  58  71
ATOM     71  C   UNL A   1      44.296  32.004  27.182  1.00  0.00    -0.014 A 
ATOM     72  C   UNL A   1      44.031  32.371  25.860  1.00  0.00     0.009 A 
ATOM     73  C   UNL A   1      44.468  33.050  28.119  1.00  0.00     0.009 A 
ATOM     74  C   UNL A   1      43.990  33.716  25.482  1.00  0.00     0.001 A 
ATOM     75  C   UNL A   1      44.364  34.391  27.758  1.00  0.00     0.001 A 
ATOM     76  C   UNL A   1      44.142  34.724  26.431  1.00  0.00     0.000 A 
ENDBRANCH  58  71
ENDBRANCH  32  33
ENDBRANCH  25  27
ENDBRANCH  24  25
ENDBRANCH  23  24
ENDBRANCH   1  23
TORSDOF 14
ENDMDL
