MODEL 1
REMARK VINA RESULT:     -10.8      0.000      0.000
REMARK SMILES CC(C)Cc1cc2c(cc1Cl)C=C(C(=O)OCCOC(=O)c1ccc(-c3c4nc(c(-c5ccccc5)c5ccc([nH]5)c(-c5ccccc5)c5nc(c(-c6ccccc6)c6ccc3[nH]6)C=C5)C=C4)cc1)[C@@H](C(F)(F)F)O2
REMARK SMILES IDX 17 1 16 2 14 3 15 4 13 5 5 6 6 7 10 8 7 9 9 10 11 11 8 12
REMARK SMILES IDX 75 13 12 14 70 15 4 16 2 17 1 18 3 19 71 20 72 21 73 22
REMARK SMILES IDX 74 23 18 24 19 25 20 26 21 27 22 28 23 29 69 30 24 31 68 32
REMARK SMILES IDX 25 33 26 34 27 35 62 36 28 37 67 38 61 39 63 40 29 41 66 42
REMARK SMILES IDX 60 43 59 44 30 46 52 47 37 48 51 49 38 50 41 51 50 52 64 53
REMARK SMILES IDX 39 54 40 55 49 57 65 58 42 59 31 60 32 61 36 62 33 63 35 64
REMARK SMILES IDX 34 65 53 66 54 67 58 68 55 69 57 70 56 71 43 72 44 73 48 74
REMARK SMILES IDX 45 75 47 76 46 77
REMARK H PARENT 63 45 41 56
REMARK Flexibility Score: inf
ROOT
ATOM      1  C   UNL A   1      32.132  28.618  26.236  1.00  0.00     0.275 C 
ENDROOT
BRANCH   1   2
ATOM      2  O   UNL A   1      32.854  27.375  26.382  1.00  0.00    -0.459 OA
BRANCH   2   3
ATOM      3  C   UNL A   1      33.419  26.896  25.248  1.00  0.00     0.338 C 
ATOM      4  O   UNL A   1      33.988  27.548  24.389  1.00  0.00    -0.246 OA
BRANCH   3   5
ATOM      5  C   UNL A   1      33.311  25.426  25.192  1.00  0.00     0.087 C 
ATOM      6  C   UNL A   1      34.347  20.517  24.795  1.00  0.00    -0.025 A 
ATOM      7  C   UNL A   1      33.154  21.272  24.804  1.00  0.00     0.052 A 
ATOM      8  C   UNL A   1      35.572  21.188  24.916  1.00  0.00     0.045 A 
ATOM      9  C   UNL A   1      33.183  22.660  24.946  1.00  0.00     0.128 A 
ATOM     10  C   UNL A   1      35.601  22.571  25.077  1.00  0.00     0.032 A 
ATOM     11  Cl  UNL A   1      37.093  20.370  24.863  1.00  0.00    -0.084 Cl
ATOM     12  C   UNL A   1      34.408  23.301  25.089  1.00  0.00     0.019 A 
ATOM     13  O   UNL A   1      31.984  23.316  24.966  1.00  0.00    -0.475 OA
ATOM     14  C   UNL A   1      34.454  24.735  25.242  1.00  0.00     0.027 C 
ATOM     15  C   UNL A   1      31.979  24.777  24.945  1.00  0.00     0.316 C 
BRANCH   6  16
ATOM     16  C   UNL A   1      34.261  19.010  24.701  1.00  0.00     0.040 C 
BRANCH  16  17
ATOM     17  C   UNL A   1      32.827  18.491  24.464  1.00  0.00    -0.013 C 
ATOM     18  C   UNL A   1      32.560  18.181  22.990  1.00  0.00     0.008 C 
ATOM     19  C   UNL A   1      32.579  17.246  25.316  1.00  0.00     0.008 C 
ENDBRANCH  16  17
ENDBRANCH   6  16
BRANCH  15  20
ATOM     20  C   UNL A   1      31.381  25.259  23.613  1.00  0.00     0.430 C 
ATOM     21  F   UNL A   1      32.333  25.389  22.660  1.00  0.00    -0.167 F 
ATOM     22  F   UNL A   1      30.469  24.379  23.132  1.00  0.00    -0.167 F 
ATOM     23  F   UNL A   1      30.760  26.454  23.735  1.00  0.00    -0.167 F 
ENDBRANCH  15  20
ENDBRANCH   3   5
ENDBRANCH   2   3
ENDBRANCH   1   2
BRANCH   1  24
ATOM     24  C   UNL A   1      32.638  29.683  27.211  1.00  0.00     0.275 C 
BRANCH  24  25
ATOM     25  O   UNL A   1      34.028  29.473  27.519  1.00  0.00    -0.458 OA
BRANCH  25  26
ATOM     26  C   UNL A   1      34.653  30.500  28.131  1.00  0.00     0.338 C 
ATOM     27  O   UNL A   1      34.174  31.573  28.472  1.00  0.00    -0.246 OA
BRANCH  26  28
ATOM     28  C   UNL A   1      36.037  30.116  28.431  1.00  0.00     0.060 A 
ATOM     29  C   UNL A   1      36.377  29.481  29.621  1.00  0.00     0.016 A 
ATOM     30  C   UNL A   1      36.995  30.295  27.440  1.00  0.00     0.016 A 
ATOM     31  C   UNL A   1      37.698  29.058  29.812  1.00  0.00     0.010 A 
ATOM     32  C   UNL A   1      38.262  29.741  27.569  1.00  0.00     0.010 A 
ATOM     33  C   UNL A   1      38.651  29.159  28.779  1.00  0.00    -0.014 A 
BRANCH  33  34
ATOM     34  C   UNL A   1      40.061  28.711  28.957  1.00  0.00     0.031 A 
ATOM     35  C   UNL A   1      40.477  27.314  28.555  1.00  0.00     0.074 A 
ATOM     36  C   UNL A   1      40.967  29.539  29.517  1.00  0.00     0.049 A 
ATOM     37  N   UNL A   1      41.652  26.741  28.656  1.00  0.00    -0.248 NA
ATOM     38  C   UNL A   1      39.437  26.429  28.002  1.00  0.00     0.031 C 
ATOM     39  C   UNL A   1      40.685  30.886  30.019  1.00  0.00     0.029 A 
ATOM     40  N   UNL A   1      42.312  29.377  29.743  1.00  0.00    -0.354 N 
ATOM     41  C   UNL A   1      41.476  25.433  28.217  1.00  0.00     0.074 A 
ATOM     42  C   UNL A   1      40.075  25.271  27.914  1.00  0.00     0.031 C 
ATOM     43  C   UNL A   1      41.833  31.453  30.422  1.00  0.00     0.029 A 
ATOM     44  C   UNL A   1      42.923  30.496  30.256  1.00  0.00     0.049 A 
ATOM     45  H   UNL A   1      42.793  28.539  29.555  1.00  0.00     0.167 HD
ATOM     46  C   UNL A   1      42.402  24.462  28.040  1.00  0.00     0.031 A 
ATOM     47  C   UNL A   1      44.216  30.736  30.548  1.00  0.00     0.031 A 
ATOM     48  C   UNL A   1      43.808  24.641  28.278  1.00  0.00     0.049 A 
ATOM     49  C   UNL A   1      45.236  29.660  30.305  1.00  0.00     0.074 A 
ATOM     50  C   UNL A   1      44.838  23.748  28.041  1.00  0.00     0.029 A 
ATOM     51  N   UNL A   1      44.380  25.794  28.790  1.00  0.00    -0.354 N 
ATOM     52  N   UNL A   1      45.060  28.454  29.821  1.00  0.00    -0.248 NA
ATOM     53  C   UNL A   1      46.632  29.976  30.639  1.00  0.00     0.031 C 
ATOM     54  C   UNL A   1      46.031  24.344  28.455  1.00  0.00     0.029 A 
ATOM     55  C   UNL A   1      45.748  25.629  28.896  1.00  0.00     0.049 A 
ATOM     56  H   UNL A   1      43.886  26.607  29.042  1.00  0.00     0.167 HD
ATOM     57  C   UNL A   1      46.320  27.871  29.783  1.00  0.00     0.074 A 
ATOM     58  C   UNL A   1      47.257  28.863  30.270  1.00  0.00     0.031 C 
ATOM     59  C   UNL A   1      46.667  26.624  29.384  1.00  0.00     0.031 A 
BRANCH  46  60
ATOM     60  C   UNL A   1      41.938  23.124  27.529  1.00  0.00    -0.014 A 
ATOM     61  C   UNL A   1      41.583  22.111  28.435  1.00  0.00     0.009 A 
ATOM     62  C   UNL A   1      41.931  22.835  26.155  1.00  0.00     0.009 A 
ATOM     63  C   UNL A   1      41.234  20.839  27.976  1.00  0.00     0.001 A 
ATOM     64  C   UNL A   1      41.549  21.572  25.697  1.00  0.00     0.001 A 
ATOM     65  C   UNL A   1      41.210  20.573  26.608  1.00  0.00     0.000 A 
ENDBRANCH  46  60
BRANCH  47  66
ATOM     66  C   UNL A   1      44.614  32.079  31.049  1.00  0.00    -0.014 A 
ATOM     67  C   UNL A   1      44.614  32.365  32.423  1.00  0.00     0.009 A 
ATOM     68  C   UNL A   1      44.935  33.104  30.145  1.00  0.00     0.009 A 
ATOM     69  C   UNL A   1      44.899  33.653  32.881  1.00  0.00     0.001 A 
ATOM     70  C   UNL A   1      45.247  34.385  30.607  1.00  0.00     0.001 A 
ATOM     71  C   UNL A   1      45.219  34.662  31.973  1.00  0.00     0.000 A 
ENDBRANCH  47  66
BRANCH  59  72
ATOM     72  C   UNL A   1      48.116  26.239  29.450  1.00  0.00    -0.014 A 
ATOM     73  C   UNL A   1      48.658  25.766  30.656  1.00  0.00     0.009 A 
ATOM     74  C   UNL A   1      48.969  26.470  28.361  1.00  0.00     0.009 A 
ATOM     75  C   UNL A   1      50.032  25.554  30.778  1.00  0.00     0.001 A 
ATOM     76  C   UNL A   1      50.339  26.230  28.478  1.00  0.00     0.001 A 
ATOM     77  C   UNL A   1      50.871  25.784  29.689  1.00  0.00     0.000 A 
ENDBRANCH  59  72
ENDBRANCH  33  34
ENDBRANCH  26  28
ENDBRANCH  25  26
ENDBRANCH  24  25
ENDBRANCH   1  24
TORSDOF 14
ENDMDL
MODEL 2
REMARK VINA RESULT:     -10.7      4.828      7.963
REMARK SMILES CC(C)Cc1cc2c(cc1Cl)C=C(C(=O)OCCOC(=O)c1ccc(-c3c4nc(c(-c5ccccc5)c5ccc([nH]5)c(-c5ccccc5)c5nc(c(-c6ccccc6)c6ccc3[nH]6)C=C5)C=C4)cc1)[C@@H](C(F)(F)F)O2
REMARK SMILES IDX 17 1 16 2 14 3 15 4 13 5 5 6 6 7 10 8 7 9 9 10 11 11 8 12
REMARK SMILES IDX 75 13 12 14 70 15 4 16 2 17 1 18 3 19 71 20 72 21 73 22
REMARK SMILES IDX 74 23 18 24 19 25 20 26 21 27 22 28 23 29 69 30 24 31 68 32
REMARK SMILES IDX 25 33 26 34 27 35 62 36 28 37 67 38 61 39 63 40 29 41 66 42
REMARK SMILES IDX 60 43 59 44 30 46 52 47 37 48 51 49 38 50 41 51 50 52 64 53
REMARK SMILES IDX 39 54 40 55 49 57 65 58 42 59 31 60 32 61 36 62 33 63 35 64
REMARK SMILES IDX 34 65 53 66 54 67 58 68 55 69 57 70 56 71 43 72 44 73 48 74
REMARK SMILES IDX 45 75 47 76 46 77
REMARK H PARENT 63 45 41 56
REMARK Flexibility Score: inf
ROOT
ATOM      1  C   UNL A   1      32.928  34.022  27.974  1.00  0.00     0.275 C 
ENDROOT
BRANCH   1   2
ATOM      2  O   UNL A   1      32.725  34.285  29.380  1.00  0.00    -0.459 OA
BRANCH   2   3
ATOM      3  C   UNL A   1      33.348  35.388  29.859  1.00  0.00     0.338 C 
ATOM      4  O   UNL A   1      33.167  36.538  29.498  1.00  0.00    -0.246 OA
BRANCH   3   5
ATOM      5  C   UNL A   1      34.271  35.031  30.953  1.00  0.00     0.087 C 
ATOM      6  C   UNL A   1      37.168  32.501  34.200  1.00  0.00    -0.025 A 
ATOM      7  C   UNL A   1      36.701  33.831  34.129  1.00  0.00     0.052 A 
ATOM      8  C   UNL A   1      36.798  31.602  33.189  1.00  0.00     0.045 A 
ATOM      9  C   UNL A   1      35.899  34.257  33.069  1.00  0.00     0.128 A 
ATOM     10  C   UNL A   1      36.013  32.030  32.122  1.00  0.00     0.032 A 
ATOM     11  Cl  UNL A   1      37.266  29.938  33.205  1.00  0.00    -0.084 Cl
ATOM     12  C   UNL A   1      35.565  33.353  32.067  1.00  0.00     0.019 A 
ATOM     13  O   UNL A   1      35.506  35.566  33.063  1.00  0.00    -0.475 OA
ATOM     14  C   UNL A   1      34.740  33.780  30.962  1.00  0.00     0.027 C 
ATOM     15  C   UNL A   1      34.533  36.007  32.065  1.00  0.00     0.316 C 
BRANCH   6  16
ATOM     16  C   UNL A   1      38.084  32.104  35.334  1.00  0.00     0.040 C 
BRANCH  16  17
ATOM     17  C   UNL A   1      39.578  32.107  34.946  1.00  0.00    -0.013 C 
ATOM     18  C   UNL A   1      40.362  33.203  35.671  1.00  0.00     0.008 C 
ATOM     19  C   UNL A   1      40.193  30.739  35.241  1.00  0.00     0.008 C 
ENDBRANCH  16  17
ENDBRANCH   6  16
BRANCH  15  20
ATOM     20  C   UNL A   1      33.222  36.384  32.774  1.00  0.00     0.430 C 
ATOM     21  F   UNL A   1      32.614  37.431  32.169  1.00  0.00    -0.167 F 
ATOM     22  F   UNL A   1      32.336  35.358  32.757  1.00  0.00    -0.167 F 
ATOM     23  F   UNL A   1      33.421  36.721  34.068  1.00  0.00    -0.167 F 
ENDBRANCH  15  20
ENDBRANCH   3   5
ENDBRANCH   2   3
ENDBRANCH   1   2
BRANCH   1  24
ATOM     24  C   UNL A   1      33.012  32.521  27.687  1.00  0.00     0.275 C 
BRANCH  24  25
ATOM     25  O   UNL A   1      34.334  32.022  27.960  1.00  0.00    -0.458 OA
BRANCH  25  26
ATOM     26  C   UNL A   1      34.531  30.714  27.697  1.00  0.00     0.338 C 
ATOM     27  O   UNL A   1      33.807  29.959  27.062  1.00  0.00    -0.246 OA
BRANCH  26  28
ATOM     28  C   UNL A   1      35.839  30.305  28.224  1.00  0.00     0.060 A 
ATOM     29  C   UNL A   1      35.965  29.695  29.467  1.00  0.00     0.016 A 
ATOM     30  C   UNL A   1      36.947  30.434  27.396  1.00  0.00     0.016 A 
ATOM     31  C   UNL A   1      37.227  29.245  29.878  1.00  0.00     0.010 A 
ATOM     32  C   UNL A   1      38.161  29.854  27.739  1.00  0.00     0.010 A 
ATOM     33  C   UNL A   1      38.336  29.296  29.010  1.00  0.00    -0.014 A 
BRANCH  33  34
ATOM     34  C   UNL A   1      39.686  28.820  29.423  1.00  0.00     0.031 A 
ATOM     35  C   UNL A   1      40.211  27.489  28.933  1.00  0.00     0.074 A 
ATOM     36  C   UNL A   1      40.432  29.558  30.270  1.00  0.00     0.049 A 
ATOM     37  N   UNL A   1      41.351  26.901  29.204  1.00  0.00    -0.248 NA
ATOM     38  C   UNL A   1      39.334  26.694  28.056  1.00  0.00     0.031 C 
ATOM     39  C   UNL A   1      40.018  30.824  30.878  1.00  0.00     0.029 A 
ATOM     40  N   UNL A   1      41.702  29.358  30.753  1.00  0.00    -0.354 N 
ATOM     41  C   UNL A   1      41.304  25.667  28.565  1.00  0.00     0.074 A 
ATOM     42  C   UNL A   1      40.002  25.556  27.950  1.00  0.00     0.031 C 
ATOM     43  C   UNL A   1      41.040  31.324  31.590  1.00  0.00     0.029 A 
ATOM     44  C   UNL A   1      42.163  30.393  31.532  1.00  0.00     0.049 A 
ATOM     45  H   UNL A   1      42.231  28.551  30.561  1.00  0.00     0.167 HD
ATOM     46  C   UNL A   1      42.269  24.724  28.460  1.00  0.00     0.031 A 
ATOM     47  C   UNL A   1      43.359  30.583  32.123  1.00  0.00     0.031 A 
ATOM     48  C   UNL A   1      43.587  24.861  29.014  1.00  0.00     0.049 A 
ATOM     49  C   UNL A   1      44.433  29.545  31.960  1.00  0.00     0.074 A 
ATOM     50  C   UNL A   1      44.665  24.003  28.883  1.00  0.00     0.029 A 
ATOM     51  N   UNL A   1      44.010  25.929  29.788  1.00  0.00    -0.354 N 
ATOM     52  N   UNL A   1      44.392  28.418  31.291  1.00  0.00    -0.248 NA
ATOM     53  C   UNL A   1      45.718  29.804  32.625  1.00  0.00     0.031 C 
ATOM     54  C   UNL A   1      45.728  24.530  29.620  1.00  0.00     0.029 A 
ATOM     55  C   UNL A   1      45.328  25.743  30.160  1.00  0.00     0.049 A 
ATOM     56  H   UNL A   1      43.455  26.703  30.036  1.00  0.00     0.167 HD
ATOM     57  C   UNL A   1      45.645  27.839  31.444  1.00  0.00     0.074 A 
ATOM     58  C   UNL A   1      46.433  28.749  32.251  1.00  0.00     0.031 C 
ATOM     59  C   UNL A   1      46.098  26.657  30.963  1.00  0.00     0.031 A 
BRANCH  46  60
ATOM     60  C   UNL A   1      41.956  23.472  27.685  1.00  0.00    -0.014 A 
ATOM     61  C   UNL A   1      41.344  22.383  28.327  1.00  0.00     0.009 A 
ATOM     62  C   UNL A   1      42.340  23.335  26.341  1.00  0.00     0.009 A 
ATOM     63  C   UNL A   1      41.127  21.185  27.642  1.00  0.00     0.001 A 
ATOM     64  C   UNL A   1      42.092  22.148  25.649  1.00  0.00     0.001 A 
ATOM     65  C   UNL A   1      41.494  21.071  26.302  1.00  0.00     0.000 A 
ENDBRANCH  46  60
BRANCH  47  66
ATOM     66  C   UNL A   1      43.609  31.842  32.875  1.00  0.00    -0.014 A 
ATOM     67  C   UNL A   1      43.991  33.017  32.207  1.00  0.00     0.009 A 
ATOM     68  C   UNL A   1      43.529  31.857  34.276  1.00  0.00     0.009 A 
ATOM     69  C   UNL A   1      44.313  34.169  32.926  1.00  0.00     0.001 A 
ATOM     70  C   UNL A   1      43.825  33.019  34.992  1.00  0.00     0.001 A 
ATOM     71  C   UNL A   1      44.227  34.171  34.318  1.00  0.00     0.000 A 
ENDBRANCH  47  66
BRANCH  59  72
ATOM     72  C   UNL A   1      47.509  26.258  31.285  1.00  0.00    -0.014 A 
ATOM     73  C   UNL A   1      48.514  26.404  30.314  1.00  0.00     0.009 A 
ATOM     74  C   UNL A   1      47.815  25.617  32.494  1.00  0.00     0.009 A 
ATOM     75  C   UNL A   1      49.793  25.895  30.540  1.00  0.00     0.001 A 
ATOM     76  C   UNL A   1      49.103  25.133  32.728  1.00  0.00     0.001 A 
ATOM     77  C   UNL A   1      50.088  25.262  31.747  1.00  0.00     0.000 A 
ENDBRANCH  59  72
ENDBRANCH  33  34
ENDBRANCH  26  28
ENDBRANCH  25  26
ENDBRANCH  24  25
ENDBRANCH   1  24
TORSDOF 14
ENDMDL
MODEL 3
REMARK VINA RESULT:     -10.7      0.441      5.964
REMARK SMILES CC(C)Cc1cc2c(cc1Cl)C=C(C(=O)OCCOC(=O)c1ccc(-c3c4nc(c(-c5ccccc5)c5ccc([nH]5)c(-c5ccccc5)c5nc(c(-c6ccccc6)c6ccc3[nH]6)C=C5)C=C4)cc1)[C@@H](C(F)(F)F)O2
REMARK SMILES IDX 17 1 16 2 14 3 15 4 13 5 5 6 6 7 10 8 7 9 9 10 11 11 8 12
REMARK SMILES IDX 75 13 12 14 70 15 4 16 2 17 1 18 3 19 71 20 72 21 73 22
REMARK SMILES IDX 74 23 18 24 19 25 20 26 21 27 22 28 23 29 69 30 24 31 68 32
REMARK SMILES IDX 25 33 26 34 27 35 62 36 28 37 67 38 61 39 63 40 29 41 66 42
REMARK SMILES IDX 60 43 59 44 30 46 52 47 37 48 51 49 38 50 41 51 50 52 64 53
REMARK SMILES IDX 39 54 40 55 49 57 65 58 42 59 31 60 32 61 36 62 33 63 35 64
REMARK SMILES IDX 34 65 53 66 54 67 58 68 55 69 57 70 56 71 43 72 44 73 48 74
REMARK SMILES IDX 45 75 47 76 46 77
REMARK H PARENT 63 45 41 56
REMARK Flexibility Score: inf
ROOT
ATOM      1  C   UNL A   1      31.992  28.412  26.398  1.00  0.00     0.275 C 
ENDROOT
BRANCH   1   2
ATOM      2  O   UNL A   1      32.884  27.281  26.508  1.00  0.00    -0.459 OA
BRANCH   2   3
ATOM      3  C   UNL A   1      33.424  26.853  25.341  1.00  0.00     0.338 C 
ATOM      4  O   UNL A   1      33.943  27.547  24.483  1.00  0.00    -0.246 OA
BRANCH   3   5
ATOM      5  C   UNL A   1      33.361  25.382  25.246  1.00  0.00     0.087 C 
ATOM      6  C   UNL A   1      34.550  20.516  24.765  1.00  0.00    -0.025 A 
ATOM      7  C   UNL A   1      33.337  21.237  24.751  1.00  0.00     0.052 A 
ATOM      8  C   UNL A   1      35.750  21.218  24.945  1.00  0.00     0.045 A 
ATOM      9  C   UNL A   1      33.321  22.621  24.928  1.00  0.00     0.128 A 
ATOM     10  C   UNL A   1      35.734  22.596  25.140  1.00  0.00     0.032 A 
ATOM     11  Cl  UNL A   1      37.295  20.444  24.924  1.00  0.00    -0.084 Cl
ATOM     12  C   UNL A   1      34.521  23.292  25.129  1.00  0.00     0.019 A 
ATOM     13  O   UNL A   1      32.103  23.243  24.923  1.00  0.00    -0.475 OA
ATOM     14  C   UNL A   1      34.521  24.723  25.318  1.00  0.00     0.027 C 
ATOM     15  C   UNL A   1      32.056  24.703  24.938  1.00  0.00     0.316 C 
BRANCH   6  16
ATOM     16  C   UNL A   1      34.511  19.010  24.630  1.00  0.00     0.040 C 
BRANCH  16  17
ATOM     17  C   UNL A   1      33.117  18.463  24.258  1.00  0.00    -0.013 C 
ATOM     18  C   UNL A   1      33.159  17.567  23.018  1.00  0.00     0.008 C 
ATOM     19  C   UNL A   1      32.528  17.695  25.441  1.00  0.00     0.008 C 
ENDBRANCH  16  17
ENDBRANCH   6  16
BRANCH  15  20
ATOM     20  C   UNL A   1      31.491  25.201  23.597  1.00  0.00     0.430 C 
ATOM     21  F   UNL A   1      30.925  26.425  23.721  1.00  0.00    -0.167 F 
ATOM     22  F   UNL A   1      32.464  25.317  22.661  1.00  0.00    -0.167 F 
ATOM     23  F   UNL A   1      30.551  24.366  23.099  1.00  0.00    -0.167 F 
ENDBRANCH  15  20
ENDBRANCH   3   5
ENDBRANCH   2   3
ENDBRANCH   1   2
BRANCH   1  24
ATOM     24  C   UNL A   1      32.651  29.701  26.894  1.00  0.00     0.275 C 
BRANCH  24  25
ATOM     25  O   UNL A   1      33.861  29.409  27.618  1.00  0.00    -0.458 OA
BRANCH  25  26
ATOM     26  C   UNL A   1      34.513  30.477  28.122  1.00  0.00     0.338 C 
ATOM     27  O   UNL A   1      34.053  31.580  28.386  1.00  0.00    -0.246 OA
BRANCH  26  28
ATOM     28  C   UNL A   1      35.903  30.105  28.410  1.00  0.00     0.060 A 
ATOM     29  C   UNL A   1      36.264  29.511  29.615  1.00  0.00     0.016 A 
ATOM     30  C   UNL A   1      36.843  30.251  27.397  1.00  0.00     0.016 A 
ATOM     31  C   UNL A   1      37.589  29.096  29.797  1.00  0.00     0.010 A 
ATOM     32  C   UNL A   1      38.112  29.702  27.522  1.00  0.00     0.010 A 
ATOM     33  C   UNL A   1      38.524  29.163  28.745  1.00  0.00    -0.014 A 
BRANCH  33  34
ATOM     34  C   UNL A   1      39.938  28.723  28.913  1.00  0.00     0.031 A 
ATOM     35  C   UNL A   1      40.962  29.655  29.520  1.00  0.00     0.074 A 
ATOM     36  C   UNL A   1      40.319  27.501  28.488  1.00  0.00     0.049 A 
ATOM     37  N   UNL A   1      42.242  29.455  29.725  1.00  0.00    -0.248 NA
ATOM     38  C   UNL A   1      40.507  31.000  29.915  1.00  0.00     0.031 C 
ATOM     39  C   UNL A   1      39.453  26.529  27.818  1.00  0.00     0.029 A 
ATOM     40  N   UNL A   1      41.532  26.862  28.571  1.00  0.00    -0.354 N 
ATOM     41  C   UNL A   1      42.737  30.651  30.232  1.00  0.00     0.074 A 
ATOM     42  C   UNL A   1      41.644  31.595  30.241  1.00  0.00     0.031 C 
ATOM     43  C   UNL A   1      40.139  25.393  27.620  1.00  0.00     0.029 A 
ATOM     44  C   UNL A   1      41.506  25.569  28.102  1.00  0.00     0.049 A 
ATOM     45  H   UNL A   1      42.343  27.287  28.932  1.00  0.00     0.167 HD
ATOM     46  C   UNL A   1      43.979  30.934  30.690  1.00  0.00     0.031 A 
ATOM     47  C   UNL A   1      42.466  24.625  28.072  1.00  0.00     0.031 A 
ATOM     48  C   UNL A   1      45.050  29.978  30.743  1.00  0.00     0.049 A 
ATOM     49  C   UNL A   1      43.827  24.943  28.624  1.00  0.00     0.074 A 
ATOM     50  C   UNL A   1      46.317  30.140  31.275  1.00  0.00     0.029 A 
ATOM     51  N   UNL A   1      44.974  28.681  30.263  1.00  0.00    -0.354 N 
ATOM     52  N   UNL A   1      44.255  26.058  29.167  1.00  0.00    -0.248 NA
ATOM     53  C   UNL A   1      44.836  23.875  28.569  1.00  0.00     0.031 C 
ATOM     54  C   UNL A   1      47.025  28.953  31.073  1.00  0.00     0.029 A 
ATOM     55  C   UNL A   1      46.179  28.036  30.469  1.00  0.00     0.049 A 
ATOM     56  H   UNL A   1      44.181  28.280  29.840  1.00  0.00     0.167 HD
ATOM     57  C   UNL A   1      45.575  25.824  29.526  1.00  0.00     0.074 A 
ATOM     58  C   UNL A   1      45.874  24.454  29.162  1.00  0.00     0.031 C 
ATOM     59  C   UNL A   1      46.461  26.673  30.100  1.00  0.00     0.031 A 
BRANCH  46  60
ATOM     60  C   UNL A   1      44.245  32.322  31.209  1.00  0.00    -0.014 A 
ATOM     61  C   UNL A   1      44.759  33.306  30.348  1.00  0.00     0.009 A 
ATOM     62  C   UNL A   1      44.068  32.636  32.566  1.00  0.00     0.009 A 
ATOM     63  C   UNL A   1      45.092  34.572  30.836  1.00  0.00     0.001 A 
ATOM     64  C   UNL A   1      44.370  33.912  33.044  1.00  0.00     0.001 A 
ATOM     65  C   UNL A   1      44.890  34.876  32.182  1.00  0.00     0.000 A 
ENDBRANCH  46  60
BRANCH  47  66
ATOM     66  C   UNL A   1      42.142  23.271  27.549  1.00  0.00    -0.014 A 
ATOM     67  C   UNL A   1      42.392  22.937  26.208  1.00  0.00     0.009 A 
ATOM     68  C   UNL A   1      41.518  22.324  28.376  1.00  0.00     0.009 A 
ATOM     69  C   UNL A   1      42.001  21.696  25.701  1.00  0.00     0.001 A 
ATOM     70  C   UNL A   1      41.153  21.073  27.874  1.00  0.00     0.001 A 
ATOM     71  C   UNL A   1      41.384  20.764  26.534  1.00  0.00     0.000 A 
ENDBRANCH  47  66
BRANCH  59  72
ATOM     72  C   UNL A   1      47.845  26.165  30.381  1.00  0.00    -0.014 A 
ATOM     73  C   UNL A   1      48.180  25.728  31.673  1.00  0.00     0.009 A 
ATOM     74  C   UNL A   1      48.849  26.243  29.405  1.00  0.00     0.009 A 
ATOM     75  C   UNL A   1      49.500  25.402  31.989  1.00  0.00     0.001 A 
ATOM     76  C   UNL A   1      50.163  25.890  29.717  1.00  0.00     0.001 A 
ATOM     77  C   UNL A   1      50.489  25.481  31.011  1.00  0.00     0.000 A 
ENDBRANCH  59  72
ENDBRANCH  33  34
ENDBRANCH  26  28
ENDBRANCH  25  26
ENDBRANCH  24  25
ENDBRANCH   1  24
TORSDOF 14
ENDMDL
