MODEL 1
REMARK VINA RESULT:     -11.3      0.000      0.000
REMARK SMILES O=C(CSc1nc(O)cc(=O)[nH]1)Nc1cccc(C(=O)OCCOC(=O)c2ccc(-c3c4nc(c(-c5ccccc5)c5ccc([nH]5)c(-c5ccccc5)c5nc(c(-c6ccccc6)c6ccc3[nH]6)C=C5)C=C4)cc2)c1
REMARK SMILES IDX 21 1 19 2 20 3 18 4 14 5 15 6 75 7 16 8 17 9 13 10 1 11 2 12
REMARK SMILES IDX 3 14 4 15 5 16 6 17 12 18 7 19 10 20 9 22 11 23 8 24 22 26
REMARK SMILES IDX 23 27 24 28 25 29 26 30 27 31 28 32 74 33 29 34 73 35 30 36
REMARK SMILES IDX 31 37 32 38 67 39 33 40 72 41 66 42 68 43 34 44 71 45 65 46
REMARK SMILES IDX 64 47 35 49 57 50 42 51 56 52 43 53 46 54 55 55 69 56 44 57
REMARK SMILES IDX 45 58 54 60 70 61 47 62 36 63 37 64 41 65 38 66 40 67 39 68
REMARK SMILES IDX 58 69 59 70 63 71 60 72 62 73 61 74 48 75 49 76 53 77 50 78
REMARK SMILES IDX 52 79 51 80
REMARK H PARENT 13 13 12 21 8 25 68 48 46 59
REMARK Flexibility Score: inf
ROOT
ATOM      1  O   UNL A   1      33.804  33.573  29.006  1.00  0.00    -0.458 OA
ENDROOT
BRANCH   1   2
ATOM      2  C   UNL A   1      34.794  33.342  28.109  1.00  0.00     0.338 C 
ATOM      3  O   UNL A   1      35.594  34.156  27.676  1.00  0.00    -0.246 OA
BRANCH   2   4
ATOM      4  C   UNL A   1      34.867  31.895  27.796  1.00  0.00     0.062 A 
ATOM      5  C   UNL A   1      33.851  29.831  27.047  1.00  0.00     0.042 A 
ATOM      6  C   UNL A   1      35.049  29.156  27.312  1.00  0.00     0.026 A 
ATOM      7  C   UNL A   1      33.749  31.196  27.331  1.00  0.00     0.041 A 
ATOM      8  C   UNL A   1      36.173  29.856  27.745  1.00  0.00     0.003 A 
ATOM      9  C   UNL A   1      36.090  31.230  27.949  1.00  0.00     0.016 A 
BRANCH   5  10
ATOM     10  N   UNL A   1      32.813  29.082  26.465  1.00  0.00    -0.325 N 
ATOM     11  O   UNL A   1      33.576  28.888  24.276  1.00  0.00    -0.274 OA
ATOM     12  C   UNL A   1      32.750  28.649  25.155  1.00  0.00     0.234 C 
ATOM     13  H   UNL A   1      32.057  28.842  27.048  1.00  0.00     0.169 HD
BRANCH  12  14
ATOM     14  C   UNL A   1      31.507  27.844  24.820  1.00  0.00     0.178 C 
BRANCH  14  15
ATOM     15  S   UNL A   1      31.074  27.850  23.058  1.00  0.00    -0.078 SA
BRANCH  15  16
ATOM     16  C   UNL A   1      29.638  28.824  23.097  1.00  0.00     0.172 A 
ATOM     17  N   UNL A   1      28.473  28.280  22.992  1.00  0.00    -0.189 NA
ATOM     18  N   UNL A   1      29.867  30.148  23.282  1.00  0.00    -0.301 N 
ATOM     19  C   UNL A   1      27.410  29.135  23.075  1.00  0.00     0.218 A 
ATOM     20  C   UNL A   1      28.840  31.036  23.375  1.00  0.00     0.255 A 
ATOM     21  H   UNL A   1      30.794  30.474  23.352  1.00  0.00     0.172 HD
ATOM     22  C   UNL A   1      27.498  30.454  23.255  1.00  0.00     0.139 A 
ATOM     23  O   UNL A   1      29.011  32.235  23.555  1.00  0.00    -0.269 OA
BRANCH  19  24
ATOM     24  O   UNL A   1      26.175  28.552  22.972  1.00  0.00    -0.493 OA
ATOM     25  H   UNL A   1      25.621  28.492  23.726  1.00  0.00     0.295 HD
ENDBRANCH  19  24
ENDBRANCH  15  16
ENDBRANCH  14  15
ENDBRANCH  12  14
ENDBRANCH   5  10
ENDBRANCH   2   4
ENDBRANCH   1   2
BRANCH   1  26
ATOM     26  C   UNL A   1      32.932  34.688  28.730  1.00  0.00     0.275 C 
BRANCH  26  27
ATOM     27  C   UNL A   1      33.070  35.764  29.806  1.00  0.00     0.275 C 
BRANCH  27  28
ATOM     28  O   UNL A   1      32.339  35.366  30.979  1.00  0.00    -0.458 OA
BRANCH  28  29
ATOM     29  C   UNL A   1      32.735  35.918  32.145  1.00  0.00     0.338 C 
ATOM     30  O   UNL A   1      32.262  36.883  32.722  1.00  0.00    -0.246 OA
BRANCH  29  31
ATOM     31  C   UNL A   1      33.868  35.145  32.673  1.00  0.00     0.060 A 
ATOM     32  C   UNL A   1      35.152  35.673  32.567  1.00  0.00     0.016 A 
ATOM     33  C   UNL A   1      33.675  33.860  33.175  1.00  0.00     0.016 A 
ATOM     34  C   UNL A   1      36.263  34.902  32.898  1.00  0.00     0.010 A 
ATOM     35  C   UNL A   1      34.785  33.112  33.579  1.00  0.00     0.010 A 
ATOM     36  C   UNL A   1      36.092  33.612  33.415  1.00  0.00    -0.014 A 
BRANCH  36  37
ATOM     37  C   UNL A   1      37.268  32.759  33.732  1.00  0.00     0.031 A 
ATOM     38  C   UNL A   1      37.983  32.936  35.044  1.00  0.00     0.074 A 
ATOM     39  C   UNL A   1      37.702  31.827  32.862  1.00  0.00     0.049 A 
ATOM     40  N   UNL A   1      39.142  32.462  35.425  1.00  0.00    -0.248 NA
ATOM     41  C   UNL A   1      37.309  33.764  36.057  1.00  0.00     0.031 C 
ATOM     42  C   UNL A   1      37.070  31.490  31.585  1.00  0.00     0.029 A 
ATOM     43  N   UNL A   1      38.789  30.989  32.927  1.00  0.00    -0.354 N 
ATOM     44  C   UNL A   1      39.366  32.987  36.692  1.00  0.00     0.074 A 
ATOM     45  C   UNL A   1      38.217  33.804  37.021  1.00  0.00     0.031 C 
ATOM     46  C   UNL A   1      37.765  30.502  30.999  1.00  0.00     0.029 A 
ATOM     47  C   UNL A   1      38.933  30.193  31.816  1.00  0.00     0.049 A 
ATOM     48  H   UNL A   1      39.404  30.961  33.694  1.00  0.00     0.167 HD
ATOM     49  C   UNL A   1      40.436  32.813  37.503  1.00  0.00     0.031 A 
ATOM     50  C   UNL A   1      39.918  29.344  31.469  1.00  0.00     0.031 A 
ATOM     51  C   UNL A   1      41.559  31.969  37.196  1.00  0.00     0.049 A 
ATOM     52  C   UNL A   1      41.113  29.192  32.367  1.00  0.00     0.074 A 
ATOM     53  C   UNL A   1      42.697  31.736  37.949  1.00  0.00     0.029 A 
ATOM     54  N   UNL A   1      41.674  31.202  36.048  1.00  0.00    -0.354 N 
ATOM     55  N   UNL A   1      41.353  29.759  33.523  1.00  0.00    -0.248 NA
ATOM     56  C   UNL A   1      42.182  28.298  31.899  1.00  0.00     0.031 C 
ATOM     57  C   UNL A   1      43.513  30.845  37.243  1.00  0.00     0.029 A 
ATOM     58  C   UNL A   1      42.864  30.496  36.070  1.00  0.00     0.049 A 
ATOM     59  H   UNL A   1      41.008  31.163  35.324  1.00  0.00     0.167 HD
ATOM     60  C   UNL A   1      42.595  29.286  33.925  1.00  0.00     0.074 A 
ATOM     61  C   UNL A   1      43.050  28.371  32.899  1.00  0.00     0.031 C 
ATOM     62  C   UNL A   1      43.298  29.588  35.043  1.00  0.00     0.031 A 
BRANCH  49  63
ATOM     63  C   UNL A   1      40.464  33.596  38.783  1.00  0.00    -0.014 A 
ATOM     64  C   UNL A   1      41.031  34.878  38.849  1.00  0.00     0.009 A 
ATOM     65  C   UNL A   1      39.888  33.046  39.939  1.00  0.00     0.009 A 
ATOM     66  C   UNL A   1      41.045  35.580  40.056  1.00  0.00     0.001 A 
ATOM     67  C   UNL A   1      39.883  33.760  41.137  1.00  0.00     0.001 A 
ATOM     68  C   UNL A   1      40.469  35.023  41.198  1.00  0.00     0.000 A 
ENDBRANCH  49  63
BRANCH  50  69
ATOM     69  C   UNL A   1      39.843  28.612  30.179  1.00  0.00    -0.014 A 
ATOM     70  C   UNL A   1      40.267  29.219  28.989  1.00  0.00     0.009 A 
ATOM     71  C   UNL A   1      39.349  27.298  30.135  1.00  0.00     0.009 A 
ATOM     72  C   UNL A   1      40.187  28.530  27.777  1.00  0.00     0.001 A 
ATOM     73  C   UNL A   1      39.296  26.601  28.926  1.00  0.00     0.001 A 
ATOM     74  C   UNL A   1      39.708  27.220  27.748  1.00  0.00     0.000 A 
ENDBRANCH  50  69
BRANCH  62  75
ATOM     75  C   UNL A   1      44.616  28.897  35.227  1.00  0.00    -0.014 A 
ATOM     76  C   UNL A   1      44.691  27.631  35.826  1.00  0.00     0.009 A 
ATOM     77  C   UNL A   1      45.791  29.506  34.763  1.00  0.00     0.009 A 
ATOM     78  C   UNL A   1      45.925  26.997  35.979  1.00  0.00     0.001 A 
ATOM     79  C   UNL A   1      47.021  28.862  34.900  1.00  0.00     0.001 A 
ATOM     80  C   UNL A   1      47.089  27.612  35.513  1.00  0.00     0.000 A 
ENDBRANCH  62  75
ENDBRANCH  36  37
ENDBRANCH  29  31
ENDBRANCH  28  29
ENDBRANCH  27  28
ENDBRANCH  26  27
ENDBRANCH   1  26
TORSDOF 16
ENDMDL
MODEL 2
REMARK VINA RESULT:     -11.2      4.396      6.682
REMARK SMILES O=C(CSc1nc(O)cc(=O)[nH]1)Nc1cccc(C(=O)OCCOC(=O)c2ccc(-c3c4nc(c(-c5ccccc5)c5ccc([nH]5)c(-c5ccccc5)c5nc(c(-c6ccccc6)c6ccc3[nH]6)C=C5)C=C4)cc2)c1
REMARK SMILES IDX 21 1 19 2 20 3 18 4 14 5 15 6 75 7 16 8 17 9 13 10 1 11 2 12
REMARK SMILES IDX 3 14 4 15 5 16 6 17 12 18 7 19 10 20 9 22 11 23 8 24 22 26
REMARK SMILES IDX 23 27 24 28 25 29 26 30 27 31 28 32 74 33 29 34 73 35 30 36
REMARK SMILES IDX 31 37 32 38 67 39 33 40 72 41 66 42 68 43 34 44 71 45 65 46
REMARK SMILES IDX 64 47 35 49 57 50 42 51 56 52 43 53 46 54 55 55 69 56 44 57
REMARK SMILES IDX 45 58 54 60 70 61 47 62 36 63 37 64 41 65 38 66 40 67 39 68
REMARK SMILES IDX 58 69 59 70 63 71 60 72 62 73 61 74 48 75 49 76 53 77 50 78
REMARK SMILES IDX 52 79 51 80
REMARK H PARENT 13 13 12 21 8 25 68 48 46 59
REMARK Flexibility Score: inf
ROOT
ATOM      1  O   UNL A   1      34.355  33.987  29.296  1.00  0.00    -0.458 OA
ENDROOT
BRANCH   1   2
ATOM      2  C   UNL A   1      33.491  33.490  28.377  1.00  0.00     0.338 C 
ATOM      3  O   UNL A   1      32.541  34.070  27.877  1.00  0.00    -0.246 OA
BRANCH   2   4
ATOM      4  C   UNL A   1      33.928  32.140  27.946  1.00  0.00     0.062 A 
ATOM      5  C   UNL A   1      33.459  29.939  27.060  1.00  0.00     0.042 A 
ATOM      6  C   UNL A   1      34.804  29.591  27.238  1.00  0.00     0.026 A 
ATOM      7  C   UNL A   1      33.014  31.203  27.456  1.00  0.00     0.041 A 
ATOM      8  C   UNL A   1      35.722  30.533  27.696  1.00  0.00     0.003 A 
ATOM      9  C   UNL A   1      35.289  31.817  28.013  1.00  0.00     0.016 A 
BRANCH   5  10
ATOM     10  N   UNL A   1      32.630  28.983  26.447  1.00  0.00    -0.325 N 
ATOM     11  O   UNL A   1      33.078  29.379  24.199  1.00  0.00    -0.274 OA
ATOM     12  C   UNL A   1      32.509  28.752  25.090  1.00  0.00     0.234 C 
ATOM     13  H   UNL A   1      32.081  28.423  27.043  1.00  0.00     0.169 HD
BRANCH  12  14
ATOM     14  C   UNL A   1      31.541  27.639  24.728  1.00  0.00     0.178 C 
BRANCH  14  15
ATOM     15  S   UNL A   1      31.015  27.653  22.991  1.00  0.00    -0.078 SA
BRANCH  15  16
ATOM     16  C   UNL A   1      29.627  28.689  23.099  1.00  0.00     0.172 A 
ATOM     17  N   UNL A   1      28.436  28.202  23.013  1.00  0.00    -0.189 NA
ATOM     18  N   UNL A   1      29.921  29.996  23.312  1.00  0.00    -0.301 N 
ATOM     19  C   UNL A   1      27.416  29.100  23.150  1.00  0.00     0.218 A 
ATOM     20  C   UNL A   1      28.938  30.926  23.459  1.00  0.00     0.255 A 
ATOM     21  H   UNL A   1      30.863  30.278  23.363  1.00  0.00     0.172 HD
ATOM     22  C   UNL A   1      27.569  30.408  23.362  1.00  0.00     0.139 A 
ATOM     23  O   UNL A   1      29.169  32.110  23.666  1.00  0.00    -0.269 OA
BRANCH  19  24
ATOM     24  O   UNL A   1      26.153  28.576  23.068  1.00  0.00    -0.493 OA
ATOM     25  H   UNL A   1      25.687  28.602  22.255  1.00  0.00     0.295 HD
ENDBRANCH  19  24
ENDBRANCH  15  16
ENDBRANCH  14  15
ENDBRANCH  12  14
ENDBRANCH   5  10
ENDBRANCH   2   4
ENDBRANCH   1   2
BRANCH   1  26
ATOM     26  C   UNL A   1      33.790  34.820  30.328  1.00  0.00     0.275 C 
BRANCH  26  27
ATOM     27  C   UNL A   1      34.315  34.411  31.703  1.00  0.00     0.275 C 
BRANCH  27  28
ATOM     28  O   UNL A   1      34.599  33.001  31.708  1.00  0.00    -0.458 OA
BRANCH  28  29
ATOM     29  C   UNL A   1      35.546  32.587  32.576  1.00  0.00     0.338 C 
ATOM     30  O   UNL A   1      35.561  32.706  33.790  1.00  0.00    -0.246 OA
BRANCH  29  31
ATOM     31  C   UNL A   1      36.613  31.912  31.825  1.00  0.00     0.060 A 
ATOM     32  C   UNL A   1      37.187  30.760  32.356  1.00  0.00     0.016 A 
ATOM     33  C   UNL A   1      37.117  32.473  30.653  1.00  0.00     0.016 A 
ATOM     34  C   UNL A   1      38.310  30.191  31.762  1.00  0.00     0.010 A 
ATOM     35  C   UNL A   1      38.198  31.859  30.013  1.00  0.00     0.010 A 
ATOM     36  C   UNL A   1      38.826  30.731  30.577  1.00  0.00    -0.014 A 
BRANCH  36  37
ATOM     37  C   UNL A   1      40.051  30.163  29.955  1.00  0.00     0.031 A 
ATOM     38  C   UNL A   1      41.301  30.997  29.877  1.00  0.00     0.074 A 
ATOM     39  C   UNL A   1      40.060  28.909  29.462  1.00  0.00     0.049 A 
ATOM     40  N   UNL A   1      42.396  30.785  29.192  1.00  0.00    -0.248 NA
ATOM     41  C   UNL A   1      41.316  32.239  30.667  1.00  0.00     0.031 C 
ATOM     42  C   UNL A   1      38.951  27.956  29.530  1.00  0.00     0.029 A 
ATOM     43  N   UNL A   1      41.049  28.221  28.801  1.00  0.00    -0.354 N 
ATOM     44  C   UNL A   1      43.201  31.896  29.414  1.00  0.00     0.074 A 
ATOM     45  C   UNL A   1      42.475  32.772  30.309  1.00  0.00     0.031 C 
ATOM     46  C   UNL A   1      39.328  26.803  28.957  1.00  0.00     0.029 A 
ATOM     47  C   UNL A   1      40.671  26.960  28.411  1.00  0.00     0.049 A 
ATOM     48  H   UNL A   1      41.941  28.596  28.624  1.00  0.00     0.167 HD
ATOM     49  C   UNL A   1      44.428  32.165  28.911  1.00  0.00     0.031 A 
ATOM     50  C   UNL A   1      41.312  26.047  27.656  1.00  0.00     0.031 A 
ATOM     51  C   UNL A   1      45.169  31.276  28.056  1.00  0.00     0.049 A 
ATOM     52  C   UNL A   1      42.658  26.380  27.079  1.00  0.00     0.074 A 
ATOM     53  C   UNL A   1      46.416  31.465  27.485  1.00  0.00     0.029 A 
ATOM     54  N   UNL A   1      44.735  30.020  27.666  1.00  0.00    -0.354 N 
ATOM     55  N   UNL A   1      43.372  27.469  27.227  1.00  0.00    -0.248 NA
ATOM     56  C   UNL A   1      43.275  25.366  26.213  1.00  0.00     0.031 C 
ATOM     57  C   UNL A   1      46.727  30.330  26.729  1.00  0.00     0.029 A 
ATOM     58  C   UNL A   1      45.688  29.422  26.860  1.00  0.00     0.049 A 
ATOM     59  H   UNL A   1      43.877  29.612  27.923  1.00  0.00     0.167 HD
ATOM     60  C   UNL A   1      44.525  27.268  26.480  1.00  0.00     0.074 A 
ATOM     61  C   UNL A   1      44.425  25.946  25.896  1.00  0.00     0.031 C 
ATOM     62  C   UNL A   1      45.572  28.106  26.291  1.00  0.00     0.031 A 
BRANCH  49  63
ATOM     63  C   UNL A   1      45.025  33.504  29.233  1.00  0.00    -0.014 A 
ATOM     64  C   UNL A   1      45.858  33.689  30.347  1.00  0.00     0.009 A 
ATOM     65  C   UNL A   1      44.767  34.594  28.387  1.00  0.00     0.009 A 
ATOM     66  C   UNL A   1      46.396  34.948  30.622  1.00  0.00     0.001 A 
ATOM     67  C   UNL A   1      45.324  35.845  28.652  1.00  0.00     0.001 A 
ATOM     68  C   UNL A   1      46.132  36.023  29.773  1.00  0.00     0.000 A 
ENDBRANCH  49  63
BRANCH  50  69
ATOM     69  C   UNL A   1      40.660  24.747  27.356  1.00  0.00    -0.014 A 
ATOM     70  C   UNL A   1      39.552  24.687  26.498  1.00  0.00     0.009 A 
ATOM     71  C   UNL A   1      41.148  23.559  27.923  1.00  0.00     0.009 A 
ATOM     72  C   UNL A   1      38.938  23.463  26.225  1.00  0.00     0.001 A 
ATOM     73  C   UNL A   1      40.548  22.334  27.626  1.00  0.00     0.001 A 
ATOM     74  C   UNL A   1      39.440  22.288  26.783  1.00  0.00     0.000 A 
ENDBRANCH  50  69
BRANCH  62  75
ATOM     75  C   UNL A   1      46.704  27.605  25.444  1.00  0.00    -0.014 A 
ATOM     76  C   UNL A   1      46.779  27.918  24.079  1.00  0.00     0.009 A 
ATOM     77  C   UNL A   1      47.724  26.840  26.029  1.00  0.00     0.009 A 
ATOM     78  C   UNL A   1      47.846  27.452  23.308  1.00  0.00     0.001 A 
ATOM     79  C   UNL A   1      48.798  26.392  25.260  1.00  0.00     0.001 A 
ATOM     80  C   UNL A   1      48.855  26.692  23.900  1.00  0.00     0.000 A 
ENDBRANCH  62  75
ENDBRANCH  36  37
ENDBRANCH  29  31
ENDBRANCH  28  29
ENDBRANCH  27  28
ENDBRANCH  26  27
ENDBRANCH   1  26
TORSDOF 16
ENDMDL
MODEL 3
REMARK VINA RESULT:     -10.8      1.912      2.830
REMARK SMILES O=C(CSc1nc(O)cc(=O)[nH]1)Nc1cccc(C(=O)OCCOC(=O)c2ccc(-c3c4nc(c(-c5ccccc5)c5ccc([nH]5)c(-c5ccccc5)c5nc(c(-c6ccccc6)c6ccc3[nH]6)C=C5)C=C4)cc2)c1
REMARK SMILES IDX 21 1 19 2 20 3 18 4 14 5 15 6 75 7 16 8 17 9 13 10 1 11 2 12
REMARK SMILES IDX 3 14 4 15 5 16 6 17 12 18 7 19 10 20 9 22 11 23 8 24 22 26
REMARK SMILES IDX 23 27 24 28 25 29 26 30 27 31 28 32 74 33 29 34 73 35 30 36
REMARK SMILES IDX 31 37 32 38 67 39 33 40 72 41 66 42 68 43 34 44 71 45 65 46
REMARK SMILES IDX 64 47 35 49 57 50 42 51 56 52 43 53 46 54 55 55 69 56 44 57
REMARK SMILES IDX 45 58 54 60 70 61 47 62 36 63 37 64 41 65 38 66 40 67 39 68
REMARK SMILES IDX 58 69 59 70 63 71 60 72 62 73 61 74 48 75 49 76 53 77 50 78
REMARK SMILES IDX 52 79 51 80
REMARK H PARENT 13 13 12 21 8 25 68 48 46 59
REMARK Flexibility Score: inf
ROOT
ATOM      1  O   UNL A   1      34.028  33.675  29.321  1.00  0.00    -0.458 OA
ENDROOT
BRANCH   1   2
ATOM      2  C   UNL A   1      35.241  33.438  28.764  1.00  0.00     0.338 C 
ATOM      3  O   UNL A   1      36.191  34.202  28.726  1.00  0.00    -0.246 OA
BRANCH   2   4
ATOM      4  C   UNL A   1      35.317  32.034  28.293  1.00  0.00     0.062 A 
ATOM      5  C   UNL A   1      34.284  29.906  27.786  1.00  0.00     0.042 A 
ATOM      6  C   UNL A   1      35.544  29.376  27.484  1.00  0.00     0.026 A 
ATOM      7  C   UNL A   1      34.178  31.226  28.232  1.00  0.00     0.041 A 
ATOM      8  C   UNL A   1      36.676  30.188  27.513  1.00  0.00     0.003 A 
ATOM      9  C   UNL A   1      36.554  31.524  27.881  1.00  0.00     0.016 A 
BRANCH   5  10
ATOM     10  N   UNL A   1      33.174  29.066  27.581  1.00  0.00    -0.325 N 
ATOM     11  O   UNL A   1      33.229  28.810  25.269  1.00  0.00    -0.274 OA
ATOM     12  C   UNL A   1      32.738  28.565  26.370  1.00  0.00     0.234 C 
ATOM     13  H   UNL A   1      32.657  28.810  28.379  1.00  0.00     0.169 HD
BRANCH  12  14
ATOM     14  C   UNL A   1      31.516  27.669  26.466  1.00  0.00     0.178 C 
BRANCH  14  15
ATOM     15  S   UNL A   1      31.185  26.705  24.964  1.00  0.00    -0.078 SA
BRANCH  15  16
ATOM     16  C   UNL A   1      31.371  25.096  25.584  1.00  0.00     0.172 A 
ATOM     17  N   UNL A   1      30.523  24.616  26.430  1.00  0.00    -0.189 NA
ATOM     18  N   UNL A   1      32.430  24.419  25.074  1.00  0.00    -0.301 N 
ATOM     19  C   UNL A   1      30.742  23.326  26.823  1.00  0.00     0.218 A 
ATOM     20  C   UNL A   1      32.685  23.131  25.433  1.00  0.00     0.255 A 
ATOM     21  H   UNL A   1      33.025  24.868  24.431  1.00  0.00     0.172 HD
ATOM     22  C   UNL A   1      31.743  22.554  26.398  1.00  0.00     0.139 A 
ATOM     23  O   UNL A   1      33.624  22.489  24.980  1.00  0.00    -0.269 OA
BRANCH  19  24
ATOM     24  O   UNL A   1      29.834  22.819  27.715  1.00  0.00    -0.493 OA
ATOM     25  H   UNL A   1      29.369  23.395  28.289  1.00  0.00     0.295 HD
ENDBRANCH  19  24
ENDBRANCH  15  16
ENDBRANCH  14  15
ENDBRANCH  12  14
ENDBRANCH   5  10
ENDBRANCH   2   4
ENDBRANCH   1   2
BRANCH   1  26
ATOM     26  C   UNL A   1      33.256  34.751  28.749  1.00  0.00     0.275 C 
BRANCH  26  27
ATOM     27  C   UNL A   1      33.062  35.877  29.763  1.00  0.00     0.275 C 
BRANCH  27  28
ATOM     28  O   UNL A   1      32.390  35.364  30.926  1.00  0.00    -0.458 OA
BRANCH  28  29
ATOM     29  C   UNL A   1      32.761  35.893  32.111  1.00  0.00     0.338 C 
ATOM     30  O   UNL A   1      32.273  36.842  32.701  1.00  0.00    -0.246 OA
BRANCH  29  31
ATOM     31  C   UNL A   1      33.887  35.113  32.643  1.00  0.00     0.060 A 
ATOM     32  C   UNL A   1      35.172  35.646  32.568  1.00  0.00     0.016 A 
ATOM     33  C   UNL A   1      33.690  33.818  33.118  1.00  0.00     0.016 A 
ATOM     34  C   UNL A   1      36.279  34.872  32.903  1.00  0.00     0.010 A 
ATOM     35  C   UNL A   1      34.796  33.065  33.526  1.00  0.00     0.010 A 
ATOM     36  C   UNL A   1      36.103  33.572  33.393  1.00  0.00    -0.014 A 
BRANCH  36  37
ATOM     37  C   UNL A   1      37.277  32.717  33.713  1.00  0.00     0.031 A 
ATOM     38  C   UNL A   1      37.995  32.898  35.023  1.00  0.00     0.074 A 
ATOM     39  C   UNL A   1      37.707  31.779  32.847  1.00  0.00     0.049 A 
ATOM     40  N   UNL A   1      39.153  32.422  35.405  1.00  0.00    -0.248 NA
ATOM     41  C   UNL A   1      37.324  33.734  36.032  1.00  0.00     0.031 C 
ATOM     42  C   UNL A   1      37.072  31.437  31.573  1.00  0.00     0.029 A 
ATOM     43  N   UNL A   1      38.790  30.936  32.915  1.00  0.00    -0.354 N 
ATOM     44  C   UNL A   1      39.380  32.953  36.669  1.00  0.00     0.074 A 
ATOM     45  C   UNL A   1      38.234  33.775  36.995  1.00  0.00     0.031 C 
ATOM     46  C   UNL A   1      37.762  30.443  30.992  1.00  0.00     0.029 A 
ATOM     47  C   UNL A   1      38.930  30.135  31.809  1.00  0.00     0.049 A 
ATOM     48  H   UNL A   1      39.406  30.911  33.682  1.00  0.00     0.167 HD
ATOM     49  C   UNL A   1      40.450  32.780  37.479  1.00  0.00     0.031 A 
ATOM     50  C   UNL A   1      39.912  29.279  31.465  1.00  0.00     0.031 A 
ATOM     51  C   UNL A   1      41.570  31.929  37.175  1.00  0.00     0.049 A 
ATOM     52  C   UNL A   1      41.107  29.128  32.362  1.00  0.00     0.074 A 
ATOM     53  C   UNL A   1      42.708  31.696  37.928  1.00  0.00     0.029 A 
ATOM     54  N   UNL A   1      41.680  31.156  36.032  1.00  0.00    -0.354 N 
ATOM     55  N   UNL A   1      41.351  29.701  33.515  1.00  0.00    -0.248 NA
ATOM     56  C   UNL A   1      42.173  28.228  31.897  1.00  0.00     0.031 C 
ATOM     57  C   UNL A   1      43.520  30.798  37.226  1.00  0.00     0.029 A 
ATOM     58  C   UNL A   1      42.868  30.445  36.056  1.00  0.00     0.049 A 
ATOM     59  H   UNL A   1      41.013  31.115  35.309  1.00  0.00     0.167 HD
ATOM     60  C   UNL A   1      42.591  29.225  33.918  1.00  0.00     0.074 A 
ATOM     61  C   UNL A   1      43.042  28.303  32.896  1.00  0.00     0.031 C 
ATOM     62  C   UNL A   1      43.298  29.531  35.033  1.00  0.00     0.031 A 
BRANCH  49  63
ATOM     63  C   UNL A   1      40.483  33.569  38.755  1.00  0.00    -0.014 A 
ATOM     64  C   UNL A   1      39.971  33.052  39.954  1.00  0.00     0.009 A 
ATOM     65  C   UNL A   1      41.063  34.848  38.757  1.00  0.00     0.009 A 
ATOM     66  C   UNL A   1      40.013  33.813  41.124  1.00  0.00     0.001 A 
ATOM     67  C   UNL A   1      41.124  35.597  39.933  1.00  0.00     0.001 A 
ATOM     68  C   UNL A   1      40.592  35.082  41.114  1.00  0.00     0.000 A 
ENDBRANCH  49  63
BRANCH  50  69
ATOM     69  C   UNL A   1      39.832  28.541  30.179  1.00  0.00    -0.014 A 
ATOM     70  C   UNL A   1      39.327  27.233  30.138  1.00  0.00     0.009 A 
ATOM     71  C   UNL A   1      40.258  29.144  28.985  1.00  0.00     0.009 A 
ATOM     72  C   UNL A   1      39.262  26.540  28.928  1.00  0.00     0.001 A 
ATOM     73  C   UNL A   1      40.166  28.458  27.772  1.00  0.00     0.001 A 
ATOM     74  C   UNL A   1      39.675  27.154  27.746  1.00  0.00     0.000 A 
ENDBRANCH  50  69
BRANCH  62  75
ATOM     75  C   UNL A   1      44.613  28.836  35.219  1.00  0.00    -0.014 A 
ATOM     76  C   UNL A   1      45.805  29.408  34.750  1.00  0.00     0.009 A 
ATOM     77  C   UNL A   1      44.663  27.612  35.902  1.00  0.00     0.009 A 
ATOM     78  C   UNL A   1      47.023  28.752  34.943  1.00  0.00     0.001 A 
ATOM     79  C   UNL A   1      45.883  26.969  36.109  1.00  0.00     0.001 A 
ATOM     80  C   UNL A   1      47.061  27.535  35.624  1.00  0.00     0.000 A 
ENDBRANCH  62  75
ENDBRANCH  36  37
ENDBRANCH  29  31
ENDBRANCH  28  29
ENDBRANCH  27  28
ENDBRANCH  26  27
ENDBRANCH   1  26
TORSDOF 16
ENDMDL
