MODEL 1
REMARK VINA RESULT:     -10.1      0.000      0.000
REMARK SMILES CC(C)C[C@H](CNC(=O)N[C@@H](C)c1nccs1)C(=O)OCCOC(=O)c1ccc(-c2c3nc(c(-c4ccccc4)c4ccc([nH]4)c(-c4ccccc4)c4nc(c(-c5ccccc5)c5ccc2[nH]5)C=C4)C=C3)cc1
REMARK SMILES IDX 21 1 20 2 18 3 19 4 5 5 4 6 2 7 1 8 3 9 6 10 7 11 8 12 9 14
REMARK SMILES IDX 10 15 11 17 12 18 13 19 14 20 17 21 15 22 16 23 22 24 23 25
REMARK SMILES IDX 24 26 25 27 26 28 27 29 73 30 28 31 72 32 29 33 30 34 31 35
REMARK SMILES IDX 66 36 32 37 71 38 65 39 67 40 33 41 70 42 64 43 63 44 34 46
REMARK SMILES IDX 56 47 41 48 55 49 42 50 45 51 54 52 68 53 43 54 44 55 53 57
REMARK SMILES IDX 69 58 46 59 35 60 36 61 40 62 37 63 39 64 38 65 57 66 58 67
REMARK SMILES IDX 62 68 59 69 61 70 60 71 47 72 48 73 52 74 49 75 51 76 50 77
REMARK H PARENT 7 13 10 16 67 45 45 56
REMARK Flexibility Score: inf
ROOT
ATOM      1  C   UNL A   1      36.250  21.341  24.860  1.00  0.00     0.274 C 
ENDROOT
BRANCH   1   2
ATOM      2  O   UNL A   1      34.949  21.964  24.877  1.00  0.00    -0.462 OA
BRANCH   2   3
ATOM      3  C   UNL A   1      34.084  21.498  25.816  1.00  0.00     0.310 C 
ATOM      4  O   UNL A   1      34.312  21.483  27.020  1.00  0.00    -0.252 OA
BRANCH   3   5
ATOM      5  C   UNL A   1      32.756  21.055  25.234  1.00  0.00     0.119 C 
BRANCH   5   6
ATOM      6  C   UNL A   1      32.779  20.128  24.003  1.00  0.00     0.020 C 
BRANCH   6   7
ATOM      7  C   UNL A   1      32.300  18.668  24.142  1.00  0.00    -0.017 C 
ATOM      8  C   UNL A   1      32.865  17.736  23.064  1.00  0.00     0.007 C 
ATOM      9  C   UNL A   1      32.747  18.136  25.512  1.00  0.00     0.007 C 
ENDBRANCH   6   7
ENDBRANCH   5   6
BRANCH   5  10
ATOM     10  C   UNL A   1      31.745  22.223  25.206  1.00  0.00     0.133 C 
BRANCH  10  11
ATOM     11  N   UNL A   1      30.805  22.265  26.309  1.00  0.00    -0.337 N 
ATOM     12  C   UNL A   1      30.021  23.184  26.873  1.00  0.00     0.315 C 
ATOM     13  H   UNL A   1      30.724  21.391  26.756  1.00  0.00     0.165 HD
ATOM     14  O   UNL A   1      29.364  22.834  27.857  1.00  0.00    -0.249 OA
ATOM     15  N   UNL A   1      29.879  24.445  26.472  1.00  0.00    -0.329 N 
ATOM     16  H   UNL A   1      29.257  24.941  27.053  1.00  0.00     0.166 HD
BRANCH  15  17
ATOM     17  C   UNL A   1      30.401  25.288  25.403  1.00  0.00     0.140 C 
ATOM     18  C   UNL A   1      29.256  25.990  24.672  1.00  0.00     0.039 C 
BRANCH  17  19
ATOM     19  C   UNL A   1      31.436  26.233  25.973  1.00  0.00     0.115 A 
ATOM     20  N   UNL A   1      31.143  27.232  26.786  1.00  0.00    -0.247 NA
ATOM     21  S   UNL A   1      33.111  26.087  25.577  1.00  0.00    -0.125 S 
ATOM     22  C   UNL A   1      32.295  27.914  27.128  1.00  0.00     0.123 A 
ATOM     23  C   UNL A   1      33.461  27.423  26.586  1.00  0.00     0.087 A 
ENDBRANCH  17  19
ENDBRANCH  15  17
ENDBRANCH  10  11
ENDBRANCH   5  10
ENDBRANCH   3   5
ENDBRANCH   2   3
ENDBRANCH   1   2
BRANCH   1  24
ATOM     24  C   UNL A   1      37.373  22.352  24.592  1.00  0.00     0.275 C 
BRANCH  24  25
ATOM     25  O   UNL A   1      37.698  23.121  25.769  1.00  0.00    -0.458 OA
BRANCH  25  26
ATOM     26  C   UNL A   1      38.927  22.914  26.290  1.00  0.00     0.338 C 
ATOM     27  O   UNL A   1      39.598  21.893  26.231  1.00  0.00    -0.246 OA
BRANCH  26  28
ATOM     28  C   UNL A   1      39.456  24.164  26.853  1.00  0.00     0.060 A 
ATOM     29  C   UNL A   1      39.181  24.451  28.193  1.00  0.00     0.016 A 
ATOM     30  C   UNL A   1      40.130  25.090  26.057  1.00  0.00     0.016 A 
ATOM     31  C   UNL A   1      39.591  25.653  28.757  1.00  0.00     0.010 A 
ATOM     32  C   UNL A   1      40.533  26.305  26.618  1.00  0.00     0.010 A 
ATOM     33  C   UNL A   1      40.260  26.594  27.968  1.00  0.00    -0.014 A 
BRANCH  33  34
ATOM     34  C   UNL A   1      40.625  27.908  28.541  1.00  0.00     0.031 A 
ATOM     35  C   UNL A   1      42.011  28.128  29.063  1.00  0.00     0.074 A 
ATOM     36  C   UNL A   1      39.713  28.895  28.595  1.00  0.00     0.049 A 
ATOM     37  N   UNL A   1      42.490  29.142  29.737  1.00  0.00    -0.248 NA
ATOM     38  C   UNL A   1      42.990  27.064  28.792  1.00  0.00     0.031 C 
ATOM     39  C   UNL A   1      38.355  28.823  28.058  1.00  0.00     0.029 A 
ATOM     40  N   UNL A   1      39.794  30.148  29.146  1.00  0.00    -0.354 N 
ATOM     41  C   UNL A   1      43.815  28.823  30.002  1.00  0.00     0.074 A 
ATOM     42  C   UNL A   1      44.067  27.525  29.413  1.00  0.00     0.031 C 
ATOM     43  C   UNL A   1      37.720  29.976  28.326  1.00  0.00     0.029 A 
ATOM     44  C   UNL A   1      38.609  30.841  29.096  1.00  0.00     0.049 A 
ATOM     45  H   UNL A   1      40.619  30.515  29.539  1.00  0.00     0.167 HD
ATOM     46  C   UNL A   1      44.734  29.546  30.684  1.00  0.00     0.031 A 
ATOM     47  C   UNL A   1      38.266  32.018  29.651  1.00  0.00     0.031 A 
ATOM     48  C   UNL A   1      44.478  30.837  31.266  1.00  0.00     0.049 A 
ATOM     49  C   UNL A   1      39.280  32.771  30.466  1.00  0.00     0.074 A 
ATOM     50  C   UNL A   1      45.345  31.654  31.968  1.00  0.00     0.029 A 
ATOM     51  N   UNL A   1      43.259  31.494  31.214  1.00  0.00    -0.354 N 
ATOM     52  N   UNL A   1      40.527  32.457  30.724  1.00  0.00    -0.248 NA
ATOM     53  C   UNL A   1      38.838  34.035  31.070  1.00  0.00     0.031 C 
ATOM     54  C   UNL A   1      44.637  32.789  32.379  1.00  0.00     0.029 A 
ATOM     55  C   UNL A   1      43.342  32.696  31.894  1.00  0.00     0.049 A 
ATOM     56  H   UNL A   1      42.452  31.155  30.762  1.00  0.00     0.167 HD
ATOM     57  C   UNL A   1      41.022  33.488  31.510  1.00  0.00     0.074 A 
ATOM     58  C   UNL A   1      39.945  34.445  31.675  1.00  0.00     0.031 C 
ATOM     59  C   UNL A   1      42.257  33.631  32.049  1.00  0.00     0.031 A 
BRANCH  46  60
ATOM     60  C   UNL A   1      46.085  28.923  30.885  1.00  0.00    -0.014 A 
ATOM     61  C   UNL A   1      47.123  29.108  29.960  1.00  0.00     0.009 A 
ATOM     62  C   UNL A   1      46.320  28.145  32.029  1.00  0.00     0.009 A 
ATOM     63  C   UNL A   1      48.362  28.496  30.161  1.00  0.00     0.001 A 
ATOM     64  C   UNL A   1      47.567  27.553  32.239  1.00  0.00     0.001 A 
ATOM     65  C   UNL A   1      48.584  27.722  31.301  1.00  0.00     0.000 A 
ENDBRANCH  46  60
BRANCH  47  66
ATOM     66  C   UNL A   1      36.878  32.523  29.503  1.00  0.00    -0.014 A 
ATOM     67  C   UNL A   1      35.901  32.230  30.465  1.00  0.00     0.009 A 
ATOM     68  C   UNL A   1      36.530  33.321  28.400  1.00  0.00     0.009 A 
ATOM     69  C   UNL A   1      34.600  32.716  30.319  1.00  0.00     0.001 A 
ATOM     70  C   UNL A   1      35.236  33.825  28.270  1.00  0.00     0.001 A 
ATOM     71  C   UNL A   1      34.270  33.518  29.226  1.00  0.00     0.000 A 
ENDBRANCH  47  66
BRANCH  59  72
ATOM     72  C   UNL A   1      42.519  34.876  32.843  1.00  0.00    -0.014 A 
ATOM     73  C   UNL A   1      42.109  34.980  34.181  1.00  0.00     0.009 A 
ATOM     74  C   UNL A   1      43.233  35.936  32.262  1.00  0.00     0.009 A 
ATOM     75  C   UNL A   1      42.391  36.133  34.915  1.00  0.00     0.001 A 
ATOM     76  C   UNL A   1      43.531  37.078  33.005  1.00  0.00     0.001 A 
ATOM     77  C   UNL A   1      43.105  37.179  34.329  1.00  0.00     0.000 A 
ENDBRANCH  59  72
ENDBRANCH  33  34
ENDBRANCH  26  28
ENDBRANCH  25  26
ENDBRANCH  24  25
ENDBRANCH   1  24
TORSDOF 17
ENDMDL
MODEL 2
REMARK VINA RESULT:     -10.1      2.325      6.966
REMARK SMILES CC(C)C[C@H](CNC(=O)N[C@@H](C)c1nccs1)C(=O)OCCOC(=O)c1ccc(-c2c3nc(c(-c4ccccc4)c4ccc([nH]4)c(-c4ccccc4)c4nc(c(-c5ccccc5)c5ccc2[nH]5)C=C4)C=C3)cc1
REMARK SMILES IDX 21 1 20 2 18 3 19 4 5 5 4 6 2 7 1 8 3 9 6 10 7 11 8 12 9 14
REMARK SMILES IDX 10 15 11 17 12 18 13 19 14 20 17 21 15 22 16 23 22 24 23 25
REMARK SMILES IDX 24 26 25 27 26 28 27 29 73 30 28 31 72 32 29 33 30 34 31 35
REMARK SMILES IDX 66 36 32 37 71 38 65 39 67 40 33 41 70 42 64 43 63 44 34 46
REMARK SMILES IDX 56 47 41 48 55 49 42 50 45 51 54 52 68 53 43 54 44 55 53 57
REMARK SMILES IDX 69 58 46 59 35 60 36 61 40 62 37 63 39 64 38 65 57 66 58 67
REMARK SMILES IDX 62 68 59 69 61 70 60 71 47 72 48 73 52 74 49 75 51 76 50 77
REMARK H PARENT 7 13 10 16 67 45 45 56
REMARK Flexibility Score: inf
ROOT
ATOM      1  C   UNL A   1      37.734  20.974  24.922  1.00  0.00     0.274 C 
ENDROOT
BRANCH   1   2
ATOM      2  O   UNL A   1      37.598  22.386  24.658  1.00  0.00    -0.462 OA
BRANCH   2   3
ATOM      3  C   UNL A   1      36.590  22.735  23.816  1.00  0.00     0.310 C 
ATOM      4  O   UNL A   1      36.748  23.074  22.649  1.00  0.00    -0.252 OA
BRANCH   3   5
ATOM      5  C   UNL A   1      35.216  22.594  24.444  1.00  0.00     0.119 C 
BRANCH   5   6
ATOM      6  C   UNL A   1      33.990  22.607  23.510  1.00  0.00     0.020 C 
BRANCH   6   7
ATOM      7  C   UNL A   1      32.822  21.636  23.776  1.00  0.00    -0.017 C 
ATOM      8  C   UNL A   1      32.009  21.301  22.520  1.00  0.00     0.007 C 
ATOM      9  C   UNL A   1      33.395  20.325  24.335  1.00  0.00     0.007 C 
ENDBRANCH   6   7
ENDBRANCH   5   6
BRANCH   5  10
ATOM     10  C   UNL A   1      35.111  23.427  25.742  1.00  0.00     0.133 C 
BRANCH  10  11
ATOM     11  N   UNL A   1      34.296  22.849  26.792  1.00  0.00    -0.337 N 
ATOM     12  C   UNL A   1      33.066  23.038  27.270  1.00  0.00     0.315 C 
ATOM     13  H   UNL A   1      34.771  22.134  27.274  1.00  0.00     0.165 HD
ATOM     14  O   UNL A   1      32.727  22.346  28.235  1.00  0.00    -0.249 OA
ATOM     15  N   UNL A   1      32.168  23.902  26.804  1.00  0.00    -0.329 N 
ATOM     16  H   UNL A   1      31.334  23.875  27.327  1.00  0.00     0.166 HD
BRANCH  15  17
ATOM     17  C   UNL A   1      32.091  24.879  25.725  1.00  0.00     0.140 C 
ATOM     18  C   UNL A   1      30.823  24.661  24.898  1.00  0.00     0.039 C 
BRANCH  17  19
ATOM     19  C   UNL A   1      32.213  26.272  26.303  1.00  0.00     0.115 A 
ATOM     20  N   UNL A   1      31.271  26.847  27.030  1.00  0.00    -0.247 NA
ATOM     21  S   UNL A   1      33.615  27.245  26.034  1.00  0.00    -0.125 S 
ATOM     22  C   UNL A   1      31.673  28.113  27.406  1.00  0.00     0.123 A 
ATOM     23  C   UNL A   1      32.925  28.494  26.978  1.00  0.00     0.087 A 
ENDBRANCH  17  19
ENDBRANCH  15  17
ENDBRANCH  10  11
ENDBRANCH   5  10
ENDBRANCH   3   5
ENDBRANCH   2   3
ENDBRANCH   1   2
BRANCH   1  24
ATOM     24  C   UNL A   1      38.849  20.679  25.935  1.00  0.00     0.275 C 
BRANCH  24  25
ATOM     25  O   UNL A   1      39.700  19.598  25.499  1.00  0.00    -0.458 OA
BRANCH  25  26
ATOM     26  C   UNL A   1      40.984  19.650  25.918  1.00  0.00     0.338 C 
ATOM     27  O   UNL A   1      41.861  18.821  25.730  1.00  0.00    -0.246 OA
BRANCH  26  28
ATOM     28  C   UNL A   1      41.259  20.951  26.544  1.00  0.00     0.060 A 
ATOM     29  C   UNL A   1      41.652  22.008  25.719  1.00  0.00     0.016 A 
ATOM     30  C   UNL A   1      41.223  21.111  27.929  1.00  0.00     0.016 A 
ATOM     31  C   UNL A   1      41.998  23.239  26.265  1.00  0.00     0.010 A 
ATOM     32  C   UNL A   1      41.581  22.344  28.481  1.00  0.00     0.010 A 
ATOM     33  C   UNL A   1      41.975  23.411  27.652  1.00  0.00    -0.014 A 
BRANCH  33  34
ATOM     34  C   UNL A   1      42.420  24.692  28.242  1.00  0.00     0.031 A 
ATOM     35  C   UNL A   1      41.424  25.786  28.474  1.00  0.00     0.074 A 
ATOM     36  C   UNL A   1      43.714  24.872  28.562  1.00  0.00     0.049 A 
ATOM     37  N   UNL A   1      41.627  27.027  28.834  1.00  0.00    -0.248 NA
ATOM     38  C   UNL A   1      40.008  25.436  28.273  1.00  0.00     0.031 C 
ATOM     39  C   UNL A   1      44.763  23.860  28.446  1.00  0.00     0.029 A 
ATOM     40  N   UNL A   1      44.365  25.983  29.035  1.00  0.00    -0.354 N 
ATOM     41  C   UNL A   1      40.370  27.616  28.868  1.00  0.00     0.074 A 
ATOM     42  C   UNL A   1      39.411  26.598  28.497  1.00  0.00     0.031 C 
ATOM     43  C   UNL A   1      45.934  24.404  28.818  1.00  0.00     0.029 A 
ATOM     44  C   UNL A   1      45.723  25.811  29.145  1.00  0.00     0.049 A 
ATOM     45  H   UNL A   1      43.904  26.820  29.273  1.00  0.00     0.167 HD
ATOM     46  C   UNL A   1      40.049  28.896  29.172  1.00  0.00     0.031 A 
ATOM     47  C   UNL A   1      46.691  26.700  29.430  1.00  0.00     0.031 A 
ATOM     48  C   UNL A   1      41.007  29.904  29.542  1.00  0.00     0.049 A 
ATOM     49  C   UNL A   1      46.321  28.133  29.695  1.00  0.00     0.074 A 
ATOM     50  C   UNL A   1      40.782  31.227  29.878  1.00  0.00     0.029 A 
ATOM     51  N   UNL A   1      42.375  29.697  29.619  1.00  0.00    -0.354 N 
ATOM     52  N   UNL A   1      45.133  28.686  29.711  1.00  0.00    -0.248 NA
ATOM     53  C   UNL A   1      47.424  29.063  29.971  1.00  0.00     0.031 C 
ATOM     54  C   UNL A   1      42.021  31.832  30.117  1.00  0.00     0.029 A 
ATOM     55  C   UNL A   1      43.011  30.874  29.971  1.00  0.00     0.049 A 
ATOM     56  H   UNL A   1      42.828  28.839  29.446  1.00  0.00     0.167 HD
ATOM     57  C   UNL A   1      45.343  30.026  30.011  1.00  0.00     0.074 A 
ATOM     58  C   UNL A   1      46.772  30.198  30.183  1.00  0.00     0.031 C 
ATOM     59  C   UNL A   1      44.435  31.024  30.134  1.00  0.00     0.031 A 
BRANCH  46  60
ATOM     60  C   UNL A   1      38.604  29.286  29.058  1.00  0.00    -0.014 A 
ATOM     61  C   UNL A   1      38.065  29.756  27.852  1.00  0.00     0.009 A 
ATOM     62  C   UNL A   1      37.769  29.171  30.180  1.00  0.00     0.009 A 
ATOM     63  C   UNL A   1      36.722  30.135  27.781  1.00  0.00     0.001 A 
ATOM     64  C   UNL A   1      36.422  29.529  30.101  1.00  0.00     0.001 A 
ATOM     65  C   UNL A   1      35.902  30.018  28.904  1.00  0.00     0.000 A 
ENDBRANCH  46  60
BRANCH  47  66
ATOM     66  C   UNL A   1      48.111  26.269  29.418  1.00  0.00    -0.014 A 
ATOM     67  C   UNL A   1      48.869  26.326  28.241  1.00  0.00     0.009 A 
ATOM     68  C   UNL A   1      48.722  25.813  30.600  1.00  0.00     0.009 A 
ATOM     69  C   UNL A   1      50.208  25.923  28.243  1.00  0.00     0.001 A 
ATOM     70  C   UNL A   1      50.065  25.435  30.604  1.00  0.00     0.001 A 
ATOM     71  C   UNL A   1      50.806  25.485  29.425  1.00  0.00     0.000 A 
ENDBRANCH  47  66
BRANCH  59  72
ATOM     72  C   UNL A   1      44.955  32.384  30.494  1.00  0.00    -0.014 A 
ATOM     73  C   UNL A   1      45.286  33.318  29.500  1.00  0.00     0.009 A 
ATOM     74  C   UNL A   1      45.064  32.753  31.844  1.00  0.00     0.009 A 
ATOM     75  C   UNL A   1      45.737  34.591  29.855  1.00  0.00     0.001 A 
ATOM     76  C   UNL A   1      45.495  34.032  32.194  1.00  0.00     0.001 A 
ATOM     77  C   UNL A   1      45.836  34.948  31.200  1.00  0.00     0.000 A 
ENDBRANCH  59  72
ENDBRANCH  33  34
ENDBRANCH  26  28
ENDBRANCH  25  26
ENDBRANCH  24  25
ENDBRANCH   1  24
TORSDOF 17
ENDMDL
MODEL 3
REMARK VINA RESULT:      -9.9      2.137      3.036
REMARK SMILES CC(C)C[C@H](CNC(=O)N[C@@H](C)c1nccs1)C(=O)OCCOC(=O)c1ccc(-c2c3nc(c(-c4ccccc4)c4ccc([nH]4)c(-c4ccccc4)c4nc(c(-c5ccccc5)c5ccc2[nH]5)C=C4)C=C3)cc1
REMARK SMILES IDX 21 1 20 2 18 3 19 4 5 5 4 6 2 7 1 8 3 9 6 10 7 11 8 12 9 14
REMARK SMILES IDX 10 15 11 17 12 18 13 19 14 20 17 21 15 22 16 23 22 24 23 25
REMARK SMILES IDX 24 26 25 27 26 28 27 29 73 30 28 31 72 32 29 33 30 34 31 35
REMARK SMILES IDX 66 36 32 37 71 38 65 39 67 40 33 41 70 42 64 43 63 44 34 46
REMARK SMILES IDX 56 47 41 48 55 49 42 50 45 51 54 52 68 53 43 54 44 55 53 57
REMARK SMILES IDX 69 58 46 59 35 60 36 61 40 62 37 63 39 64 38 65 57 66 58 67
REMARK SMILES IDX 62 68 59 69 61 70 60 71 47 72 48 73 52 74 49 75 51 76 50 77
REMARK H PARENT 7 13 10 16 67 45 45 56
REMARK Flexibility Score: inf
ROOT
ATOM      1  C   UNL A   1      36.262  21.553  24.892  1.00  0.00     0.274 C 
ENDROOT
BRANCH   1   2
ATOM      2  O   UNL A   1      35.579  22.769  25.262  1.00  0.00    -0.462 OA
BRANCH   2   3
ATOM      3  C   UNL A   1      34.967  23.433  24.247  1.00  0.00     0.310 C 
ATOM      4  O   UNL A   1      35.133  23.186  23.058  1.00  0.00    -0.252 OA
BRANCH   3   5
ATOM      5  C   UNL A   1      33.986  24.484  24.729  1.00  0.00     0.119 C 
BRANCH   5   6
ATOM      6  C   UNL A   1      32.587  24.016  25.175  1.00  0.00     0.020 C 
BRANCH   6   7
ATOM      7  C   UNL A   1      31.339  24.782  24.689  1.00  0.00    -0.017 C 
ATOM      8  C   UNL A   1      30.583  24.066  23.564  1.00  0.00     0.007 C 
ATOM      9  C   UNL A   1      30.378  24.951  25.876  1.00  0.00     0.007 C 
ENDBRANCH   6   7
ENDBRANCH   5   6
BRANCH   5  10
ATOM     10  C   UNL A   1      34.048  25.749  23.844  1.00  0.00     0.133 C 
BRANCH  10  11
ATOM     11  N   UNL A   1      33.766  25.543  22.437  1.00  0.00    -0.337 N 
ATOM     12  C   UNL A   1      32.954  26.083  21.528  1.00  0.00     0.315 C 
ATOM     13  H   UNL A   1      34.314  24.820  22.055  1.00  0.00     0.165 HD
ATOM     14  O   UNL A   1      32.977  25.594  20.394  1.00  0.00    -0.249 OA
ATOM     15  N   UNL A   1      32.123  27.103  21.727  1.00  0.00    -0.329 N 
ATOM     16  H   UNL A   1      31.613  27.318  20.912  1.00  0.00     0.166 HD
BRANCH  15  17
ATOM     17  C   UNL A   1      31.765  27.985  22.831  1.00  0.00     0.140 C 
ATOM     18  C   UNL A   1      32.839  29.057  23.025  1.00  0.00     0.039 C 
BRANCH  17  19
ATOM     19  C   UNL A   1      30.379  28.543  22.595  1.00  0.00     0.115 A 
ATOM     20  N   UNL A   1      30.133  29.592  21.831  1.00  0.00    -0.247 NA
ATOM     21  S   UNL A   1      28.984  27.846  23.339  1.00  0.00    -0.125 S 
ATOM     22  C   UNL A   1      28.779  29.859  21.818  1.00  0.00     0.123 A 
ATOM     23  C   UNL A   1      27.995  29.004  22.560  1.00  0.00     0.087 A 
ENDBRANCH  17  19
ENDBRANCH  15  17
ENDBRANCH  10  11
ENDBRANCH   5  10
ENDBRANCH   3   5
ENDBRANCH   2   3
ENDBRANCH   1   2
BRANCH   1  24
ATOM     24  C   UNL A   1      37.773  21.636  25.149  1.00  0.00     0.275 C 
BRANCH  24  25
ATOM     25  O   UNL A   1      38.161  22.927  25.665  1.00  0.00    -0.458 OA
BRANCH  25  26
ATOM     26  C   UNL A   1      39.329  22.965  26.344  1.00  0.00     0.338 C 
ATOM     27  O   UNL A   1      40.196  22.105  26.383  1.00  0.00    -0.246 OA
BRANCH  26  28
ATOM     28  C   UNL A   1      39.512  24.287  26.959  1.00  0.00     0.060 A 
ATOM     29  C   UNL A   1      40.213  25.258  26.238  1.00  0.00     0.016 A 
ATOM     30  C   UNL A   1      39.087  24.546  28.262  1.00  0.00     0.016 A 
ATOM     31  C   UNL A   1      40.481  26.500  26.800  1.00  0.00     0.010 A 
ATOM     32  C   UNL A   1      39.365  25.791  28.834  1.00  0.00     0.010 A 
ATOM     33  C   UNL A   1      40.068  26.770  28.107  1.00  0.00    -0.014 A 
BRANCH  33  34
ATOM     34  C   UNL A   1      40.423  28.059  28.740  1.00  0.00     0.031 A 
ATOM     35  C   UNL A   1      41.775  28.231  29.363  1.00  0.00     0.074 A 
ATOM     36  C   UNL A   1      39.533  29.068  28.758  1.00  0.00     0.049 A 
ATOM     37  N   UNL A   1      42.229  29.214  30.096  1.00  0.00    -0.248 NA
ATOM     38  C   UNL A   1      42.745  27.149  29.130  1.00  0.00     0.031 C 
ATOM     39  C   UNL A   1      38.215  29.045  28.127  1.00  0.00     0.029 A 
ATOM     40  N   UNL A   1      39.605  30.304  29.348  1.00  0.00    -0.354 N 
ATOM     41  C   UNL A   1      43.524  28.855  30.442  1.00  0.00     0.074 A 
ATOM     42  C   UNL A   1      43.786  27.567  29.836  1.00  0.00     0.031 C 
ATOM     43  C   UNL A   1      37.590  30.206  28.383  1.00  0.00     0.029 A 
ATOM     44  C   UNL A   1      38.443  31.027  29.236  1.00  0.00     0.049 A 
ATOM     45  H   UNL A   1      40.409  30.639  29.807  1.00  0.00     0.167 HD
ATOM     46  C   UNL A   1      44.411  29.536  31.206  1.00  0.00     0.031 A 
ATOM     47  C   UNL A   1      38.090  32.198  29.798  1.00  0.00     0.031 A 
ATOM     48  C   UNL A   1      44.145  30.818  31.804  1.00  0.00     0.049 A 
ATOM     49  C   UNL A   1      39.063  32.904  30.701  1.00  0.00     0.074 A 
ATOM     50  C   UNL A   1      44.980  31.594  32.587  1.00  0.00     0.029 A 
ATOM     51  N   UNL A   1      42.948  31.506  31.687  1.00  0.00    -0.354 N 
ATOM     52  N   UNL A   1      40.280  32.551  31.036  1.00  0.00    -0.248 NA
ATOM     53  C   UNL A   1      38.609  34.162  31.309  1.00  0.00     0.031 C 
ATOM     54  C   UNL A   1      44.272  32.736  32.979  1.00  0.00     0.029 A 
ATOM     55  C   UNL A   1      43.012  32.688  32.404  1.00  0.00     0.049 A 
ATOM     56  H   UNL A   1      42.167  31.200  31.171  1.00  0.00     0.167 HD
ATOM     57  C   UNL A   1      40.744  33.549  31.883  1.00  0.00     0.074 A 
ATOM     58  C   UNL A   1      39.681  34.528  31.999  1.00  0.00     0.031 C 
ATOM     59  C   UNL A   1      41.942  33.646  32.509  1.00  0.00     0.031 A 
BRANCH  46  60
ATOM     60  C   UNL A   1      45.729  28.874  31.482  1.00  0.00    -0.014 A 
ATOM     61  C   UNL A   1      45.906  28.026  32.585  1.00  0.00     0.009 A 
ATOM     62  C   UNL A   1      46.808  29.100  30.614  1.00  0.00     0.009 A 
ATOM     63  C   UNL A   1      47.151  27.442  32.832  1.00  0.00     0.001 A 
ATOM     64  C   UNL A   1      48.045  28.497  30.850  1.00  0.00     0.001 A 
ATOM     65  C   UNL A   1      48.217  27.676  31.963  1.00  0.00     0.000 A 
ENDBRANCH  46  60
BRANCH  47  66
ATOM     66  C   UNL A   1      36.728  32.741  29.569  1.00  0.00    -0.014 A 
ATOM     67  C   UNL A   1      35.704  32.530  30.503  1.00  0.00     0.009 A 
ATOM     68  C   UNL A   1      36.453  33.495  28.415  1.00  0.00     0.009 A 
ATOM     69  C   UNL A   1      34.428  33.053  30.280  1.00  0.00     0.001 A 
ATOM     70  C   UNL A   1      35.183  34.036  28.208  1.00  0.00     0.001 A 
ATOM     71  C   UNL A   1      34.170  33.810  29.137  1.00  0.00     0.000 A 
ENDBRANCH  47  66
BRANCH  59  72
ATOM     72  C   UNL A   1      42.177  34.863  33.354  1.00  0.00    -0.014 A 
ATOM     73  C   UNL A   1      41.705  34.929  34.674  1.00  0.00     0.009 A 
ATOM     74  C   UNL A   1      42.926  35.933  32.840  1.00  0.00     0.009 A 
ATOM     75  C   UNL A   1      41.962  36.057  35.456  1.00  0.00     0.001 A 
ATOM     76  C   UNL A   1      43.199  37.048  33.632  1.00  0.00     0.001 A 
ATOM     77  C   UNL A   1      42.713  37.112  34.937  1.00  0.00     0.000 A 
ENDBRANCH  59  72
ENDBRANCH  33  34
ENDBRANCH  26  28
ENDBRANCH  25  26
ENDBRANCH  24  25
ENDBRANCH   1  24
TORSDOF 17
ENDMDL
