MODEL 1
REMARK VINA RESULT:     -10.5      0.000      0.000
REMARK SMILES C[C@H](C(=O)OCCOC(=O)c1ccc(-c2c3nc(c(-c4ccccc4)c4ccc([nH]4)c(-c4ccccc4)c4nc(c(-c5ccccc5)c5ccc2[nH]5)C=C4)C=C3)cc1)c1ccc(C[C@H]2CCC[C@@H]2O)cc1
REMARK SMILES IDX 6 1 5 2 3 3 4 4 2 5 1 6 59 7 60 8 71 9 61 10 70 11 62 12
REMARK SMILES IDX 63 13 64 14 65 15 68 16 66 17 67 18 69 19 7 21 8 22 9 23
REMARK SMILES IDX 10 24 11 25 12 26 58 27 13 28 57 29 14 30 15 31 16 32 51 33
REMARK SMILES IDX 17 34 56 35 50 36 52 37 18 38 55 39 49 40 48 41 19 43 41 44
REMARK SMILES IDX 26 45 40 46 27 47 30 48 39 49 53 50 28 51 29 52 38 54 54 55
REMARK SMILES IDX 31 56 20 57 21 58 25 59 22 60 24 61 23 62 42 63 43 64 47 65
REMARK SMILES IDX 44 66 46 67 45 68 32 69 33 70 37 71 34 72 36 73 35 74
REMARK H PARENT 69 20 52 42 30 53
REMARK Flexibility Score: inf
ROOT
ATOM      1  C   UNL A   1      33.868  35.298  29.000  1.00  0.00     0.274 C 
ENDROOT
BRANCH   1   2
ATOM      2  O   UNL A   1      33.289  33.981  28.892  1.00  0.00    -0.462 OA
BRANCH   2   3
ATOM      3  C   UNL A   1      34.111  32.923  29.139  1.00  0.00     0.313 C 
ATOM      4  O   UNL A   1      34.391  32.500  30.256  1.00  0.00    -0.252 OA
BRANCH   3   5
ATOM      5  C   UNL A   1      34.613  32.269  27.857  1.00  0.00     0.126 C 
ATOM      6  C   UNL A   1      36.140  32.163  27.934  1.00  0.00     0.025 C 
BRANCH   5   7
ATOM      7  C   UNL A   1      33.912  30.980  27.450  1.00  0.00    -0.034 A 
ATOM      8  C   UNL A   1      32.535  30.998  27.175  1.00  0.00     0.005 A 
ATOM      9  C   UNL A   1      34.555  29.735  27.479  1.00  0.00     0.005 A 
ATOM     10  C   UNL A   1      31.826  29.824  26.946  1.00  0.00     0.004 A 
ATOM     11  C   UNL A   1      33.840  28.553  27.273  1.00  0.00     0.004 A 
ATOM     12  C   UNL A   1      32.460  28.587  27.058  1.00  0.00    -0.048 A 
BRANCH  12  13
ATOM     13  C   UNL A   1      31.650  27.316  27.065  1.00  0.00     0.041 C 
BRANCH  13  14
ATOM     14  C   UNL A   1      31.030  26.946  25.703  1.00  0.00     0.022 C 
ATOM     15  C   UNL A   1      31.940  27.137  24.476  1.00  0.00     0.007 C 
ATOM     16  C   UNL A   1      30.515  25.508  25.563  1.00  0.00     0.117 C 
ATOM     17  C   UNL A   1      31.577  26.016  23.496  1.00  0.00     0.003 C 
ATOM     18  C   UNL A   1      30.323  25.368  24.060  1.00  0.00     0.032 C 
BRANCH  16  19
ATOM     19  O   UNL A   1      29.291  25.310  26.245  1.00  0.00    -0.393 OA
ATOM     20  H   UNL A   1      28.698  26.056  26.067  1.00  0.00     0.210 HD
ENDBRANCH  16  19
ENDBRANCH  13  14
ENDBRANCH  12  13
ENDBRANCH   5   7
ENDBRANCH   3   5
ENDBRANCH   2   3
ENDBRANCH   1   2
BRANCH   1  21
ATOM     21  C   UNL A   1      32.935  36.198  29.802  1.00  0.00     0.275 C 
BRANCH  21  22
ATOM     22  O   UNL A   1      32.457  35.450  30.932  1.00  0.00    -0.458 OA
BRANCH  22  23
ATOM     23  C   UNL A   1      32.794  35.928  32.150  1.00  0.00     0.338 C 
ATOM     24  O   UNL A   1      32.242  36.818  32.772  1.00  0.00    -0.246 OA
BRANCH  23  25
ATOM     25  C   UNL A   1      33.950  35.166  32.674  1.00  0.00     0.060 A 
ATOM     26  C   UNL A   1      35.250  35.654  32.528  1.00  0.00     0.016 A 
ATOM     27  C   UNL A   1      33.746  33.898  33.217  1.00  0.00     0.016 A 
ATOM     28  C   UNL A   1      36.342  34.835  32.812  1.00  0.00     0.010 A 
ATOM     29  C   UNL A   1      34.844  33.130  33.620  1.00  0.00     0.010 A 
ATOM     30  C   UNL A   1      36.159  33.572  33.390  1.00  0.00    -0.014 A 
BRANCH  30  31
ATOM     31  C   UNL A   1      37.321  32.704  33.738  1.00  0.00     0.031 A 
ATOM     32  C   UNL A   1      38.017  32.866  35.065  1.00  0.00     0.074 A 
ATOM     33  C   UNL A   1      37.780  31.783  32.867  1.00  0.00     0.049 A 
ATOM     34  N   UNL A   1      39.188  32.421  35.445  1.00  0.00    -0.248 NA
ATOM     35  C   UNL A   1      37.311  33.646  36.094  1.00  0.00     0.031 C 
ATOM     36  C   UNL A   1      37.188  31.457  31.568  1.00  0.00     0.029 A 
ATOM     37  N   UNL A   1      38.865  30.942  32.951  1.00  0.00    -0.354 N 
ATOM     38  C   UNL A   1      39.395  32.936  36.719  1.00  0.00     0.074 A 
ATOM     39  C   UNL A   1      38.221  33.710  37.058  1.00  0.00     0.031 C 
ATOM     40  C   UNL A   1      37.883  30.462  31.000  1.00  0.00     0.029 A 
ATOM     41  C   UNL A   1      39.033  30.152  31.839  1.00  0.00     0.049 A 
ATOM     42  H   UNL A   1      39.463  30.909  33.732  1.00  0.00     0.167 HD
ATOM     43  C   UNL A   1      40.474  32.790  37.525  1.00  0.00     0.031 A 
ATOM     44  C   UNL A   1      40.028  29.313  31.496  1.00  0.00     0.031 A 
ATOM     45  C   UNL A   1      41.615  31.969  37.217  1.00  0.00     0.049 A 
ATOM     46  C   UNL A   1      41.223  29.182  32.393  1.00  0.00     0.074 A 
ATOM     47  C   UNL A   1      42.752  31.748  37.976  1.00  0.00     0.029 A 
ATOM     48  N   UNL A   1      41.749  31.211  36.065  1.00  0.00    -0.354 N 
ATOM     49  N   UNL A   1      41.450  29.753  33.550  1.00  0.00    -0.248 NA
ATOM     50  C   UNL A   1      42.309  28.314  31.919  1.00  0.00     0.031 C 
ATOM     51  C   UNL A   1      43.588  30.877  37.269  1.00  0.00     0.029 A 
ATOM     52  C   UNL A   1      42.952  30.527  36.089  1.00  0.00     0.049 A 
ATOM     53  H   UNL A   1      41.088  31.166  35.337  1.00  0.00     0.167 HD
ATOM     54  C   UNL A   1      42.706  29.313  33.944  1.00  0.00     0.074 A 
ATOM     55  C   UNL A   1      43.180  28.410  32.915  1.00  0.00     0.031 C 
ATOM     56  C   UNL A   1      43.409  29.636  35.055  1.00  0.00     0.031 A 
BRANCH  43  57
ATOM     57  C   UNL A   1      40.497  33.577  38.805  1.00  0.00    -0.014 A 
ATOM     58  C   UNL A   1      40.857  34.931  38.833  1.00  0.00     0.009 A 
ATOM     59  C   UNL A   1      40.108  32.952  40.002  1.00  0.00     0.009 A 
ATOM     60  C   UNL A   1      40.853  35.638  40.039  1.00  0.00     0.001 A 
ATOM     61  C   UNL A   1      40.082  33.664  41.201  1.00  0.00     0.001 A 
ATOM     62  C   UNL A   1      40.462  35.005  41.220  1.00  0.00     0.000 A 
ENDBRANCH  43  57
BRANCH  44  63
ATOM     63  C   UNL A   1      39.965  28.585  30.203  1.00  0.00    -0.014 A 
ATOM     64  C   UNL A   1      40.504  29.156  29.041  1.00  0.00     0.009 A 
ATOM     65  C   UNL A   1      39.382  27.310  30.129  1.00  0.00     0.009 A 
ATOM     66  C   UNL A   1      40.453  28.465  27.827  1.00  0.00     0.001 A 
ATOM     67  C   UNL A   1      39.358  26.611  28.922  1.00  0.00     0.001 A 
ATOM     68  C   UNL A   1      39.888  27.190  27.771  1.00  0.00     0.000 A 
ENDBRANCH  44  63
BRANCH  56  69
ATOM     69  C   UNL A   1      44.750  28.987  35.223  1.00  0.00    -0.014 A 
ATOM     70  C   UNL A   1      44.875  27.747  35.868  1.00  0.00     0.009 A 
ATOM     71  C   UNL A   1      45.896  29.614  34.714  1.00  0.00     0.009 A 
ATOM     72  C   UNL A   1      46.133  27.160  36.023  1.00  0.00     0.001 A 
ATOM     73  C   UNL A   1      47.148  29.015  34.854  1.00  0.00     0.001 A 
ATOM     74  C   UNL A   1      47.267  27.794  35.515  1.00  0.00     0.000 A 
ENDBRANCH  56  69
ENDBRANCH  30  31
ENDBRANCH  23  25
ENDBRANCH  22  23
ENDBRANCH  21  22
ENDBRANCH   1  21
TORSDOF 15
ENDMDL
MODEL 2
REMARK VINA RESULT:     -10.4      4.737     10.347
REMARK SMILES C[C@H](C(=O)OCCOC(=O)c1ccc(-c2c3nc(c(-c4ccccc4)c4ccc([nH]4)c(-c4ccccc4)c4nc(c(-c5ccccc5)c5ccc2[nH]5)C=C4)C=C3)cc1)c1ccc(C[C@H]2CCC[C@@H]2O)cc1
REMARK SMILES IDX 6 1 5 2 3 3 4 4 2 5 1 6 59 7 60 8 71 9 61 10 70 11 62 12
REMARK SMILES IDX 63 13 64 14 65 15 68 16 66 17 67 18 69 19 7 21 8 22 9 23
REMARK SMILES IDX 10 24 11 25 12 26 58 27 13 28 57 29 14 30 15 31 16 32 51 33
REMARK SMILES IDX 17 34 56 35 50 36 52 37 18 38 55 39 49 40 48 41 19 43 41 44
REMARK SMILES IDX 26 45 40 46 27 47 30 48 39 49 53 50 28 51 29 52 38 54 54 55
REMARK SMILES IDX 31 56 20 57 21 58 25 59 22 60 24 61 23 62 42 63 43 64 47 65
REMARK SMILES IDX 44 66 46 67 45 68 32 69 33 70 37 71 34 72 36 73 35 74
REMARK H PARENT 69 20 52 42 30 53
REMARK Flexibility Score: inf
ROOT
ATOM      1  C   UNL A   1      44.402  21.741  24.977  1.00  0.00     0.274 C 
ENDROOT
BRANCH   1   2
ATOM      2  O   UNL A   1      42.997  21.857  25.282  1.00  0.00    -0.462 OA
BRANCH   2   3
ATOM      3  C   UNL A   1      42.390  20.762  25.819  1.00  0.00     0.313 C 
ATOM      4  O   UNL A   1      42.508  19.618  25.395  1.00  0.00    -0.252 OA
BRANCH   3   5
ATOM      5  C   UNL A   1      41.576  21.103  27.062  1.00  0.00     0.126 C 
ATOM      6  C   UNL A   1      42.499  21.798  28.069  1.00  0.00     0.025 C 
BRANCH   5   7
ATOM      7  C   UNL A   1      40.257  21.822  26.816  1.00  0.00    -0.034 A 
ATOM      8  C   UNL A   1      39.289  21.228  25.990  1.00  0.00     0.005 A 
ATOM      9  C   UNL A   1      40.020  23.130  27.263  1.00  0.00     0.005 A 
ATOM     10  C   UNL A   1      38.136  21.912  25.618  1.00  0.00     0.004 A 
ATOM     11  C   UNL A   1      38.875  23.825  26.871  1.00  0.00     0.004 A 
ATOM     12  C   UNL A   1      37.951  23.240  26.002  1.00  0.00    -0.048 A 
BRANCH  12  13
ATOM     13  C   UNL A   1      36.841  24.059  25.396  1.00  0.00     0.041 C 
BRANCH  13  14
ATOM     14  C   UNL A   1      35.697  23.228  24.780  1.00  0.00     0.022 C 
ATOM     15  C   UNL A   1      34.329  23.349  25.477  1.00  0.00     0.007 C 
ATOM     16  C   UNL A   1      35.386  23.496  23.303  1.00  0.00     0.117 C 
ATOM     17  C   UNL A   1      33.275  23.243  24.370  1.00  0.00     0.003 C 
ATOM     18  C   UNL A   1      34.033  22.824  23.121  1.00  0.00     0.032 C 
BRANCH  16  19
ATOM     19  O   UNL A   1      36.350  22.922  22.441  1.00  0.00    -0.393 OA
ATOM     20  H   UNL A   1      35.922  22.642  21.618  1.00  0.00     0.210 HD
ENDBRANCH  16  19
ENDBRANCH  13  14
ENDBRANCH  12  13
ENDBRANCH   5   7
ENDBRANCH   3   5
ENDBRANCH   2   3
ENDBRANCH   1   2
BRANCH   1  21
ATOM     21  C   UNL A   1      44.846  22.954  24.167  1.00  0.00     0.275 C 
BRANCH  21  22
ATOM     22  O   UNL A   1      44.038  24.075  24.563  1.00  0.00    -0.458 OA
BRANCH  22  23
ATOM     23  C   UNL A   1      44.702  25.158  25.022  1.00  0.00     0.338 C 
ATOM     24  O   UNL A   1      45.763  25.598  24.619  1.00  0.00    -0.246 OA
BRANCH  23  25
ATOM     25  C   UNL A   1      43.915  25.795  26.101  1.00  0.00     0.060 A 
ATOM     26  C   UNL A   1      44.012  27.167  26.339  1.00  0.00     0.016 A 
ATOM     27  C   UNL A   1      43.156  24.998  26.959  1.00  0.00     0.016 A 
ATOM     28  C   UNL A   1      43.454  27.721  27.490  1.00  0.00     0.010 A 
ATOM     29  C   UNL A   1      42.493  25.582  28.043  1.00  0.00     0.010 A 
ATOM     30  C   UNL A   1      42.661  26.946  28.346  1.00  0.00    -0.014 A 
BRANCH  30  31
ATOM     31  C   UNL A   1      42.024  27.536  29.558  1.00  0.00     0.031 A 
ATOM     32  C   UNL A   1      40.672  28.195  29.458  1.00  0.00     0.074 A 
ATOM     33  C   UNL A   1      42.653  27.512  30.751  1.00  0.00     0.049 A 
ATOM     34  N   UNL A   1      40.078  28.998  30.306  1.00  0.00    -0.248 NA
ATOM     35  C   UNL A   1      39.893  27.932  28.237  1.00  0.00     0.031 C 
ATOM     36  C   UNL A   1      43.935  26.863  31.033  1.00  0.00     0.029 A 
ATOM     37  N   UNL A   1      42.287  28.054  31.960  1.00  0.00    -0.354 N 
ATOM     38  C   UNL A   1      38.901  29.401  29.686  1.00  0.00     0.074 A 
ATOM     39  C   UNL A   1      38.853  28.739  28.399  1.00  0.00     0.031 C 
ATOM     40  C   UNL A   1      44.225  27.003  32.334  1.00  0.00     0.029 A 
ATOM     41  C   UNL A   1      43.210  27.842  32.956  1.00  0.00     0.049 A 
ATOM     42  H   UNL A   1      41.445  28.544  32.099  1.00  0.00     0.167 HD
ATOM     43  C   UNL A   1      37.955  30.257  30.141  1.00  0.00     0.031 A 
ATOM     44  C   UNL A   1      43.273  28.316  34.214  1.00  0.00     0.031 A 
ATOM     45  C   UNL A   1      37.970  30.866  31.444  1.00  0.00     0.049 A 
ATOM     46  C   UNL A   1      42.228  29.279  34.692  1.00  0.00     0.074 A 
ATOM     47  C   UNL A   1      37.050  31.738  32.002  1.00  0.00     0.029 A 
ATOM     48  N   UNL A   1      38.942  30.642  32.406  1.00  0.00    -0.354 N 
ATOM     49  N   UNL A   1      41.173  29.730  34.059  1.00  0.00    -0.248 NA
ATOM     50  C   UNL A   1      42.402  29.821  36.046  1.00  0.00     0.031 C 
ATOM     51  C   UNL A   1      37.482  32.064  33.292  1.00  0.00     0.029 A 
ATOM     52  C   UNL A   1      38.649  31.364  33.550  1.00  0.00     0.049 A 
ATOM     53  H   UNL A   1      39.725  30.057  32.293  1.00  0.00     0.167 HD
ATOM     54  C   UNL A   1      40.555  30.608  34.938  1.00  0.00     0.074 A 
ATOM     55  C   UNL A   1      41.340  30.609  36.156  1.00  0.00     0.031 C 
ATOM     56  C   UNL A   1      39.442  31.356  34.750  1.00  0.00     0.031 A 
BRANCH  43  57
ATOM     57  C   UNL A   1      36.845  30.630  29.201  1.00  0.00    -0.014 A 
ATOM     58  C   UNL A   1      35.875  29.702  28.798  1.00  0.00     0.009 A 
ATOM     59  C   UNL A   1      36.749  31.955  28.744  1.00  0.00     0.009 A 
ATOM     60  C   UNL A   1      34.846  30.087  27.934  1.00  0.00     0.001 A 
ATOM     61  C   UNL A   1      35.709  32.344  27.900  1.00  0.00     0.001 A 
ATOM     62  C   UNL A   1      34.762  31.408  27.489  1.00  0.00     0.000 A 
ENDBRANCH  43  57
BRANCH  44  63
ATOM     63  C   UNL A   1      44.412  27.936  35.088  1.00  0.00    -0.014 A 
ATOM     64  C   UNL A   1      44.329  26.802  35.909  1.00  0.00     0.009 A 
ATOM     65  C   UNL A   1      45.593  28.696  35.093  1.00  0.00     0.009 A 
ATOM     66  C   UNL A   1      45.405  26.440  36.723  1.00  0.00     0.001 A 
ATOM     67  C   UNL A   1      46.677  28.316  35.887  1.00  0.00     0.001 A 
ATOM     68  C   UNL A   1      46.580  27.192  36.705  1.00  0.00     0.000 A 
ENDBRANCH  44  63
BRANCH  56  69
ATOM     69  C   UNL A   1      38.998  32.213  35.898  1.00  0.00    -0.014 A 
ATOM     70  C   UNL A   1      39.438  33.539  36.020  1.00  0.00     0.009 A 
ATOM     71  C   UNL A   1      38.117  31.691  36.855  1.00  0.00     0.009 A 
ATOM     72  C   UNL A   1      39.022  34.320  37.100  1.00  0.00     0.001 A 
ATOM     73  C   UNL A   1      37.688  32.481  37.923  1.00  0.00     0.001 A 
ATOM     74  C   UNL A   1      38.147  33.791  38.049  1.00  0.00     0.000 A 
ENDBRANCH  56  69
ENDBRANCH  30  31
ENDBRANCH  23  25
ENDBRANCH  22  23
ENDBRANCH  21  22
ENDBRANCH   1  21
TORSDOF 15
ENDMDL
MODEL 3
REMARK VINA RESULT:     -10.3      3.341      8.225
REMARK SMILES C[C@H](C(=O)OCCOC(=O)c1ccc(-c2c3nc(c(-c4ccccc4)c4ccc([nH]4)c(-c4ccccc4)c4nc(c(-c5ccccc5)c5ccc2[nH]5)C=C4)C=C3)cc1)c1ccc(C[C@H]2CCC[C@@H]2O)cc1
REMARK SMILES IDX 6 1 5 2 3 3 4 4 2 5 1 6 59 7 60 8 71 9 61 10 70 11 62 12
REMARK SMILES IDX 63 13 64 14 65 15 68 16 66 17 67 18 69 19 7 21 8 22 9 23
REMARK SMILES IDX 10 24 11 25 12 26 58 27 13 28 57 29 14 30 15 31 16 32 51 33
REMARK SMILES IDX 17 34 56 35 50 36 52 37 18 38 55 39 49 40 48 41 19 43 41 44
REMARK SMILES IDX 26 45 40 46 27 47 30 48 39 49 53 50 28 51 29 52 38 54 54 55
REMARK SMILES IDX 31 56 20 57 21 58 25 59 22 60 24 61 23 62 42 63 43 64 47 65
REMARK SMILES IDX 44 66 46 67 45 68 32 69 33 70 37 71 34 72 36 73 35 74
REMARK H PARENT 69 20 52 42 30 53
REMARK Flexibility Score: inf
ROOT
ATOM      1  C   UNL A   1      31.332  28.875  24.390  1.00  0.00     0.274 C 
ENDROOT
BRANCH   1   2
ATOM      2  O   UNL A   1      31.708  27.668  25.084  1.00  0.00    -0.462 OA
BRANCH   2   3
ATOM      3  C   UNL A   1      31.553  26.493  24.409  1.00  0.00     0.313 C 
ATOM      4  O   UNL A   1      30.479  26.044  24.026  1.00  0.00    -0.252 OA
BRANCH   3   5
ATOM      5  C   UNL A   1      32.885  25.810  24.124  1.00  0.00     0.126 C 
ATOM      6  C   UNL A   1      33.977  26.525  24.927  1.00  0.00     0.025 C 
BRANCH   5   7
ATOM      7  C   UNL A   1      32.896  24.294  24.258  1.00  0.00    -0.034 A 
ATOM      8  C   UNL A   1      33.023  23.498  23.108  1.00  0.00     0.005 A 
ATOM      9  C   UNL A   1      32.636  23.646  25.474  1.00  0.00     0.005 A 
ATOM     10  C   UNL A   1      32.889  22.115  23.165  1.00  0.00     0.004 A 
ATOM     11  C   UNL A   1      32.476  22.260  25.528  1.00  0.00     0.004 A 
ATOM     12  C   UNL A   1      32.549  21.491  24.365  1.00  0.00    -0.048 A 
BRANCH  12  13
ATOM     13  C   UNL A   1      32.153  20.036  24.379  1.00  0.00     0.041 C 
BRANCH  13  14
ATOM     14  C   UNL A   1      33.195  19.084  23.757  1.00  0.00     0.022 C 
ATOM     15  C   UNL A   1      34.428  18.778  24.626  1.00  0.00     0.007 C 
ATOM     16  C   UNL A   1      32.681  17.701  23.339  1.00  0.00     0.117 C 
ATOM     17  C   UNL A   1      34.816  17.327  24.320  1.00  0.00     0.003 C 
ATOM     18  C   UNL A   1      33.969  16.919  23.126  1.00  0.00     0.032 C 
BRANCH  16  19
ATOM     19  O   UNL A   1      31.921  17.750  22.147  1.00  0.00    -0.393 OA
ATOM     20  H   UNL A   1      32.179  17.016  21.569  1.00  0.00     0.210 HD
ENDBRANCH  16  19
ENDBRANCH  13  14
ENDBRANCH  12  13
ENDBRANCH   5   7
ENDBRANCH   3   5
ENDBRANCH   2   3
ENDBRANCH   1   2
BRANCH   1  21
ATOM     21  C   UNL A   1      31.402  30.055  25.352  1.00  0.00     0.275 C 
BRANCH  21  22
ATOM     22  O   UNL A   1      32.770  30.211  25.767  1.00  0.00    -0.458 OA
BRANCH  22  23
ATOM     23  C   UNL A   1      32.996  31.103  26.756  1.00  0.00     0.338 C 
ATOM     24  O   UNL A   1      32.241  31.974  27.150  1.00  0.00    -0.246 OA
BRANCH  23  25
ATOM     25  C   UNL A   1      34.325  30.847  27.354  1.00  0.00     0.060 A 
ATOM     26  C   UNL A   1      34.745  29.544  27.626  1.00  0.00     0.016 A 
ATOM     27  C   UNL A   1      35.117  31.925  27.751  1.00  0.00     0.016 A 
ATOM     28  C   UNL A   1      35.888  29.322  28.393  1.00  0.00     0.010 A 
ATOM     29  C   UNL A   1      36.329  31.690  28.409  1.00  0.00     0.010 A 
ATOM     30  C   UNL A   1      36.714  30.387  28.773  1.00  0.00    -0.014 A 
BRANCH  30  31
ATOM     31  C   UNL A   1      37.962  30.157  29.557  1.00  0.00     0.031 A 
ATOM     32  C   UNL A   1      39.098  29.367  28.960  1.00  0.00     0.074 A 
ATOM     33  C   UNL A   1      38.084  30.630  30.814  1.00  0.00     0.049 A 
ATOM     34  N   UNL A   1      40.131  28.825  29.554  1.00  0.00    -0.248 NA
ATOM     35  C   UNL A   1      39.057  29.141  27.506  1.00  0.00     0.031 C 
ATOM     36  C   UNL A   1      37.106  31.461  31.519  1.00  0.00     0.029 A 
ATOM     37  N   UNL A   1      39.099  30.473  31.729  1.00  0.00    -0.354 N 
ATOM     38  C   UNL A   1      40.814  28.125  28.566  1.00  0.00     0.074 A 
ATOM     39  C   UNL A   1      40.090  28.327  27.329  1.00  0.00     0.031 C 
ATOM     40  C   UNL A   1      37.585  31.780  32.729  1.00  0.00     0.029 A 
ATOM     41  C   UNL A   1      38.851  31.087  32.933  1.00  0.00     0.049 A 
ATOM     42  H   UNL A   1      39.923  29.970  31.539  1.00  0.00     0.167 HD
ATOM     43  C   UNL A   1      41.932  27.370  28.683  1.00  0.00     0.031 A 
ATOM     44  C   UNL A   1      39.528  31.054  34.095  1.00  0.00     0.031 A 
ATOM     45  C   UNL A   1      42.687  27.220  29.899  1.00  0.00     0.049 A 
ATOM     46  C   UNL A   1      40.752  30.196  34.210  1.00  0.00     0.074 A 
ATOM     47  C   UNL A   1      43.841  26.485  30.114  1.00  0.00     0.029 A 
ATOM     48  N   UNL A   1      42.379  27.840  31.099  1.00  0.00    -0.354 N 
ATOM     49  N   UNL A   1      41.331  29.460  33.293  1.00  0.00    -0.248 NA
ATOM     50  C   UNL A   1      41.396  30.141  35.529  1.00  0.00     0.031 C 
ATOM     51  C   UNL A   1      44.215  26.639  31.454  1.00  0.00     0.029 A 
ATOM     52  C   UNL A   1      43.315  27.500  32.060  1.00  0.00     0.049 A 
ATOM     53  H   UNL A   1      41.608  28.434  31.246  1.00  0.00     0.167 HD
ATOM     54  C   UNL A   1      42.408  28.854  33.924  1.00  0.00     0.074 A 
ATOM     55  C   UNL A   1      42.417  29.327  35.294  1.00  0.00     0.031 C 
ATOM     56  C   UNL A   1      43.306  27.976  33.417  1.00  0.00     0.031 A 
BRANCH  43  57
ATOM     57  C   UNL A   1      42.383  26.602  27.473  1.00  0.00    -0.014 A 
ATOM     58  C   UNL A   1      43.325  27.123  26.576  1.00  0.00     0.009 A 
ATOM     59  C   UNL A   1      41.878  25.309  27.255  1.00  0.00     0.009 A 
ATOM     60  C   UNL A   1      43.733  26.375  25.468  1.00  0.00     0.001 A 
ATOM     61  C   UNL A   1      42.304  24.555  26.162  1.00  0.00     0.001 A 
ATOM     62  C   UNL A   1      43.225  25.091  25.264  1.00  0.00     0.000 A 
ENDBRANCH  43  57
BRANCH  44  63
ATOM     63  C   UNL A   1      39.018  31.810  35.267  1.00  0.00    -0.014 A 
ATOM     64  C   UNL A   1      38.221  31.172  36.230  1.00  0.00     0.009 A 
ATOM     65  C   UNL A   1      39.338  33.166  35.438  1.00  0.00     0.009 A 
ATOM     66  C   UNL A   1      37.749  31.882  37.337  1.00  0.00     0.001 A 
ATOM     67  C   UNL A   1      38.889  33.864  36.560  1.00  0.00     0.001 A 
ATOM     68  C   UNL A   1      38.091  33.224  37.505  1.00  0.00     0.000 A 
ENDBRANCH  44  63
BRANCH  56  69
ATOM     69  C   UNL A   1      44.383  27.495  34.343  1.00  0.00    -0.014 A 
ATOM     70  C   UNL A   1      45.567  28.227  34.513  1.00  0.00     0.009 A 
ATOM     71  C   UNL A   1      44.201  26.308  35.066  1.00  0.00     0.009 A 
ATOM     72  C   UNL A   1      46.564  27.761  35.372  1.00  0.00     0.001 A 
ATOM     73  C   UNL A   1      45.191  25.855  35.938  1.00  0.00     0.001 A 
ATOM     74  C   UNL A   1      46.374  26.577  36.085  1.00  0.00     0.000 A 
ENDBRANCH  56  69
ENDBRANCH  30  31
ENDBRANCH  23  25
ENDBRANCH  22  23
ENDBRANCH  21  22
ENDBRANCH   1  21
TORSDOF 15
ENDMDL
