MODEL 1
REMARK VINA RESULT:      -9.0      0.000      0.000
REMARK SMILES O=C(C[NH2+]Cc1cccs1)OCCOC(=O)c1ccc(-c2c3nc(c(-c4ccccc4)c4ccc([nH]4)c(-c4ccccc4)c4nc(c(-c5ccccc5)c5ccc2[nH]5)C=C4)C=C3)cc1
REMARK SMILES IDX 12 1 11 2 2 3 1 4 3 5 4 6 5 9 6 10 7 11 10 12 8 13 9 14
REMARK SMILES IDX 13 15 14 16 15 17 16 18 17 19 18 20 64 21 19 22 63 23 20 24
REMARK SMILES IDX 21 25 22 26 57 27 23 28 62 29 56 30 58 31 24 32 61 33 55 34
REMARK SMILES IDX 54 35 25 37 47 38 32 39 46 40 33 41 36 42 45 43 59 44 34 45
REMARK SMILES IDX 35 46 44 48 60 49 37 50 26 51 27 52 31 53 28 54 30 55 29 56
REMARK SMILES IDX 48 57 49 58 53 59 50 60 52 61 51 62 38 63 39 64 43 65 40 66
REMARK SMILES IDX 42 67 41 68
REMARK H PARENT 4 7 4 8 58 36 36 47
REMARK Flexibility Score: inf
ROOT
ATOM      1  C   UNL A   1      34.056  34.152  28.090  1.00  0.00     0.274 C 
ENDROOT
BRANCH   1   2
ATOM      2  O   UNL A   1      34.075  34.967  29.282  1.00  0.00    -0.458 OA
BRANCH   2   3
ATOM      3  C   UNL A   1      33.058  35.772  29.683  1.00  0.00     0.361 C 
ATOM      4  O   UNL A   1      32.331  36.318  28.856  1.00  0.00    -0.245 OA
BRANCH   3   5
ATOM      5  C   UNL A   1      32.872  36.011  31.177  1.00  0.00     0.385 C 
BRANCH   5   6
ATOM      6  N   UNL A   1      34.096  36.520  31.803  1.00  0.00    -0.333 N 
ATOM      7  H   UNL A   1      33.897  37.443  32.189  1.00  0.00     0.347 HD
ATOM      8  H   UNL A   1      34.811  36.545  31.075  1.00  0.00     0.347 HD
BRANCH   6   9
ATOM      9  C   UNL A   1      34.614  35.672  32.876  1.00  0.00     0.308 C 
BRANCH   9  10
ATOM     10  C   UNL A   1      35.193  34.354  32.448  1.00  0.00     0.059 A 
ATOM     11  C   UNL A   1      34.607  33.102  32.484  1.00  0.00     0.021 A 
ATOM     12  S   UNL A   1      36.830  34.246  31.948  1.00  0.00    -0.143 S 
ATOM     13  C   UNL A   1      35.509  32.057  32.148  1.00  0.00     0.012 A 
ATOM     14  C   UNL A   1      36.759  32.541  31.848  1.00  0.00     0.065 A 
ENDBRANCH   9  10
ENDBRANCH   6   9
ENDBRANCH   5   6
ENDBRANCH   3   5
ENDBRANCH   2   3
ENDBRANCH   1   2
BRANCH   1  15
ATOM     15  C   UNL A   1      35.102  33.033  28.149  1.00  0.00     0.275 C 
BRANCH  15  16
ATOM     16  O   UNL A   1      34.536  31.822  28.687  1.00  0.00    -0.458 OA
BRANCH  16  17
ATOM     17  C   UNL A   1      34.732  30.693  27.953  1.00  0.00     0.338 C 
ATOM     18  O   UNL A   1      34.037  30.278  27.052  1.00  0.00    -0.246 OA
BRANCH  17  19
ATOM     19  C   UNL A   1      36.058  30.125  28.303  1.00  0.00     0.060 A 
ATOM     20  C   UNL A   1      37.060  30.125  27.323  1.00  0.00     0.016 A 
ATOM     21  C   UNL A   1      36.338  29.649  29.585  1.00  0.00     0.016 A 
ATOM     22  C   UNL A   1      38.351  29.676  27.632  1.00  0.00     0.010 A 
ATOM     23  C   UNL A   1      37.630  29.210  29.892  1.00  0.00     0.010 A 
ATOM     24  C   UNL A   1      38.653  29.222  28.923  1.00  0.00    -0.014 A 
BRANCH  24  25
ATOM     25  C   UNL A   1      40.007  28.724  29.293  1.00  0.00     0.031 A 
ATOM     26  C   UNL A   1      41.038  29.690  29.812  1.00  0.00     0.074 A 
ATOM     27  C   UNL A   1      40.365  27.444  29.071  1.00  0.00     0.049 A 
ATOM     28  N   UNL A   1      42.311  29.490  30.045  1.00  0.00    -0.248 NA
ATOM     29  C   UNL A   1      40.575  31.054  30.107  1.00  0.00     0.031 C 
ATOM     30  C   UNL A   1      39.490  26.377  28.589  1.00  0.00     0.029 A 
ATOM     31  N   UNL A   1      41.604  26.846  29.148  1.00  0.00    -0.354 N 
ATOM     32  C   UNL A   1      42.792  30.689  30.552  1.00  0.00     0.074 A 
ATOM     33  C   UNL A   1      41.695  31.634  30.514  1.00  0.00     0.031 C 
ATOM     34  C   UNL A   1      40.234  25.293  28.307  1.00  0.00     0.029 A 
ATOM     35  C   UNL A   1      41.635  25.589  28.590  1.00  0.00     0.049 A 
ATOM     36  H   UNL A   1      42.387  27.275  29.562  1.00  0.00     0.167 HD
ATOM     37  C   UNL A   1      44.020  30.971  31.047  1.00  0.00     0.031 A 
ATOM     38  C   UNL A   1      42.677  24.787  28.293  1.00  0.00     0.031 A 
ATOM     39  C   UNL A   1      45.121  30.048  31.084  1.00  0.00     0.049 A 
ATOM     40  C   UNL A   1      44.076  25.188  28.668  1.00  0.00     0.074 A 
ATOM     41  C   UNL A   1      46.364  30.211  31.676  1.00  0.00     0.029 A 
ATOM     42  N   UNL A   1      45.126  28.803  30.484  1.00  0.00    -0.354 N 
ATOM     43  N   UNL A   1      44.490  26.278  29.265  1.00  0.00    -0.248 NA
ATOM     44  C   UNL A   1      45.149  24.231  28.357  1.00  0.00     0.031 C 
ATOM     45  C   UNL A   1      47.142  29.087  31.378  1.00  0.00     0.029 A 
ATOM     46  C   UNL A   1      46.367  28.207  30.644  1.00  0.00     0.049 A 
ATOM     47  H   UNL A   1      44.362  28.399  30.013  1.00  0.00     0.167 HD
ATOM     48  C   UNL A   1      45.854  26.103  29.465  1.00  0.00     0.074 A 
ATOM     49  C   UNL A   1      46.205  24.819  28.899  1.00  0.00     0.031 C 
ATOM     50  C   UNL A   1      46.725  26.926  30.096  1.00  0.00     0.031 A 
BRANCH  37  51
ATOM     51  C   UNL A   1      44.231  32.337  31.628  1.00  0.00    -0.014 A 
ATOM     52  C   UNL A   1      43.975  32.578  32.987  1.00  0.00     0.009 A 
ATOM     53  C   UNL A   1      44.750  33.370  30.836  1.00  0.00     0.009 A 
ATOM     54  C   UNL A   1      44.209  33.840  33.536  1.00  0.00     0.001 A 
ATOM     55  C   UNL A   1      45.004  34.624  31.392  1.00  0.00     0.001 A 
ATOM     56  C   UNL A   1      44.728  34.860  32.740  1.00  0.00     0.000 A 
ENDBRANCH  37  51
BRANCH  38  57
ATOM     57  C   UNL A   1      42.460  23.528  27.536  1.00  0.00    -0.014 A 
ATOM     58  C   UNL A   1      42.160  22.329  28.197  1.00  0.00     0.009 A 
ATOM     59  C   UNL A   1      42.646  23.514  26.145  1.00  0.00     0.009 A 
ATOM     60  C   UNL A   1      42.084  21.131  27.480  1.00  0.00     0.001 A 
ATOM     61  C   UNL A   1      42.544  22.320  25.428  1.00  0.00     0.001 A 
ATOM     62  C   UNL A   1      42.277  21.129  26.098  1.00  0.00     0.000 A 
ENDBRANCH  38  57
BRANCH  50  63
ATOM     63  C   UNL A   1      48.132  26.437  30.287  1.00  0.00    -0.014 A 
ATOM     64  C   UNL A   1      49.131  26.675  29.332  1.00  0.00     0.009 A 
ATOM     65  C   UNL A   1      48.468  25.753  31.467  1.00  0.00     0.009 A 
ATOM     66  C   UNL A   1      50.433  26.216  29.545  1.00  0.00     0.001 A 
ATOM     67  C   UNL A   1      49.775  25.319  31.689  1.00  0.00     0.001 A 
ATOM     68  C   UNL A   1      50.755  25.545  30.724  1.00  0.00     0.000 A 
ENDBRANCH  50  63
ENDBRANCH  24  25
ENDBRANCH  17  19
ENDBRANCH  16  17
ENDBRANCH  15  16
ENDBRANCH   1  15
TORSDOF 14
ENDMDL
MODEL 2
REMARK VINA RESULT:      -8.9      5.334     11.440
REMARK SMILES O=C(C[NH2+]Cc1cccs1)OCCOC(=O)c1ccc(-c2c3nc(c(-c4ccccc4)c4ccc([nH]4)c(-c4ccccc4)c4nc(c(-c5ccccc5)c5ccc2[nH]5)C=C4)C=C3)cc1
REMARK SMILES IDX 12 1 11 2 2 3 1 4 3 5 4 6 5 9 6 10 7 11 10 12 8 13 9 14
REMARK SMILES IDX 13 15 14 16 15 17 16 18 17 19 18 20 64 21 19 22 63 23 20 24
REMARK SMILES IDX 21 25 22 26 57 27 23 28 62 29 56 30 58 31 24 32 61 33 55 34
REMARK SMILES IDX 54 35 25 37 47 38 32 39 46 40 33 41 36 42 45 43 59 44 34 45
REMARK SMILES IDX 35 46 44 48 60 49 37 50 26 51 27 52 31 53 28 54 30 55 29 56
REMARK SMILES IDX 48 57 49 58 53 59 50 60 52 61 51 62 38 63 39 64 43 65 40 66
REMARK SMILES IDX 42 67 41 68
REMARK H PARENT 4 7 4 8 58 36 36 47
REMARK Flexibility Score: inf
ROOT
ATOM      1  C   UNL A   1      45.633  22.077  25.639  1.00  0.00     0.274 C 
ENDROOT
BRANCH   1   2
ATOM      2  O   UNL A   1      46.428  21.051  25.006  1.00  0.00    -0.458 OA
BRANCH   2   3
ATOM      3  C   UNL A   1      46.217  19.717  25.141  1.00  0.00     0.361 C 
ATOM      4  O   UNL A   1      47.119  18.978  25.531  1.00  0.00    -0.245 OA
BRANCH   3   5
ATOM      5  C   UNL A   1      44.851  19.160  24.759  1.00  0.00     0.385 C 
BRANCH   5   6
ATOM      6  N   UNL A   1      44.181  18.529  25.899  1.00  0.00    -0.333 N 
ATOM      7  H   UNL A   1      44.443  19.036  26.745  1.00  0.00     0.347 HD
ATOM      8  H   UNL A   1      44.483  17.554  25.916  1.00  0.00     0.347 HD
BRANCH   6   9
ATOM      9  C   UNL A   1      42.721  18.518  25.802  1.00  0.00     0.308 C 
BRANCH   9  10
ATOM     10  C   UNL A   1      42.017  19.711  26.384  1.00  0.00     0.059 A 
ATOM     11  C   UNL A   1      42.536  20.718  27.176  1.00  0.00     0.021 A 
ATOM     12  S   UNL A   1      40.320  19.886  26.212  1.00  0.00    -0.143 S 
ATOM     13  C   UNL A   1      41.541  21.600  27.676  1.00  0.00     0.012 A 
ATOM     14  C   UNL A   1      40.286  21.252  27.238  1.00  0.00     0.065 A 
ENDBRANCH   9  10
ENDBRANCH   6   9
ENDBRANCH   5   6
ENDBRANCH   3   5
ENDBRANCH   2   3
ENDBRANCH   1   2
BRANCH   1  15
ATOM     15  C   UNL A   1      46.077  23.482  25.218  1.00  0.00     0.275 C 
BRANCH  15  16
ATOM     16  O   UNL A   1      45.020  24.175  24.526  1.00  0.00    -0.458 OA
BRANCH  16  17
ATOM     17  C   UNL A   1      43.752  23.877  24.920  1.00  0.00     0.338 C 
ATOM     18  O   UNL A   1      43.081  22.932  24.568  1.00  0.00    -0.246 OA
BRANCH  17  19
ATOM     19  C   UNL A   1      43.367  24.804  26.014  1.00  0.00     0.060 A 
ATOM     20  C   UNL A   1      43.845  26.120  25.969  1.00  0.00     0.016 A 
ATOM     21  C   UNL A   1      42.507  24.410  27.041  1.00  0.00     0.016 A 
ATOM     22  C   UNL A   1      43.442  27.052  26.935  1.00  0.00     0.010 A 
ATOM     23  C   UNL A   1      42.099  25.345  27.998  1.00  0.00     0.010 A 
ATOM     24  C   UNL A   1      42.557  26.677  27.955  1.00  0.00    -0.014 A 
BRANCH  24  25
ATOM     25  C   UNL A   1      42.111  27.630  29.009  1.00  0.00     0.031 A 
ATOM     26  C   UNL A   1      42.761  27.595  30.366  1.00  0.00     0.074 A 
ATOM     27  C   UNL A   1      41.060  28.451  28.810  1.00  0.00     0.049 A 
ATOM     28  N   UNL A   1      42.420  28.230  31.460  1.00  0.00    -0.248 NA
ATOM     29  C   UNL A   1      43.947  26.738  30.508  1.00  0.00     0.031 C 
ATOM     30  C   UNL A   1      40.329  28.622  27.556  1.00  0.00     0.029 A 
ATOM     31  N   UNL A   1      40.375  29.243  29.704  1.00  0.00    -0.354 N 
ATOM     32  C   UNL A   1      43.372  27.880  32.408  1.00  0.00     0.074 A 
ATOM     33  C   UNL A   1      44.254  26.915  31.785  1.00  0.00     0.031 C 
ATOM     34  C   UNL A   1      39.235  29.371  27.786  1.00  0.00     0.029 A 
ATOM     35  C   UNL A   1      39.193  29.733  29.199  1.00  0.00     0.049 A 
ATOM     36  H   UNL A   1      40.698  29.439  30.613  1.00  0.00     0.167 HD
ATOM     37  C   UNL A   1      43.529  28.350  33.668  1.00  0.00     0.031 A 
ATOM     38  C   UNL A   1      38.169  30.358  29.813  1.00  0.00     0.031 A 
ATOM     39  C   UNL A   1      42.659  29.301  34.303  1.00  0.00     0.049 A 
ATOM     40  C   UNL A   1      38.258  30.711  31.271  1.00  0.00     0.074 A 
ATOM     41  C   UNL A   1      42.810  29.922  35.533  1.00  0.00     0.029 A 
ATOM     42  N   UNL A   1      41.462  29.748  33.776  1.00  0.00    -0.354 N 
ATOM     43  N   UNL A   1      39.230  30.480  32.118  1.00  0.00    -0.248 NA
ATOM     44  C   UNL A   1      37.120  31.442  31.850  1.00  0.00     0.031 C 
ATOM     45  C   UNL A   1      41.672  30.697  35.776  1.00  0.00     0.029 A 
ATOM     46  C   UNL A   1      40.836  30.595  34.677  1.00  0.00     0.049 A 
ATOM     47  H   UNL A   1      41.105  29.501  32.892  1.00  0.00     0.167 HD
ATOM     48  C   UNL A   1      38.853  31.099  33.303  1.00  0.00     0.074 A 
ATOM     49  C   UNL A   1      37.551  31.688  33.079  1.00  0.00     0.031 C 
ATOM     50  C   UNL A   1      39.548  31.195  34.462  1.00  0.00     0.031 A 
BRANCH  37  51
ATOM     51  C   UNL A   1      44.720  27.865  34.439  1.00  0.00    -0.014 A 
ATOM     52  C   UNL A   1      45.940  28.557  34.372  1.00  0.00     0.009 A 
ATOM     53  C   UNL A   1      44.608  26.756  35.288  1.00  0.00     0.009 A 
ATOM     54  C   UNL A   1      47.037  28.127  35.121  1.00  0.00     0.001 A 
ATOM     55  C   UNL A   1      45.699  26.342  36.053  1.00  0.00     0.001 A 
ATOM     56  C   UNL A   1      46.914  27.024  35.965  1.00  0.00     0.000 A 
ENDBRANCH  37  51
BRANCH  38  57
ATOM     57  C   UNL A   1      36.916  30.650  29.071  1.00  0.00    -0.014 A 
ATOM     58  C   UNL A   1      36.009  29.630  28.752  1.00  0.00     0.009 A 
ATOM     59  C   UNL A   1      36.674  31.951  28.602  1.00  0.00     0.009 A 
ATOM     60  C   UNL A   1      34.900  29.903  27.946  1.00  0.00     0.001 A 
ATOM     61  C   UNL A   1      35.553  32.225  27.818  1.00  0.00     0.001 A 
ATOM     62  C   UNL A   1      34.674  31.198  27.480  1.00  0.00     0.000 A 
ENDBRANCH  38  57
BRANCH  50  63
ATOM     63  C   UNL A   1      38.960  32.035  35.559  1.00  0.00    -0.014 A 
ATOM     64  C   UNL A   1      38.218  31.466  36.605  1.00  0.00     0.009 A 
ATOM     65  C   UNL A   1      39.184  33.421  35.561  1.00  0.00     0.009 A 
ATOM     66  C   UNL A   1      37.694  32.274  37.617  1.00  0.00     0.001 A 
ATOM     67  C   UNL A   1      38.682  34.222  36.587  1.00  0.00     0.001 A 
ATOM     68  C   UNL A   1      37.931  33.648  37.610  1.00  0.00     0.000 A 
ENDBRANCH  50  63
ENDBRANCH  24  25
ENDBRANCH  17  19
ENDBRANCH  16  17
ENDBRANCH  15  16
ENDBRANCH   1  15
TORSDOF 14
ENDMDL
MODEL 3
REMARK VINA RESULT:      -8.7      5.263     10.489
REMARK SMILES O=C(C[NH2+]Cc1cccs1)OCCOC(=O)c1ccc(-c2c3nc(c(-c4ccccc4)c4ccc([nH]4)c(-c4ccccc4)c4nc(c(-c5ccccc5)c5ccc2[nH]5)C=C4)C=C3)cc1
REMARK SMILES IDX 12 1 11 2 2 3 1 4 3 5 4 6 5 9 6 10 7 11 10 12 8 13 9 14
REMARK SMILES IDX 13 15 14 16 15 17 16 18 17 19 18 20 64 21 19 22 63 23 20 24
REMARK SMILES IDX 21 25 22 26 57 27 23 28 62 29 56 30 58 31 24 32 61 33 55 34
REMARK SMILES IDX 54 35 25 37 47 38 32 39 46 40 33 41 36 42 45 43 59 44 34 45
REMARK SMILES IDX 35 46 44 48 60 49 37 50 26 51 27 52 31 53 28 54 30 55 29 56
REMARK SMILES IDX 48 57 49 58 53 59 50 60 52 61 51 62 38 63 39 64 43 65 40 66
REMARK SMILES IDX 42 67 41 68
REMARK H PARENT 4 7 4 8 58 36 36 47
REMARK Flexibility Score: inf
ROOT
ATOM      1  C   UNL A   1      42.963  20.584  25.951  1.00  0.00     0.274 C 
ENDROOT
BRANCH   1   2
ATOM      2  O   UNL A   1      41.530  20.441  25.844  1.00  0.00    -0.458 OA
BRANCH   2   3
ATOM      3  C   UNL A   1      40.632  21.001  26.694  1.00  0.00     0.361 C 
ATOM      4  O   UNL A   1      40.731  20.830  27.908  1.00  0.00    -0.245 OA
BRANCH   3   5
ATOM      5  C   UNL A   1      39.482  21.806  26.102  1.00  0.00     0.385 C 
BRANCH   5   6
ATOM      6  N   UNL A   1      39.177  22.993  26.905  1.00  0.00    -0.333 N 
ATOM      7  H   UNL A   1      40.018  23.568  26.958  1.00  0.00     0.347 HD
ATOM      8  H   UNL A   1      38.871  22.660  27.820  1.00  0.00     0.347 HD
BRANCH   6   9
ATOM      9  C   UNL A   1      38.091  23.813  26.370  1.00  0.00     0.308 C 
BRANCH   9  10
ATOM     10  C   UNL A   1      37.144  23.116  25.434  1.00  0.00     0.059 A 
ATOM     11  C   UNL A   1      37.042  23.239  24.061  1.00  0.00     0.021 A 
ATOM     12  S   UNL A   1      35.901  22.108  26.050  1.00  0.00    -0.143 S 
ATOM     13  C   UNL A   1      35.923  22.546  23.523  1.00  0.00     0.012 A 
ATOM     14  C   UNL A   1      35.208  21.898  24.502  1.00  0.00     0.065 A 
ENDBRANCH   9  10
ENDBRANCH   6   9
ENDBRANCH   5   6
ENDBRANCH   3   5
ENDBRANCH   2   3
ENDBRANCH   1   2
BRANCH   1  15
ATOM     15  C   UNL A   1      43.529  21.490  24.852  1.00  0.00     0.275 C 
BRANCH  15  16
ATOM     16  O   UNL A   1      42.973  22.817  24.936  1.00  0.00    -0.458 OA
BRANCH  16  17
ATOM     17  C   UNL A   1      43.871  23.837  25.014  1.00  0.00     0.338 C 
ATOM     18  O   UNL A   1      44.768  24.082  24.239  1.00  0.00    -0.246 OA
BRANCH  17  19
ATOM     19  C   UNL A   1      43.465  24.740  26.121  1.00  0.00     0.060 A 
ATOM     20  C   UNL A   1      43.983  26.041  26.141  1.00  0.00     0.016 A 
ATOM     21  C   UNL A   1      42.549  24.340  27.096  1.00  0.00     0.016 A 
ATOM     22  C   UNL A   1      43.565  26.954  27.118  1.00  0.00     0.010 A 
ATOM     23  C   UNL A   1      42.127  25.257  28.065  1.00  0.00     0.010 A 
ATOM     24  C   UNL A   1      42.625  26.574  28.085  1.00  0.00    -0.014 A 
BRANCH  24  25
ATOM     25  C   UNL A   1      42.160  27.507  29.150  1.00  0.00     0.031 A 
ATOM     26  C   UNL A   1      42.769  27.429  30.524  1.00  0.00     0.074 A 
ATOM     27  C   UNL A   1      41.128  28.348  28.941  1.00  0.00     0.049 A 
ATOM     28  N   UNL A   1      42.405  28.040  31.624  1.00  0.00    -0.248 NA
ATOM     29  C   UNL A   1      43.939  26.551  30.679  1.00  0.00     0.031 C 
ATOM     30  C   UNL A   1      40.436  28.561  27.671  1.00  0.00     0.029 A 
ATOM     31  N   UNL A   1      40.427  29.127  29.835  1.00  0.00    -0.354 N 
ATOM     32  C   UNL A   1      43.323  27.653  32.590  1.00  0.00     0.074 A 
ATOM     33  C   UNL A   1      44.210  26.691  31.969  1.00  0.00     0.031 C 
ATOM     34  C   UNL A   1      39.347  29.319  27.888  1.00  0.00     0.029 A 
ATOM     35  C   UNL A   1      39.267  29.647  29.307  1.00  0.00     0.049 A 
ATOM     36  H   UNL A   1      40.725  29.295  30.758  1.00  0.00     0.167 HD
ATOM     37  C   UNL A   1      43.449  28.089  33.865  1.00  0.00     0.031 A 
ATOM     38  C   UNL A   1      38.234  30.271  29.907  1.00  0.00     0.031 A 
ATOM     39  C   UNL A   1      42.573  29.036  34.500  1.00  0.00     0.049 A 
ATOM     40  C   UNL A   1      38.285  30.586  31.376  1.00  0.00     0.074 A 
ATOM     41  C   UNL A   1      42.696  29.623  35.749  1.00  0.00     0.029 A 
ATOM     42  N   UNL A   1      41.398  29.513  33.949  1.00  0.00    -0.354 N 
ATOM     43  N   UNL A   1      39.227  30.319  32.245  1.00  0.00    -0.248 NA
ATOM     44  C   UNL A   1      37.139  31.317  31.939  1.00  0.00     0.031 C 
ATOM     45  C   UNL A   1      41.561  30.408  35.978  1.00  0.00     0.029 A 
ATOM     46  C   UNL A   1      40.758  30.346  34.852  1.00  0.00     0.049 A 
ATOM     47  H   UNL A   1      41.065  29.293  33.049  1.00  0.00     0.167 HD
ATOM     48  C   UNL A   1      38.823  30.913  33.434  1.00  0.00     0.074 A 
ATOM     49  C   UNL A   1      37.537  31.526  33.187  1.00  0.00     0.031 C 
ATOM     50  C   UNL A   1      39.484  30.970  34.614  1.00  0.00     0.031 A 
BRANCH  37  51
ATOM     51  C   UNL A   1      44.609  27.567  34.659  1.00  0.00    -0.014 A 
ATOM     52  C   UNL A   1      45.890  28.117  34.490  1.00  0.00     0.009 A 
ATOM     53  C   UNL A   1      44.414  26.572  35.626  1.00  0.00     0.009 A 
ATOM     54  C   UNL A   1      46.962  27.658  35.258  1.00  0.00     0.001 A 
ATOM     55  C   UNL A   1      45.482  26.130  36.408  1.00  0.00     0.001 A 
ATOM     56  C   UNL A   1      46.756  26.669  36.219  1.00  0.00     0.000 A 
ENDBRANCH  37  51
BRANCH  38  57
ATOM     57  C   UNL A   1      37.008  30.599  29.136  1.00  0.00    -0.014 A 
ATOM     58  C   UNL A   1      36.095  29.601  28.766  1.00  0.00     0.009 A 
ATOM     59  C   UNL A   1      36.799  31.914  28.691  1.00  0.00     0.009 A 
ATOM     60  C   UNL A   1      35.015  29.910  27.935  1.00  0.00     0.001 A 
ATOM     61  C   UNL A   1      35.706  32.224  27.882  1.00  0.00     0.001 A 
ATOM     62  C   UNL A   1      34.822  31.219  27.494  1.00  0.00     0.000 A 
ENDBRANCH  38  57
BRANCH  50  63
ATOM     63  C   UNL A   1      38.876  31.790  35.715  1.00  0.00    -0.014 A 
ATOM     64  C   UNL A   1      38.068  31.211  36.705  1.00  0.00     0.009 A 
ATOM     65  C   UNL A   1      39.146  33.167  35.779  1.00  0.00     0.009 A 
ATOM     66  C   UNL A   1      37.525  32.000  37.722  1.00  0.00     0.001 A 
ATOM     67  C   UNL A   1      38.625  33.948  36.810  1.00  0.00     0.001 A 
ATOM     68  C   UNL A   1      37.809  33.364  37.778  1.00  0.00     0.000 A 
ENDBRANCH  50  63
ENDBRANCH  24  25
ENDBRANCH  17  19
ENDBRANCH  16  17
ENDBRANCH  15  16
ENDBRANCH   1  15
TORSDOF 14
ENDMDL
