MODEL 1
REMARK VINA RESULT:      -9.9      0.000      0.000
REMARK SMILES CCc1c(C(=O)OCCOC(=O)c2ccc(-c3c4nc(c(-c5ccccc5)c5ccc([nH]5)c(-c5ccccc5)c5nc(c(-c6ccccc6)c6ccc3[nH]6)C=C5)C=C4)cc2)nnn1C[C@H]1C[C@H]2CC[C@@H]1C2
REMARK SMILES IDX 8 1 7 2 5 3 6 4 4 5 3 6 63 7 61 8 62 9 2 10 1 11 64 12 65 13
REMARK SMILES IDX 66 14 70 15 67 16 69 17 71 18 68 19 9 20 10 21 11 22 12 23
REMARK SMILES IDX 13 24 14 25 60 26 15 27 59 28 16 29 17 30 18 31 53 32 19 33
REMARK SMILES IDX 58 34 52 35 54 36 20 37 57 38 51 39 50 40 21 42 43 43 28 44
REMARK SMILES IDX 42 45 29 46 32 47 41 48 55 49 30 50 31 51 40 53 56 54 33 55
REMARK SMILES IDX 22 56 23 57 27 58 24 59 26 60 25 61 44 62 45 63 49 64 46 65
REMARK SMILES IDX 48 66 47 67 34 68 35 69 39 70 36 71 38 72 37 73
REMARK H PARENT 54 41 32 52
REMARK Flexibility Score: inf
ROOT
ATOM      1  C   UNL A   1      32.956  34.947  28.636  1.00  0.00     0.275 C 
ENDROOT
BRANCH   1   2
ATOM      2  O   UNL A   1      32.940  34.671  30.045  1.00  0.00    -0.457 OA
BRANCH   2   3
ATOM      3  C   UNL A   1      33.131  35.758  30.852  1.00  0.00     0.360 C 
ATOM      4  O   UNL A   1      32.569  36.838  30.675  1.00  0.00    -0.244 OA
BRANCH   3   5
ATOM      5  C   UNL A   1      34.004  35.500  31.988  1.00  0.00     0.193 A 
ATOM      6  C   UNL A   1      34.991  34.537  32.189  1.00  0.00     0.073 A 
ATOM      7  N   UNL A   1      35.483  34.859  33.434  1.00  0.00    -0.248 N 
ATOM      8  N   UNL A   1      33.907  36.285  33.113  1.00  0.00    -0.123 NA
ATOM      9  N   UNL A   1      34.778  35.850  34.001  1.00  0.00    -0.066 NA
BRANCH   6  10
ATOM     10  C   UNL A   1      35.526  33.448  31.322  1.00  0.00     0.055 C 
ATOM     11  C   UNL A   1      35.077  32.052  31.732  1.00  0.00     0.011 C 
ENDBRANCH   6  10
BRANCH   7  12
ATOM     12  C   UNL A   1      36.591  34.290  34.175  1.00  0.00     0.150 C 
BRANCH  12  13
ATOM     13  C   UNL A   1      37.963  34.577  33.554  1.00  0.00     0.014 C 
ATOM     14  C   UNL A   1      39.091  34.839  34.580  1.00  0.00     0.009 C 
ATOM     15  C   UNL A   1      38.537  33.391  32.730  1.00  0.00    -0.006 C 
ATOM     16  C   UNL A   1      40.131  33.763  34.236  1.00  0.00    -0.011 C 
ATOM     17  C   UNL A   1      38.543  32.090  33.549  1.00  0.00     0.004 C 
ATOM     18  C   UNL A   1      40.032  33.717  32.714  1.00  0.00     0.007 C 
ATOM     19  C   UNL A   1      39.565  32.390  34.653  1.00  0.00     0.004 C 
ENDBRANCH  12  13
ENDBRANCH   7  12
ENDBRANCH   3   5
ENDBRANCH   2   3
ENDBRANCH   1   2
BRANCH   1  20
ATOM     20  C   UNL A   1      33.267  33.695  27.825  1.00  0.00     0.275 C 
BRANCH  20  21
ATOM     21  O   UNL A   1      34.416  33.004  28.318  1.00  0.00    -0.458 OA
BRANCH  21  22
ATOM     22  C   UNL A   1      34.453  31.683  28.026  1.00  0.00     0.338 C 
ATOM     23  O   UNL A   1      33.513  30.905  28.028  1.00  0.00    -0.246 OA
BRANCH  22  24
ATOM     24  C   UNL A   1      35.850  31.243  27.948  1.00  0.00     0.060 A 
ATOM     25  C   UNL A   1      36.108  29.923  27.563  1.00  0.00     0.016 A 
ATOM     26  C   UNL A   1      36.845  32.049  28.521  1.00  0.00     0.016 A 
ATOM     27  C   UNL A   1      37.336  29.368  27.873  1.00  0.00     0.010 A 
ATOM     28  C   UNL A   1      38.058  31.489  28.847  1.00  0.00     0.010 A 
ATOM     29  C   UNL A   1      38.270  30.139  28.573  1.00  0.00    -0.014 A 
BRANCH  29  30
ATOM     30  C   UNL A   1      39.537  29.540  28.945  1.00  0.00     0.031 A 
ATOM     31  C   UNL A   1      39.706  29.324  30.401  1.00  0.00     0.074 A 
ATOM     32  C   UNL A   1      40.398  29.055  28.030  1.00  0.00     0.049 A 
ATOM     33  N   UNL A   1      40.642  29.786  31.162  1.00  0.00    -0.248 NA
ATOM     34  C   UNL A   1      38.652  28.589  31.119  1.00  0.00     0.031 C 
ATOM     35  C   UNL A   1      40.204  28.940  26.582  1.00  0.00     0.029 A 
ATOM     36  N   UNL A   1      41.588  28.426  28.232  1.00  0.00    -0.354 N 
ATOM     37  C   UNL A   1      40.386  29.278  32.431  1.00  0.00     0.074 A 
ATOM     38  C   UNL A   1      39.083  28.668  32.376  1.00  0.00     0.031 C 
ATOM     39  C   UNL A   1      41.114  28.073  26.083  1.00  0.00     0.029 A 
ATOM     40  C   UNL A   1      42.017  27.670  27.149  1.00  0.00     0.049 A 
ATOM     41  H   UNL A   1      42.098  28.500  29.071  1.00  0.00     0.167 HD
ATOM     42  C   UNL A   1      41.360  29.200  33.377  1.00  0.00     0.031 A 
ATOM     43  C   UNL A   1      42.987  26.723  27.161  1.00  0.00     0.031 A 
ATOM     44  C   UNL A   1      42.490  30.029  33.057  1.00  0.00     0.049 A 
ATOM     45  C   UNL A   1      43.813  26.936  28.372  1.00  0.00     0.074 A 
ATOM     46  C   UNL A   1      42.673  31.382  32.852  1.00  0.00     0.029 A 
ATOM     47  N   UNL A   1      43.595  29.412  32.522  1.00  0.00    -0.354 N 
ATOM     48  N   UNL A   1      44.607  27.954  28.529  1.00  0.00    -0.248 NA
ATOM     49  C   UNL A   1      43.434  26.249  29.599  1.00  0.00     0.031 C 
ATOM     50  C   UNL A   1      43.622  31.468  31.793  1.00  0.00     0.029 A 
ATOM     51  C   UNL A   1      44.007  30.169  31.456  1.00  0.00     0.049 A 
ATOM     52  H   UNL A   1      44.013  28.581  32.844  1.00  0.00     0.167 HD
ATOM     53  C   UNL A   1      44.454  28.316  29.859  1.00  0.00     0.074 A 
ATOM     54  C   UNL A   1      43.816  27.165  30.494  1.00  0.00     0.031 C 
ATOM     55  C   UNL A   1      44.586  29.618  30.252  1.00  0.00     0.031 A 
BRANCH  42  56
ATOM     56  C   UNL A   1      41.450  28.073  34.372  1.00  0.00    -0.014 A 
ATOM     57  C   UNL A   1      41.654  28.385  35.727  1.00  0.00     0.009 A 
ATOM     58  C   UNL A   1      41.634  26.729  33.995  1.00  0.00     0.009 A 
ATOM     59  C   UNL A   1      42.095  27.416  36.637  1.00  0.00     0.001 A 
ATOM     60  C   UNL A   1      42.032  25.751  34.908  1.00  0.00     0.001 A 
ATOM     61  C   UNL A   1      42.292  26.102  36.224  1.00  0.00     0.000 A 
ENDBRANCH  42  56
BRANCH  43  62
ATOM     62  C   UNL A   1      43.086  25.487  26.354  1.00  0.00    -0.014 A 
ATOM     63  C   UNL A   1      44.235  25.222  25.590  1.00  0.00     0.009 A 
ATOM     64  C   UNL A   1      42.171  24.435  26.542  1.00  0.00     0.009 A 
ATOM     65  C   UNL A   1      44.480  23.941  25.077  1.00  0.00     0.001 A 
ATOM     66  C   UNL A   1      42.411  23.159  26.024  1.00  0.00     0.001 A 
ATOM     67  C   UNL A   1      43.575  22.907  25.307  1.00  0.00     0.000 A 
ENDBRANCH  43  62
BRANCH  55  68
ATOM     68  C   UNL A   1      45.124  30.606  29.247  1.00  0.00    -0.014 A 
ATOM     69  C   UNL A   1      44.308  31.272  28.314  1.00  0.00     0.009 A 
ATOM     70  C   UNL A   1      46.472  30.983  29.334  1.00  0.00     0.009 A 
ATOM     71  C   UNL A   1      44.835  32.251  27.466  1.00  0.00     0.001 A 
ATOM     72  C   UNL A   1      46.994  31.977  28.505  1.00  0.00     0.001 A 
ATOM     73  C   UNL A   1      46.179  32.605  27.565  1.00  0.00     0.000 A 
ENDBRANCH  55  68
ENDBRANCH  29  30
ENDBRANCH  22  24
ENDBRANCH  21  22
ENDBRANCH  20  21
ENDBRANCH   1  20
TORSDOF 14
ENDMDL
MODEL 2
REMARK VINA RESULT:      -9.7      3.604      6.293
REMARK SMILES CCc1c(C(=O)OCCOC(=O)c2ccc(-c3c4nc(c(-c5ccccc5)c5ccc([nH]5)c(-c5ccccc5)c5nc(c(-c6ccccc6)c6ccc3[nH]6)C=C5)C=C4)cc2)nnn1C[C@H]1C[C@H]2CC[C@@H]1C2
REMARK SMILES IDX 8 1 7 2 5 3 6 4 4 5 3 6 63 7 61 8 62 9 2 10 1 11 64 12 65 13
REMARK SMILES IDX 66 14 70 15 67 16 69 17 71 18 68 19 9 20 10 21 11 22 12 23
REMARK SMILES IDX 13 24 14 25 60 26 15 27 59 28 16 29 17 30 18 31 53 32 19 33
REMARK SMILES IDX 58 34 52 35 54 36 20 37 57 38 51 39 50 40 21 42 43 43 28 44
REMARK SMILES IDX 42 45 29 46 32 47 41 48 55 49 30 50 31 51 40 53 56 54 33 55
REMARK SMILES IDX 22 56 23 57 27 58 24 59 26 60 25 61 44 62 45 63 49 64 46 65
REMARK SMILES IDX 48 66 47 67 34 68 35 69 39 70 36 71 38 72 37 73
REMARK H PARENT 54 41 32 52
REMARK Flexibility Score: inf
ROOT
ATOM      1  C   UNL A   1      33.330  30.263  26.985  1.00  0.00     0.275 C 
ENDROOT
BRANCH   1   2
ATOM      2  O   UNL A   1      31.977  29.783  26.966  1.00  0.00    -0.457 OA
BRANCH   2   3
ATOM      3  C   UNL A   1      31.608  29.128  25.823  1.00  0.00     0.360 C 
ATOM      4  O   UNL A   1      31.187  29.704  24.821  1.00  0.00    -0.244 OA
BRANCH   3   5
ATOM      5  C   UNL A   1      31.829  27.690  25.872  1.00  0.00     0.193 A 
ATOM      6  C   UNL A   1      32.581  26.848  25.055  1.00  0.00     0.073 A 
ATOM      7  N   UNL A   1      32.428  25.621  25.659  1.00  0.00    -0.248 N 
ATOM      8  N   UNL A   1      31.225  26.941  26.854  1.00  0.00    -0.123 NA
ATOM      9  N   UNL A   1      31.559  25.679  26.680  1.00  0.00    -0.066 NA
BRANCH   6  10
ATOM     10  C   UNL A   1      33.442  27.106  23.864  1.00  0.00     0.055 C 
ATOM     11  C   UNL A   1      32.762  26.809  22.534  1.00  0.00     0.011 C 
ENDBRANCH   6  10
BRANCH   7  12
ATOM     12  C   UNL A   1      33.038  24.344  25.346  1.00  0.00     0.150 C 
BRANCH  12  13
ATOM     13  C   UNL A   1      34.485  24.211  25.836  1.00  0.00     0.014 C 
ATOM     14  C   UNL A   1      34.758  22.959  26.702  1.00  0.00     0.009 C 
ATOM     15  C   UNL A   1      35.521  24.052  24.689  1.00  0.00    -0.006 C 
ATOM     16  C   UNL A   1      35.874  22.241  25.931  1.00  0.00    -0.011 C 
ATOM     17  C   UNL A   1      35.135  22.907  23.739  1.00  0.00     0.004 C 
ATOM     18  C   UNL A   1      36.704  23.417  25.425  1.00  0.00     0.007 C 
ATOM     19  C   UNL A   1      35.275  21.666  24.631  1.00  0.00     0.004 C 
ENDBRANCH  12  13
ENDBRANCH   7  12
ENDBRANCH   3   5
ENDBRANCH   2   3
ENDBRANCH   1   2
BRANCH   1  20
ATOM     20  C   UNL A   1      33.417  31.664  27.575  1.00  0.00     0.275 C 
BRANCH  20  21
ATOM     21  O   UNL A   1      34.341  31.737  28.663  1.00  0.00    -0.458 OA
BRANCH  21  22
ATOM     22  C   UNL A   1      35.547  32.265  28.350  1.00  0.00     0.338 C 
ATOM     23  O   UNL A   1      35.776  33.131  27.522  1.00  0.00    -0.246 OA
BRANCH  22  24
ATOM     24  C   UNL A   1      36.604  31.462  28.975  1.00  0.00     0.060 A 
ATOM     25  C   UNL A   1      37.751  32.119  29.432  1.00  0.00     0.016 A 
ATOM     26  C   UNL A   1      36.560  30.066  28.842  1.00  0.00     0.016 A 
ATOM     27  C   UNL A   1      38.903  31.382  29.634  1.00  0.00     0.010 A 
ATOM     28  C   UNL A   1      37.712  29.338  29.023  1.00  0.00     0.010 A 
ATOM     29  C   UNL A   1      38.886  30.010  29.360  1.00  0.00    -0.014 A 
BRANCH  29  30
ATOM     30  C   UNL A   1      40.109  29.246  29.521  1.00  0.00     0.031 A 
ATOM     31  C   UNL A   1      40.525  29.051  30.930  1.00  0.00     0.074 A 
ATOM     32  C   UNL A   1      40.703  28.617  28.490  1.00  0.00     0.049 A 
ATOM     33  N   UNL A   1      41.644  29.396  31.476  1.00  0.00    -0.248 NA
ATOM     34  C   UNL A   1      39.539  28.496  31.872  1.00  0.00     0.031 C 
ATOM     35  C   UNL A   1      40.219  28.488  27.113  1.00  0.00     0.029 A 
ATOM     36  N   UNL A   1      41.813  27.829  28.502  1.00  0.00    -0.354 N 
ATOM     37  C   UNL A   1      41.571  28.967  32.796  1.00  0.00     0.074 A 
ATOM     38  C   UNL A   1      40.212  28.549  33.021  1.00  0.00     0.031 C 
ATOM     39  C   UNL A   1      40.889  27.485  26.502  1.00  0.00     0.029 A 
ATOM     40  C   UNL A   1      41.919  26.989  27.401  1.00  0.00     0.049 A 
ATOM     41  H   UNL A   1      42.481  27.854  29.224  1.00  0.00     0.167 HD
ATOM     42  C   UNL A   1      42.689  28.777  33.547  1.00  0.00     0.031 A 
ATOM     43  C   UNL A   1      42.736  25.913  27.285  1.00  0.00     0.031 A 
ATOM     44  C   UNL A   1      43.839  29.426  32.974  1.00  0.00     0.049 A 
ATOM     45  C   UNL A   1      43.801  26.040  28.306  1.00  0.00     0.074 A 
ATOM     46  C   UNL A   1      44.160  30.732  32.663  1.00  0.00     0.029 A 
ATOM     47  N   UNL A   1      44.725  28.641  32.278  1.00  0.00    -0.354 N 
ATOM     48  N   UNL A   1      44.741  26.938  28.254  1.00  0.00    -0.248 NA
ATOM     49  C   UNL A   1      43.577  25.451  29.618  1.00  0.00     0.031 C 
ATOM     50  C   UNL A   1      44.889  30.650  31.442  1.00  0.00     0.029 A 
ATOM     51  C   UNL A   1      45.023  29.300  31.113  1.00  0.00     0.049 A 
ATOM     52  H   UNL A   1      45.081  27.769  32.562  1.00  0.00     0.167 HD
ATOM     53  C   UNL A   1      44.897  27.357  29.567  1.00  0.00     0.074 A 
ATOM     54  C   UNL A   1      44.245  26.328  30.374  1.00  0.00     0.031 C 
ATOM     55  C   UNL A   1      45.278  28.637  29.855  1.00  0.00     0.031 A 
BRANCH  42  56
ATOM     56  C   UNL A   1      42.817  27.679  34.569  1.00  0.00    -0.014 A 
ATOM     57  C   UNL A   1      43.079  26.371  34.123  1.00  0.00     0.009 A 
ATOM     58  C   UNL A   1      42.404  27.823  35.907  1.00  0.00     0.009 A 
ATOM     59  C   UNL A   1      42.863  25.265  34.954  1.00  0.00     0.001 A 
ATOM     60  C   UNL A   1      42.228  26.725  36.750  1.00  0.00     0.001 A 
ATOM     61  C   UNL A   1      42.428  25.443  36.263  1.00  0.00     0.000 A 
ENDBRANCH  42  56
BRANCH  43  62
ATOM     62  C   UNL A   1      42.508  24.653  26.543  1.00  0.00    -0.014 A 
ATOM     63  C   UNL A   1      43.417  24.228  25.559  1.00  0.00     0.009 A 
ATOM     64  C   UNL A   1      41.547  23.726  26.987  1.00  0.00     0.009 A 
ATOM     65  C   UNL A   1      43.393  22.913  25.075  1.00  0.00     0.001 A 
ATOM     66  C   UNL A   1      41.517  22.417  26.498  1.00  0.00     0.001 A 
ATOM     67  C   UNL A   1      42.453  22.004  25.556  1.00  0.00     0.000 A 
ENDBRANCH  43  62
BRANCH  55  68
ATOM     68  C   UNL A   1      45.740  29.508  28.713  1.00  0.00    -0.014 A 
ATOM     69  C   UNL A   1      44.855  30.229  27.891  1.00  0.00     0.009 A 
ATOM     70  C   UNL A   1      47.116  29.720  28.548  1.00  0.00     0.009 A 
ATOM     71  C   UNL A   1      45.333  31.099  26.906  1.00  0.00     0.001 A 
ATOM     72  C   UNL A   1      47.595  30.607  27.581  1.00  0.00     0.001 A 
ATOM     73  C   UNL A   1      46.704  31.289  26.754  1.00  0.00     0.000 A 
ENDBRANCH  55  68
ENDBRANCH  29  30
ENDBRANCH  22  24
ENDBRANCH  21  22
ENDBRANCH  20  21
ENDBRANCH   1  20
TORSDOF 14
ENDMDL
MODEL 3
REMARK VINA RESULT:      -9.6      1.450      2.074
REMARK SMILES CCc1c(C(=O)OCCOC(=O)c2ccc(-c3c4nc(c(-c5ccccc5)c5ccc([nH]5)c(-c5ccccc5)c5nc(c(-c6ccccc6)c6ccc3[nH]6)C=C5)C=C4)cc2)nnn1C[C@H]1C[C@H]2CC[C@@H]1C2
REMARK SMILES IDX 8 1 7 2 5 3 6 4 4 5 3 6 63 7 61 8 62 9 2 10 1 11 64 12 65 13
REMARK SMILES IDX 66 14 70 15 67 16 69 17 71 18 68 19 9 20 10 21 11 22 12 23
REMARK SMILES IDX 13 24 14 25 60 26 15 27 59 28 16 29 17 30 18 31 53 32 19 33
REMARK SMILES IDX 58 34 52 35 54 36 20 37 57 38 51 39 50 40 21 42 43 43 28 44
REMARK SMILES IDX 42 45 29 46 32 47 41 48 55 49 30 50 31 51 40 53 56 54 33 55
REMARK SMILES IDX 22 56 23 57 27 58 24 59 26 60 25 61 44 62 45 63 49 64 46 65
REMARK SMILES IDX 48 66 47 67 34 68 35 69 39 70 36 71 38 72 37 73
REMARK H PARENT 54 41 32 52
REMARK Flexibility Score: inf
ROOT
ATOM      1  C   UNL A   1      34.038  34.477  29.597  1.00  0.00     0.275 C 
ENDROOT
BRANCH   1   2
ATOM      2  O   UNL A   1      35.185  34.038  30.340  1.00  0.00    -0.457 OA
BRANCH   2   3
ATOM      3  C   UNL A   1      34.905  33.385  31.509  1.00  0.00     0.360 C 
ATOM      4  O   UNL A   1      33.789  33.372  32.024  1.00  0.00    -0.244 OA
BRANCH   3   5
ATOM      5  C   UNL A   1      36.033  32.641  32.052  1.00  0.00     0.193 A 
ATOM      6  C   UNL A   1      37.327  33.043  32.380  1.00  0.00     0.073 A 
ATOM      7  N   UNL A   1      37.882  31.892  32.893  1.00  0.00    -0.248 N 
ATOM      8  N   UNL A   1      35.901  31.297  32.311  1.00  0.00    -0.123 NA
ATOM      9  N   UNL A   1      37.049  30.847  32.775  1.00  0.00    -0.066 NA
BRANCH   6  10
ATOM     10  C   UNL A   1      38.015  34.364  32.321  1.00  0.00     0.055 C 
ATOM     11  C   UNL A   1      38.845  34.574  31.061  1.00  0.00     0.011 C 
ENDBRANCH   6  10
BRANCH   7  12
ATOM     12  C   UNL A   1      39.181  31.673  33.497  1.00  0.00     0.150 C 
BRANCH  12  13
ATOM     13  C   UNL A   1      39.164  31.704  35.031  1.00  0.00     0.014 C 
ATOM     14  C   UNL A   1      40.331  30.943  35.703  1.00  0.00     0.009 C 
ATOM     15  C   UNL A   1      39.312  33.131  35.629  1.00  0.00    -0.006 C 
ATOM     16  C   UNL A   1      41.005  32.026  36.557  1.00  0.00    -0.011 C 
ATOM     17  C   UNL A   1      40.544  33.852  35.059  1.00  0.00     0.004 C 
ATOM     18  C   UNL A   1      39.800  32.824  37.047  1.00  0.00     0.007 C 
ATOM     19  C   UNL A   1      41.708  33.022  35.613  1.00  0.00     0.004 C 
ENDBRANCH  12  13
ENDBRANCH   7  12
ENDBRANCH   3   5
ENDBRANCH   2   3
ENDBRANCH   1   2
BRANCH   1  20
ATOM     20  C   UNL A   1      33.964  33.802  28.234  1.00  0.00     0.275 C 
BRANCH  20  21
ATOM     21  O   UNL A   1      35.162  33.091  27.916  1.00  0.00    -0.458 OA
BRANCH  21  22
ATOM     22  C   UNL A   1      35.019  31.749  27.824  1.00  0.00     0.338 C 
ATOM     23  O   UNL A   1      34.044  31.142  27.413  1.00  0.00    -0.246 OA
BRANCH  22  24
ATOM     24  C   UNL A   1      36.123  31.094  28.534  1.00  0.00     0.060 A 
ATOM     25  C   UNL A   1      37.239  31.865  28.875  1.00  0.00     0.016 A 
ATOM     26  C   UNL A   1      36.150  29.694  28.596  1.00  0.00     0.016 A 
ATOM     27  C   UNL A   1      38.431  31.222  29.156  1.00  0.00     0.010 A 
ATOM     28  C   UNL A   1      37.342  29.056  28.855  1.00  0.00     0.010 A 
ATOM     29  C   UNL A   1      38.482  29.827  29.074  1.00  0.00    -0.014 A 
BRANCH  29  30
ATOM     30  C   UNL A   1      39.745  29.155  29.317  1.00  0.00     0.031 A 
ATOM     31  C   UNL A   1      40.004  28.840  30.741  1.00  0.00     0.074 A 
ATOM     32  C   UNL A   1      40.518  28.697  28.314  1.00  0.00     0.049 A 
ATOM     33  N   UNL A   1      41.010  29.214  31.460  1.00  0.00    -0.248 NA
ATOM     34  C   UNL A   1      38.971  28.102  31.486  1.00  0.00     0.031 C 
ATOM     35  C   UNL A   1      40.220  28.683  26.880  1.00  0.00     0.029 A 
ATOM     36  N   UNL A   1      41.690  28.009  28.392  1.00  0.00    -0.354 N 
ATOM     37  C   UNL A   1      40.820  28.636  32.710  1.00  0.00     0.074 A 
ATOM     38  C   UNL A   1      39.490  28.082  32.712  1.00  0.00     0.031 C 
ATOM     39  C   UNL A   1      41.054  27.815  26.264  1.00  0.00     0.029 A 
ATOM     40  C   UNL A   1      42.010  27.309  27.236  1.00  0.00     0.049 A 
ATOM     41  H   UNL A   1      42.260  28.010  29.194  1.00  0.00     0.167 HD
ATOM     42  C   UNL A   1      41.852  28.458  33.578  1.00  0.00     0.031 A 
ATOM     43  C   UNL A   1      42.936  26.325  27.120  1.00  0.00     0.031 A 
ATOM     44  C   UNL A   1      42.994  29.261  33.228  1.00  0.00     0.049 A 
ATOM     45  C   UNL A   1      43.852  26.426  28.280  1.00  0.00     0.074 A 
ATOM     46  C   UNL A   1      43.221  30.616  33.095  1.00  0.00     0.029 A 
ATOM     47  N   UNL A   1      44.030  28.636  32.579  1.00  0.00    -0.354 N 
ATOM     48  N   UNL A   1      44.699  27.400  28.442  1.00  0.00    -0.248 NA
ATOM     49  C   UNL A   1      43.529  25.678  29.486  1.00  0.00     0.031 C 
ATOM     50  C   UNL A   1      44.097  30.732  31.978  1.00  0.00     0.029 A 
ATOM     51  C   UNL A   1      44.401  29.444  31.535  1.00  0.00     0.049 A 
ATOM     52  H   UNL A   1      44.432  27.770  32.819  1.00  0.00     0.167 HD
ATOM     53  C   UNL A   1      44.654  27.682  29.799  1.00  0.00     0.074 A 
ATOM     54  C   UNL A   1      44.012  26.518  30.406  1.00  0.00     0.031 C 
ATOM     55  C   UNL A   1      44.870  28.949  30.261  1.00  0.00     0.031 A 
BRANCH  42  56
ATOM     56  C   UNL A   1      41.961  27.267  34.492  1.00  0.00    -0.014 A 
ATOM     57  C   UNL A   1      41.530  27.397  35.824  1.00  0.00     0.009 A 
ATOM     58  C   UNL A   1      42.731  26.129  34.183  1.00  0.00     0.009 A 
ATOM     59  C   UNL A   1      41.916  26.477  36.805  1.00  0.00     0.001 A 
ATOM     60  C   UNL A   1      43.083  25.187  35.150  1.00  0.00     0.001 A 
ATOM     61  C   UNL A   1      42.700  25.378  36.469  1.00  0.00     0.000 A 
ENDBRANCH  42  56
BRANCH  43  62
ATOM     62  C   UNL A   1      42.924  25.141  26.233  1.00  0.00    -0.014 A 
ATOM     63  C   UNL A   1      43.925  24.964  25.263  1.00  0.00     0.009 A 
ATOM     64  C   UNL A   1      42.089  24.045  26.515  1.00  0.00     0.009 A 
ATOM     65  C   UNL A   1      44.111  23.724  24.637  1.00  0.00     0.001 A 
ATOM     66  C   UNL A   1      42.268  22.810  25.885  1.00  0.00     0.001 A 
ATOM     67  C   UNL A   1      43.293  22.644  24.959  1.00  0.00     0.000 A 
ENDBRANCH  43  62
BRANCH  55  68
ATOM     68  C   UNL A   1      45.381  29.978  29.282  1.00  0.00    -0.014 A 
ATOM     69  C   UNL A   1      44.533  30.731  28.449  1.00  0.00     0.009 A 
ATOM     70  C   UNL A   1      46.745  30.299  29.300  1.00  0.00     0.009 A 
ATOM     71  C   UNL A   1      45.042  31.741  27.628  1.00  0.00     0.001 A 
ATOM     72  C   UNL A   1      47.252  31.323  28.498  1.00  0.00     0.001 A 
ATOM     73  C   UNL A   1      46.402  32.039  27.655  1.00  0.00     0.000 A 
ENDBRANCH  55  68
ENDBRANCH  29  30
ENDBRANCH  22  24
ENDBRANCH  21  22
ENDBRANCH  20  21
ENDBRANCH   1  20
TORSDOF 14
ENDMDL
