MODEL 1
REMARK VINA RESULT:     -10.4      0.000      0.000
REMARK SMILES O=C(OCCOC(=O)c1cc([C@@H]2C=NN=C2c2ccc(F)cc2)c2c(ccc3ccccc32)n1)c1ccc(-c2c3nc(c(-c4ccccc4)c4ccc([nH]4)c(-c4ccccc4)c4nc(c(-c5ccccc5)c5ccc2[nH]5)C=C4)C=C3)cc1
REMARK SMILES IDX 4 1 3 2 2 3 1 4 35 5 36 6 82 7 37 8 81 9 38 10 39 11 40 12
REMARK SMILES IDX 75 13 41 14 80 15 74 16 76 17 42 18 79 19 73 20 72 21 43 23
REMARK SMILES IDX 65 24 50 25 64 26 51 27 54 28 63 29 77 30 52 31 53 32 62 34
REMARK SMILES IDX 78 35 55 36 44 37 45 38 49 39 46 40 48 41 47 42 66 43 67 44
REMARK SMILES IDX 71 45 68 46 70 47 69 48 56 49 57 50 61 51 58 52 60 53 59 54
REMARK SMILES IDX 5 55 6 56 7 57 8 58 9 59 10 60 34 61 11 62 25 63 24 64 26 65
REMARK SMILES IDX 33 66 27 67 28 68 32 69 29 70 31 71 30 72 12 73 13 74 16 75
REMARK SMILES IDX 14 76 15 77 17 78 18 79 23 80 19 81 22 82 20 83 21 84
REMARK H PARENT 76 22 54 33
REMARK Flexibility Score: inf
ROOT
ATOM      1  C   UNL A   1      37.576  33.900  34.441  1.00  0.00     0.275 C 
ENDROOT
BRANCH   1   2
ATOM      2  O   UNL A   1      38.573  34.365  33.505  1.00  0.00    -0.458 OA
BRANCH   2   3
ATOM      3  C   UNL A   1      38.541  33.928  32.229  1.00  0.00     0.338 C 
ATOM      4  O   UNL A   1      37.862  34.428  31.340  1.00  0.00    -0.246 OA
BRANCH   3   5
ATOM      5  C   UNL A   1      39.554  32.871  32.006  1.00  0.00     0.060 A 
ATOM      6  C   UNL A   1      40.145  32.194  33.079  1.00  0.00     0.016 A 
ATOM      7  C   UNL A   1      39.912  32.542  30.692  1.00  0.00     0.016 A 
ATOM      8  C   UNL A   1      41.128  31.245  32.842  1.00  0.00     0.010 A 
ATOM      9  C   UNL A   1      40.899  31.588  30.454  1.00  0.00     0.010 A 
ATOM     10  C   UNL A   1      41.527  30.958  31.531  1.00  0.00    -0.014 A 
BRANCH  10  11
ATOM     11  C   UNL A   1      42.577  29.956  31.358  1.00  0.00     0.031 A 
ATOM     12  C   UNL A   1      43.737  30.349  30.510  1.00  0.00     0.074 A 
ATOM     13  C   UNL A   1      42.589  28.744  31.943  1.00  0.00     0.049 A 
ATOM     14  N   UNL A   1      44.049  29.906  29.337  1.00  0.00    -0.248 NA
ATOM     15  C   UNL A   1      44.629  31.399  31.012  1.00  0.00     0.031 C 
ATOM     16  C   UNL A   1      41.734  28.236  33.017  1.00  0.00     0.029 A 
ATOM     17  N   UNL A   1      43.460  27.715  31.724  1.00  0.00    -0.354 N 
ATOM     18  C   UNL A   1      45.267  30.498  29.007  1.00  0.00     0.074 A 
ATOM     19  C   UNL A   1      45.522  31.489  30.024  1.00  0.00     0.031 C 
ATOM     20  C   UNL A   1      42.263  27.089  33.499  1.00  0.00     0.029 A 
ATOM     21  C   UNL A   1      43.394  26.705  32.669  1.00  0.00     0.049 A 
ATOM     22  H   UNL A   1      44.081  27.694  30.961  1.00  0.00     0.167 HD
ATOM     23  C   UNL A   1      46.069  30.004  28.022  1.00  0.00     0.031 A 
ATOM     24  C   UNL A   1      44.229  25.646  32.782  1.00  0.00     0.031 A 
ATOM     25  C   UNL A   1      45.380  29.069  27.173  1.00  0.00     0.049 A 
ATOM     26  C   UNL A   1      44.900  25.443  31.480  1.00  0.00     0.074 A 
ATOM     27  C   UNL A   1      44.261  29.116  26.365  1.00  0.00     0.029 A 
ATOM     28  N   UNL A   1      45.659  27.734  27.338  1.00  0.00    -0.354 N 
ATOM     29  N   UNL A   1      44.294  24.994  30.420  1.00  0.00    -0.248 NA
ATOM     30  C   UNL A   1      46.178  26.090  31.239  1.00  0.00     0.031 C 
ATOM     31  C   UNL A   1      43.648  27.837  26.514  1.00  0.00     0.029 A 
ATOM     32  C   UNL A   1      44.457  27.079  27.361  1.00  0.00     0.049 A 
ATOM     33  H   UNL A   1      46.552  27.327  27.423  1.00  0.00     0.167 HD
ATOM     34  C   UNL A   1      44.876  25.679  29.364  1.00  0.00     0.074 A 
ATOM     35  C   UNL A   1      46.109  26.238  29.914  1.00  0.00     0.031 C 
ATOM     36  C   UNL A   1      44.167  25.961  28.230  1.00  0.00     0.031 A 
BRANCH  23  37
ATOM     37  C   UNL A   1      47.578  30.080  28.035  1.00  0.00    -0.014 A 
ATOM     38  C   UNL A   1      48.279  29.460  29.088  1.00  0.00     0.009 A 
ATOM     39  C   UNL A   1      48.308  30.972  27.230  1.00  0.00     0.009 A 
ATOM     40  C   UNL A   1      49.614  29.778  29.367  1.00  0.00     0.001 A 
ATOM     41  C   UNL A   1      49.654  31.259  27.479  1.00  0.00     0.001 A 
ATOM     42  C   UNL A   1      50.297  30.686  28.567  1.00  0.00     0.000 A 
ENDBRANCH  23  37
BRANCH  24  43
ATOM     43  C   UNL A   1      44.636  24.907  33.992  1.00  0.00    -0.014 A 
ATOM     44  C   UNL A   1      45.374  25.537  35.006  1.00  0.00     0.009 A 
ATOM     45  C   UNL A   1      44.061  23.655  34.276  1.00  0.00     0.009 A 
ATOM     46  C   UNL A   1      45.496  24.951  36.273  1.00  0.00     0.001 A 
ATOM     47  C   UNL A   1      44.187  23.070  35.538  1.00  0.00     0.001 A 
ATOM     48  C   UNL A   1      44.891  23.727  36.542  1.00  0.00     0.000 A 
ENDBRANCH  24  43
BRANCH  36  49
ATOM     49  C   UNL A   1      42.842  25.270  28.028  1.00  0.00    -0.014 A 
ATOM     50  C   UNL A   1      41.656  25.680  28.664  1.00  0.00     0.009 A 
ATOM     51  C   UNL A   1      42.758  24.256  27.062  1.00  0.00     0.009 A 
ATOM     52  C   UNL A   1      40.436  25.059  28.379  1.00  0.00     0.001 A 
ATOM     53  C   UNL A   1      41.535  23.655  26.757  1.00  0.00     0.001 A 
ATOM     54  C   UNL A   1      40.377  24.048  27.422  1.00  0.00     0.000 A 
ENDBRANCH  36  49
ENDBRANCH  10  11
ENDBRANCH   3   5
ENDBRANCH   2   3
ENDBRANCH   1   2
BRANCH   1  55
ATOM     55  C   UNL A   1      36.157  34.440  34.293  1.00  0.00     0.275 C 
BRANCH  55  56
ATOM     56  O   UNL A   1      35.227  33.348  34.370  1.00  0.00    -0.457 OA
BRANCH  56  57
ATOM     57  C   UNL A   1      34.405  33.212  33.305  1.00  0.00     0.357 C 
ATOM     58  O   UNL A   1      33.251  33.621  33.188  1.00  0.00    -0.244 OA
BRANCH  57  59
ATOM     59  C   UNL A   1      35.062  32.328  32.334  1.00  0.00     0.149 A 
ATOM     60  C   UNL A   1      34.915  32.632  31.006  1.00  0.00     0.041 A 
ATOM     61  N   UNL A   1      35.895  31.379  32.779  1.00  0.00    -0.241 NA
ATOM     62  C   UNL A   1      35.721  31.980  30.045  1.00  0.00    -0.021 A 
ATOM     63  C   UNL A   1      36.620  30.701  31.886  1.00  0.00     0.072 A 
ATOM     64  C   UNL A   1      36.634  30.923  30.470  1.00  0.00     0.012 A 
ATOM     65  C   UNL A   1      37.431  29.756  32.473  1.00  0.00     0.029 A 
ATOM     66  C   UNL A   1      37.588  30.088  29.702  1.00  0.00    -0.009 A 
ATOM     67  C   UNL A   1      38.285  28.951  31.740  1.00  0.00     0.011 A 
ATOM     68  C   UNL A   1      38.375  29.102  30.367  1.00  0.00    -0.018 A 
ATOM     69  C   UNL A   1      37.844  30.162  28.314  1.00  0.00     0.009 A 
ATOM     70  C   UNL A   1      39.277  28.267  29.683  1.00  0.00     0.009 A 
ATOM     71  C   UNL A   1      38.754  29.344  27.630  1.00  0.00     0.001 A 
ATOM     72  C   UNL A   1      39.469  28.386  28.316  1.00  0.00     0.001 A 
BRANCH  62  73
ATOM     73  C   UNL A   1      35.591  32.662  28.702  1.00  0.00     0.115 C 
ATOM     74  C   UNL A   1      35.636  34.140  28.628  1.00  0.00     0.123 C 
ATOM     75  C   UNL A   1      34.392  32.420  27.840  1.00  0.00     0.083 C 
ATOM     76  N   UNL A   1      34.777  34.619  27.786  1.00  0.00    -0.162 NA
ATOM     77  N   UNL A   1      33.985  33.525  27.281  1.00  0.00    -0.154 NA
BRANCH  75  78
ATOM     78  C   UNL A   1      33.841  31.079  27.512  1.00  0.00    -0.001 A 
ATOM     79  C   UNL A   1      32.468  30.981  27.252  1.00  0.00     0.013 A 
ATOM     80  C   UNL A   1      34.627  29.920  27.432  1.00  0.00     0.013 A 
ATOM     81  C   UNL A   1      31.903  29.756  26.885  1.00  0.00     0.040 A 
ATOM     82  C   UNL A   1      34.062  28.697  27.061  1.00  0.00     0.040 A 
ATOM     83  C   UNL A   1      32.706  28.627  26.786  1.00  0.00     0.123 A 
ATOM     84  F   UNL A   1      32.166  27.455  26.428  1.00  0.00    -0.207 F 
ENDBRANCH  75  78
ENDBRANCH  62  73
ENDBRANCH  57  59
ENDBRANCH  56  57
ENDBRANCH  55  56
ENDBRANCH   1  55
TORSDOF 13
ENDMDL
MODEL 2
REMARK VINA RESULT:     -10.1      6.385     10.237
REMARK SMILES O=C(OCCOC(=O)c1cc([C@@H]2C=NN=C2c2ccc(F)cc2)c2c(ccc3ccccc32)n1)c1ccc(-c2c3nc(c(-c4ccccc4)c4ccc([nH]4)c(-c4ccccc4)c4nc(c(-c5ccccc5)c5ccc2[nH]5)C=C4)C=C3)cc1
REMARK SMILES IDX 4 1 3 2 2 3 1 4 35 5 36 6 82 7 37 8 81 9 38 10 39 11 40 12
REMARK SMILES IDX 75 13 41 14 80 15 74 16 76 17 42 18 79 19 73 20 72 21 43 23
REMARK SMILES IDX 65 24 50 25 64 26 51 27 54 28 63 29 77 30 52 31 53 32 62 34
REMARK SMILES IDX 78 35 55 36 44 37 45 38 49 39 46 40 48 41 47 42 66 43 67 44
REMARK SMILES IDX 71 45 68 46 70 47 69 48 56 49 57 50 61 51 58 52 60 53 59 54
REMARK SMILES IDX 5 55 6 56 7 57 8 58 9 59 10 60 34 61 11 62 25 63 24 64 26 65
REMARK SMILES IDX 33 66 27 67 28 68 32 69 29 70 31 71 30 72 12 73 13 74 16 75
REMARK SMILES IDX 14 76 15 77 17 78 18 79 23 80 19 81 22 82 20 83 21 84
REMARK H PARENT 76 22 54 33
REMARK Flexibility Score: inf
ROOT
ATOM      1  C   UNL A   1      38.146  34.425  32.733  1.00  0.00     0.275 C 
ENDROOT
BRANCH   1   2
ATOM      2  O   UNL A   1      38.477  34.150  31.353  1.00  0.00    -0.458 OA
BRANCH   2   3
ATOM      3  C   UNL A   1      39.604  33.468  31.065  1.00  0.00     0.338 C 
ATOM      4  O   UNL A   1      39.771  32.275  31.286  1.00  0.00    -0.246 OA
BRANCH   3   5
ATOM      5  C   UNL A   1      40.551  34.311  30.298  1.00  0.00     0.060 A 
ATOM      6  C   UNL A   1      41.841  34.572  30.776  1.00  0.00     0.016 A 
ATOM      7  C   UNL A   1      40.143  34.841  29.068  1.00  0.00     0.016 A 
ATOM      8  C   UNL A   1      42.688  35.406  30.062  1.00  0.00     0.010 A 
ATOM      9  C   UNL A   1      40.995  35.679  28.350  1.00  0.00     0.010 A 
ATOM     10  C   UNL A   1      42.258  35.983  28.861  1.00  0.00    -0.014 A 
BRANCH  10  11
ATOM     11  C   UNL A   1      43.200  36.862  28.170  1.00  0.00     0.031 A 
ATOM     12  C   UNL A   1      44.488  36.248  27.740  1.00  0.00     0.074 A 
ATOM     13  C   UNL A   1      42.966  38.151  27.860  1.00  0.00     0.049 A 
ATOM     14  N   UNL A   1      45.669  36.465  28.216  1.00  0.00    -0.248 NA
ATOM     15  C   UNL A   1      44.444  35.233  26.683  1.00  0.00     0.031 C 
ATOM     16  C   UNL A   1      41.705  38.892  27.915  1.00  0.00     0.029 A 
ATOM     17  N   UNL A   1      43.841  39.061  27.340  1.00  0.00    -0.354 N 
ATOM     18  C   UNL A   1      46.551  35.737  27.420  1.00  0.00     0.074 A 
ATOM     19  C   UNL A   1      45.734  34.914  26.562  1.00  0.00     0.031 C 
ATOM     20  C   UNL A   1      41.849  40.061  27.251  1.00  0.00     0.029 A 
ATOM     21  C   UNL A   1      43.243  40.216  26.865  1.00  0.00     0.049 A 
ATOM     22  H   UNL A   1      44.813  38.908  27.305  1.00  0.00     0.167 HD
ATOM     23  C   UNL A   1      47.889  36.000  27.394  1.00  0.00     0.031 A 
ATOM     24  C   UNL A   1      43.844  41.215  26.177  1.00  0.00     0.031 A 
ATOM     25  C   UNL A   1      48.304  36.829  28.494  1.00  0.00     0.049 A 
ATOM     26  C   UNL A   1      45.298  41.148  26.434  1.00  0.00     0.074 A 
ATOM     27  C   UNL A   1      48.256  36.731  29.871  1.00  0.00     0.029 A 
ATOM     28  N   UNL A   1      48.580  38.149  28.228  1.00  0.00    -0.354 N 
ATOM     29  N   UNL A   1      45.843  41.457  27.574  1.00  0.00    -0.248 NA
ATOM     30  C   UNL A   1      46.137  40.376  25.533  1.00  0.00     0.031 C 
ATOM     31  C   UNL A   1      48.000  38.059  30.324  1.00  0.00     0.029 A 
ATOM     32  C   UNL A   1      47.958  38.885  29.200  1.00  0.00     0.049 A 
ATOM     33  H   UNL A   1      49.120  38.496  27.482  1.00  0.00     0.167 HD
ATOM     34  C   UNL A   1      46.893  40.564  27.718  1.00  0.00     0.074 A 
ATOM     35  C   UNL A   1      47.104  40.015  26.381  1.00  0.00     0.031 C 
ATOM     36  C   UNL A   1      47.304  40.151  28.954  1.00  0.00     0.031 A 
BRANCH  23  37
ATOM     37  C   UNL A   1      48.768  35.815  26.181  1.00  0.00    -0.014 A 
ATOM     38  C   UNL A   1      49.725  34.781  26.186  1.00  0.00     0.009 A 
ATOM     39  C   UNL A   1      48.895  36.786  25.170  1.00  0.00     0.009 A 
ATOM     40  C   UNL A   1      50.793  34.766  25.280  1.00  0.00     0.001 A 
ATOM     41  C   UNL A   1      49.935  36.749  24.237  1.00  0.00     0.001 A 
ATOM     42  C   UNL A   1      50.902  35.757  24.312  1.00  0.00     0.000 A 
ENDBRANCH  23  37
BRANCH  24  43
ATOM     43  C   UNL A   1      43.274  42.112  25.154  1.00  0.00    -0.014 A 
ATOM     44  C   UNL A   1      43.965  43.259  24.736  1.00  0.00     0.009 A 
ATOM     45  C   UNL A   1      42.171  41.692  24.388  1.00  0.00     0.009 A 
ATOM     46  C   UNL A   1      43.590  43.937  23.569  1.00  0.00     0.001 A 
ATOM     47  C   UNL A   1      41.795  42.370  23.227  1.00  0.00     0.001 A 
ATOM     48  C   UNL A   1      42.516  43.483  22.807  1.00  0.00     0.000 A 
ENDBRANCH  24  43
BRANCH  36  49
ATOM     49  C   UNL A   1      46.790  40.895  30.161  1.00  0.00    -0.014 A 
ATOM     50  C   UNL A   1      47.489  41.954  30.767  1.00  0.00     0.009 A 
ATOM     51  C   UNL A   1      45.496  40.607  30.622  1.00  0.00     0.009 A 
ATOM     52  C   UNL A   1      46.932  42.667  31.832  1.00  0.00     0.001 A 
ATOM     53  C   UNL A   1      44.928  41.337  31.668  1.00  0.00     0.001 A 
ATOM     54  C   UNL A   1      45.649  42.359  32.280  1.00  0.00     0.000 A 
ENDBRANCH  36  49
ENDBRANCH  10  11
ENDBRANCH   3   5
ENDBRANCH   2   3
ENDBRANCH   1   2
BRANCH   1  55
ATOM     55  C   UNL A   1      36.685  34.707  33.069  1.00  0.00     0.275 C 
BRANCH  55  56
ATOM     56  O   UNL A   1      36.153  33.600  33.815  1.00  0.00    -0.457 OA
BRANCH  56  57
ATOM     57  C   UNL A   1      35.102  32.970  33.242  1.00  0.00     0.357 C 
ATOM     58  O   UNL A   1      33.910  33.099  33.512  1.00  0.00    -0.244 OA
BRANCH  57  59
ATOM     59  C   UNL A   1      35.629  31.947  32.329  1.00  0.00     0.149 A 
ATOM     60  C   UNL A   1      35.550  32.203  30.985  1.00  0.00     0.041 A 
ATOM     61  N   UNL A   1      36.299  30.906  32.837  1.00  0.00    -0.241 NA
ATOM     62  C   UNL A   1      36.260  31.388  30.074  1.00  0.00    -0.021 A 
ATOM     63  C   UNL A   1      36.925  30.081  31.994  1.00  0.00     0.072 A 
ATOM     64  C   UNL A   1      36.992  30.226  30.570  1.00  0.00     0.012 A 
ATOM     65  C   UNL A   1      37.572  29.054  32.643  1.00  0.00     0.029 A 
ATOM     66  C   UNL A   1      37.817  29.217  29.863  1.00  0.00    -0.009 A 
ATOM     67  C   UNL A   1      38.302  28.091  31.968  1.00  0.00     0.011 A 
ATOM     68  C   UNL A   1      38.433  28.157  30.592  1.00  0.00    -0.018 A 
ATOM     69  C   UNL A   1      38.102  29.181  28.479  1.00  0.00     0.009 A 
ATOM     70  C   UNL A   1      39.206  27.161  29.968  1.00  0.00     0.009 A 
ATOM     71  C   UNL A   1      38.885  28.200  27.855  1.00  0.00     0.001 A 
ATOM     72  C   UNL A   1      39.433  27.179  28.602  1.00  0.00     0.001 A 
BRANCH  62  73
ATOM     73  C   UNL A   1      36.255  32.013  28.698  1.00  0.00     0.115 C 
ATOM     74  C   UNL A   1      36.605  33.443  28.546  1.00  0.00     0.123 C 
ATOM     75  C   UNL A   1      35.020  31.981  27.853  1.00  0.00     0.083 C 
ATOM     76  N   UNL A   1      35.853  34.047  27.683  1.00  0.00    -0.162 NA
ATOM     77  N   UNL A   1      34.844  33.118  27.238  1.00  0.00    -0.154 NA
BRANCH  75  78
ATOM     78  C   UNL A   1      34.199  30.770  27.598  1.00  0.00    -0.001 A 
ATOM     79  C   UNL A   1      32.820  30.940  27.413  1.00  0.00     0.013 A 
ATOM     80  C   UNL A   1      34.736  29.477  27.514  1.00  0.00     0.013 A 
ATOM     81  C   UNL A   1      32.005  29.843  27.117  1.00  0.00     0.040 A 
ATOM     82  C   UNL A   1      33.921  28.382  27.213  1.00  0.00     0.040 A 
ATOM     83  C   UNL A   1      32.564  28.576  27.012  1.00  0.00     0.123 A 
ATOM     84  F   UNL A   1      31.784  27.527  26.720  1.00  0.00    -0.207 F 
ENDBRANCH  75  78
ENDBRANCH  62  73
ENDBRANCH  57  59
ENDBRANCH  56  57
ENDBRANCH  55  56
ENDBRANCH   1  55
TORSDOF 13
ENDMDL
MODEL 3
REMARK VINA RESULT:     -10.0      2.700      6.221
REMARK SMILES O=C(OCCOC(=O)c1cc([C@@H]2C=NN=C2c2ccc(F)cc2)c2c(ccc3ccccc32)n1)c1ccc(-c2c3nc(c(-c4ccccc4)c4ccc([nH]4)c(-c4ccccc4)c4nc(c(-c5ccccc5)c5ccc2[nH]5)C=C4)C=C3)cc1
REMARK SMILES IDX 4 1 3 2 2 3 1 4 35 5 36 6 82 7 37 8 81 9 38 10 39 11 40 12
REMARK SMILES IDX 75 13 41 14 80 15 74 16 76 17 42 18 79 19 73 20 72 21 43 23
REMARK SMILES IDX 65 24 50 25 64 26 51 27 54 28 63 29 77 30 52 31 53 32 62 34
REMARK SMILES IDX 78 35 55 36 44 37 45 38 49 39 46 40 48 41 47 42 66 43 67 44
REMARK SMILES IDX 71 45 68 46 70 47 69 48 56 49 57 50 61 51 58 52 60 53 59 54
REMARK SMILES IDX 5 55 6 56 7 57 8 58 9 59 10 60 34 61 11 62 25 63 24 64 26 65
REMARK SMILES IDX 33 66 27 67 28 68 32 69 29 70 31 71 30 72 12 73 13 74 16 75
REMARK SMILES IDX 14 76 15 77 17 78 18 79 23 80 19 81 22 82 20 83 21 84
REMARK H PARENT 76 22 54 33
REMARK Flexibility Score: inf
ROOT
ATOM      1  C   UNL A   1      35.511  32.866  29.047  1.00  0.00     0.275 C 
ENDROOT
BRANCH   1   2
ATOM      2  O   UNL A   1      36.729  32.092  29.112  1.00  0.00    -0.458 OA
BRANCH   2   3
ATOM      3  C   UNL A   1      36.672  30.751  28.975  1.00  0.00     0.338 C 
ATOM      4  O   UNL A   1      35.656  30.124  28.702  1.00  0.00    -0.246 OA
BRANCH   3   5
ATOM      5  C   UNL A   1      38.026  30.154  29.037  1.00  0.00     0.060 A 
ATOM      6  C   UNL A   1      39.120  30.884  29.517  1.00  0.00     0.016 A 
ATOM      7  C   UNL A   1      38.202  28.830  28.617  1.00  0.00     0.016 A 
ATOM      8  C   UNL A   1      40.385  30.316  29.516  1.00  0.00     0.010 A 
ATOM      9  C   UNL A   1      39.474  28.259  28.616  1.00  0.00     0.010 A 
ATOM     10  C   UNL A   1      40.570  29.012  29.040  1.00  0.00    -0.014 A 
BRANCH  10  11
ATOM     11  C   UNL A   1      41.933  28.485  29.057  1.00  0.00     0.031 A 
ATOM     12  C   UNL A   1      42.279  27.505  27.990  1.00  0.00     0.074 A 
ATOM     13  C   UNL A   1      42.892  28.855  29.926  1.00  0.00     0.049 A 
ATOM     14  N   UNL A   1      42.502  26.238  28.117  1.00  0.00    -0.248 NA
ATOM     15  C   UNL A   1      42.335  27.988  26.607  1.00  0.00     0.031 C 
ATOM     16  C   UNL A   1      42.893  29.977  30.865  1.00  0.00     0.029 A 
ATOM     17  N   UNL A   1      44.135  28.313  30.085  1.00  0.00    -0.354 N 
ATOM     18  C   UNL A   1      42.885  25.781  26.857  1.00  0.00     0.074 A 
ATOM     19  C   UNL A   1      42.660  26.876  25.945  1.00  0.00     0.031 C 
ATOM     20  C   UNL A   1      44.149  30.160  31.335  1.00  0.00     0.029 A 
ATOM     21  C   UNL A   1      44.995  29.079  30.854  1.00  0.00     0.049 A 
ATOM     22  H   UNL A   1      44.398  27.452  29.687  1.00  0.00     0.167 HD
ATOM     23  C   UNL A   1      43.534  24.594  26.684  1.00  0.00     0.031 A 
ATOM     24  C   UNL A   1      46.315  28.860  31.056  1.00  0.00     0.031 A 
ATOM     25  C   UNL A   1      43.458  23.755  27.849  1.00  0.00     0.049 A 
ATOM     26  C   UNL A   1      46.599  27.439  30.764  1.00  0.00     0.074 A 
ATOM     27  C   UNL A   1      42.438  23.193  28.590  1.00  0.00     0.029 A 
ATOM     28  N   UNL A   1      44.583  23.648  28.631  1.00  0.00    -0.354 N 
ATOM     29  N   UNL A   1      46.207  26.455  31.521  1.00  0.00    -0.248 NA
ATOM     30  C   UNL A   1      47.011  27.065  29.422  1.00  0.00     0.031 C 
ATOM     31  C   UNL A   1      42.892  23.250  29.941  1.00  0.00     0.029 A 
ATOM     32  C   UNL A   1      44.177  23.795  29.930  1.00  0.00     0.049 A 
ATOM     33  H   UNL A   1      45.504  23.495  28.317  1.00  0.00     0.167 HD
ATOM     34  C   UNL A   1      45.899  25.432  30.638  1.00  0.00     0.074 A 
ATOM     35  C   UNL A   1      46.534  25.818  29.380  1.00  0.00     0.031 C 
ATOM     36  C   UNL A   1      44.931  24.514  30.932  1.00  0.00     0.031 A 
BRANCH  23  37
ATOM     37  C   UNL A   1      44.550  24.332  25.598  1.00  0.00    -0.014 A 
ATOM     38  C   UNL A   1      44.352  23.238  24.732  1.00  0.00     0.009 A 
ATOM     39  C   UNL A   1      45.824  24.929  25.579  1.00  0.00     0.009 A 
ATOM     40  C   UNL A   1      45.395  22.723  23.953  1.00  0.00     0.001 A 
ATOM     41  C   UNL A   1      46.855  24.443  24.768  1.00  0.00     0.001 A 
ATOM     42  C   UNL A   1      46.649  23.320  23.980  1.00  0.00     0.000 A 
ENDBRANCH  23  37
BRANCH  24  43
ATOM     43  C   UNL A   1      47.393  29.836  31.300  1.00  0.00    -0.014 A 
ATOM     44  C   UNL A   1      48.016  29.923  32.554  1.00  0.00     0.009 A 
ATOM     45  C   UNL A   1      47.998  30.498  30.216  1.00  0.00     0.009 A 
ATOM     46  C   UNL A   1      49.225  30.614  32.708  1.00  0.00     0.001 A 
ATOM     47  C   UNL A   1      49.202  31.190  30.371  1.00  0.00     0.001 A 
ATOM     48  C   UNL A   1      49.824  31.233  31.614  1.00  0.00     0.000 A 
ENDBRANCH  24  43
BRANCH  36  49
ATOM     49  C   UNL A   1      44.405  24.461  32.345  1.00  0.00    -0.014 A 
ATOM     50  C   UNL A   1      44.042  25.607  33.074  1.00  0.00     0.009 A 
ATOM     51  C   UNL A   1      44.141  23.204  32.912  1.00  0.00     0.009 A 
ATOM     52  C   UNL A   1      43.481  25.500  34.350  1.00  0.00     0.001 A 
ATOM     53  C   UNL A   1      43.555  23.096  34.175  1.00  0.00     0.001 A 
ATOM     54  C   UNL A   1      43.235  24.242  34.898  1.00  0.00     0.000 A 
ENDBRANCH  36  49
ENDBRANCH  10  11
ENDBRANCH   3   5
ENDBRANCH   2   3
ENDBRANCH   1   2
BRANCH   1  55
ATOM     55  C   UNL A   1      35.050  33.572  30.319  1.00  0.00     0.275 C 
BRANCH  55  56
ATOM     56  O   UNL A   1      34.337  32.637  31.143  1.00  0.00    -0.457 OA
BRANCH  56  57
ATOM     57  C   UNL A   1      34.681  32.639  32.451  1.00  0.00     0.357 C 
ATOM     58  O   UNL A   1      34.061  33.131  33.391  1.00  0.00    -0.244 OA
BRANCH  57  59
ATOM     59  C   UNL A   1      36.038  32.089  32.564  1.00  0.00     0.149 A 
ATOM     60  C   UNL A   1      37.001  32.897  33.109  1.00  0.00     0.041 A 
ATOM     61  N   UNL A   1      36.239  30.795  32.290  1.00  0.00    -0.241 NA
ATOM     62  C   UNL A   1      38.250  32.348  33.477  1.00  0.00    -0.021 A 
ATOM     63  C   UNL A   1      37.434  30.266  32.565  1.00  0.00     0.072 A 
ATOM     64  C   UNL A   1      38.534  30.946  33.184  1.00  0.00     0.012 A 
ATOM     65  C   UNL A   1      37.509  28.932  32.233  1.00  0.00     0.029 A 
ATOM     66  C   UNL A   1      39.729  30.112  33.456  1.00  0.00    -0.009 A 
ATOM     67  C   UNL A   1      38.648  28.175  32.451  1.00  0.00     0.011 A 
ATOM     68  C   UNL A   1      39.755  28.744  33.055  1.00  0.00    -0.018 A 
ATOM     69  C   UNL A   1      40.909  30.522  34.117  1.00  0.00     0.009 A 
ATOM     70  C   UNL A   1      40.872  27.916  33.267  1.00  0.00     0.009 A 
ATOM     71  C   UNL A   1      42.018  29.697  34.346  1.00  0.00     0.001 A 
ATOM     72  C   UNL A   1      42.004  28.389  33.911  1.00  0.00     0.001 A 
BRANCH  62  73
ATOM     73  C   UNL A   1      39.037  33.340  34.302  1.00  0.00     0.115 C 
ATOM     74  C   UNL A   1      38.334  34.178  35.300  1.00  0.00     0.123 C 
ATOM     75  C   UNL A   1      39.855  34.403  33.637  1.00  0.00     0.083 C 
ATOM     76  N   UNL A   1      38.772  35.396  35.319  1.00  0.00    -0.162 NA
ATOM     77  N   UNL A   1      39.742  35.542  34.262  1.00  0.00    -0.154 NA
BRANCH  75  78
ATOM     78  C   UNL A   1      40.811  34.164  32.524  1.00  0.00    -0.001 A 
ATOM     79  C   UNL A   1      42.146  33.898  32.855  1.00  0.00     0.013 A 
ATOM     80  C   UNL A   1      40.439  34.173  31.172  1.00  0.00     0.013 A 
ATOM     81  C   UNL A   1      43.079  33.613  31.853  1.00  0.00     0.040 A 
ATOM     82  C   UNL A   1      41.372  33.883  30.172  1.00  0.00     0.040 A 
ATOM     83  C   UNL A   1      42.682  33.600  30.523  1.00  0.00     0.123 A 
ATOM     84  F   UNL A   1      43.574  33.319  29.564  1.00  0.00    -0.207 F 
ENDBRANCH  75  78
ENDBRANCH  62  73
ENDBRANCH  57  59
ENDBRANCH  56  57
ENDBRANCH  55  56
ENDBRANCH   1  55
TORSDOF 13
ENDMDL
