MODEL 1
REMARK VINA RESULT:     -12.7      0.000      0.000
REMARK SMILES CC(=O)c1ccc(N2CCN(c3ccc(C(=O)OCCOC(=O)c4ccc(-c5c6nc(c(-c7ccccc7)c7ccc([nH]7)c(-c7ccccc7)c7nc(c(-c8ccccc8)c8ccc5[nH]8)C=C7)C=C6)cc4)cc3NS(=O)(=O)c3ccc(C)cc3)CC2)cc1
REMARK SMILES IDX 19 1 18 2 16 3 17 4 15 5 12 6 13 7 73 8 14 9 72 10 11 11
REMARK SMILES IDX 8 12 9 13 86 14 10 15 85 16 7 17 4 18 5 19 88 20 6 21 87 22
REMARK SMILES IDX 2 23 1 24 3 25 74 26 75 28 76 29 77 30 78 31 79 32 84 33
REMARK SMILES IDX 80 34 83 35 81 36 82 37 20 38 21 39 22 40 23 41 24 42 25 43
REMARK SMILES IDX 71 44 26 45 70 46 27 47 28 48 29 49 64 50 30 51 69 52 63 53
REMARK SMILES IDX 65 54 31 55 68 56 62 57 61 58 32 60 54 61 39 62 53 63 40 64
REMARK SMILES IDX 43 65 52 66 66 67 41 68 42 69 51 71 67 72 44 73 33 74 34 75
REMARK SMILES IDX 38 76 35 77 37 78 36 79 55 80 56 81 60 82 57 83 59 84 58 85
REMARK SMILES IDX 45 86 46 87 50 88 47 89 49 90 48 91
REMARK H PARENT 74 27 65 59 43 70
REMARK Flexibility Score: inf
ROOT
ATOM      1  C   UNL A   1      40.837  20.594  26.719  1.00  0.00     0.275 C 
ENDROOT
BRANCH   1   2
ATOM      2  O   UNL A   1      39.740  21.411  26.261  1.00  0.00    -0.458 OA
BRANCH   2   3
ATOM      3  C   UNL A   1      38.762  20.813  25.539  1.00  0.00     0.338 C 
ATOM      4  O   UNL A   1      38.717  19.644  25.220  1.00  0.00    -0.246 OA
BRANCH   3   5
ATOM      5  C   UNL A   1      37.677  21.790  25.214  1.00  0.00     0.062 A 
ATOM      6  C   UNL A   1      35.471  23.492  24.954  1.00  0.00     0.061 A 
ATOM      7  C   UNL A   1      36.645  23.942  25.577  1.00  0.00     0.029 A 
ATOM      8  C   UNL A   1      35.436  22.181  24.435  1.00  0.00     0.073 A 
ATOM      9  C   UNL A   1      37.719  23.070  25.772  1.00  0.00     0.018 A 
ATOM     10  C   UNL A   1      36.602  21.440  24.404  1.00  0.00     0.044 A 
BRANCH   6  11
ATOM     11  N   UNL A   1      34.377  24.326  24.780  1.00  0.00    -0.366 N 
ATOM     12  N   UNL A   1      32.300  26.162  24.328  1.00  0.00    -0.368 N 
ATOM     13  C   UNL A   1      32.570  25.129  23.319  1.00  0.00     0.138 C 
ATOM     14  C   UNL A   1      32.710  25.873  25.716  1.00  0.00     0.138 C 
ATOM     15  C   UNL A   1      34.059  24.727  23.392  1.00  0.00     0.138 C 
ATOM     16  C   UNL A   1      34.185  25.410  25.762  1.00  0.00     0.138 C 
BRANCH  12  17
ATOM     17  C   UNL A   1      31.480  27.225  24.047  1.00  0.00     0.037 A 
ATOM     18  C   UNL A   1      29.901  29.479  23.457  1.00  0.00     0.017 A 
ATOM     19  C   UNL A   1      29.743  28.298  22.726  1.00  0.00     0.014 A 
ATOM     20  C   UNL A   1      30.834  29.533  24.492  1.00  0.00     0.014 A 
ATOM     21  C   UNL A   1      30.542  27.188  23.010  1.00  0.00     0.026 A 
ATOM     22  C   UNL A   1      31.602  28.407  24.788  1.00  0.00     0.026 A 
BRANCH  18  23
ATOM     23  C   UNL A   1      29.060  30.651  23.103  1.00  0.00     0.159 C 
ATOM     24  C   UNL A   1      28.169  30.549  21.893  1.00  0.00     0.093 C 
ATOM     25  O   UNL A   1      29.064  31.644  23.825  1.00  0.00    -0.295 OA
ENDBRANCH  18  23
ENDBRANCH  12  17
ENDBRANCH   6  11
BRANCH   8  26
ATOM     26  N   UNL A   1      34.200  21.604  23.952  1.00  0.00    -0.277 N 
ATOM     27  H   UNL A   1      33.972  21.637  22.994  1.00  0.00     0.180 HD
BRANCH  26  28
ATOM     28  S   UNL A   1      33.133  20.855  25.085  1.00  0.00     0.261 S 
ATOM     29  O   UNL A   1      33.579  21.147  26.431  1.00  0.00    -0.201 OA
ATOM     30  O   UNL A   1      31.799  21.229  24.653  1.00  0.00    -0.201 OA
BRANCH  28  31
ATOM     31  C   UNL A   1      33.279  19.089  24.830  1.00  0.00     0.087 A 
ATOM     32  C   UNL A   1      32.140  18.311  24.955  1.00  0.00     0.022 A 
ATOM     33  C   UNL A   1      34.484  18.456  24.517  1.00  0.00     0.022 A 
ATOM     34  C   UNL A   1      32.256  16.940  25.147  1.00  0.00     0.005 A 
ATOM     35  C   UNL A   1      34.564  17.048  24.548  1.00  0.00     0.005 A 
ATOM     36  C   UNL A   1      33.464  16.287  24.955  1.00  0.00    -0.051 A 
ATOM     37  C   UNL A   1      33.533  14.818  25.255  1.00  0.00     0.044 C 
ENDBRANCH  28  31
ENDBRANCH  26  28
ENDBRANCH   8  26
ENDBRANCH   3   5
ENDBRANCH   2   3
ENDBRANCH   1   2
BRANCH   1  38
ATOM     38  C   UNL A   1      42.055  20.833  25.822  1.00  0.00     0.275 C 
BRANCH  38  39
ATOM     39  O   UNL A   1      42.911  21.809  26.441  1.00  0.00    -0.458 OA
BRANCH  39  40
ATOM     40  C   UNL A   1      43.102  22.940  25.722  1.00  0.00     0.338 C 
ATOM     41  O   UNL A   1      43.242  23.051  24.516  1.00  0.00    -0.246 OA
BRANCH  40  42
ATOM     42  C   UNL A   1      42.823  24.076  26.608  1.00  0.00     0.060 A 
ATOM     43  C   UNL A   1      42.014  23.818  27.711  1.00  0.00     0.016 A 
ATOM     44  C   UNL A   1      43.304  25.357  26.373  1.00  0.00     0.016 A 
ATOM     45  C   UNL A   1      41.673  24.816  28.601  1.00  0.00     0.010 A 
ATOM     46  C   UNL A   1      42.989  26.368  27.287  1.00  0.00     0.010 A 
ATOM     47  C   UNL A   1      42.178  26.099  28.410  1.00  0.00    -0.014 A 
BRANCH  47  48
ATOM     48  C   UNL A   1      41.807  27.154  29.375  1.00  0.00     0.031 A 
ATOM     49  C   UNL A   1      42.661  27.372  30.584  1.00  0.00     0.074 A 
ATOM     50  C   UNL A   1      40.741  27.940  29.130  1.00  0.00     0.049 A 
ATOM     51  N   UNL A   1      42.428  28.110  31.635  1.00  0.00    -0.248 NA
ATOM     52  C   UNL A   1      43.949  26.658  30.617  1.00  0.00     0.031 C 
ATOM     53  C   UNL A   1      39.904  27.892  27.927  1.00  0.00     0.029 A 
ATOM     54  N   UNL A   1      40.182  28.944  29.879  1.00  0.00    -0.354 N 
ATOM     55  C   UNL A   1      43.509  27.905  32.481  1.00  0.00     0.074 A 
ATOM     56  C   UNL A   1      44.400  26.976  31.821  1.00  0.00     0.031 C 
ATOM     57  C   UNL A   1      38.953  28.833  28.013  1.00  0.00     0.029 A 
ATOM     58  C   UNL A   1      39.049  29.478  29.315  1.00  0.00     0.049 A 
ATOM     59  H   UNL A   1      40.556  29.250  30.736  1.00  0.00     0.167 HD
ATOM     60  C   UNL A   1      43.722  28.441  33.705  1.00  0.00     0.031 A 
ATOM     61  C   UNL A   1      38.152  30.344  29.821  1.00  0.00     0.031 A 
ATOM     62  C   UNL A   1      42.822  29.371  34.333  1.00  0.00     0.049 A 
ATOM     63  C   UNL A   1      38.356  30.840  31.223  1.00  0.00     0.074 A 
ATOM     64  C   UNL A   1      42.928  29.973  35.573  1.00  0.00     0.029 A 
ATOM     65  N   UNL A   1      41.647  29.836  33.759  1.00  0.00    -0.354 N 
ATOM     66  N   UNL A   1      39.352  30.605  32.045  1.00  0.00    -0.248 NA
ATOM     67  C   UNL A   1      37.305  31.703  31.777  1.00  0.00     0.031 C 
ATOM     68  C   UNL A   1      41.786  30.753  35.775  1.00  0.00     0.029 A 
ATOM     69  C   UNL A   1      41.000  30.690  34.634  1.00  0.00     0.049 A 
ATOM     70  H   UNL A   1      41.321  29.593  32.863  1.00  0.00     0.167 HD
ATOM     71  C   UNL A   1      39.053  31.297  33.210  1.00  0.00     0.074 A 
ATOM     72  C   UNL A   1      37.798  31.985  32.975  1.00  0.00     0.031 C 
ATOM     73  C   UNL A   1      39.747  31.353  34.373  1.00  0.00     0.031 A 
BRANCH  60  74
ATOM     74  C   UNL A   1      44.931  27.971  34.465  1.00  0.00    -0.014 A 
ATOM     75  C   UNL A   1      44.896  26.832  35.285  1.00  0.00     0.009 A 
ATOM     76  C   UNL A   1      46.134  28.683  34.348  1.00  0.00     0.009 A 
ATOM     77  C   UNL A   1      46.031  26.440  35.999  1.00  0.00     0.001 A 
ATOM     78  C   UNL A   1      47.275  28.272  35.038  1.00  0.00     0.001 A 
ATOM     79  C   UNL A   1      47.220  27.157  35.872  1.00  0.00     0.000 A 
ENDBRANCH  60  74
BRANCH  61  80
ATOM     80  C   UNL A   1      36.946  30.721  29.035  1.00  0.00    -0.014 A 
ATOM     81  C   UNL A   1      36.741  32.046  28.622  1.00  0.00     0.009 A 
ATOM     82  C   UNL A   1      35.987  29.752  28.693  1.00  0.00     0.009 A 
ATOM     83  C   UNL A   1      35.595  32.394  27.902  1.00  0.00     0.001 A 
ATOM     84  C   UNL A   1      34.861  30.095  27.942  1.00  0.00     0.001 A 
ATOM     85  C   UNL A   1      34.661  31.418  27.556  1.00  0.00     0.000 A 
ENDBRANCH  61  80
BRANCH  73  86
ATOM     86  C   UNL A   1      39.170  32.209  35.464  1.00  0.00    -0.014 A 
ATOM     87  C   UNL A   1      38.391  31.650  36.488  1.00  0.00     0.009 A 
ATOM     88  C   UNL A   1      39.444  33.585  35.486  1.00  0.00     0.009 A 
ATOM     89  C   UNL A   1      37.868  32.462  37.497  1.00  0.00     0.001 A 
ATOM     90  C   UNL A   1      38.949  34.387  36.513  1.00  0.00     0.001 A 
ATOM     91  C   UNL A   1      38.154  33.828  37.512  1.00  0.00     0.000 A 
ENDBRANCH  73  86
ENDBRANCH  47  48
ENDBRANCH  40  42
ENDBRANCH  39  40
ENDBRANCH  38  39
ENDBRANCH   1  38
TORSDOF 17
ENDMDL
MODEL 2
REMARK VINA RESULT:     -12.7      2.878      9.214
REMARK SMILES CC(=O)c1ccc(N2CCN(c3ccc(C(=O)OCCOC(=O)c4ccc(-c5c6nc(c(-c7ccccc7)c7ccc([nH]7)c(-c7ccccc7)c7nc(c(-c8ccccc8)c8ccc5[nH]8)C=C7)C=C6)cc4)cc3NS(=O)(=O)c3ccc(C)cc3)CC2)cc1
REMARK SMILES IDX 19 1 18 2 16 3 17 4 15 5 12 6 13 7 73 8 14 9 72 10 11 11
REMARK SMILES IDX 8 12 9 13 86 14 10 15 85 16 7 17 4 18 5 19 88 20 6 21 87 22
REMARK SMILES IDX 2 23 1 24 3 25 74 26 75 28 76 29 77 30 78 31 79 32 84 33
REMARK SMILES IDX 80 34 83 35 81 36 82 37 20 38 21 39 22 40 23 41 24 42 25 43
REMARK SMILES IDX 71 44 26 45 70 46 27 47 28 48 29 49 64 50 30 51 69 52 63 53
REMARK SMILES IDX 65 54 31 55 68 56 62 57 61 58 32 60 54 61 39 62 53 63 40 64
REMARK SMILES IDX 43 65 52 66 66 67 41 68 42 69 51 71 67 72 44 73 33 74 34 75
REMARK SMILES IDX 38 76 35 77 37 78 36 79 55 80 56 81 60 82 57 83 59 84 58 85
REMARK SMILES IDX 45 86 46 87 50 88 47 89 49 90 48 91
REMARK H PARENT 74 27 65 59 43 70
REMARK Flexibility Score: inf
ROOT
ATOM      1  C   UNL A   1      31.292  32.165  26.823  1.00  0.00     0.275 C 
ENDROOT
BRANCH   1   2
ATOM      2  O   UNL A   1      32.044  31.189  26.071  1.00  0.00    -0.458 OA
BRANCH   2   3
ATOM      3  C   UNL A   1      32.905  30.392  26.749  1.00  0.00     0.338 C 
ATOM      4  O   UNL A   1      33.678  30.743  27.615  1.00  0.00    -0.246 OA
BRANCH   3   5
ATOM      5  C   UNL A   1      32.747  28.968  26.322  1.00  0.00     0.062 A 
ATOM      6  C   UNL A   1      32.851  26.319  25.424  1.00  0.00     0.061 A 
ATOM      7  C   UNL A   1      33.055  26.617  26.780  1.00  0.00     0.029 A 
ATOM      8  C   UNL A   1      32.560  27.373  24.533  1.00  0.00     0.073 A 
ATOM      9  C   UNL A   1      33.078  27.945  27.214  1.00  0.00     0.018 A 
ATOM     10  C   UNL A   1      32.322  28.636  25.040  1.00  0.00     0.044 A 
BRANCH   6  11
ATOM     11  N   UNL A   1      32.860  25.013  24.958  1.00  0.00    -0.366 N 
ATOM     12  N   UNL A   1      32.958  22.306  24.218  1.00  0.00    -0.368 N 
ATOM     13  C   UNL A   1      31.720  22.841  24.798  1.00  0.00     0.138 C 
ATOM     14  C   UNL A   1      33.857  23.264  23.547  1.00  0.00     0.138 C 
ATOM     15  C   UNL A   1      32.066  24.027  25.724  1.00  0.00     0.138 C 
ATOM     16  C   UNL A   1      34.142  24.476  24.464  1.00  0.00     0.138 C 
BRANCH  12  17
ATOM     17  C   UNL A   1      33.144  20.954  24.077  1.00  0.00     0.037 A 
ATOM     18  C   UNL A   1      33.527  18.170  23.916  1.00  0.00     0.017 A 
ATOM     19  C   UNL A   1      32.464  18.775  23.239  1.00  0.00     0.014 A 
ATOM     20  C   UNL A   1      34.408  18.953  24.661  1.00  0.00     0.014 A 
ATOM     21  C   UNL A   1      32.268  20.155  23.337  1.00  0.00     0.026 A 
ATOM     22  C   UNL A   1      34.221  20.334  24.724  1.00  0.00     0.026 A 
BRANCH  18  23
ATOM     23  C   UNL A   1      33.683  16.696  23.819  1.00  0.00     0.159 C 
ATOM     24  C   UNL A   1      33.134  15.846  24.934  1.00  0.00     0.093 C 
ATOM     25  O   UNL A   1      34.200  16.204  22.819  1.00  0.00    -0.295 OA
ENDBRANCH  18  23
ENDBRANCH  12  17
ENDBRANCH   6  11
BRANCH   8  26
ATOM     26  N   UNL A   1      32.522  27.150  23.102  1.00  0.00    -0.277 N 
ATOM     27  H   UNL A   1      33.332  27.271  22.555  1.00  0.00     0.180 HD
BRANCH  26  28
ATOM     28  S   UNL A   1      31.032  26.668  22.375  1.00  0.00     0.261 S 
ATOM     29  O   UNL A   1      31.249  26.394  20.970  1.00  0.00    -0.201 OA
ATOM     30  O   UNL A   1      30.496  25.644  23.251  1.00  0.00    -0.201 OA
BRANCH  28  31
ATOM     31  C   UNL A   1      29.929  28.075  22.495  1.00  0.00     0.087 A 
ATOM     32  C   UNL A   1      30.396  29.312  22.085  1.00  0.00     0.022 A 
ATOM     33  C   UNL A   1      28.625  27.986  22.988  1.00  0.00     0.022 A 
ATOM     34  C   UNL A   1      29.749  30.468  22.501  1.00  0.00     0.005 A 
ATOM     35  C   UNL A   1      27.898  29.164  23.257  1.00  0.00     0.005 A 
ATOM     36  C   UNL A   1      28.497  30.418  23.097  1.00  0.00    -0.051 A 
ATOM     37  C   UNL A   1      27.894  31.699  23.591  1.00  0.00     0.044 C 
ENDBRANCH  28  31
ENDBRANCH  26  28
ENDBRANCH   8  26
ENDBRANCH   3   5
ENDBRANCH   2   3
ENDBRANCH   1   2
BRANCH   1  38
ATOM     38  C   UNL A   1      32.090  33.469  26.898  1.00  0.00     0.275 C 
BRANCH  38  39
ATOM     39  O   UNL A   1      32.238  33.851  28.277  1.00  0.00    -0.458 OA
BRANCH  39  40
ATOM     40  C   UNL A   1      33.213  34.758  28.518  1.00  0.00     0.338 C 
ATOM     41  O   UNL A   1      33.121  35.973  28.543  1.00  0.00    -0.246 OA
BRANCH  40  42
ATOM     42  C   UNL A   1      34.373  34.028  29.041  1.00  0.00     0.060 A 
ATOM     43  C   UNL A   1      34.119  33.095  30.043  1.00  0.00     0.016 A 
ATOM     44  C   UNL A   1      35.671  34.250  28.601  1.00  0.00     0.016 A 
ATOM     45  C   UNL A   1      35.137  32.364  30.619  1.00  0.00     0.010 A 
ATOM     46  C   UNL A   1      36.706  33.491  29.158  1.00  0.00     0.010 A 
ATOM     47  C   UNL A   1      36.441  32.539  30.164  1.00  0.00    -0.014 A 
BRANCH  47  48
ATOM     48  C   UNL A   1      37.519  31.744  30.790  1.00  0.00     0.031 A 
ATOM     49  C   UNL A   1      37.931  32.051  32.195  1.00  0.00     0.074 A 
ATOM     50  C   UNL A   1      38.077  30.723  30.113  1.00  0.00     0.049 A 
ATOM     51  N   UNL A   1      38.957  31.607  32.869  1.00  0.00    -0.248 NA
ATOM     52  C   UNL A   1      37.076  32.991  32.941  1.00  0.00     0.031 C 
ATOM     53  C   UNL A   1      37.675  30.263  28.780  1.00  0.00     0.029 A 
ATOM     54  N   UNL A   1      39.101  29.879  30.457  1.00  0.00    -0.354 N 
ATOM     55  C   UNL A   1      38.906  32.254  34.095  1.00  0.00     0.074 A 
ATOM     56  C   UNL A   1      37.748  33.121  34.075  1.00  0.00     0.031 C 
ATOM     57  C   UNL A   1      38.431  29.211  28.430  1.00  0.00     0.029 A 
ATOM     58  C   UNL A   1      39.433  28.990  29.463  1.00  0.00     0.049 A 
ATOM     59  H   UNL A   1      39.554  29.907  31.330  1.00  0.00     0.167 HD
ATOM     60  C   UNL A   1      39.764  32.138  35.135  1.00  0.00     0.031 A 
ATOM     61  C   UNL A   1      40.470  28.139  29.369  1.00  0.00     0.031 A 
ATOM     62  C   UNL A   1      40.903  31.259  35.130  1.00  0.00     0.049 A 
ATOM     63  C   UNL A   1      41.468  28.108  30.491  1.00  0.00     0.074 A 
ATOM     64  C   UNL A   1      41.848  31.064  36.121  1.00  0.00     0.029 A 
ATOM     65  N   UNL A   1      41.247  30.425  34.076  1.00  0.00    -0.354 N 
ATOM     66  N   UNL A   1      41.450  28.760  31.630  1.00  0.00    -0.248 NA
ATOM     67  C   UNL A   1      42.639  27.242  30.308  1.00  0.00     0.031 C 
ATOM     68  C   UNL A   1      42.798  30.159  35.640  1.00  0.00     0.029 A 
ATOM     69  C   UNL A   1      42.410  29.739  34.377  1.00  0.00     0.049 A 
ATOM     70  H   UNL A   1      40.740  30.336  33.237  1.00  0.00     0.167 HD
ATOM     71  C   UNL A   1      42.600  28.377  32.303  1.00  0.00     0.074 A 
ATOM     72  C   UNL A   1      43.277  27.413  31.458  1.00  0.00     0.031 C 
ATOM     73  C   UNL A   1      43.063  28.791  33.509  1.00  0.00     0.031 A 
BRANCH  60  74
ATOM     74  C   UNL A   1      39.542  33.036  36.320  1.00  0.00    -0.014 A 
ATOM     75  C   UNL A   1      38.734  32.651  37.402  1.00  0.00     0.009 A 
ATOM     76  C   UNL A   1      40.165  34.293  36.353  1.00  0.00     0.009 A 
ATOM     77  C   UNL A   1      38.527  33.523  38.473  1.00  0.00     0.001 A 
ATOM     78  C   UNL A   1      39.981  35.150  37.439  1.00  0.00     0.001 A 
ATOM     79  C   UNL A   1      39.154  34.769  38.494  1.00  0.00     0.000 A 
ENDBRANCH  60  74
BRANCH  61  80
ATOM     80  C   UNL A   1      40.662  27.321  28.140  1.00  0.00    -0.014 A 
ATOM     81  C   UNL A   1      41.345  27.840  27.031  1.00  0.00     0.009 A 
ATOM     82  C   UNL A   1      40.157  26.011  28.071  1.00  0.00     0.009 A 
ATOM     83  C   UNL A   1      41.502  27.071  25.874  1.00  0.00     0.001 A 
ATOM     84  C   UNL A   1      40.348  25.233  26.927  1.00  0.00     0.001 A 
ATOM     85  C   UNL A   1      41.011  25.767  25.826  1.00  0.00     0.000 A 
ENDBRANCH  61  80
BRANCH  73  86
ATOM     86  C   UNL A   1      44.348  28.178  33.987  1.00  0.00    -0.014 A 
ATOM     87  C   UNL A   1      45.583  28.793  33.735  1.00  0.00     0.009 A 
ATOM     88  C   UNL A   1      44.315  26.989  34.732  1.00  0.00     0.009 A 
ATOM     89  C   UNL A   1      46.765  28.210  34.193  1.00  0.00     0.001 A 
ATOM     90  C   UNL A   1      45.495  26.427  35.216  1.00  0.00     0.001 A 
ATOM     91  C   UNL A   1      46.719  27.032  34.939  1.00  0.00     0.000 A 
ENDBRANCH  73  86
ENDBRANCH  47  48
ENDBRANCH  40  42
ENDBRANCH  39  40
ENDBRANCH  38  39
ENDBRANCH   1  38
TORSDOF 17
ENDMDL
MODEL 3
REMARK VINA RESULT:     -12.7      4.042      9.940
REMARK SMILES CC(=O)c1ccc(N2CCN(c3ccc(C(=O)OCCOC(=O)c4ccc(-c5c6nc(c(-c7ccccc7)c7ccc([nH]7)c(-c7ccccc7)c7nc(c(-c8ccccc8)c8ccc5[nH]8)C=C7)C=C6)cc4)cc3NS(=O)(=O)c3ccc(C)cc3)CC2)cc1
REMARK SMILES IDX 19 1 18 2 16 3 17 4 15 5 12 6 13 7 73 8 14 9 72 10 11 11
REMARK SMILES IDX 8 12 9 13 86 14 10 15 85 16 7 17 4 18 5 19 88 20 6 21 87 22
REMARK SMILES IDX 2 23 1 24 3 25 74 26 75 28 76 29 77 30 78 31 79 32 84 33
REMARK SMILES IDX 80 34 83 35 81 36 82 37 20 38 21 39 22 40 23 41 24 42 25 43
REMARK SMILES IDX 71 44 26 45 70 46 27 47 28 48 29 49 64 50 30 51 69 52 63 53
REMARK SMILES IDX 65 54 31 55 68 56 62 57 61 58 32 60 54 61 39 62 53 63 40 64
REMARK SMILES IDX 43 65 52 66 66 67 41 68 42 69 51 71 67 72 44 73 33 74 34 75
REMARK SMILES IDX 38 76 35 77 37 78 36 79 55 80 56 81 60 82 57 83 59 84 58 85
REMARK SMILES IDX 45 86 46 87 50 88 47 89 49 90 48 91
REMARK H PARENT 74 27 65 59 43 70
REMARK Flexibility Score: inf
ROOT
ATOM      1  C   UNL A   1      33.158  33.022  27.873  1.00  0.00     0.275 C 
ENDROOT
BRANCH   1   2
ATOM      2  O   UNL A   1      33.357  31.667  27.417  1.00  0.00    -0.458 OA
BRANCH   2   3
ATOM      3  C   UNL A   1      32.319  31.044  26.807  1.00  0.00     0.338 C 
ATOM      4  O   UNL A   1      31.340  31.578  26.332  1.00  0.00    -0.246 OA
BRANCH   3   5
ATOM      5  C   UNL A   1      32.558  29.569  26.742  1.00  0.00     0.062 A 
ATOM      6  C   UNL A   1      33.081  26.870  26.220  1.00  0.00     0.061 A 
ATOM      7  C   UNL A   1      34.107  27.718  26.666  1.00  0.00     0.029 A 
ATOM      8  C   UNL A   1      31.781  27.394  26.073  1.00  0.00     0.073 A 
ATOM      9  C   UNL A   1      33.862  29.081  26.854  1.00  0.00     0.018 A 
ATOM     10  C   UNL A   1      31.517  28.673  26.526  1.00  0.00     0.044 A 
BRANCH   6  11
ATOM     11  N   UNL A   1      33.305  25.520  25.990  1.00  0.00    -0.366 N 
ATOM     12  N   UNL A   1      33.632  22.809  25.338  1.00  0.00    -0.368 N 
ATOM     13  C   UNL A   1      34.624  23.782  24.860  1.00  0.00     0.138 C 
ATOM     14  C   UNL A   1      32.867  23.166  26.548  1.00  0.00     0.138 C 
ATOM     15  C   UNL A   1      33.946  25.160  24.707  1.00  0.00     0.138 C 
ATOM     16  C   UNL A   1      32.249  24.576  26.403  1.00  0.00     0.138 C 
BRANCH  12  17
ATOM     17  C   UNL A   1      33.604  21.529  24.843  1.00  0.00     0.037 A 
ATOM     18  C   UNL A   1      33.553  18.861  23.949  1.00  0.00     0.017 A 
ATOM     19  C   UNL A   1      32.554  19.756  23.554  1.00  0.00     0.014 A 
ATOM     20  C   UNL A   1      34.586  19.300  24.776  1.00  0.00     0.014 A 
ATOM     21  C   UNL A   1      32.573  21.074  24.016  1.00  0.00     0.026 A 
ATOM     22  C   UNL A   1      34.613  20.628  25.203  1.00  0.00     0.026 A 
BRANCH  18  23
ATOM     23  C   UNL A   1      33.480  17.458  23.468  1.00  0.00     0.159 C 
ATOM     24  C   UNL A   1      34.336  16.425  24.152  1.00  0.00     0.093 C 
ATOM     25  O   UNL A   1      32.694  17.162  22.573  1.00  0.00    -0.295 OA
ENDBRANCH  18  23
ENDBRANCH  12  17
ENDBRANCH   6  11
BRANCH   8  26
ATOM     26  N   UNL A   1      30.731  26.619  25.446  1.00  0.00    -0.277 N 
ATOM     27  H   UNL A   1      30.126  26.063  25.988  1.00  0.00     0.180 HD
BRANCH  26  28
ATOM     28  S   UNL A   1      30.560  26.688  23.728  1.00  0.00     0.261 S 
ATOM     29  O   UNL A   1      31.864  26.863  23.122  1.00  0.00    -0.201 OA
ATOM     30  O   UNL A   1      29.734  25.547  23.383  1.00  0.00    -0.201 OA
BRANCH  28  31
ATOM     31  C   UNL A   1      29.590  28.151  23.372  1.00  0.00     0.087 A 
ATOM     32  C   UNL A   1      30.245  29.366  23.275  1.00  0.00     0.022 A 
ATOM     33  C   UNL A   1      28.204  28.127  23.194  1.00  0.00     0.022 A 
ATOM     34  C   UNL A   1      29.527  30.550  23.384  1.00  0.00     0.005 A 
ATOM     35  C   UNL A   1      27.485  29.339  23.136  1.00  0.00     0.005 A 
ATOM     36  C   UNL A   1      28.142  30.559  23.323  1.00  0.00    -0.051 A 
ATOM     37  C   UNL A   1      27.430  31.865  23.526  1.00  0.00     0.044 C 
ENDBRANCH  28  31
ENDBRANCH  26  28
ENDBRANCH   8  26
ENDBRANCH   3   5
ENDBRANCH   2   3
ENDBRANCH   1   2
BRANCH   1  38
ATOM     38  C   UNL A   1      34.047  33.281  29.092  1.00  0.00     0.275 C 
BRANCH  38  39
ATOM     39  O   UNL A   1      34.597  32.031  29.546  1.00  0.00    -0.458 OA
BRANCH  39  40
ATOM     40  C   UNL A   1      35.261  32.093  30.724  1.00  0.00     0.338 C 
ATOM     41  O   UNL A   1      34.813  32.357  31.827  1.00  0.00    -0.246 OA
BRANCH  40  42
ATOM     42  C   UNL A   1      36.585  31.499  30.514  1.00  0.00     0.060 A 
ATOM     43  C   UNL A   1      37.030  31.426  29.197  1.00  0.00     0.016 A 
ATOM     44  C   UNL A   1      37.367  31.003  31.548  1.00  0.00     0.016 A 
ATOM     45  C   UNL A   1      38.253  30.871  28.881  1.00  0.00     0.010 A 
ATOM     46  C   UNL A   1      38.622  30.466  31.240  1.00  0.00     0.010 A 
ATOM     47  C   UNL A   1      39.073  30.405  29.906  1.00  0.00    -0.014 A 
BRANCH  47  48
ATOM     48  C   UNL A   1      40.381  29.817  29.550  1.00  0.00     0.031 A 
ATOM     49  C   UNL A   1      41.607  30.672  29.612  1.00  0.00     0.074 A 
ATOM     50  C   UNL A   1      40.464  28.512  29.229  1.00  0.00     0.049 A 
ATOM     51  N   UNL A   1      42.813  30.417  29.179  1.00  0.00    -0.248 NA
ATOM     52  C   UNL A   1      41.455  31.996  30.240  1.00  0.00     0.031 C 
ATOM     53  C   UNL A   1      39.350  27.558  29.247  1.00  0.00     0.029 A 
ATOM     54  N   UNL A   1      41.537  27.758  28.832  1.00  0.00    -0.354 N 
ATOM     55  C   UNL A   1      43.548  31.567  29.428  1.00  0.00     0.074 A 
ATOM     56  C   UNL A   1      42.657  32.521  30.051  1.00  0.00     0.031 C 
ATOM     57  C   UNL A   1      39.803  26.345  28.894  1.00  0.00     0.029 A 
ATOM     58  C   UNL A   1      41.209  26.458  28.529  1.00  0.00     0.049 A 
ATOM     59  H   UNL A   1      42.454  28.112  28.768  1.00  0.00     0.167 HD
ATOM     60  C   UNL A   1      44.851  31.801  29.145  1.00  0.00     0.031 A 
ATOM     61  C   UNL A   1      41.943  25.486  27.959  1.00  0.00     0.031 A 
ATOM     62  C   UNL A   1      45.717  30.828  28.533  1.00  0.00     0.049 A 
ATOM     63  C   UNL A   1      43.354  25.805  27.556  1.00  0.00     0.074 A 
ATOM     64  C   UNL A   1      47.051  30.954  28.190  1.00  0.00     0.029 A 
ATOM     65  N   UNL A   1      45.329  29.545  28.176  1.00  0.00    -0.354 N 
ATOM     66  N   UNL A   1      44.035  26.911  27.743  1.00  0.00    -0.248 NA
ATOM     67  C   UNL A   1      44.091  24.753  26.845  1.00  0.00     0.031 C 
ATOM     68  C   UNL A   1      47.451  29.768  27.568  1.00  0.00     0.029 A 
ATOM     69  C   UNL A   1      46.387  28.879  27.584  1.00  0.00     0.049 A 
ATOM     70  H   UNL A   1      44.433  29.164  28.322  1.00  0.00     0.167 HD
ATOM     71  C   UNL A   1      45.284  26.686  27.181  1.00  0.00     0.074 A 
ATOM     72  C   UNL A   1      45.274  25.327  26.675  1.00  0.00     0.031 C 
ATOM     73  C   UNL A   1      46.342  27.528  27.084  1.00  0.00     0.031 A 
BRANCH  60  74
ATOM     74  C   UNL A   1      45.384  33.178  29.423  1.00  0.00    -0.014 A 
ATOM     75  C   UNL A   1      45.305  34.211  28.475  1.00  0.00     0.009 A 
ATOM     76  C   UNL A   1      45.970  33.447  30.670  1.00  0.00     0.009 A 
ATOM     77  C   UNL A   1      45.837  35.471  28.758  1.00  0.00     0.001 A 
ATOM     78  C   UNL A   1      46.472  34.717  30.961  1.00  0.00     0.001 A 
ATOM     79  C   UNL A   1      46.415  35.725  30.001  1.00  0.00     0.000 A 
ENDBRANCH  60  74
BRANCH  61  80
ATOM     80  C   UNL A   1      41.333  24.162  27.658  1.00  0.00    -0.014 A 
ATOM     81  C   UNL A   1      40.320  24.039  26.696  1.00  0.00     0.009 A 
ATOM     82  C   UNL A   1      41.763  23.009  28.337  1.00  0.00     0.009 A 
ATOM     83  C   UNL A   1      39.739  22.795  26.435  1.00  0.00     0.001 A 
ATOM     84  C   UNL A   1      41.207  21.761  28.048  1.00  0.00     0.001 A 
ATOM     85  C   UNL A   1      40.188  21.657  27.105  1.00  0.00     0.000 A 
ENDBRANCH  61  80
BRANCH  73  86
ATOM     86  C   UNL A   1      47.579  26.986  26.427  1.00  0.00    -0.014 A 
ATOM     87  C   UNL A   1      47.828  27.198  25.063  1.00  0.00     0.009 A 
ATOM     88  C   UNL A   1      48.524  26.288  27.194  1.00  0.00     0.009 A 
ATOM     89  C   UNL A   1      48.987  26.691  24.472  1.00  0.00     0.001 A 
ATOM     90  C   UNL A   1      49.696  25.812  26.609  1.00  0.00     0.001 A 
ATOM     91  C   UNL A   1      49.923  26.005  25.248  1.00  0.00     0.000 A 
ENDBRANCH  73  86
ENDBRANCH  47  48
ENDBRANCH  40  42
ENDBRANCH  39  40
ENDBRANCH  38  39
ENDBRANCH   1  38
TORSDOF 17
ENDMDL
