MODEL 1
REMARK VINA RESULT:     -10.8      0.000      0.000
REMARK SMILES CCCc1cc(OC(F)(F)F)cc2c1O[C@@H](C(F)(F)F)C(C(=O)OCCOC(=O)c1ccc(-c3c4nc(c(-c5ccccc5)c5ccc([nH]5)c(-c5ccccc5)c5nc(c(-c6ccccc6)c6ccc3[nH]6)C=C5)C=C4)cc1)=C2
REMARK SMILES IDX 25 1 24 2 22 3 23 4 21 5 4 6 5 7 14 8 6 9 13 10 15 11 12 12
REMARK SMILES IDX 78 13 16 14 3 15 2 16 1 17 7 18 8 19 9 20 10 21 11 22 17 23
REMARK SMILES IDX 18 24 19 25 20 26 26 27 27 28 28 29 29 30 30 31 31 32 77 33
REMARK SMILES IDX 32 34 76 35 33 36 34 37 35 38 70 39 36 40 75 41 69 42 71 43
REMARK SMILES IDX 37 44 74 45 68 46 67 47 38 49 60 50 45 51 59 52 46 53 49 54
REMARK SMILES IDX 58 55 72 56 47 57 48 58 57 60 73 61 50 62 39 63 40 64 44 65
REMARK SMILES IDX 41 66 43 67 42 68 61 69 62 70 66 71 63 72 65 73 64 74 51 75
REMARK SMILES IDX 52 76 56 77 53 78 55 79 54 80
REMARK H PARENT 71 48 49 59
REMARK Flexibility Score: inf
ROOT
ATOM      1  C   UNL A   1      35.945  21.572  25.225  1.00  0.00     0.275 C 
ENDROOT
BRANCH   1   2
ATOM      2  O   UNL A   1      35.037  22.599  24.772  1.00  0.00    -0.459 OA
BRANCH   2   3
ATOM      3  C   UNL A   1      34.049  22.945  25.639  1.00  0.00     0.338 C 
ATOM      4  O   UNL A   1      33.750  22.329  26.642  1.00  0.00    -0.246 OA
BRANCH   3   5
ATOM      5  C   UNL A   1      33.397  24.221  25.253  1.00  0.00     0.087 C 
ATOM      6  C   UNL A   1      31.327  27.670  24.094  1.00  0.00    -0.002 A 
ATOM      7  C   UNL A   1      31.715  28.900  24.637  1.00  0.00     0.054 A 
ATOM      8  C   UNL A   1      32.116  26.546  24.389  1.00  0.00     0.131 A 
ATOM      9  C   UNL A   1      32.892  29.022  25.383  1.00  0.00     0.130 A 
ATOM     10  C   UNL A   1      33.230  26.625  25.233  1.00  0.00     0.021 A 
ATOM     11  O   UNL A   1      31.799  25.374  23.758  1.00  0.00    -0.475 OA
ATOM     12  C   UNL A   1      33.624  27.876  25.715  1.00  0.00     0.058 A 
ATOM     13  C   UNL A   1      33.958  25.401  25.575  1.00  0.00     0.027 C 
ATOM     14  C   UNL A   1      32.068  24.166  24.516  1.00  0.00     0.316 C 
BRANCH   6  15
ATOM     15  C   UNL A   1      30.079  27.491  23.251  1.00  0.00     0.039 C 
BRANCH  15  16
ATOM     16  C   UNL A   1      29.281  28.736  22.841  1.00  0.00     0.001 C 
ATOM     17  C   UNL A   1      27.784  28.602  23.088  1.00  0.00     0.004 C 
ENDBRANCH  15  16
ENDBRANCH   6  15
BRANCH   9  18
ATOM     18  O   UNL A   1      33.405  30.203  25.846  1.00  0.00    -0.406 OA
BRANCH  18  19
ATOM     19  C   UNL A   1      33.017  30.584  27.163  1.00  0.00     0.573 C 
ATOM     20  F   UNL A   1      34.067  30.601  28.012  1.00  0.00    -0.132 F 
ATOM     21  F   UNL A   1      32.428  31.800  27.152  1.00  0.00    -0.132 F 
ATOM     22  F   UNL A   1      32.119  29.688  27.629  1.00  0.00    -0.132 F 
ENDBRANCH  18  19
ENDBRANCH   9  18
BRANCH  14  23
ATOM     23  C   UNL A   1      31.775  22.979  23.578  1.00  0.00     0.430 C 
ATOM     24  F   UNL A   1      31.677  21.808  24.248  1.00  0.00    -0.167 F 
ATOM     25  F   UNL A   1      30.565  23.149  22.978  1.00  0.00    -0.167 F 
ATOM     26  F   UNL A   1      32.688  22.849  22.593  1.00  0.00    -0.167 F 
ENDBRANCH  14  23
ENDBRANCH   3   5
ENDBRANCH   2   3
ENDBRANCH   1   2
BRANCH   1  27
ATOM     27  C   UNL A   1      37.406  21.922  24.923  1.00  0.00     0.275 C 
BRANCH  27  28
ATOM     28  O   UNL A   1      37.839  23.083  25.658  1.00  0.00    -0.458 OA
BRANCH  28  29
ATOM     29  C   UNL A   1      39.059  22.971  26.234  1.00  0.00     0.338 C 
ATOM     30  O   UNL A   1      39.817  22.017  26.169  1.00  0.00    -0.246 OA
BRANCH  29  31
ATOM     31  C   UNL A   1      39.466  24.270  26.804  1.00  0.00     0.060 A 
ATOM     32  C   UNL A   1      39.047  24.534  28.110  1.00  0.00     0.016 A 
ATOM     33  C   UNL A   1      40.217  25.216  26.106  1.00  0.00     0.016 A 
ATOM     34  C   UNL A   1      39.444  25.697  28.763  1.00  0.00     0.010 A 
ATOM     35  C   UNL A   1      40.566  26.418  26.741  1.00  0.00     0.010 A 
ATOM     36  C   UNL A   1      40.198  26.655  28.078  1.00  0.00    -0.014 A 
BRANCH  36  37
ATOM     37  C   UNL A   1      40.499  27.947  28.738  1.00  0.00     0.031 A 
ATOM     38  C   UNL A   1      41.861  28.168  29.328  1.00  0.00     0.074 A 
ATOM     39  C   UNL A   1      39.585  28.934  28.769  1.00  0.00     0.049 A 
ATOM     40  N   UNL A   1      42.324  29.203  29.979  1.00  0.00    -0.248 NA
ATOM     41  C   UNL A   1      42.834  27.081  29.145  1.00  0.00     0.031 C 
ATOM     42  C   UNL A   1      38.264  28.887  28.147  1.00  0.00     0.029 A 
ATOM     43  N   UNL A   1      39.640  30.176  29.354  1.00  0.00    -0.354 N 
ATOM     44  C   UNL A   1      43.643  28.894  30.287  1.00  0.00     0.074 A 
ATOM     45  C   UNL A   1      43.900  27.569  29.763  1.00  0.00     0.031 C 
ATOM     46  C   UNL A   1      37.623  30.042  28.400  1.00  0.00     0.029 A 
ATOM     47  C   UNL A   1      38.474  30.892  29.233  1.00  0.00     0.049 A 
ATOM     48  H   UNL A   1      40.439  30.520  29.815  1.00  0.00     0.167 HD
ATOM     49  C   UNL A   1      44.554  29.641  30.951  1.00  0.00     0.031 A 
ATOM     50  C   UNL A   1      38.124  32.082  29.760  1.00  0.00     0.031 A 
ATOM     51  C   UNL A   1      44.288  30.941  31.511  1.00  0.00     0.049 A 
ATOM     52  C   UNL A   1      39.113  32.833  30.616  1.00  0.00     0.074 A 
ATOM     53  C   UNL A   1      45.143  31.764  32.223  1.00  0.00     0.029 A 
ATOM     54  N   UNL A   1      43.070  31.598  31.436  1.00  0.00    -0.354 N 
ATOM     55  N   UNL A   1      40.357  32.534  30.902  1.00  0.00    -0.248 NA
ATOM     56  C   UNL A   1      38.646  34.090  31.221  1.00  0.00     0.031 C 
ATOM     57  C   UNL A   1      44.423  32.888  32.637  1.00  0.00     0.029 A 
ATOM     58  C   UNL A   1      43.141  32.801  32.119  1.00  0.00     0.049 A 
ATOM     59  H   UNL A   1      42.273  31.260  30.966  1.00  0.00     0.167 HD
ATOM     60  C   UNL A   1      40.829  33.578  31.690  1.00  0.00     0.074 A 
ATOM     61  C   UNL A   1      39.742  34.524  31.826  1.00  0.00     0.031 C 
ATOM     62  C   UNL A   1      42.055  33.739  32.246  1.00  0.00     0.031 A 
BRANCH  49  63
ATOM     63  C   UNL A   1      45.912  29.036  31.165  1.00  0.00    -0.014 A 
ATOM     64  C   UNL A   1      46.193  28.247  32.292  1.00  0.00     0.009 A 
ATOM     65  C   UNL A   1      46.921  29.245  30.212  1.00  0.00     0.009 A 
ATOM     66  C   UNL A   1      47.470  27.711  32.477  1.00  0.00     0.001 A 
ATOM     67  C   UNL A   1      48.187  28.685  30.385  1.00  0.00     0.001 A 
ATOM     68  C   UNL A   1      48.464  27.927  31.522  1.00  0.00     0.000 A 
ENDBRANCH  49  63
BRANCH  50  69
ATOM     69  C   UNL A   1      36.756  32.627  29.545  1.00  0.00    -0.014 A 
ATOM     70  C   UNL A   1      36.442  33.348  28.382  1.00  0.00     0.009 A 
ATOM     71  C   UNL A   1      35.768  32.475  30.533  1.00  0.00     0.009 A 
ATOM     72  C   UNL A   1      35.181  33.929  28.228  1.00  0.00     0.001 A 
ATOM     73  C   UNL A   1      34.499  33.029  30.361  1.00  0.00     0.001 A 
ATOM     74  C   UNL A   1      34.209  33.767  29.215  1.00  0.00     0.000 A 
ENDBRANCH  50  69
BRANCH  62  75
ATOM     75  C   UNL A   1      42.311  35.006  33.017  1.00  0.00    -0.014 A 
ATOM     76  C   UNL A   1      41.846  35.176  34.330  1.00  0.00     0.009 A 
ATOM     77  C   UNL A   1      43.079  36.028  32.432  1.00  0.00     0.009 A 
ATOM     78  C   UNL A   1      42.122  36.353  35.030  1.00  0.00     0.001 A 
ATOM     79  C   UNL A   1      43.379  37.189  33.146  1.00  0.00     0.001 A 
ATOM     80  C   UNL A   1      42.893  37.355  34.442  1.00  0.00     0.000 A 
ENDBRANCH  62  75
ENDBRANCH  36  37
ENDBRANCH  29  31
ENDBRANCH  28  29
ENDBRANCH  27  28
ENDBRANCH   1  27
TORSDOF 16
ENDMDL
MODEL 2
REMARK VINA RESULT:     -10.6      2.509      7.979
REMARK SMILES CCCc1cc(OC(F)(F)F)cc2c1O[C@@H](C(F)(F)F)C(C(=O)OCCOC(=O)c1ccc(-c3c4nc(c(-c5ccccc5)c5ccc([nH]5)c(-c5ccccc5)c5nc(c(-c6ccccc6)c6ccc3[nH]6)C=C5)C=C4)cc1)=C2
REMARK SMILES IDX 25 1 24 2 22 3 23 4 21 5 4 6 5 7 14 8 6 9 13 10 15 11 12 12
REMARK SMILES IDX 78 13 16 14 3 15 2 16 1 17 7 18 8 19 9 20 10 21 11 22 17 23
REMARK SMILES IDX 18 24 19 25 20 26 26 27 27 28 28 29 29 30 30 31 31 32 77 33
REMARK SMILES IDX 32 34 76 35 33 36 34 37 35 38 70 39 36 40 75 41 69 42 71 43
REMARK SMILES IDX 37 44 74 45 68 46 67 47 38 49 60 50 45 51 59 52 46 53 49 54
REMARK SMILES IDX 58 55 72 56 47 57 48 58 57 60 73 61 50 62 39 63 40 64 44 65
REMARK SMILES IDX 41 66 43 67 42 68 61 69 62 70 66 71 63 72 65 73 64 74 51 75
REMARK SMILES IDX 52 76 56 77 53 78 55 79 54 80
REMARK H PARENT 71 48 49 59
REMARK Flexibility Score: inf
ROOT
ATOM      1  C   UNL A   1      32.604  29.343  25.343  1.00  0.00     0.275 C 
ENDROOT
BRANCH   1   2
ATOM      2  O   UNL A   1      32.558  27.900  25.297  1.00  0.00    -0.459 OA
BRANCH   2   3
ATOM      3  C   UNL A   1      33.003  27.327  24.148  1.00  0.00     0.338 C 
ATOM      4  O   UNL A   1      33.264  27.924  23.122  1.00  0.00    -0.246 OA
BRANCH   3   5
ATOM      5  C   UNL A   1      33.198  25.864  24.300  1.00  0.00     0.087 C 
ATOM      6  C   UNL A   1      33.550  21.698  24.531  1.00  0.00    -0.002 A 
ATOM      7  C   UNL A   1      34.751  21.151  24.999  1.00  0.00     0.054 A 
ATOM      8  C   UNL A   1      33.402  23.094  24.587  1.00  0.00     0.131 A 
ATOM      9  C   UNL A   1      35.737  21.958  25.575  1.00  0.00     0.130 A 
ATOM     10  C   UNL A   1      34.426  23.930  25.049  1.00  0.00     0.021 A 
ATOM     11  O   UNL A   1      32.182  23.609  24.241  1.00  0.00    -0.475 OA
ATOM     12  C   UNL A   1      35.590  23.350  25.560  1.00  0.00     0.058 A 
ATOM     13  C   UNL A   1      34.244  25.381  24.997  1.00  0.00     0.027 C 
ATOM     14  C   UNL A   1      32.213  24.923  23.624  1.00  0.00     0.316 C 
BRANCH   6  15
ATOM     15  C   UNL A   1      32.436  20.864  23.928  1.00  0.00     0.039 C 
BRANCH  15  16
ATOM     16  C   UNL A   1      32.442  19.348  24.159  1.00  0.00     0.001 C 
ATOM     17  C   UNL A   1      32.455  18.540  22.868  1.00  0.00     0.004 C 
ENDBRANCH  15  16
ENDBRANCH   6  15
BRANCH   9  18
ATOM     18  O   UNL A   1      36.882  21.493  26.162  1.00  0.00    -0.406 OA
BRANCH  18  19
ATOM     19  C   UNL A   1      38.061  21.536  25.365  1.00  0.00     0.573 C 
ATOM     20  F   UNL A   1      38.793  20.408  25.486  1.00  0.00    -0.132 F 
ATOM     21  F   UNL A   1      37.751  21.732  24.066  1.00  0.00    -0.132 F 
ATOM     22  F   UNL A   1      38.826  22.573  25.775  1.00  0.00    -0.132 F 
ENDBRANCH  18  19
ENDBRANCH   9  18
BRANCH  14  23
ATOM     23  C   UNL A   1      30.748  25.366  23.450  1.00  0.00     0.430 C 
ATOM     24  F   UNL A   1      30.240  25.913  24.578  1.00  0.00    -0.167 F 
ATOM     25  F   UNL A   1      30.668  26.349  22.511  1.00  0.00    -0.167 F 
ATOM     26  F   UNL A   1      29.940  24.366  23.041  1.00  0.00    -0.167 F 
ENDBRANCH  14  23
ENDBRANCH   3   5
ENDBRANCH   2   3
ENDBRANCH   1   2
BRANCH   1  27
ATOM     27  C   UNL A   1      32.704  29.869  26.778  1.00  0.00     0.275 C 
BRANCH  27  28
ATOM     28  O   UNL A   1      33.945  29.486  27.401  1.00  0.00    -0.458 OA
BRANCH  28  29
ATOM     29  C   UNL A   1      34.628  30.499  27.982  1.00  0.00     0.338 C 
ATOM     30  O   UNL A   1      34.189  31.592  28.304  1.00  0.00    -0.246 OA
BRANCH  29  31
ATOM     31  C   UNL A   1      35.972  30.036  28.382  1.00  0.00     0.060 A 
ATOM     32  C   UNL A   1      36.960  30.074  27.397  1.00  0.00     0.016 A 
ATOM     33  C   UNL A   1      36.275  29.566  29.660  1.00  0.00     0.016 A 
ATOM     34  C   UNL A   1      38.276  29.730  27.696  1.00  0.00     0.010 A 
ATOM     35  C   UNL A   1      37.587  29.159  29.947  1.00  0.00     0.010 A 
ATOM     36  C   UNL A   1      38.597  29.258  28.973  1.00  0.00    -0.014 A 
BRANCH  36  37
ATOM     37  C   UNL A   1      39.969  28.767  29.239  1.00  0.00     0.031 A 
ATOM     38  C   UNL A   1      40.936  29.656  29.964  1.00  0.00     0.074 A 
ATOM     39  C   UNL A   1      40.338  27.523  28.883  1.00  0.00     0.049 A 
ATOM     40  N   UNL A   1      42.191  29.443  30.269  1.00  0.00    -0.248 NA
ATOM     41  C   UNL A   1      40.414  30.953  30.420  1.00  0.00     0.031 C 
ATOM     42  C   UNL A   1      39.467  26.525  28.265  1.00  0.00     0.029 A 
ATOM     43  N   UNL A   1      41.552  26.891  28.997  1.00  0.00    -0.354 N 
ATOM     44  C   UNL A   1      42.610  30.578  30.950  1.00  0.00     0.074 A 
ATOM     45  C   UNL A   1      41.480  31.482  31.002  1.00  0.00     0.031 C 
ATOM     46  C   UNL A   1      40.182  25.409  28.035  1.00  0.00     0.029 A 
ATOM     47  C   UNL A   1      41.566  25.628  28.454  1.00  0.00     0.049 A 
ATOM     48  H   UNL A   1      42.336  27.302  29.426  1.00  0.00     0.167 HD
ATOM     49  C   UNL A   1      43.826  30.847  31.478  1.00  0.00     0.031 A 
ATOM     50  C   UNL A   1      42.587  24.764  28.287  1.00  0.00     0.031 A 
ATOM     51  C   UNL A   1      44.963  29.968  31.390  1.00  0.00     0.049 A 
ATOM     52  C   UNL A   1      43.967  25.146  28.761  1.00  0.00     0.074 A 
ATOM     53  C   UNL A   1      46.244  30.167  31.875  1.00  0.00     0.029 A 
ATOM     54  N   UNL A   1      44.959  28.733  30.763  1.00  0.00    -0.354 N 
ATOM     55  N   UNL A   1      44.355  26.222  29.403  1.00  0.00    -0.248 NA
ATOM     56  C   UNL A   1      45.051  24.190  28.484  1.00  0.00     0.031 C 
ATOM     57  C   UNL A   1      47.032  29.081  31.481  1.00  0.00     0.029 A 
ATOM     58  C   UNL A   1      46.225  28.173  30.817  1.00  0.00     0.049 A 
ATOM     59  H   UNL A   1      44.172  28.316  30.342  1.00  0.00     0.167 HD
ATOM     60  C   UNL A   1      45.716  26.056  29.636  1.00  0.00     0.074 A 
ATOM     61  C   UNL A   1      46.083  24.772  29.078  1.00  0.00     0.031 C 
ATOM     62  C   UNL A   1      46.581  26.892  30.262  1.00  0.00     0.031 A 
BRANCH  49  63
ATOM     63  C   UNL A   1      44.004  32.182  32.143  1.00  0.00    -0.014 A 
ATOM     64  C   UNL A   1      44.197  33.354  31.395  1.00  0.00     0.009 A 
ATOM     65  C   UNL A   1      43.961  32.268  33.544  1.00  0.00     0.009 A 
ATOM     66  C   UNL A   1      44.379  34.580  32.039  1.00  0.00     0.001 A 
ATOM     67  C   UNL A   1      44.115  33.498  34.183  1.00  0.00     0.001 A 
ATOM     68  C   UNL A   1      44.334  34.652  33.432  1.00  0.00     0.000 A 
ENDBRANCH  49  63
BRANCH  50  69
ATOM     69  C   UNL A   1      42.367  23.465  27.594  1.00  0.00    -0.014 A 
ATOM     70  C   UNL A   1      42.602  23.334  26.217  1.00  0.00     0.009 A 
ATOM     71  C   UNL A   1      41.868  22.359  28.303  1.00  0.00     0.009 A 
ATOM     72  C   UNL A   1      42.311  22.136  25.560  1.00  0.00     0.001 A 
ATOM     73  C   UNL A   1      41.610  21.153  27.649  1.00  0.00     0.001 A 
ATOM     74  C   UNL A   1      41.819  21.045  26.276  1.00  0.00     0.000 A 
ENDBRANCH  50  69
BRANCH  62  75
ATOM     75  C   UNL A   1      48.005  26.431  30.421  1.00  0.00    -0.014 A 
ATOM     76  C   UNL A   1      48.413  25.670  31.527  1.00  0.00     0.009 A 
ATOM     77  C   UNL A   1      48.941  26.719  29.414  1.00  0.00     0.009 A 
ATOM     78  C   UNL A   1      49.736  25.234  31.635  1.00  0.00     0.001 A 
ATOM     79  C   UNL A   1      50.254  26.254  29.509  1.00  0.00     0.001 A 
ATOM     80  C   UNL A   1      50.653  25.519  30.623  1.00  0.00     0.000 A 
ENDBRANCH  62  75
ENDBRANCH  36  37
ENDBRANCH  29  31
ENDBRANCH  28  29
ENDBRANCH  27  28
ENDBRANCH   1  27
TORSDOF 16
ENDMDL
MODEL 3
REMARK VINA RESULT:     -10.5      3.361      7.920
REMARK SMILES CCCc1cc(OC(F)(F)F)cc2c1O[C@@H](C(F)(F)F)C(C(=O)OCCOC(=O)c1ccc(-c3c4nc(c(-c5ccccc5)c5ccc([nH]5)c(-c5ccccc5)c5nc(c(-c6ccccc6)c6ccc3[nH]6)C=C5)C=C4)cc1)=C2
REMARK SMILES IDX 25 1 24 2 22 3 23 4 21 5 4 6 5 7 14 8 6 9 13 10 15 11 12 12
REMARK SMILES IDX 78 13 16 14 3 15 2 16 1 17 7 18 8 19 9 20 10 21 11 22 17 23
REMARK SMILES IDX 18 24 19 25 20 26 26 27 27 28 28 29 29 30 30 31 31 32 77 33
REMARK SMILES IDX 32 34 76 35 33 36 34 37 35 38 70 39 36 40 75 41 69 42 71 43
REMARK SMILES IDX 37 44 74 45 68 46 67 47 38 49 60 50 45 51 59 52 46 53 49 54
REMARK SMILES IDX 58 55 72 56 47 57 48 58 57 60 73 61 50 62 39 63 40 64 44 65
REMARK SMILES IDX 41 66 43 67 42 68 61 69 62 70 66 71 63 72 65 73 64 74 51 75
REMARK SMILES IDX 52 76 56 77 53 78 55 79 54 80
REMARK H PARENT 71 48 49 59
REMARK Flexibility Score: inf
ROOT
ATOM      1  C   UNL A   1      42.597  21.259  25.752  1.00  0.00     0.275 C 
ENDROOT
BRANCH   1   2
ATOM      2  O   UNL A   1      41.317  21.904  25.575  1.00  0.00    -0.459 OA
BRANCH   2   3
ATOM      3  C   UNL A   1      40.460  21.826  26.627  1.00  0.00     0.338 C 
ATOM      4  O   UNL A   1      40.776  21.562  27.769  1.00  0.00    -0.246 OA
BRANCH   3   5
ATOM      5  C   UNL A   1      39.070  22.163  26.232  1.00  0.00     0.087 C 
ATOM      6  C   UNL A   1      35.233  23.379  25.081  1.00  0.00    -0.002 A 
ATOM      7  C   UNL A   1      34.354  22.423  24.558  1.00  0.00     0.054 A 
ATOM      8  C   UNL A   1      36.464  22.930  25.586  1.00  0.00     0.131 A 
ATOM      9  C   UNL A   1      34.657  21.058  24.607  1.00  0.00     0.130 A 
ATOM     10  C   UNL A   1      36.838  21.581  25.534  1.00  0.00     0.021 A 
ATOM     11  O   UNL A   1      37.263  23.852  26.203  1.00  0.00    -0.475 OA
ATOM     12  C   UNL A   1      35.917  20.645  25.057  1.00  0.00     0.058 A 
ATOM     13  C   UNL A   1      38.171  21.189  25.993  1.00  0.00     0.027 C 
ATOM     14  C   UNL A   1      38.692  23.626  26.072  1.00  0.00     0.316 C 
BRANCH   6  15
ATOM     15  C   UNL A   1      34.937  24.867  25.082  1.00  0.00     0.039 C 
BRANCH  15  16
ATOM     16  C   UNL A   1      33.714  25.375  25.856  1.00  0.00     0.001 C 
ATOM     17  C   UNL A   1      33.276  26.774  25.442  1.00  0.00     0.004 C 
ENDBRANCH  15  16
ENDBRANCH   6  15
BRANCH   9  18
ATOM     18  O   UNL A   1      33.807  20.056  24.230  1.00  0.00    -0.406 OA
BRANCH  18  19
ATOM     19  C   UNL A   1      32.724  19.782  25.114  1.00  0.00     0.573 C 
ATOM     20  F   UNL A   1      33.132  19.700  26.399  1.00  0.00    -0.132 F 
ATOM     21  F   UNL A   1      31.770  20.731  25.005  1.00  0.00    -0.132 F 
ATOM     22  F   UNL A   1      32.175  18.594  24.775  1.00  0.00    -0.132 F 
ENDBRANCH  18  19
ENDBRANCH   9  18
BRANCH  14  23
ATOM     23  C   UNL A   1      39.390  24.685  26.948  1.00  0.00     0.430 C 
ATOM     24  F   UNL A   1      40.419  25.283  26.306  1.00  0.00    -0.167 F 
ATOM     25  F   UNL A   1      38.521  25.691  27.242  1.00  0.00    -0.167 F 
ATOM     26  F   UNL A   1      39.831  24.189  28.123  1.00  0.00    -0.167 F 
ENDBRANCH  14  23
ENDBRANCH   3   5
ENDBRANCH   2   3
ENDBRANCH   1   2
BRANCH   1  27
ATOM     27  C   UNL A   1      43.757  22.145  25.285  1.00  0.00     0.275 C 
BRANCH  27  28
ATOM     28  O   UNL A   1      43.327  23.496  25.033  1.00  0.00    -0.458 OA
BRANCH  28  29
ATOM     29  C   UNL A   1      44.249  24.448  25.308  1.00  0.00     0.338 C 
ATOM     30  O   UNL A   1      45.248  24.714  24.659  1.00  0.00    -0.246 OA
BRANCH  29  31
ATOM     31  C   UNL A   1      43.778  25.297  26.421  1.00  0.00     0.060 A 
ATOM     32  C   UNL A   1      43.147  24.639  27.479  1.00  0.00     0.016 A 
ATOM     33  C   UNL A   1      43.923  26.684  26.446  1.00  0.00     0.016 A 
ATOM     34  C   UNL A   1      42.737  25.341  28.609  1.00  0.00     0.010 A 
ATOM     35  C   UNL A   1      43.453  27.402  27.556  1.00  0.00     0.010 A 
ATOM     36  C   UNL A   1      42.876  26.732  28.650  1.00  0.00    -0.014 A 
BRANCH  36  37
ATOM     37  C   UNL A   1      42.312  27.482  29.797  1.00  0.00     0.031 A 
ATOM     38  C   UNL A   1      41.013  28.214  29.626  1.00  0.00     0.074 A 
ATOM     39  C   UNL A   1      42.924  27.472  30.996  1.00  0.00     0.049 A 
ATOM     40  N   UNL A   1      40.362  28.959  30.481  1.00  0.00    -0.248 NA
ATOM     41  C   UNL A   1      40.355  28.075  28.318  1.00  0.00     0.031 C 
ATOM     42  C   UNL A   1      44.134  26.720  31.323  1.00  0.00     0.029 A 
ATOM     43  N   UNL A   1      42.600  28.119  32.162  1.00  0.00    -0.354 N 
ATOM     44  C   UNL A   1      39.217  29.380  29.817  1.00  0.00     0.074 A 
ATOM     45  C   UNL A   1      39.270  28.818  28.484  1.00  0.00     0.031 C 
ATOM     46  C   UNL A   1      44.463  26.966  32.604  1.00  0.00     0.029 A 
ATOM     47  C   UNL A   1      43.511  27.919  33.172  1.00  0.00     0.049 A 
ATOM     48  H   UNL A   1      41.794  28.674  32.266  1.00  0.00     0.167 HD
ATOM     49  C   UNL A   1      38.216  30.167  30.273  1.00  0.00     0.031 A 
ATOM     50  C   UNL A   1      43.583  28.468  34.401  1.00  0.00     0.031 A 
ATOM     51  C   UNL A   1      38.182  30.762  31.584  1.00  0.00     0.049 A 
ATOM     52  C   UNL A   1      42.527  29.454  34.836  1.00  0.00     0.074 A 
ATOM     53  C   UNL A   1      37.219  31.595  32.127  1.00  0.00     0.029 A 
ATOM     54  N   UNL A   1      39.162  30.599  32.550  1.00  0.00    -0.354 N 
ATOM     55  N   UNL A   1      41.448  29.847  34.202  1.00  0.00    -0.248 NA
ATOM     56  C   UNL A   1      42.701  30.071  36.160  1.00  0.00     0.031 C 
ATOM     57  C   UNL A   1      37.651  31.991  33.397  1.00  0.00     0.029 A 
ATOM     58  C   UNL A   1      38.845  31.345  33.673  1.00  0.00     0.049 A 
ATOM     59  H   UNL A   1      39.964  30.037  32.452  1.00  0.00     0.167 HD
ATOM     60  C   UNL A   1      40.801  30.728  35.062  1.00  0.00     0.074 A 
ATOM     61  C   UNL A   1      41.601  30.803  36.265  1.00  0.00     0.031 C 
ATOM     62  C   UNL A   1      39.645  31.410  34.870  1.00  0.00     0.031 A 
BRANCH  49  63
ATOM     63  C   UNL A   1      37.103  30.484  29.316  1.00  0.00    -0.014 A 
ATOM     64  C   UNL A   1      36.931  31.776  28.794  1.00  0.00     0.009 A 
ATOM     65  C   UNL A   1      36.223  29.466  28.916  1.00  0.00     0.009 A 
ATOM     66  C   UNL A   1      35.876  32.049  27.920  1.00  0.00     0.001 A 
ATOM     67  C   UNL A   1      35.188  29.735  28.021  1.00  0.00     0.001 A 
ATOM     68  C   UNL A   1      35.009  31.028  27.531  1.00  0.00     0.000 A 
ENDBRANCH  49  63
BRANCH  50  69
ATOM     69  C   UNL A   1      44.721  28.146  35.304  1.00  0.00    -0.014 A 
ATOM     70  C   UNL A   1      44.631  27.097  36.232  1.00  0.00     0.009 A 
ATOM     71  C   UNL A   1      45.889  28.926  35.277  1.00  0.00     0.009 A 
ATOM     72  C   UNL A   1      45.671  26.857  37.133  1.00  0.00     0.001 A 
ATOM     73  C   UNL A   1      46.941  28.662  36.157  1.00  0.00     0.001 A 
ATOM     74  C   UNL A   1      46.827  27.637  37.093  1.00  0.00     0.000 A 
ENDBRANCH  50  69
BRANCH  62  75
ATOM     75  C   UNL A   1      39.143  32.264  36.003  1.00  0.00    -0.014 A 
ATOM     76  C   UNL A   1      39.547  33.600  36.153  1.00  0.00     0.009 A 
ATOM     77  C   UNL A   1      38.204  31.735  36.905  1.00  0.00     0.009 A 
ATOM     78  C   UNL A   1      39.044  34.377  37.199  1.00  0.00     0.001 A 
ATOM     79  C   UNL A   1      37.679  32.523  37.929  1.00  0.00     0.001 A 
ATOM     80  C   UNL A   1      38.106  33.841  38.082  1.00  0.00     0.000 A 
ENDBRANCH  62  75
ENDBRANCH  36  37
ENDBRANCH  29  31
ENDBRANCH  28  29
ENDBRANCH  27  28
ENDBRANCH   1  27
TORSDOF 16
ENDMDL
