MODEL 1
REMARK VINA RESULT:     -11.3      0.000      0.000
REMARK SMILES Cc1ccc(N)c(SCCOc2ccccc2C(=O)OCCOC(=O)c2ccc(-c3c4nc(c(-c5ccccc5)c5ccc([nH]5)c(-c5ccccc5)c5nc(c(-c6ccccc6)c6ccc3[nH]6)C=C5)C=C4)cc2)c1
REMARK SMILES IDX 18 1 19 2 17 3 12 4 13 5 14 6 16 7 15 8 11 9 10 10 9 11 8 12
REMARK SMILES IDX 7 13 1 14 2 15 3 16 74 17 4 18 5 19 6 20 20 23 21 24 22 25
REMARK SMILES IDX 23 26 24 27 25 28 26 29 27 30 73 31 28 32 72 33 29 34 30 35
REMARK SMILES IDX 31 36 66 37 32 38 71 39 65 40 67 41 33 42 70 43 64 44 63 45
REMARK SMILES IDX 34 47 56 48 41 49 55 50 42 51 45 52 54 53 68 54 43 55 44 56
REMARK SMILES IDX 53 58 69 59 46 60 35 61 36 62 40 63 37 64 39 65 38 66 57 67
REMARK SMILES IDX 58 68 62 69 59 70 61 71 60 72 47 73 48 74 52 75 49 76 51 77
REMARK SMILES IDX 50 78
REMARK H PARENT 6 21 6 22 67 46 45 57
REMARK Flexibility Score: inf
ROOT
ATOM      1  C   UNL A   1      31.610  28.142  22.715  1.00  0.00     0.342 C 
ATOM      2  O   UNL A   1      32.115  27.148  22.246  1.00  0.00    -0.246 OA
ENDROOT
BRANCH   1   3
ATOM      3  C   UNL A   1      30.124  28.373  22.778  1.00  0.00     0.102 A 
ATOM      4  C   UNL A   1      29.406  27.481  23.524  1.00  0.00     0.133 A 
ATOM      5  C   UNL A   1      27.996  27.471  23.498  1.00  0.00     0.047 A 
ATOM      6  C   UNL A   1      27.310  28.610  23.075  1.00  0.00     0.004 A 
ATOM      7  C   UNL A   1      29.439  29.586  22.699  1.00  0.00     0.019 A 
ATOM      8  C   UNL A   1      28.056  29.734  22.821  1.00  0.00     0.001 A 
BRANCH   4   9
ATOM      9  O   UNL A   1      30.067  27.068  24.679  1.00  0.00    -0.492 OA
BRANCH   9  10
ATOM     10  C   UNL A   1      29.942  25.599  24.838  1.00  0.00     0.241 C 
BRANCH  10  11
ATOM     11  C   UNL A   1      30.343  24.628  23.645  1.00  0.00     0.116 C 
BRANCH  11  12
ATOM     12  S   UNL A   1      31.747  23.183  23.503  1.00  0.00    -0.120 SA
BRANCH  12  13
ATOM     13  C   UNL A   1      32.950  22.739  24.862  1.00  0.00     0.031 A 
ATOM     14  C   UNL A   1      36.459  23.564  26.073  1.00  0.00     0.044 C 
ATOM     15  C   UNL A   1      35.084  22.932  26.107  1.00  0.00    -0.050 A 
ATOM     16  C   UNL A   1      34.412  22.796  27.308  1.00  0.00     0.005 A 
ATOM     17  C   UNL A   1      34.365  22.707  24.908  1.00  0.00     0.020 A 
ATOM     18  C   UNL A   1      33.068  22.431  27.288  1.00  0.00     0.027 A 
ATOM     19  C   UNL A   1      32.339  22.370  26.083  1.00  0.00     0.045 A 
BRANCH  19  20
ATOM     20  N   UNL A   1      30.977  22.059  26.149  1.00  0.00    -0.398 N 
ATOM     21  H   UNL A   1      30.507  22.086  27.014  1.00  0.00     0.156 HD
ATOM     22  H   UNL A   1      30.488  21.813  25.330  1.00  0.00     0.156 HD
ENDBRANCH  19  20
ENDBRANCH  12  13
ENDBRANCH  11  12
ENDBRANCH  10  11
ENDBRANCH   9  10
ENDBRANCH   4   9
ENDBRANCH   1   3
BRANCH   1  23
ATOM     23  O   UNL A   1      32.400  29.188  23.072  1.00  0.00    -0.458 OA
BRANCH  23  24
ATOM     24  C   UNL A   1      32.669  29.218  24.512  1.00  0.00     0.275 C 
BRANCH  24  25
ATOM     25  C   UNL A   1      31.713  30.098  25.362  1.00  0.00     0.275 C 
BRANCH  25  26
ATOM     26  O   UNL A   1      32.088  30.199  26.764  1.00  0.00    -0.458 OA
BRANCH  26  27
ATOM     27  C   UNL A   1      32.805  31.309  27.104  1.00  0.00     0.338 C 
ATOM     28  O   UNL A   1      32.354  32.447  27.122  1.00  0.00    -0.246 OA
BRANCH  27  29
ATOM     29  C   UNL A   1      34.214  31.012  27.534  1.00  0.00     0.060 A 
ATOM     30  C   UNL A   1      34.696  29.716  27.672  1.00  0.00     0.016 A 
ATOM     31  C   UNL A   1      35.059  32.056  27.935  1.00  0.00     0.016 A 
ATOM     32  C   UNL A   1      35.906  29.463  28.354  1.00  0.00     0.010 A 
ATOM     33  C   UNL A   1      36.325  31.799  28.513  1.00  0.00     0.010 A 
ATOM     34  C   UNL A   1      36.753  30.490  28.801  1.00  0.00    -0.014 A 
BRANCH  34  35
ATOM     35  C   UNL A   1      38.014  30.222  29.601  1.00  0.00     0.031 A 
ATOM     36  C   UNL A   1      39.167  29.431  28.995  1.00  0.00     0.074 A 
ATOM     37  C   UNL A   1      38.206  30.678  30.862  1.00  0.00     0.049 A 
ATOM     38  N   UNL A   1      40.188  28.849  29.584  1.00  0.00    -0.248 NA
ATOM     39  C   UNL A   1      39.162  29.270  27.533  1.00  0.00     0.031 C 
ATOM     40  C   UNL A   1      37.295  31.536  31.618  1.00  0.00     0.029 A 
ATOM     41  N   UNL A   1      39.256  30.475  31.741  1.00  0.00    -0.354 N 
ATOM     42  C   UNL A   1      40.886  28.179  28.580  1.00  0.00     0.074 A 
ATOM     43  C   UNL A   1      40.179  28.441  27.344  1.00  0.00     0.031 C 
ATOM     44  C   UNL A   1      37.840  31.828  32.808  1.00  0.00     0.029 A 
ATOM     45  C   UNL A   1      39.078  31.072  32.968  1.00  0.00     0.049 A 
ATOM     46  H   UNL A   1      40.057  29.952  31.509  1.00  0.00     0.167 HD
ATOM     47  C   UNL A   1      42.002  27.410  28.669  1.00  0.00     0.031 A 
ATOM     48  C   UNL A   1      39.766  30.983  34.125  1.00  0.00     0.031 A 
ATOM     49  C   UNL A   1      42.773  27.202  29.871  1.00  0.00     0.049 A 
ATOM     50  C   UNL A   1      40.956  30.069  34.234  1.00  0.00     0.074 A 
ATOM     51  C   UNL A   1      43.920  26.439  30.041  1.00  0.00     0.029 A 
ATOM     52  N   UNL A   1      42.499  27.777  31.098  1.00  0.00    -0.354 N 
ATOM     53  N   UNL A   1      41.528  29.344  33.307  1.00  0.00    -0.248 NA
ATOM     54  C   UNL A   1      41.577  29.942  35.563  1.00  0.00     0.031 C 
ATOM     55  C   UNL A   1      44.309  26.514  31.383  1.00  0.00     0.029 A 
ATOM     56  C   UNL A   1      43.439  27.372  32.035  1.00  0.00     0.049 A 
ATOM     57  H   UNL A   1      41.746  28.385  31.282  1.00  0.00     0.167 HD
ATOM     58  C   UNL A   1      42.576  28.681  33.937  1.00  0.00     0.074 A 
ATOM     59  C   UNL A   1      42.580  29.110  35.318  1.00  0.00     0.031 C 
ATOM     60  C   UNL A   1      43.450  27.790  33.411  1.00  0.00     0.031 A 
BRANCH  47  61
ATOM     61  C   UNL A   1      42.435  26.662  27.433  1.00  0.00    -0.014 A 
ATOM     62  C   UNL A   1      43.409  27.160  26.556  1.00  0.00     0.009 A 
ATOM     63  C   UNL A   1      41.873  25.398  27.172  1.00  0.00     0.009 A 
ATOM     64  C   UNL A   1      43.775  26.431  25.420  1.00  0.00     0.001 A 
ATOM     65  C   UNL A   1      42.264  24.659  26.055  1.00  0.00     0.001 A 
ATOM     66  C   UNL A   1      43.206  25.182  25.172  1.00  0.00     0.000 A 
ENDBRANCH  47  61
BRANCH  48  67
ATOM     67  C   UNL A   1      39.282  31.711  35.334  1.00  0.00    -0.014 A 
ATOM     68  C   UNL A   1      38.363  31.118  36.213  1.00  0.00     0.009 A 
ATOM     69  C   UNL A   1      39.730  33.015  35.602  1.00  0.00     0.009 A 
ATOM     70  C   UNL A   1      37.902  31.819  37.331  1.00  0.00     0.001 A 
ATOM     71  C   UNL A   1      39.296  33.698  36.739  1.00  0.00     0.001 A 
ATOM     72  C   UNL A   1      38.376  33.103  37.599  1.00  0.00     0.000 A 
ENDBRANCH  48  67
BRANCH  60  73
ATOM     73  C   UNL A   1      44.515  27.241  34.321  1.00  0.00    -0.014 A 
ATOM     74  C   UNL A   1      44.318  26.054  35.044  1.00  0.00     0.009 A 
ATOM     75  C   UNL A   1      45.744  27.910  34.439  1.00  0.00     0.009 A 
ATOM     76  C   UNL A   1      45.319  25.566  35.888  1.00  0.00     0.001 A 
ATOM     77  C   UNL A   1      46.752  27.406  35.264  1.00  0.00     0.001 A 
ATOM     78  C   UNL A   1      46.536  26.239  35.995  1.00  0.00     0.000 A 
ENDBRANCH  60  73
ENDBRANCH  34  35
ENDBRANCH  27  29
ENDBRANCH  26  27
ENDBRANCH  25  26
ENDBRANCH  24  25
ENDBRANCH  23  24
ENDBRANCH   1  23
TORSDOF 17
ENDMDL
MODEL 2
REMARK VINA RESULT:     -11.2      3.939      8.931
REMARK SMILES Cc1ccc(N)c(SCCOc2ccccc2C(=O)OCCOC(=O)c2ccc(-c3c4nc(c(-c5ccccc5)c5ccc([nH]5)c(-c5ccccc5)c5nc(c(-c6ccccc6)c6ccc3[nH]6)C=C5)C=C4)cc2)c1
REMARK SMILES IDX 18 1 19 2 17 3 12 4 13 5 14 6 16 7 15 8 11 9 10 10 9 11 8 12
REMARK SMILES IDX 7 13 1 14 2 15 3 16 74 17 4 18 5 19 6 20 20 23 21 24 22 25
REMARK SMILES IDX 23 26 24 27 25 28 26 29 27 30 73 31 28 32 72 33 29 34 30 35
REMARK SMILES IDX 31 36 66 37 32 38 71 39 65 40 67 41 33 42 70 43 64 44 63 45
REMARK SMILES IDX 34 47 56 48 41 49 55 50 42 51 45 52 54 53 68 54 43 55 44 56
REMARK SMILES IDX 53 58 69 59 46 60 35 61 36 62 40 63 37 64 39 65 38 66 57 67
REMARK SMILES IDX 58 68 62 69 59 70 61 71 60 72 47 73 48 74 52 75 49 76 51 77
REMARK SMILES IDX 50 78
REMARK H PARENT 6 21 6 22 67 46 45 57
REMARK Flexibility Score: inf
ROOT
ATOM      1  C   UNL A   1      34.408  22.969  25.911  1.00  0.00     0.342 C 
ATOM      2  O   UNL A   1      35.189  22.943  26.834  1.00  0.00    -0.246 OA
ENDROOT
BRANCH   1   3
ATOM      3  C   UNL A   1      33.049  23.613  25.985  1.00  0.00     0.102 A 
ATOM      4  C   UNL A   1      33.031  24.977  26.061  1.00  0.00     0.133 A 
ATOM      5  C   UNL A   1      31.841  25.681  26.336  1.00  0.00     0.047 A 
ATOM      6  C   UNL A   1      30.611  25.064  26.106  1.00  0.00     0.004 A 
ATOM      7  C   UNL A   1      31.849  23.153  25.442  1.00  0.00     0.019 A 
ATOM      8  C   UNL A   1      30.630  23.831  25.502  1.00  0.00     0.001 A 
BRANCH   4   9
ATOM      9  O   UNL A   1      34.018  25.586  25.289  1.00  0.00    -0.492 OA
BRANCH   9  10
ATOM     10  C   UNL A   1      33.490  26.832  24.680  1.00  0.00     0.241 C 
BRANCH  10  11
ATOM     11  C   UNL A   1      32.855  26.803  23.223  1.00  0.00     0.116 C 
BRANCH  11  12
ATOM     12  S   UNL A   1      30.937  26.841  22.592  1.00  0.00    -0.120 SA
BRANCH  12  13
ATOM     13  C   UNL A   1      29.705  28.178  23.029  1.00  0.00     0.031 A 
ATOM     14  C   UNL A   1      28.859  31.790  22.192  1.00  0.00     0.044 C 
ATOM     15  C   UNL A   1      28.684  30.427  22.827  1.00  0.00    -0.050 A 
ATOM     16  C   UNL A   1      27.420  29.880  22.960  1.00  0.00     0.005 A 
ATOM     17  C   UNL A   1      29.803  29.590  23.057  1.00  0.00     0.020 A 
ATOM     18  C   UNL A   1      27.303  28.542  23.329  1.00  0.00     0.027 A 
ATOM     19  C   UNL A   1      28.427  27.695  23.396  1.00  0.00     0.045 A 
BRANCH  19  20
ATOM     20  N   UNL A   1      28.223  26.347  23.709  1.00  0.00    -0.398 N 
ATOM     21  H   UNL A   1      28.771  25.653  23.277  1.00  0.00     0.156 HD
ATOM     22  H   UNL A   1      27.531  26.093  24.362  1.00  0.00     0.156 HD
ENDBRANCH  19  20
ENDBRANCH  12  13
ENDBRANCH  11  12
ENDBRANCH  10  11
ENDBRANCH   9  10
ENDBRANCH   4   9
ENDBRANCH   1   3
BRANCH   1  23
ATOM     23  O   UNL A   1      34.678  22.256  24.787  1.00  0.00    -0.458 OA
BRANCH  23  24
ATOM     24  C   UNL A   1      34.777  20.818  25.048  1.00  0.00     0.275 C 
BRANCH  24  25
ATOM     25  C   UNL A   1      36.198  20.204  24.931  1.00  0.00     0.275 C 
BRANCH  25  26
ATOM     26  O   UNL A   1      37.262  21.187  24.798  1.00  0.00    -0.458 OA
BRANCH  26  27
ATOM     27  C   UNL A   1      38.406  20.915  25.489  1.00  0.00     0.338 C 
ATOM     28  O   UNL A   1      38.972  19.829  25.493  1.00  0.00    -0.246 OA
BRANCH  27  29
ATOM     29  C   UNL A   1      38.976  22.104  26.211  1.00  0.00     0.060 A 
ATOM     30  C   UNL A   1      38.474  23.389  26.048  1.00  0.00     0.016 A 
ATOM     31  C   UNL A   1      40.133  21.962  26.989  1.00  0.00     0.016 A 
ATOM     32  C   UNL A   1      39.201  24.512  26.495  1.00  0.00     0.010 A 
ATOM     33  C   UNL A   1      40.796  23.087  27.535  1.00  0.00     0.010 A 
ATOM     34  C   UNL A   1      40.384  24.400  27.243  1.00  0.00    -0.014 A 
BRANCH  34  35
ATOM     35  C   UNL A   1      41.209  25.605  27.658  1.00  0.00     0.031 A 
ATOM     36  C   UNL A   1      40.617  26.678  28.563  1.00  0.00     0.074 A 
ATOM     37  C   UNL A   1      42.498  25.788  27.285  1.00  0.00     0.049 A 
ATOM     38  N   UNL A   1      41.033  27.904  28.796  1.00  0.00    -0.248 NA
ATOM     39  C   UNL A   1      39.392  26.324  29.296  1.00  0.00     0.031 C 
ATOM     40  C   UNL A   1      43.312  24.857  26.505  1.00  0.00     0.029 A 
ATOM     41  N   UNL A   1      43.361  26.844  27.522  1.00  0.00    -0.354 N 
ATOM     42  C   UNL A   1      40.073  28.490  29.620  1.00  0.00     0.074 A 
ATOM     43  C   UNL A   1      39.063  27.479  29.858  1.00  0.00     0.031 C 
ATOM     44  C   UNL A   1      44.553  25.348  26.376  1.00  0.00     0.029 A 
ATOM     45  C   UNL A   1      44.599  26.693  26.941  1.00  0.00     0.049 A 
ATOM     46  H   UNL A   1      43.111  27.632  28.058  1.00  0.00     0.167 HD
ATOM     47  C   UNL A   1      40.022  29.749  30.128  1.00  0.00     0.031 A 
ATOM     48  C   UNL A   1      45.639  27.539  26.797  1.00  0.00     0.031 A 
ATOM     49  C   UNL A   1      41.053  30.747  29.977  1.00  0.00     0.049 A 
ATOM     50  C   UNL A   1      45.543  28.955  27.295  1.00  0.00     0.074 A 
ATOM     51  C   UNL A   1      41.077  32.045  30.466  1.00  0.00     0.029 A 
ATOM     52  N   UNL A   1      42.252  30.554  29.315  1.00  0.00    -0.354 N 
ATOM     53  N   UNL A   1      44.576  29.532  27.962  1.00  0.00    -0.248 NA
ATOM     54  C   UNL A   1      46.676  29.845  26.992  1.00  0.00     0.031 C 
ATOM     55  C   UNL A   1      42.270  32.652  30.056  1.00  0.00     0.029 A 
ATOM     56  C   UNL A   1      43.014  31.713  29.363  1.00  0.00     0.049 A 
ATOM     57  H   UNL A   1      42.526  29.717  28.873  1.00  0.00     0.167 HD
ATOM     58  C   UNL A   1      44.985  30.846  28.163  1.00  0.00     0.074 A 
ATOM     59  C   UNL A   1      46.299  30.976  27.572  1.00  0.00     0.031 C 
ATOM     60  C   UNL A   1      44.320  31.853  28.777  1.00  0.00     0.031 A 
BRANCH  47  61
ATOM     61  C   UNL A   1      38.763  30.160  30.850  1.00  0.00    -0.014 A 
ATOM     62  C   UNL A   1      38.560  29.900  32.212  1.00  0.00     0.009 A 
ATOM     63  C   UNL A   1      37.774  30.868  30.142  1.00  0.00     0.009 A 
ATOM     64  C   UNL A   1      37.374  30.298  32.838  1.00  0.00     0.001 A 
ATOM     65  C   UNL A   1      36.607  31.293  30.776  1.00  0.00     0.001 A 
ATOM     66  C   UNL A   1      36.401  30.996  32.122  1.00  0.00     0.000 A 
ENDBRANCH  47  61
BRANCH  48  67
ATOM     67  C   UNL A   1      46.851  27.103  26.043  1.00  0.00    -0.014 A 
ATOM     68  C   UNL A   1      47.876  26.386  26.679  1.00  0.00     0.009 A 
ATOM     69  C   UNL A   1      46.990  27.418  24.681  1.00  0.00     0.009 A 
ATOM     70  C   UNL A   1      49.015  26.001  25.966  1.00  0.00     0.001 A 
ATOM     71  C   UNL A   1      48.111  27.000  23.964  1.00  0.00     0.001 A 
ATOM     72  C   UNL A   1      49.127  26.299  24.608  1.00  0.00     0.000 A 
ENDBRANCH  48  67
BRANCH  60  73
ATOM     73  C   UNL A   1      45.016  33.183  28.881  1.00  0.00    -0.014 A 
ATOM     74  C   UNL A   1      45.861  33.484  29.961  1.00  0.00     0.009 A 
ATOM     75  C   UNL A   1      44.843  34.141  27.869  1.00  0.00     0.009 A 
ATOM     76  C   UNL A   1      46.492  34.729  30.040  1.00  0.00     0.001 A 
ATOM     77  C   UNL A   1      45.496  35.374  27.938  1.00  0.00     0.001 A 
ATOM     78  C   UNL A   1      46.313  35.671  29.028  1.00  0.00     0.000 A 
ENDBRANCH  60  73
ENDBRANCH  34  35
ENDBRANCH  27  29
ENDBRANCH  26  27
ENDBRANCH  25  26
ENDBRANCH  24  25
ENDBRANCH  23  24
ENDBRANCH   1  23
TORSDOF 17
ENDMDL
MODEL 3
REMARK VINA RESULT:     -11.2      2.843      7.381
REMARK SMILES Cc1ccc(N)c(SCCOc2ccccc2C(=O)OCCOC(=O)c2ccc(-c3c4nc(c(-c5ccccc5)c5ccc([nH]5)c(-c5ccccc5)c5nc(c(-c6ccccc6)c6ccc3[nH]6)C=C5)C=C4)cc2)c1
REMARK SMILES IDX 18 1 19 2 17 3 12 4 13 5 14 6 16 7 15 8 11 9 10 10 9 11 8 12
REMARK SMILES IDX 7 13 1 14 2 15 3 16 74 17 4 18 5 19 6 20 20 23 21 24 22 25
REMARK SMILES IDX 23 26 24 27 25 28 26 29 27 30 73 31 28 32 72 33 29 34 30 35
REMARK SMILES IDX 31 36 66 37 32 38 71 39 65 40 67 41 33 42 70 43 64 44 63 45
REMARK SMILES IDX 34 47 56 48 41 49 55 50 42 51 45 52 54 53 68 54 43 55 44 56
REMARK SMILES IDX 53 58 69 59 46 60 35 61 36 62 40 63 37 64 39 65 38 66 57 67
REMARK SMILES IDX 58 68 62 69 59 70 61 71 60 72 47 73 48 74 52 75 49 76 51 77
REMARK SMILES IDX 50 78
REMARK H PARENT 6 21 6 22 67 46 45 57
REMARK Flexibility Score: inf
ROOT
ATOM      1  C   UNL A   1      35.076  23.102  25.597  1.00  0.00     0.342 C 
ATOM      2  O   UNL A   1      34.752  24.266  25.655  1.00  0.00    -0.246 OA
ENDROOT
BRANCH   1   3
ATOM      3  C   UNL A   1      34.179  22.011  25.077  1.00  0.00     0.102 A 
ATOM      4  C   UNL A   1      33.596  22.237  23.862  1.00  0.00     0.133 A 
ATOM      5  C   UNL A   1      32.585  21.388  23.365  1.00  0.00     0.047 A 
ATOM      6  C   UNL A   1      32.467  20.093  23.870  1.00  0.00     0.004 A 
ATOM      7  C   UNL A   1      34.271  20.639  25.311  1.00  0.00     0.019 A 
ATOM      8  C   UNL A   1      33.433  19.673  24.750  1.00  0.00     0.001 A 
BRANCH   4   9
ATOM      9  O   UNL A   1      34.428  22.901  22.964  1.00  0.00    -0.492 OA
BRANCH   9  10
ATOM     10  C   UNL A   1      33.634  23.830  22.125  1.00  0.00     0.241 C 
BRANCH  10  11
ATOM     11  C   UNL A   1      33.203  25.252  22.692  1.00  0.00     0.116 C 
BRANCH  11  12
ATOM     12  S   UNL A   1      31.913  25.781  24.153  1.00  0.00    -0.120 SA
BRANCH  12  13
ATOM     13  C   UNL A   1      32.369  26.810  25.646  1.00  0.00     0.031 A 
ATOM     14  C   UNL A   1      34.561  29.756  26.632  1.00  0.00     0.044 C 
ATOM     15  C   UNL A   1      33.524  28.668  26.809  1.00  0.00    -0.050 A 
ATOM     16  C   UNL A   1      32.402  28.897  27.586  1.00  0.00     0.005 A 
ATOM     17  C   UNL A   1      33.549  27.510  25.995  1.00  0.00     0.020 A 
ATOM     18  C   UNL A   1      31.358  27.976  27.545  1.00  0.00     0.027 A 
ATOM     19  C   UNL A   1      31.341  26.921  26.611  1.00  0.00     0.045 A 
BRANCH  19  20
ATOM     20  N   UNL A   1      30.228  26.075  26.588  1.00  0.00    -0.398 N 
ATOM     21  H   UNL A   1      30.221  25.287  25.997  1.00  0.00     0.156 HD
ATOM     22  H   UNL A   1      29.451  26.267  27.162  1.00  0.00     0.156 HD
ENDBRANCH  19  20
ENDBRANCH  12  13
ENDBRANCH  11  12
ENDBRANCH  10  11
ENDBRANCH   9  10
ENDBRANCH   4   9
ENDBRANCH   1   3
BRANCH   1  23
ATOM     23  O   UNL A   1      36.245  22.705  26.163  1.00  0.00    -0.458 OA
BRANCH  23  24
ATOM     24  C   UNL A   1      37.366  22.750  25.221  1.00  0.00     0.275 C 
BRANCH  24  25
ATOM     25  C   UNL A   1      38.437  21.640  25.388  1.00  0.00     0.275 C 
BRANCH  25  26
ATOM     26  O   UNL A   1      39.309  21.822  26.538  1.00  0.00    -0.458 OA
BRANCH  26  27
ATOM     27  C   UNL A   1      40.389  22.631  26.336  1.00  0.00     0.338 C 
ATOM     28  O   UNL A   1      41.396  22.305  25.722  1.00  0.00    -0.246 OA
BRANCH  27  29
ATOM     29  C   UNL A   1      40.214  24.021  26.883  1.00  0.00     0.060 A 
ATOM     30  C   UNL A   1      40.943  25.106  26.411  1.00  0.00     0.016 A 
ATOM     31  C   UNL A   1      39.384  24.239  27.991  1.00  0.00     0.016 A 
ATOM     32  C   UNL A   1      40.980  26.320  27.130  1.00  0.00     0.010 A 
ATOM     33  C   UNL A   1      39.337  25.497  28.639  1.00  0.00     0.010 A 
ATOM     34  C   UNL A   1      40.188  26.553  28.266  1.00  0.00    -0.014 A 
BRANCH  34  35
ATOM     35  C   UNL A   1      40.283  27.828  29.084  1.00  0.00     0.031 A 
ATOM     36  C   UNL A   1      41.432  28.041  30.062  1.00  0.00     0.074 A 
ATOM     37  C   UNL A   1      39.393  28.844  28.983  1.00  0.00     0.049 A 
ATOM     38  N   UNL A   1      41.546  28.902  31.049  1.00  0.00    -0.248 NA
ATOM     39  C   UNL A   1      42.603  27.164  29.908  1.00  0.00     0.031 C 
ATOM     40  C   UNL A   1      38.268  28.918  28.053  1.00  0.00     0.029 A 
ATOM     41  N   UNL A   1      39.301  30.031  29.689  1.00  0.00    -0.354 N 
ATOM     42  C   UNL A   1      42.750  28.605  31.686  1.00  0.00     0.074 A 
ATOM     43  C   UNL A   1      43.335  27.495  30.963  1.00  0.00     0.031 C 
ATOM     44  C   UNL A   1      37.639  30.092  28.203  1.00  0.00     0.029 A 
ATOM     45  C   UNL A   1      38.222  30.808  29.333  1.00  0.00     0.049 A 
ATOM     46  H   UNL A   1      39.948  30.294  30.383  1.00  0.00     0.167 HD
ATOM     47  C   UNL A   1      43.318  29.186  32.774  1.00  0.00     0.031 A 
ATOM     48  C   UNL A   1      37.696  31.926  29.874  1.00  0.00     0.031 A 
ATOM     49  C   UNL A   1      42.800  30.344  33.462  1.00  0.00     0.049 A 
ATOM     50  C   UNL A   1      38.287  32.518  31.124  1.00  0.00     0.074 A 
ATOM     51  C   UNL A   1      43.322  30.996  34.571  1.00  0.00     0.029 A 
ATOM     52  N   UNL A   1      41.665  31.043  33.094  1.00  0.00    -0.354 N 
ATOM     53  N   UNL A   1      39.354  32.149  31.788  1.00  0.00    -0.248 NA
ATOM     54  C   UNL A   1      37.580  33.666  31.714  1.00  0.00     0.031 C 
ATOM     55  C   UNL A   1      42.473  32.057  34.902  1.00  0.00     0.029 A 
ATOM     56  C   UNL A   1      41.456  32.103  33.964  1.00  0.00     0.049 A 
ATOM     57  H   UNL A   1      41.088  30.820  32.328  1.00  0.00     0.167 HD
ATOM     58  C   UNL A   1      39.448  33.021  32.867  1.00  0.00     0.074 A 
ATOM     59  C   UNL A   1      38.349  33.955  32.756  1.00  0.00     0.031 C 
ATOM     60  C   UNL A   1      40.365  33.035  33.864  1.00  0.00     0.031 A 
BRANCH  47  61
ATOM     61  C   UNL A   1      44.550  28.534  33.351  1.00  0.00    -0.014 A 
ATOM     62  C   UNL A   1      44.479  27.511  34.308  1.00  0.00     0.009 A 
ATOM     63  C   UNL A   1      45.814  28.936  32.884  1.00  0.00     0.009 A 
ATOM     64  C   UNL A   1      45.650  26.939  34.816  1.00  0.00     0.001 A 
ATOM     65  C   UNL A   1      46.979  28.341  33.369  1.00  0.00     0.001 A 
ATOM     66  C   UNL A   1      46.897  27.351  34.346  1.00  0.00     0.000 A 
ENDBRANCH  47  61
BRANCH  48  67
ATOM     67  C   UNL A   1      36.454  32.517  29.294  1.00  0.00    -0.014 A 
ATOM     68  C   UNL A   1      36.521  33.578  28.378  1.00  0.00     0.009 A 
ATOM     69  C   UNL A   1      35.194  32.025  29.669  1.00  0.00     0.009 A 
ATOM     70  C   UNL A   1      35.350  34.136  27.857  1.00  0.00     0.001 A 
ATOM     71  C   UNL A   1      34.028  32.559  29.119  1.00  0.00     0.001 A 
ATOM     72  C   UNL A   1      34.106  33.620  28.220  1.00  0.00     0.000 A 
ENDBRANCH  48  67
BRANCH  60  73
ATOM     73  C   UNL A   1      40.247  34.119  34.901  1.00  0.00    -0.014 A 
ATOM     74  C   UNL A   1      40.851  35.374  34.719  1.00  0.00     0.009 A 
ATOM     75  C   UNL A   1      39.499  33.891  36.067  1.00  0.00     0.009 A 
ATOM     76  C   UNL A   1      40.734  36.364  35.698  1.00  0.00     0.001 A 
ATOM     77  C   UNL A   1      39.362  34.891  37.032  1.00  0.00     0.001 A 
ATOM     78  C   UNL A   1      39.988  36.124  36.851  1.00  0.00     0.000 A 
ENDBRANCH  60  73
ENDBRANCH  34  35
ENDBRANCH  27  29
ENDBRANCH  26  27
ENDBRANCH  25  26
ENDBRANCH  24  25
ENDBRANCH  23  24
ENDBRANCH   1  23
TORSDOF 17
ENDMDL
