MODEL 1
REMARK VINA RESULT:     -12.2      0.000      0.000
REMARK SMILES C[C@@H](C(=O)OCCOC(=O)c1ccc(-c2c3nc(c(-c4ccccc4)c4ccc([nH]4)c(-c4ccccc4)c4nc(c(-c5ccccc5)c5ccc2[nH]5)C=C4)C=C3)cc1)c1ccc2c3cc(Cl)ccc3n(C(=O)c3ccc(Cl)cc3)c2c1
REMARK SMILES IDX 6 1 5 2 3 3 4 4 2 5 1 6 59 7 60 8 81 9 61 10 80 11 62 12
REMARK SMILES IDX 70 13 63 14 69 15 64 16 68 17 65 18 67 19 66 20 71 21 72 22
REMARK SMILES IDX 73 23 74 24 79 25 75 26 78 27 76 28 77 29 7 30 8 31 9 32
REMARK SMILES IDX 10 33 11 34 12 35 58 36 13 37 57 38 14 39 15 40 16 41 51 42
REMARK SMILES IDX 17 43 56 44 50 45 52 46 18 47 55 48 49 49 48 50 19 52 41 53
REMARK SMILES IDX 26 54 40 55 27 56 30 57 39 58 53 59 28 60 29 61 38 63 54 64
REMARK SMILES IDX 31 65 20 66 21 67 25 68 22 69 24 70 23 71 42 72 43 73 47 74
REMARK SMILES IDX 44 75 46 76 45 77 32 78 33 79 37 80 34 81 36 82 35 83
REMARK H PARENT 52 51 30 62
REMARK Flexibility Score: inf
ROOT
ATOM      1  C   UNL A   1      34.701  34.240  29.332  1.00  0.00     0.274 C 
ENDROOT
BRANCH   1   2
ATOM      2  O   UNL A   1      34.752  32.803  29.317  1.00  0.00    -0.462 OA
BRANCH   2   3
ATOM      3  C   UNL A   1      35.341  32.241  28.226  1.00  0.00     0.313 C 
ATOM      4  O   UNL A   1      35.934  32.879  27.366  1.00  0.00    -0.252 OA
BRANCH   3   5
ATOM      5  C   UNL A   1      35.171  30.719  28.181  1.00  0.00     0.126 C 
ATOM      6  C   UNL A   1      36.420  29.942  27.752  1.00  0.00     0.025 C 
BRANCH   5   7
ATOM      7  C   UNL A   1      33.952  30.387  27.333  1.00  0.00    -0.032 A 
ATOM      8  C   UNL A   1      32.858  31.260  27.354  1.00  0.00     0.005 A 
ATOM      9  C   UNL A   1      33.961  29.298  26.446  1.00  0.00     0.032 A 
ATOM     10  C   UNL A   1      31.795  31.094  26.469  1.00  0.00     0.011 A 
ATOM     11  C   UNL A   1      32.866  29.110  25.585  1.00  0.00     0.057 A 
ATOM     12  C   UNL A   1      31.812  30.015  25.562  1.00  0.00     0.008 A 
ATOM     13  N   UNL A   1      32.645  28.122  24.617  1.00  0.00    -0.276 N 
ATOM     14  C   UNL A   1      30.935  29.616  24.525  1.00  0.00     0.009 A 
ATOM     15  C   UNL A   1      31.401  28.394  24.013  1.00  0.00     0.057 A 
ATOM     16  C   UNL A   1      29.759  30.210  24.014  1.00  0.00     0.031 A 
ATOM     17  C   UNL A   1      30.589  27.669  23.120  1.00  0.00     0.029 A 
ATOM     18  C   UNL A   1      29.021  29.540  23.048  1.00  0.00     0.041 A 
ATOM     19  C   UNL A   1      29.410  28.273  22.633  1.00  0.00     0.023 A 
ATOM     20  Cl  UNL A   1      27.608  30.282  22.402  1.00  0.00    -0.084 Cl
BRANCH  13  21
ATOM     21  C   UNL A   1      33.509  26.993  24.469  1.00  0.00     0.262 C 
ATOM     22  O   UNL A   1      34.286  27.044  23.513  1.00  0.00    -0.268 OA
BRANCH  21  23
ATOM     23  C   UNL A   1      33.540  25.721  25.259  1.00  0.00     0.040 A 
ATOM     24  C   UNL A   1      34.698  24.934  25.257  1.00  0.00     0.015 A 
ATOM     25  C   UNL A   1      32.407  25.183  25.866  1.00  0.00     0.015 A 
ATOM     26  C   UNL A   1      34.756  23.724  25.971  1.00  0.00     0.021 A 
ATOM     27  C   UNL A   1      32.473  24.015  26.650  1.00  0.00     0.021 A 
ATOM     28  C   UNL A   1      33.659  23.296  26.710  1.00  0.00     0.041 A 
ATOM     29  Cl  UNL A   1      33.758  21.873  27.670  1.00  0.00    -0.084 Cl
ENDBRANCH  21  23
ENDBRANCH  13  21
ENDBRANCH   5   7
ENDBRANCH   3   5
ENDBRANCH   2   3
ENDBRANCH   1   2
BRANCH   1  30
ATOM     30  C   UNL A   1      33.277  34.732  29.591  1.00  0.00     0.275 C 
BRANCH  30  31
ATOM     31  O   UNL A   1      33.255  35.875  30.477  1.00  0.00    -0.458 OA
BRANCH  31  32
ATOM     32  C   UNL A   1      32.884  35.637  31.743  1.00  0.00     0.338 C 
ATOM     33  O   UNL A   1      31.781  35.888  32.260  1.00  0.00    -0.246 OA
BRANCH  32  34
ATOM     34  C   UNL A   1      33.950  35.000  32.528  1.00  0.00     0.060 A 
ATOM     35  C   UNL A   1      35.190  35.626  32.582  1.00  0.00     0.016 A 
ATOM     36  C   UNL A   1      33.825  33.673  32.969  1.00  0.00     0.016 A 
ATOM     37  C   UNL A   1      36.315  34.894  32.977  1.00  0.00     0.010 A 
ATOM     38  C   UNL A   1      34.961  32.954  33.402  1.00  0.00     0.010 A 
ATOM     39  C   UNL A   1      36.235  33.540  33.363  1.00  0.00    -0.014 A 
BRANCH  39  40
ATOM     40  C   UNL A   1      37.493  32.787  33.692  1.00  0.00     0.031 A 
ATOM     41  C   UNL A   1      38.171  31.835  32.732  1.00  0.00     0.074 A 
ATOM     42  C   UNL A   1      38.172  33.092  34.806  1.00  0.00     0.049 A 
ATOM     43  N   UNL A   1      39.107  30.931  32.873  1.00  0.00    -0.248 NA
ATOM     44  C   UNL A   1      37.736  31.973  31.359  1.00  0.00     0.031 C 
ATOM     45  C   UNL A   1      37.768  34.082  35.798  1.00  0.00     0.029 A 
ATOM     46  N   UNL A   1      39.377  32.624  35.251  1.00  0.00    -0.354 N 
ATOM     47  C   UNL A   1      39.288  30.360  31.604  1.00  0.00     0.074 A 
ATOM     48  C   UNL A   1      38.356  31.000  30.714  1.00  0.00     0.031 C 
ATOM     49  C   UNL A   1      38.737  34.185  36.718  1.00  0.00     0.029 A 
ATOM     50  C   UNL A   1      39.770  33.195  36.428  1.00  0.00     0.049 A 
ATOM     51  H   UNL A   1      39.906  31.945  34.773  1.00  0.00     0.167 HD
ATOM     52  C   UNL A   1      40.207  29.458  31.182  1.00  0.00     0.031 A 
ATOM     53  C   UNL A   1      40.818  32.910  37.218  1.00  0.00     0.031 A 
ATOM     54  C   UNL A   1      41.274  28.981  32.010  1.00  0.00     0.049 A 
ATOM     55  C   UNL A   1      41.776  31.832  36.810  1.00  0.00     0.074 A 
ATOM     56  C   UNL A   1      42.228  28.017  31.743  1.00  0.00     0.029 A 
ATOM     57  N   UNL A   1      41.571  29.517  33.251  1.00  0.00    -0.354 N 
ATOM     58  N   UNL A   1      41.791  31.103  35.718  1.00  0.00    -0.248 NA
ATOM     59  C   UNL A   1      42.853  31.526  37.758  1.00  0.00     0.031 C 
ATOM     60  C   UNL A   1      43.111  27.976  32.830  1.00  0.00     0.029 A 
ATOM     61  C   UNL A   1      42.710  28.927  33.756  1.00  0.00     0.049 A 
ATOM     62  H   UNL A   1      41.046  30.215  33.705  1.00  0.00     0.167 HD
ATOM     63  C   UNL A   1      42.878  30.249  35.850  1.00  0.00     0.074 A 
ATOM     64  C   UNL A   1      43.510  30.570  37.115  1.00  0.00     0.031 C 
ATOM     65  C   UNL A   1      43.311  29.275  35.013  1.00  0.00     0.031 A 
BRANCH  52  66
ATOM     66  C   UNL A   1      40.107  28.934  29.772  1.00  0.00    -0.014 A 
ATOM     67  C   UNL A   1      40.784  29.542  28.701  1.00  0.00     0.009 A 
ATOM     68  C   UNL A   1      39.352  27.778  29.520  1.00  0.00     0.009 A 
ATOM     69  C   UNL A   1      40.675  29.023  27.406  1.00  0.00     0.001 A 
ATOM     70  C   UNL A   1      39.263  27.247  28.230  1.00  0.00     0.001 A 
ATOM     71  C   UNL A   1      39.918  27.875  27.171  1.00  0.00     0.000 A 
ENDBRANCH  52  66
BRANCH  53  72
ATOM     72  C   UNL A   1      40.924  33.621  38.513  1.00  0.00    -0.014 A 
ATOM     73  C   UNL A   1      41.605  34.839  38.614  1.00  0.00     0.009 A 
ATOM     74  C   UNL A   1      40.242  33.119  39.636  1.00  0.00     0.009 A 
ATOM     75  C   UNL A   1      41.597  35.545  39.818  1.00  0.00     0.001 A 
ATOM     76  C   UNL A   1      40.206  33.845  40.825  1.00  0.00     0.001 A 
ATOM     77  C   UNL A   1      40.887  35.054  40.916  1.00  0.00     0.000 A 
ENDBRANCH  53  72
BRANCH  65  78
ATOM     78  C   UNL A   1      44.516  28.497  35.438  1.00  0.00    -0.014 A 
ATOM     79  C   UNL A   1      44.370  27.302  36.155  1.00  0.00     0.009 A 
ATOM     80  C   UNL A   1      45.798  28.931  35.071  1.00  0.00     0.009 A 
ATOM     81  C   UNL A   1      45.494  26.563  36.522  1.00  0.00     0.001 A 
ATOM     82  C   UNL A   1      46.918  28.180  35.424  1.00  0.00     0.001 A 
ATOM     83  C   UNL A   1      46.766  27.001  36.153  1.00  0.00     0.000 A 
ENDBRANCH  65  78
ENDBRANCH  39  40
ENDBRANCH  32  34
ENDBRANCH  31  32
ENDBRANCH  30  31
ENDBRANCH   1  30
TORSDOF 14
ENDMDL
MODEL 2
REMARK VINA RESULT:     -12.1      7.037     12.100
REMARK SMILES C[C@@H](C(=O)OCCOC(=O)c1ccc(-c2c3nc(c(-c4ccccc4)c4ccc([nH]4)c(-c4ccccc4)c4nc(c(-c5ccccc5)c5ccc2[nH]5)C=C4)C=C3)cc1)c1ccc2c3cc(Cl)ccc3n(C(=O)c3ccc(Cl)cc3)c2c1
REMARK SMILES IDX 6 1 5 2 3 3 4 4 2 5 1 6 59 7 60 8 81 9 61 10 80 11 62 12
REMARK SMILES IDX 70 13 63 14 69 15 64 16 68 17 65 18 67 19 66 20 71 21 72 22
REMARK SMILES IDX 73 23 74 24 79 25 75 26 78 27 76 28 77 29 7 30 8 31 9 32
REMARK SMILES IDX 10 33 11 34 12 35 58 36 13 37 57 38 14 39 15 40 16 41 51 42
REMARK SMILES IDX 17 43 56 44 50 45 52 46 18 47 55 48 49 49 48 50 19 52 41 53
REMARK SMILES IDX 26 54 40 55 27 56 30 57 39 58 53 59 28 60 29 61 38 63 54 64
REMARK SMILES IDX 31 65 20 66 21 67 25 68 22 69 24 70 23 71 42 72 43 73 47 74
REMARK SMILES IDX 44 75 46 76 45 77 32 78 33 79 37 80 34 81 36 82 35 83
REMARK H PARENT 52 51 30 62
REMARK Flexibility Score: inf
ROOT
ATOM      1  C   UNL A   1      42.384  20.203  26.709  1.00  0.00     0.274 C 
ENDROOT
BRANCH   1   2
ATOM      2  O   UNL A   1      41.695  21.375  26.243  1.00  0.00    -0.462 OA
BRANCH   2   3
ATOM      3  C   UNL A   1      40.673  21.814  27.027  1.00  0.00     0.313 C 
ATOM      4  O   UNL A   1      40.526  21.495  28.200  1.00  0.00    -0.252 OA
BRANCH   3   5
ATOM      5  C   UNL A   1      39.712  22.744  26.279  1.00  0.00     0.126 C 
ATOM      6  C   UNL A   1      39.259  23.976  27.070  1.00  0.00     0.025 C 
BRANCH   5   7
ATOM      7  C   UNL A   1      38.545  21.922  25.752  1.00  0.00    -0.032 A 
ATOM      8  C   UNL A   1      38.800  20.650  25.226  1.00  0.00     0.005 A 
ATOM      9  C   UNL A   1      37.220  22.365  25.899  1.00  0.00     0.032 A 
ATOM     10  C   UNL A   1      37.753  19.793  24.892  1.00  0.00     0.011 A 
ATOM     11  C   UNL A   1      36.170  21.513  25.520  1.00  0.00     0.057 A 
ATOM     12  C   UNL A   1      36.423  20.226  25.060  1.00  0.00     0.008 A 
ATOM     13  N   UNL A   1      34.785  21.715  25.578  1.00  0.00    -0.276 N 
ATOM     14  C   UNL A   1      35.173  19.590  24.873  1.00  0.00     0.009 A 
ATOM     15  C   UNL A   1      34.167  20.544  25.097  1.00  0.00     0.057 A 
ATOM     16  C   UNL A   1      34.842  18.268  24.498  1.00  0.00     0.031 A 
ATOM     17  C   UNL A   1      32.836  20.229  24.764  1.00  0.00     0.029 A 
ATOM     18  C   UNL A   1      33.514  17.933  24.281  1.00  0.00     0.041 A 
ATOM     19  C   UNL A   1      32.528  18.907  24.376  1.00  0.00     0.023 A 
ATOM     20  Cl  UNL A   1      33.111  16.313  23.859  1.00  0.00    -0.084 Cl
BRANCH  13  21
ATOM     21  C   UNL A   1      34.213  22.980  25.919  1.00  0.00     0.262 C 
ATOM     22  O   UNL A   1      33.780  23.071  27.070  1.00  0.00    -0.268 OA
BRANCH  21  23
ATOM     23  C   UNL A   1      33.987  24.177  25.048  1.00  0.00     0.040 A 
ATOM     24  C   UNL A   1      33.851  24.010  23.664  1.00  0.00     0.015 A 
ATOM     25  C   UNL A   1      34.076  25.484  25.524  1.00  0.00     0.015 A 
ATOM     26  C   UNL A   1      33.656  25.113  22.813  1.00  0.00     0.021 A 
ATOM     27  C   UNL A   1      33.804  26.591  24.698  1.00  0.00     0.021 A 
ATOM     28  C   UNL A   1      33.580  26.397  23.342  1.00  0.00     0.041 A 
ATOM     29  Cl  UNL A   1      33.238  27.738  22.322  1.00  0.00    -0.084 Cl
ENDBRANCH  21  23
ENDBRANCH  13  21
ENDBRANCH   5   7
ENDBRANCH   3   5
ENDBRANCH   2   3
ENDBRANCH   1   2
BRANCH   1  30
ATOM     30  C   UNL A   1      42.582  19.199  25.573  1.00  0.00     0.275 C 
BRANCH  30  31
ATOM     31  O   UNL A   1      43.982  18.920  25.340  1.00  0.00    -0.458 OA
BRANCH  31  32
ATOM     32  C   UNL A   1      44.507  19.422  24.212  1.00  0.00     0.338 C 
ATOM     33  O   UNL A   1      44.555  18.871  23.098  1.00  0.00    -0.246 OA
BRANCH  32  34
ATOM     34  C   UNL A   1      45.051  20.773  24.401  1.00  0.00     0.060 A 
ATOM     35  C   UNL A   1      45.748  21.043  25.573  1.00  0.00     0.016 A 
ATOM     36  C   UNL A   1      44.642  21.836  23.580  1.00  0.00     0.016 A 
ATOM     37  C   UNL A   1      45.943  22.370  25.970  1.00  0.00     0.010 A 
ATOM     38  C   UNL A   1      44.877  23.172  23.971  1.00  0.00     0.010 A 
ATOM     39  C   UNL A   1      45.488  23.460  25.200  1.00  0.00    -0.014 A 
BRANCH  39  40
ATOM     40  C   UNL A   1      45.652  24.859  25.725  1.00  0.00     0.031 A 
ATOM     41  C   UNL A   1      46.938  25.647  25.612  1.00  0.00     0.074 A 
ATOM     42  C   UNL A   1      44.575  25.534  26.148  1.00  0.00     0.049 A 
ATOM     43  N   UNL A   1      47.369  26.749  26.174  1.00  0.00    -0.248 NA
ATOM     44  C   UNL A   1      47.878  25.109  24.655  1.00  0.00     0.031 C 
ATOM     45  C   UNL A   1      43.215  25.008  26.205  1.00  0.00     0.029 A 
ATOM     46  N   UNL A   1      44.464  26.832  26.561  1.00  0.00    -0.354 N 
ATOM     47  C   UNL A   1      48.662  26.957  25.673  1.00  0.00     0.074 A 
ATOM     48  C   UNL A   1      48.955  25.865  24.783  1.00  0.00     0.031 C 
ATOM     49  C   UNL A   1      42.392  25.994  26.585  1.00  0.00     0.029 A 
ATOM     50  C   UNL A   1      43.185  27.180  26.893  1.00  0.00     0.049 A 
ATOM     51  H   UNL A   1      45.227  27.453  26.614  1.00  0.00     0.167 HD
ATOM     52  C   UNL A   1      49.503  28.006  25.850  1.00  0.00     0.031 A 
ATOM     53  C   UNL A   1      42.713  28.311  27.442  1.00  0.00     0.031 A 
ATOM     54  C   UNL A   1      49.132  29.196  26.557  1.00  0.00     0.049 A 
ATOM     55  C   UNL A   1      43.659  29.433  27.746  1.00  0.00     0.074 A 
ATOM     56  C   UNL A   1      49.898  30.301  26.877  1.00  0.00     0.029 A 
ATOM     57  N   UNL A   1      47.840  29.460  26.976  1.00  0.00    -0.354 N 
ATOM     58  N   UNL A   1      44.947  29.522  27.508  1.00  0.00    -0.248 NA
ATOM     59  C   UNL A   1      43.084  30.607  28.412  1.00  0.00     0.031 C 
ATOM     60  C   UNL A   1      49.059  31.241  27.489  1.00  0.00     0.029 A 
ATOM     61  C   UNL A   1      47.774  30.721  27.527  1.00  0.00     0.049 A 
ATOM     62  H   UNL A   1      47.080  28.839  26.891  1.00  0.00     0.167 HD
ATOM     63  C   UNL A   1      45.337  30.760  28.000  1.00  0.00     0.074 A 
ATOM     64  C   UNL A   1      44.144  31.396  28.524  1.00  0.00     0.031 C 
ATOM     65  C   UNL A   1      46.571  31.320  28.033  1.00  0.00     0.031 A 
BRANCH  52  66
ATOM     66  C   UNL A   1      50.892  27.922  25.271  1.00  0.00    -0.014 A 
ATOM     67  C   UNL A   1      51.197  28.415  23.991  1.00  0.00     0.009 A 
ATOM     68  C   UNL A   1      51.927  27.375  26.046  1.00  0.00     0.009 A 
ATOM     69  C   UNL A   1      52.501  28.328  23.489  1.00  0.00     0.001 A 
ATOM     70  C   UNL A   1      53.234  27.311  25.552  1.00  0.00     0.001 A 
ATOM     71  C   UNL A   1      53.518  27.778  24.270  1.00  0.00     0.000 A 
ENDBRANCH  52  66
BRANCH  53  72
ATOM     72  C   UNL A   1      41.279  28.358  27.809  1.00  0.00    -0.014 A 
ATOM     73  C   UNL A   1      40.346  29.008  26.995  1.00  0.00     0.009 A 
ATOM     74  C   UNL A   1      40.830  27.648  28.938  1.00  0.00     0.009 A 
ATOM     75  C   UNL A   1      38.986  28.944  27.302  1.00  0.00     0.001 A 
ATOM     76  C   UNL A   1      39.469  27.557  29.221  1.00  0.00     0.001 A 
ATOM     77  C   UNL A   1      38.549  28.208  28.405  1.00  0.00     0.000 A 
ENDBRANCH  53  72
BRANCH  65  78
ATOM     78  C   UNL A   1      46.686  32.679  28.650  1.00  0.00    -0.014 A 
ATOM     79  C   UNL A   1      46.490  33.828  27.873  1.00  0.00     0.009 A 
ATOM     80  C   UNL A   1      46.938  32.807  30.024  1.00  0.00     0.009 A 
ATOM     81  C   UNL A   1      46.567  35.091  28.459  1.00  0.00     0.001 A 
ATOM     82  C   UNL A   1      46.996  34.071  30.609  1.00  0.00     0.001 A 
ATOM     83  C   UNL A   1      46.817  35.211  29.826  1.00  0.00     0.000 A 
ENDBRANCH  65  78
ENDBRANCH  39  40
ENDBRANCH  32  34
ENDBRANCH  31  32
ENDBRANCH  30  31
ENDBRANCH   1  30
TORSDOF 14
ENDMDL
MODEL 3
REMARK VINA RESULT:     -12.1      5.067     10.458
REMARK SMILES C[C@@H](C(=O)OCCOC(=O)c1ccc(-c2c3nc(c(-c4ccccc4)c4ccc([nH]4)c(-c4ccccc4)c4nc(c(-c5ccccc5)c5ccc2[nH]5)C=C4)C=C3)cc1)c1ccc2c3cc(Cl)ccc3n(C(=O)c3ccc(Cl)cc3)c2c1
REMARK SMILES IDX 6 1 5 2 3 3 4 4 2 5 1 6 59 7 60 8 81 9 61 10 80 11 62 12
REMARK SMILES IDX 70 13 63 14 69 15 64 16 68 17 65 18 67 19 66 20 71 21 72 22
REMARK SMILES IDX 73 23 74 24 79 25 75 26 78 27 76 28 77 29 7 30 8 31 9 32
REMARK SMILES IDX 10 33 11 34 12 35 58 36 13 37 57 38 14 39 15 40 16 41 51 42
REMARK SMILES IDX 17 43 56 44 50 45 52 46 18 47 55 48 49 49 48 50 19 52 41 53
REMARK SMILES IDX 26 54 40 55 27 56 30 57 39 58 53 59 28 60 29 61 38 63 54 64
REMARK SMILES IDX 31 65 20 66 21 67 25 68 22 69 24 70 23 71 42 72 43 73 47 74
REMARK SMILES IDX 44 75 46 76 45 77 32 78 33 79 37 80 34 81 36 82 35 83
REMARK H PARENT 52 51 30 62
REMARK Flexibility Score: inf
ROOT
ATOM      1  C   UNL A   1      34.807  20.879  25.405  1.00  0.00     0.274 C 
ENDROOT
BRANCH   1   2
ATOM      2  O   UNL A   1      33.851  20.834  24.332  1.00  0.00    -0.462 OA
BRANCH   2   3
ATOM      3  C   UNL A   1      32.731  21.588  24.503  1.00  0.00     0.313 C 
ATOM      4  O   UNL A   1      31.861  21.342  25.328  1.00  0.00    -0.252 OA
BRANCH   3   5
ATOM      5  C   UNL A   1      32.666  22.777  23.538  1.00  0.00     0.126 C 
ATOM      6  C   UNL A   1      33.638  22.702  22.356  1.00  0.00     0.025 C 
BRANCH   5   7
ATOM      7  C   UNL A   1      32.810  24.065  24.336  1.00  0.00    -0.032 A 
ATOM      8  C   UNL A   1      33.942  24.236  25.142  1.00  0.00     0.005 A 
ATOM      9  C   UNL A   1      31.897  25.121  24.180  1.00  0.00     0.032 A 
ATOM     10  C   UNL A   1      34.204  25.460  25.753  1.00  0.00     0.011 A 
ATOM     11  C   UNL A   1      32.144  26.339  24.834  1.00  0.00     0.057 A 
ATOM     12  C   UNL A   1      33.302  26.528  25.580  1.00  0.00     0.008 A 
ATOM     13  N   UNL A   1      31.403  27.527  24.828  1.00  0.00    -0.276 N 
ATOM     14  C   UNL A   1      33.312  27.876  26.010  1.00  0.00     0.009 A 
ATOM     15  C   UNL A   1      32.092  28.459  25.629  1.00  0.00     0.057 A 
ATOM     16  C   UNL A   1      34.276  28.623  26.724  1.00  0.00     0.031 A 
ATOM     17  C   UNL A   1      31.755  29.733  26.126  1.00  0.00     0.029 A 
ATOM     18  C   UNL A   1      33.980  29.921  27.114  1.00  0.00     0.041 A 
ATOM     19  C   UNL A   1      32.726  30.456  26.851  1.00  0.00     0.023 A 
ATOM     20  Cl  UNL A   1      35.170  30.841  27.954  1.00  0.00    -0.084 Cl
BRANCH  13  21
ATOM     21  C   UNL A   1      30.110  27.616  24.226  1.00  0.00     0.262 C 
ATOM     22  O   UNL A   1      29.356  26.666  24.450  1.00  0.00    -0.268 OA
BRANCH  21  23
ATOM     23  C   UNL A   1      29.575  28.657  23.291  1.00  0.00     0.040 A 
ATOM     24  C   UNL A   1      28.191  28.789  23.121  1.00  0.00     0.015 A 
ATOM     25  C   UNL A   1      30.393  29.398  22.440  1.00  0.00     0.015 A 
ATOM     26  C   UNL A   1      27.654  29.742  22.237  1.00  0.00     0.021 A 
ATOM     27  C   UNL A   1      29.872  30.410  21.611  1.00  0.00     0.021 A 
ATOM     28  C   UNL A   1      28.498  30.586  21.525  1.00  0.00     0.041 A 
ATOM     29  Cl  UNL A   1      27.848  31.824  20.524  1.00  0.00    -0.084 Cl
ENDBRANCH  21  23
ENDBRANCH  13  21
ENDBRANCH   5   7
ENDBRANCH   3   5
ENDBRANCH   2   3
ENDBRANCH   1   2
BRANCH   1  30
ATOM     30  C   UNL A   1      36.137  20.257  24.977  1.00  0.00     0.275 C 
BRANCH  30  31
ATOM     31  O   UNL A   1      37.172  21.256  24.826  1.00  0.00    -0.458 OA
BRANCH  31  32
ATOM     32  C   UNL A   1      38.349  20.983  25.408  1.00  0.00     0.338 C 
ATOM     33  O   UNL A   1      38.969  19.905  25.376  1.00  0.00    -0.246 OA
BRANCH  32  34
ATOM     34  C   UNL A   1      38.898  22.139  26.129  1.00  0.00     0.060 A 
ATOM     35  C   UNL A   1      38.303  23.380  25.931  1.00  0.00     0.016 A 
ATOM     36  C   UNL A   1      40.147  22.065  26.766  1.00  0.00     0.016 A 
ATOM     37  C   UNL A   1      39.002  24.542  26.274  1.00  0.00     0.010 A 
ATOM     38  C   UNL A   1      40.827  23.243  27.143  1.00  0.00     0.010 A 
ATOM     39  C   UNL A   1      40.286  24.505  26.856  1.00  0.00    -0.014 A 
BRANCH  39  40
ATOM     40  C   UNL A   1      41.019  25.790  27.120  1.00  0.00     0.031 A 
ATOM     41  C   UNL A   1      40.539  26.838  28.099  1.00  0.00     0.074 A 
ATOM     42  C   UNL A   1      42.251  25.960  26.623  1.00  0.00     0.049 A 
ATOM     43  N   UNL A   1      40.875  28.084  28.318  1.00  0.00    -0.248 NA
ATOM     44  C   UNL A   1      39.531  26.366  29.023  1.00  0.00     0.031 C 
ATOM     45  C   UNL A   1      42.958  25.009  25.771  1.00  0.00     0.029 A 
ATOM     46  N   UNL A   1      43.138  26.982  26.816  1.00  0.00    -0.354 N 
ATOM     47  C   UNL A   1      40.044  28.532  29.355  1.00  0.00     0.074 A 
ATOM     48  C   UNL A   1      39.177  27.439  29.708  1.00  0.00     0.031 C 
ATOM     49  C   UNL A   1      44.196  25.471  25.551  1.00  0.00     0.029 A 
ATOM     50  C   UNL A   1      44.322  26.791  26.162  1.00  0.00     0.049 A 
ATOM     51  H   UNL A   1      42.943  27.773  27.368  1.00  0.00     0.167 HD
ATOM     52  C   UNL A   1      40.055  29.708  30.029  1.00  0.00     0.031 A 
ATOM     53  C   UNL A   1      45.372  27.617  26.020  1.00  0.00     0.031 A 
ATOM     54  C   UNL A   1      41.054  30.715  29.832  1.00  0.00     0.049 A 
ATOM     55  C   UNL A   1      45.341  28.967  26.671  1.00  0.00     0.074 A 
ATOM     56  C   UNL A   1      41.150  31.978  30.385  1.00  0.00     0.029 A 
ATOM     57  N   UNL A   1      42.191  30.518  29.066  1.00  0.00    -0.354 N 
ATOM     58  N   UNL A   1      44.422  29.495  27.444  1.00  0.00    -0.248 NA
ATOM     59  C   UNL A   1      46.490  29.841  26.411  1.00  0.00     0.031 C 
ATOM     60  C   UNL A   1      42.357  32.545  29.955  1.00  0.00     0.029 A 
ATOM     61  C   UNL A   1      43.011  31.622  29.153  1.00  0.00     0.049 A 
ATOM     62  H   UNL A   1      42.384  29.709  28.540  1.00  0.00     0.167 HD
ATOM     63  C   UNL A   1      44.881  30.767  27.761  1.00  0.00     0.074 A 
ATOM     64  C   UNL A   1      46.171  30.917  27.117  1.00  0.00     0.031 C 
ATOM     65  C   UNL A   1      44.287  31.733  28.503  1.00  0.00     0.031 A 
BRANCH  52  66
ATOM     66  C   UNL A   1      38.968  29.969  31.042  1.00  0.00    -0.014 A 
ATOM     67  C   UNL A   1      39.163  29.756  32.416  1.00  0.00     0.009 A 
ATOM     68  C   UNL A   1      37.735  30.482  30.609  1.00  0.00     0.009 A 
ATOM     69  C   UNL A   1      38.134  30.017  33.329  1.00  0.00     0.001 A 
ATOM     70  C   UNL A   1      36.716  30.765  31.524  1.00  0.00     0.001 A 
ATOM     71  C   UNL A   1      36.913  30.523  32.882  1.00  0.00     0.000 A 
ENDBRANCH  52  66
BRANCH  53  72
ATOM     72  C   UNL A   1      46.482  27.183  25.141  1.00  0.00    -0.014 A 
ATOM     73  C   UNL A   1      46.712  27.803  23.908  1.00  0.00     0.009 A 
ATOM     74  C   UNL A   1      47.385  26.205  25.598  1.00  0.00     0.009 A 
ATOM     75  C   UNL A   1      47.830  27.453  23.149  1.00  0.00     0.001 A 
ATOM     76  C   UNL A   1      48.518  25.885  24.854  1.00  0.00     0.001 A 
ATOM     77  C   UNL A   1      48.738  26.506  23.628  1.00  0.00     0.000 A 
ENDBRANCH  53  72
BRANCH  65  78
ATOM     78  C   UNL A   1      45.026  33.026  28.655  1.00  0.00    -0.014 A 
ATOM     79  C   UNL A   1      44.726  34.115  27.825  1.00  0.00     0.009 A 
ATOM     80  C   UNL A   1      45.985  33.171  29.668  1.00  0.00     0.009 A 
ATOM     81  C   UNL A   1      45.395  35.327  27.991  1.00  0.00     0.001 A 
ATOM     82  C   UNL A   1      46.638  34.391  29.843  1.00  0.00     0.001 A 
ATOM     83  C   UNL A   1      46.347  35.464  29.001  1.00  0.00     0.000 A 
ENDBRANCH  65  78
ENDBRANCH  39  40
ENDBRANCH  32  34
ENDBRANCH  31  32
ENDBRANCH  30  31
ENDBRANCH   1  30
TORSDOF 14
ENDMDL
