MODEL 1
REMARK VINA RESULT:     -10.1      0.000      0.000
REMARK SMILES C=C[C@@H](C)Oc1cnc2ccccc2c1C(=O)OCCOC(=O)c1ccc(-c2c3nc(c(-c4ccccc4)c4ccc([nH]4)c(-c4ccccc4)c4nc(c(-c5ccccc5)c5ccc2[nH]5)C=C4)C=C3)cc1
REMARK SMILES IDX 19 1 18 2 16 3 17 4 15 5 6 6 7 7 8 8 14 9 9 10 13 11 10 12
REMARK SMILES IDX 12 13 11 14 5 15 3 16 4 17 2 18 1 19 20 20 21 21 22 22 23 23
REMARK SMILES IDX 24 24 25 25 71 26 26 27 70 28 27 29 28 30 29 31 64 32 30 33
REMARK SMILES IDX 69 34 63 35 65 36 31 37 68 38 62 39 61 40 32 42 54 43 39 44
REMARK SMILES IDX 53 45 40 46 43 47 52 48 66 49 41 50 42 51 51 53 67 54 44 55
REMARK SMILES IDX 33 56 34 57 38 58 35 59 37 60 36 61 55 62 56 63 60 64 57 65
REMARK SMILES IDX 59 66 58 67 45 68 46 69 50 70 47 71 49 72 48 73
REMARK H PARENT 65 41 43 52
REMARK Flexibility Score: inf
ROOT
ATOM      1  C   UNL A   1      33.049  29.734  25.911  1.00  0.00     0.275 C 
ENDROOT
BRANCH   1   2
ATOM      2  O   UNL A   1      33.521  28.377  25.755  1.00  0.00    -0.458 OA
BRANCH   2   3
ATOM      3  C   UNL A   1      32.576  27.433  25.510  1.00  0.00     0.342 C 
ATOM      4  O   UNL A   1      31.592  27.187  26.186  1.00  0.00    -0.246 OA
BRANCH   3   5
ATOM      5  C   UNL A   1      32.942  26.679  24.293  1.00  0.00     0.113 A 
ATOM      6  C   UNL A   1      32.459  27.121  23.055  1.00  0.00     0.153 A 
ATOM      7  C   UNL A   1      32.868  26.404  21.950  1.00  0.00     0.159 A 
ATOM      8  N   UNL A   1      33.612  25.277  21.999  1.00  0.00    -0.252 NA
ATOM      9  C   UNL A   1      33.729  25.496  24.399  1.00  0.00     0.018 A 
ATOM     10  C   UNL A   1      34.025  24.833  23.193  1.00  0.00     0.071 A 
ATOM     11  C   UNL A   1      34.220  24.936  25.609  1.00  0.00     0.011 A 
ATOM     12  C   UNL A   1      34.783  23.671  23.222  1.00  0.00     0.029 A 
ATOM     13  C   UNL A   1      34.987  23.771  25.613  1.00  0.00     0.001 A 
ATOM     14  C   UNL A   1      35.268  23.134  24.415  1.00  0.00     0.002 A 
BRANCH   6  15
ATOM     15  O   UNL A   1      31.778  28.298  22.965  1.00  0.00    -0.484 OA
BRANCH  15  16
ATOM     16  C   UNL A   1      30.388  28.321  22.577  1.00  0.00     0.192 C 
ATOM     17  C   UNL A   1      29.956  29.661  21.989  1.00  0.00     0.057 C 
BRANCH  16  18
ATOM     18  C   UNL A   1      29.449  27.822  23.650  1.00  0.00     0.009 C 
ATOM     19  C   UNL A   1      29.017  26.559  23.778  1.00  0.00     0.008 C 
ENDBRANCH  16  18
ENDBRANCH  15  16
ENDBRANCH   6  15
ENDBRANCH   3   5
ENDBRANCH   2   3
ENDBRANCH   1   2
BRANCH   1  20
ATOM     20  C   UNL A   1      33.330  30.211  27.334  1.00  0.00     0.275 C 
BRANCH  20  21
ATOM     21  O   UNL A   1      34.639  29.736  27.688  1.00  0.00    -0.458 OA
BRANCH  21  22
ATOM     22  C   UNL A   1      35.351  30.496  28.543  1.00  0.00     0.338 C 
ATOM     23  O   UNL A   1      34.967  31.413  29.251  1.00  0.00    -0.246 OA
BRANCH  22  24
ATOM     24  C   UNL A   1      36.698  29.919  28.573  1.00  0.00     0.060 A 
ATOM     25  C   UNL A   1      37.443  29.967  27.396  1.00  0.00     0.016 A 
ATOM     26  C   UNL A   1      37.236  29.367  29.736  1.00  0.00     0.016 A 
ATOM     27  C   UNL A   1      38.746  29.485  27.384  1.00  0.00     0.010 A 
ATOM     28  C   UNL A   1      38.558  28.900  29.723  1.00  0.00     0.010 A 
ATOM     29  C   UNL A   1      39.325  28.970  28.548  1.00  0.00    -0.014 A 
BRANCH  29  30
ATOM     30  C   UNL A   1      40.726  28.484  28.504  1.00  0.00     0.031 A 
ATOM     31  C   UNL A   1      41.850  29.419  28.830  1.00  0.00     0.074 A 
ATOM     32  C   UNL A   1      40.990  27.188  28.251  1.00  0.00     0.049 A 
ATOM     33  N   UNL A   1      43.140  29.211  28.759  1.00  0.00    -0.248 NA
ATOM     34  C   UNL A   1      41.475  30.754  29.321  1.00  0.00     0.031 C 
ATOM     35  C   UNL A   1      39.989  26.141  28.041  1.00  0.00     0.029 A 
ATOM     36  N   UNL A   1      42.191  26.529  28.140  1.00  0.00    -0.354 N 
ATOM     37  C   UNL A   1      43.733  30.395  29.175  1.00  0.00     0.074 A 
ATOM     38  C   UNL A   1      42.664  31.313  29.506  1.00  0.00     0.031 C 
ATOM     39  C   UNL A   1      40.617  24.972  27.832  1.00  0.00     0.029 A 
ATOM     40  C   UNL A   1      42.061  25.197  27.828  1.00  0.00     0.049 A 
ATOM     41  H   UNL A   1      43.061  26.969  28.274  1.00  0.00     0.167 HD
ATOM     42  C   UNL A   1      45.051  30.694  29.259  1.00  0.00     0.031 A 
ATOM     43  C   UNL A   1      42.996  24.276  27.524  1.00  0.00     0.031 A 
ATOM     44  C   UNL A   1      46.118  29.792  28.923  1.00  0.00     0.049 A 
ATOM     45  C   UNL A   1      44.445  24.679  27.479  1.00  0.00     0.074 A 
ATOM     46  C   UNL A   1      47.482  30.025  28.948  1.00  0.00     0.029 A 
ATOM     47  N   UNL A   1      45.943  28.487  28.497  1.00  0.00    -0.354 N 
ATOM     48  N   UNL A   1      44.997  25.819  27.817  1.00  0.00    -0.248 NA
ATOM     49  C   UNL A   1      45.398  23.676  26.979  1.00  0.00     0.031 C 
ATOM     50  C   UNL A   1      48.131  28.875  28.485  1.00  0.00     0.029 A 
ATOM     51  C   UNL A   1      47.171  27.914  28.215  1.00  0.00     0.049 A 
ATOM     52  H   UNL A   1      45.073  28.034  28.406  1.00  0.00     0.167 HD
ATOM     53  C   UNL A   1      46.356  25.670  27.568  1.00  0.00     0.074 A 
ATOM     54  C   UNL A   1      46.551  24.322  27.081  1.00  0.00     0.031 C 
ATOM     55  C   UNL A   1      47.351  26.577  27.717  1.00  0.00     0.031 A 
BRANCH  42  56
ATOM     56  C   UNL A   1      45.411  32.089  29.670  1.00  0.00    -0.014 A 
ATOM     57  C   UNL A   1      45.573  33.111  28.724  1.00  0.00     0.009 A 
ATOM     58  C   UNL A   1      45.547  32.387  31.035  1.00  0.00     0.009 A 
ATOM     59  C   UNL A   1      45.883  34.407  29.139  1.00  0.00     0.001 A 
ATOM     60  C   UNL A   1      45.842  33.687  31.446  1.00  0.00     0.001 A 
ATOM     61  C   UNL A   1      46.014  34.695  30.498  1.00  0.00     0.000 A 
ENDBRANCH  42  56
BRANCH  43  62
ATOM     62  C   UNL A   1      42.597  22.897  27.133  1.00  0.00    -0.014 A 
ATOM     63  C   UNL A   1      42.232  21.953  28.103  1.00  0.00     0.009 A 
ATOM     64  C   UNL A   1      42.639  22.505  25.786  1.00  0.00     0.009 A 
ATOM     65  C   UNL A   1      41.939  20.637  27.733  1.00  0.00     0.001 A 
ATOM     66  C   UNL A   1      42.320  21.199  25.416  1.00  0.00     0.001 A 
ATOM     67  C   UNL A   1      41.980  20.263  26.389  1.00  0.00     0.000 A 
ENDBRANCH  43  62
BRANCH  55  68
ATOM     68  C   UNL A   1      48.739  26.143  27.343  1.00  0.00    -0.014 A 
ATOM     69  C   UNL A   1      49.227  26.348  26.043  1.00  0.00     0.009 A 
ATOM     70  C   UNL A   1      49.582  25.567  28.305  1.00  0.00     0.009 A 
ATOM     71  C   UNL A   1      50.527  25.963  25.707  1.00  0.00     0.001 A 
ATOM     72  C   UNL A   1      50.888  25.203  27.973  1.00  0.00     0.001 A 
ATOM     73  C   UNL A   1      51.357  25.396  26.674  1.00  0.00     0.000 A 
ENDBRANCH  55  68
ENDBRANCH  29  30
ENDBRANCH  22  24
ENDBRANCH  21  22
ENDBRANCH  20  21
ENDBRANCH   1  20
TORSDOF 14
ENDMDL
MODEL 2
REMARK VINA RESULT:     -10.1      4.558      8.375
REMARK SMILES C=C[C@@H](C)Oc1cnc2ccccc2c1C(=O)OCCOC(=O)c1ccc(-c2c3nc(c(-c4ccccc4)c4ccc([nH]4)c(-c4ccccc4)c4nc(c(-c5ccccc5)c5ccc2[nH]5)C=C4)C=C3)cc1
REMARK SMILES IDX 19 1 18 2 16 3 17 4 15 5 6 6 7 7 8 8 14 9 9 10 13 11 10 12
REMARK SMILES IDX 12 13 11 14 5 15 3 16 4 17 2 18 1 19 20 20 21 21 22 22 23 23
REMARK SMILES IDX 24 24 25 25 71 26 26 27 70 28 27 29 28 30 29 31 64 32 30 33
REMARK SMILES IDX 69 34 63 35 65 36 31 37 68 38 62 39 61 40 32 42 54 43 39 44
REMARK SMILES IDX 53 45 40 46 43 47 52 48 66 49 41 50 42 51 51 53 67 54 44 55
REMARK SMILES IDX 33 56 34 57 38 58 35 59 37 60 36 61 55 62 56 63 60 64 57 65
REMARK SMILES IDX 59 66 58 67 45 68 46 69 50 70 47 71 49 72 48 73
REMARK H PARENT 65 41 43 52
REMARK Flexibility Score: inf
ROOT
ATOM      1  C   UNL A   1      32.280  30.879  26.827  1.00  0.00     0.275 C 
ENDROOT
BRANCH   1   2
ATOM      2  O   UNL A   1      31.411  30.269  25.846  1.00  0.00    -0.458 OA
BRANCH   2   3
ATOM      3  C   UNL A   1      32.007  29.460  24.932  1.00  0.00     0.342 C 
ATOM      4  O   UNL A   1      33.113  29.597  24.441  1.00  0.00    -0.246 OA
BRANCH   3   5
ATOM      5  C   UNL A   1      31.073  28.376  24.558  1.00  0.00     0.113 A 
ATOM      6  C   UNL A   1      30.046  28.656  23.648  1.00  0.00     0.153 A 
ATOM      7  C   UNL A   1      29.231  27.597  23.305  1.00  0.00     0.159 A 
ATOM      8  N   UNL A   1      29.309  26.362  23.847  1.00  0.00    -0.252 NA
ATOM      9  C   UNL A   1      31.198  27.092  25.160  1.00  0.00     0.018 A 
ATOM     10  C   UNL A   1      30.263  26.119  24.755  1.00  0.00     0.071 A 
ATOM     11  C   UNL A   1      32.169  26.723  26.130  1.00  0.00     0.011 A 
ATOM     12  C   UNL A   1      30.321  24.847  25.305  1.00  0.00     0.029 A 
ATOM     13  C   UNL A   1      32.214  25.435  26.663  1.00  0.00     0.001 A 
ATOM     14  C   UNL A   1      31.284  24.494  26.250  1.00  0.00     0.002 A 
BRANCH   6  15
ATOM     15  O   UNL A   1      29.993  29.866  23.023  1.00  0.00    -0.484 OA
BRANCH  15  16
ATOM     16  C   UNL A   1      28.751  30.593  22.921  1.00  0.00     0.192 C 
ATOM     17  C   UNL A   1      28.224  30.673  21.491  1.00  0.00     0.057 C 
BRANCH  16  18
ATOM     18  C   UNL A   1      28.773  31.936  23.612  1.00  0.00     0.009 C 
ATOM     19  C   UNL A   1      28.862  33.125  22.999  1.00  0.00     0.008 C 
ENDBRANCH  16  18
ENDBRANCH  15  16
ENDBRANCH   6  15
ENDBRANCH   3   5
ENDBRANCH   2   3
ENDBRANCH   1   2
BRANCH   1  20
ATOM     20  C   UNL A   1      31.906  32.349  26.995  1.00  0.00     0.275 C 
BRANCH  20  21
ATOM     21  O   UNL A   1      33.134  33.088  27.104  1.00  0.00    -0.458 OA
BRANCH  21  22
ATOM     22  C   UNL A   1      33.234  33.955  28.131  1.00  0.00     0.338 C 
ATOM     23  O   UNL A   1      32.441  34.811  28.487  1.00  0.00    -0.246 OA
BRANCH  22  24
ATOM     24  C   UNL A   1      34.452  33.584  28.858  1.00  0.00     0.060 A 
ATOM     25  C   UNL A   1      34.361  32.531  29.766  1.00  0.00     0.016 A 
ATOM     26  C   UNL A   1      35.666  34.234  28.637  1.00  0.00     0.016 A 
ATOM     27  C   UNL A   1      35.498  32.101  30.441  1.00  0.00     0.010 A 
ATOM     28  C   UNL A   1      36.813  33.784  29.306  1.00  0.00     0.010 A 
ATOM     29  C   UNL A   1      36.737  32.705  30.202  1.00  0.00    -0.014 A 
BRANCH  29  30
ATOM     30  C   UNL A   1      37.933  32.207  30.924  1.00  0.00     0.031 A 
ATOM     31  C   UNL A   1      38.744  31.089  30.343  1.00  0.00     0.074 A 
ATOM     32  C   UNL A   1      38.343  32.805  32.059  1.00  0.00     0.049 A 
ATOM     33  N   UNL A   1      39.764  30.456  30.862  1.00  0.00    -0.248 NA
ATOM     34  C   UNL A   1      38.372  30.639  28.992  1.00  0.00     0.031 C 
ATOM     35  C   UNL A   1      37.724  33.982  32.670  1.00  0.00     0.029 A 
ATOM     36  N   UNL A   1      39.392  32.507  32.894  1.00  0.00    -0.354 N 
ATOM     37  C   UNL A   1      40.144  29.517  29.913  1.00  0.00     0.074 A 
ATOM     38  C   UNL A   1      39.253  29.671  28.782  1.00  0.00     0.031 C 
ATOM     39  C   UNL A   1      38.409  34.308  33.780  1.00  0.00     0.029 A 
ATOM     40  C   UNL A   1      39.470  33.327  33.993  1.00  0.00     0.049 A 
ATOM     41  H   UNL A   1      40.028  31.776  32.720  1.00  0.00     0.167 HD
ATOM     42  C   UNL A   1      41.138  28.601  29.983  1.00  0.00     0.031 A 
ATOM     43  C   UNL A   1      40.273  33.266  35.074  1.00  0.00     0.031 A 
ATOM     44  C   UNL A   1      42.021  28.436  31.105  1.00  0.00     0.049 A 
ATOM     45  C   UNL A   1      41.269  32.143  35.193  1.00  0.00     0.074 A 
ATOM     46  C   UNL A   1      43.036  27.509  31.274  1.00  0.00     0.029 A 
ATOM     47  N   UNL A   1      41.992  29.210  32.252  1.00  0.00    -0.354 N 
ATOM     48  N   UNL A   1      41.585  31.222  34.316  1.00  0.00    -0.248 NA
ATOM     49  C   UNL A   1      41.996  32.035  36.468  1.00  0.00     0.031 C 
ATOM     50  C   UNL A   1      43.587  27.691  32.547  1.00  0.00     0.029 A 
ATOM     51  C   UNL A   1      42.943  28.758  33.151  1.00  0.00     0.049 A 
ATOM     52  H   UNL A   1      41.385  29.970  32.405  1.00  0.00     0.167 HD
ATOM     53  C   UNL A   1      42.542  30.425  34.933  1.00  0.00     0.074 A 
ATOM     54  C   UNL A   1      42.779  30.989  36.245  1.00  0.00     0.031 C 
ATOM     55  C   UNL A   1      43.159  29.317  34.458  1.00  0.00     0.031 A 
BRANCH  42  56
ATOM     56  C   UNL A   1      41.278  27.653  28.832  1.00  0.00    -0.014 A 
ATOM     57  C   UNL A   1      42.174  27.903  27.784  1.00  0.00     0.009 A 
ATOM     58  C   UNL A   1      40.525  26.468  28.825  1.00  0.00     0.009 A 
ATOM     59  C   UNL A   1      42.302  26.987  26.737  1.00  0.00     0.001 A 
ATOM     60  C   UNL A   1      40.667  25.549  27.786  1.00  0.00     0.001 A 
ATOM     61  C   UNL A   1      41.551  25.811  26.741  1.00  0.00     0.000 A 
ENDBRANCH  42  56
BRANCH  43  62
ATOM     62  C   UNL A   1      40.110  34.235  36.190  1.00  0.00    -0.014 A 
ATOM     63  C   UNL A   1      39.218  33.979  37.241  1.00  0.00     0.009 A 
ATOM     64  C   UNL A   1      40.808  35.454  36.173  1.00  0.00     0.009 A 
ATOM     65  C   UNL A   1      39.011  34.934  38.241  1.00  0.00     0.001 A 
ATOM     66  C   UNL A   1      40.620  36.394  37.187  1.00  0.00     0.001 A 
ATOM     67  C   UNL A   1      39.715  36.138  38.215  1.00  0.00     0.000 A 
ENDBRANCH  43  62
BRANCH  55  68
ATOM     68  C   UNL A   1      44.144  28.636  35.364  1.00  0.00    -0.014 A 
ATOM     69  C   UNL A   1      43.733  27.607  36.225  1.00  0.00     0.009 A 
ATOM     70  C   UNL A   1      45.500  28.993  35.327  1.00  0.00     0.009 A 
ATOM     71  C   UNL A   1      44.658  26.962  37.047  1.00  0.00     0.001 A 
ATOM     72  C   UNL A   1      46.427  28.332  36.135  1.00  0.00     0.001 A 
ATOM     73  C   UNL A   1      46.005  27.322  36.998  1.00  0.00     0.000 A 
ENDBRANCH  55  68
ENDBRANCH  29  30
ENDBRANCH  22  24
ENDBRANCH  21  22
ENDBRANCH  20  21
ENDBRANCH   1  20
TORSDOF 14
ENDMDL
MODEL 3
REMARK VINA RESULT:     -10.0      3.906      8.200
REMARK SMILES C=C[C@@H](C)Oc1cnc2ccccc2c1C(=O)OCCOC(=O)c1ccc(-c2c3nc(c(-c4ccccc4)c4ccc([nH]4)c(-c4ccccc4)c4nc(c(-c5ccccc5)c5ccc2[nH]5)C=C4)C=C3)cc1
REMARK SMILES IDX 19 1 18 2 16 3 17 4 15 5 6 6 7 7 8 8 14 9 9 10 13 11 10 12
REMARK SMILES IDX 12 13 11 14 5 15 3 16 4 17 2 18 1 19 20 20 21 21 22 22 23 23
REMARK SMILES IDX 24 24 25 25 71 26 26 27 70 28 27 29 28 30 29 31 64 32 30 33
REMARK SMILES IDX 69 34 63 35 65 36 31 37 68 38 62 39 61 40 32 42 54 43 39 44
REMARK SMILES IDX 53 45 40 46 43 47 52 48 66 49 41 50 42 51 51 53 67 54 44 55
REMARK SMILES IDX 33 56 34 57 38 58 35 59 37 60 36 61 55 62 56 63 60 64 57 65
REMARK SMILES IDX 59 66 58 67 45 68 46 69 50 70 47 71 49 72 48 73
REMARK H PARENT 65 41 43 52
REMARK Flexibility Score: inf
ROOT
ATOM      1  C   UNL A   1      32.633  30.767  26.935  1.00  0.00     0.275 C 
ENDROOT
BRANCH   1   2
ATOM      2  O   UNL A   1      31.761  29.780  26.340  1.00  0.00    -0.458 OA
BRANCH   2   3
ATOM      3  C   UNL A   1      32.076  29.376  25.082  1.00  0.00     0.342 C 
ATOM      4  O   UNL A   1      33.099  29.620  24.468  1.00  0.00    -0.246 OA
BRANCH   3   5
ATOM      5  C   UNL A   1      30.942  28.614  24.516  1.00  0.00     0.113 A 
ATOM      6  C   UNL A   1      30.985  27.215  24.554  1.00  0.00     0.153 A 
ATOM      7  C   UNL A   1      29.882  26.558  24.049  1.00  0.00     0.159 A 
ATOM      8  N   UNL A   1      28.832  27.167  23.455  1.00  0.00    -0.252 NA
ATOM      9  C   UNL A   1      29.860  29.304  23.899  1.00  0.00     0.018 A 
ATOM     10  C   UNL A   1      28.826  28.504  23.377  1.00  0.00     0.071 A 
ATOM     11  C   UNL A   1      29.749  30.715  23.761  1.00  0.00     0.011 A 
ATOM     12  C   UNL A   1      27.742  29.109  22.756  1.00  0.00     0.029 A 
ATOM     13  C   UNL A   1      28.646  31.301  23.141  1.00  0.00     0.001 A 
ATOM     14  C   UNL A   1      27.639  30.495  22.634  1.00  0.00     0.002 A 
BRANCH   6  15
ATOM     15  O   UNL A   1      31.988  26.576  25.220  1.00  0.00    -0.484 OA
BRANCH  15  16
ATOM     16  C   UNL A   1      32.908  25.713  24.521  1.00  0.00     0.192 C 
ATOM     17  C   UNL A   1      33.979  25.120  25.433  1.00  0.00     0.057 C 
BRANCH  16  18
ATOM     18  C   UNL A   1      33.483  26.327  23.265  1.00  0.00     0.009 C 
ATOM     19  C   UNL A   1      33.192  25.948  22.012  1.00  0.00     0.008 C 
ENDBRANCH  16  18
ENDBRANCH  15  16
ENDBRANCH   6  15
ENDBRANCH   3   5
ENDBRANCH   2   3
ENDBRANCH   1   2
BRANCH   1  20
ATOM     20  C   UNL A   1      31.889  32.093  27.065  1.00  0.00     0.275 C 
BRANCH  20  21
ATOM     21  O   UNL A   1      32.862  33.140  26.916  1.00  0.00    -0.458 OA
BRANCH  21  22
ATOM     22  C   UNL A   1      33.098  33.909  27.997  1.00  0.00     0.338 C 
ATOM     23  O   UNL A   1      32.357  34.713  28.539  1.00  0.00    -0.246 OA
BRANCH  22  24
ATOM     24  C   UNL A   1      34.408  33.496  28.510  1.00  0.00     0.060 A 
ATOM     25  C   UNL A   1      34.426  32.704  29.657  1.00  0.00     0.016 A 
ATOM     26  C   UNL A   1      35.594  33.851  27.870  1.00  0.00     0.016 A 
ATOM     27  C   UNL A   1      35.637  32.238  30.155  1.00  0.00     0.010 A 
ATOM     28  C   UNL A   1      36.811  33.362  28.364  1.00  0.00     0.010 A 
ATOM     29  C   UNL A   1      36.837  32.540  29.504  1.00  0.00    -0.014 A 
BRANCH  29  30
ATOM     30  C   UNL A   1      38.108  32.008  30.050  1.00  0.00     0.031 A 
ATOM     31  C   UNL A   1      38.690  30.745  29.492  1.00  0.00     0.074 A 
ATOM     32  C   UNL A   1      38.787  32.694  30.990  1.00  0.00     0.049 A 
ATOM     33  N   UNL A   1      39.739  30.074  29.894  1.00  0.00    -0.248 NA
ATOM     34  C   UNL A   1      38.018  30.176  28.313  1.00  0.00     0.031 C 
ATOM     35  C   UNL A   1      38.403  33.997  31.533  1.00  0.00     0.029 A 
ATOM     36  N   UNL A   1      39.955  32.388  31.647  1.00  0.00    -0.354 N 
ATOM     37  C   UNL A   1      39.841  28.990  29.033  1.00  0.00     0.074 A 
ATOM     38  C   UNL A   1      38.756  29.099  28.081  1.00  0.00     0.031 C 
ATOM     39  C   UNL A   1      39.322  34.381  32.436  1.00  0.00     0.029 A 
ATOM     40  C   UNL A   1      40.320  33.325  32.583  1.00  0.00     0.049 A 
ATOM     41  H   UNL A   1      40.480  31.577  31.462  1.00  0.00     0.167 HD
ATOM     42  C   UNL A   1      40.750  27.986  29.045  1.00  0.00     0.031 A 
ATOM     43  C   UNL A   1      41.316  33.310  33.490  1.00  0.00     0.031 A 
ATOM     44  C   UNL A   1      41.824  27.866  29.992  1.00  0.00     0.049 A 
ATOM     45  C   UNL A   1      42.220  32.109  33.578  1.00  0.00     0.074 A 
ATOM     46  C   UNL A   1      42.772  26.862  30.097  1.00  0.00     0.029 A 
ATOM     47  N   UNL A   1      42.091  28.774  31.001  1.00  0.00    -0.354 N 
ATOM     48  N   UNL A   1      42.276  31.058  32.798  1.00  0.00    -0.248 NA
ATOM     49  C   UNL A   1      43.178  32.080  34.696  1.00  0.00     0.031 C 
ATOM     50  C   UNL A   1      43.581  27.138  31.204  1.00  0.00     0.029 A 
ATOM     51  C   UNL A   1      43.163  28.336  31.760  1.00  0.00     0.049 A 
ATOM     52  H   UNL A   1      41.592  29.609  31.157  1.00  0.00     0.167 HD
ATOM     53  C   UNL A   1      43.268  30.244  33.330  1.00  0.00     0.074 A 
ATOM     54  C   UNL A   1      43.811  30.936  34.480  1.00  0.00     0.031 C 
ATOM     55  C   UNL A   1      43.683  29.025  32.910  1.00  0.00     0.031 A 
BRANCH  42  56
ATOM     56  C   UNL A   1      40.576  26.894  28.035  1.00  0.00    -0.014 A 
ATOM     57  C   UNL A   1      41.206  26.948  26.784  1.00  0.00     0.009 A 
ATOM     58  C   UNL A   1      39.799  25.772  28.366  1.00  0.00     0.009 A 
ATOM     59  C   UNL A   1      41.046  25.901  25.873  1.00  0.00     0.001 A 
ATOM     60  C   UNL A   1      39.655  24.722  27.459  1.00  0.00     0.001 A 
ATOM     61  C   UNL A   1      40.275  24.790  26.213  1.00  0.00     0.000 A 
ENDBRANCH  42  56
BRANCH  43  62
ATOM     62  C   UNL A   1      41.462  34.422  34.468  1.00  0.00    -0.014 A 
ATOM     63  C   UNL A   1      40.750  34.416  35.675  1.00  0.00     0.009 A 
ATOM     64  C   UNL A   1      42.275  35.526  34.164  1.00  0.00     0.009 A 
ATOM     65  C   UNL A   1      40.830  35.505  36.548  1.00  0.00     0.001 A 
ATOM     66  C   UNL A   1      42.375  36.599  35.050  1.00  0.00     0.001 A 
ATOM     67  C   UNL A   1      41.646  36.593  36.236  1.00  0.00     0.000 A 
ENDBRANCH  43  62
BRANCH  55  68
ATOM     68  C   UNL A   1      44.771  28.358  33.701  1.00  0.00    -0.014 A 
ATOM     69  C   UNL A   1      46.122  28.609  33.416  1.00  0.00     0.009 A 
ATOM     70  C   UNL A   1      44.446  27.507  34.769  1.00  0.00     0.009 A 
ATOM     71  C   UNL A   1      47.128  28.004  34.171  1.00  0.00     0.001 A 
ATOM     72  C   UNL A   1      45.454  26.920  35.536  1.00  0.00     0.001 A 
ATOM     73  C   UNL A   1      46.793  27.164  35.233  1.00  0.00     0.000 A 
ENDBRANCH  55  68
ENDBRANCH  29  30
ENDBRANCH  22  24
ENDBRANCH  21  22
ENDBRANCH  20  21
ENDBRANCH   1  20
TORSDOF 14
ENDMDL
