MODEL 1
REMARK VINA RESULT:      -9.9      0.000      0.000
REMARK SMILES CCc1ccsc1C(=O)c1c[nH]c(C(=O)OCCOC(=O)c2ccc(-c3c4nc(c(-c5ccccc5)c5ccc([nH]5)c(-c5ccccc5)c5nc(c(-c6ccccc6)c6ccc3[nH]6)C=C5)C=C4)cc2)c1
REMARK SMILES IDX 17 1 16 2 14 3 15 4 13 5 10 6 11 7 70 8 12 9 8 11 9 12 7 13
REMARK SMILES IDX 3 14 4 15 5 16 6 17 2 18 1 19 18 20 19 21 20 22 21 23 22 24
REMARK SMILES IDX 23 25 69 26 24 27 68 28 25 29 26 30 27 31 62 32 28 33 67 34
REMARK SMILES IDX 61 35 63 36 29 37 66 38 60 39 59 40 30 42 52 43 37 44 51 45
REMARK SMILES IDX 38 46 41 47 50 48 64 49 39 50 40 51 49 53 65 54 42 55 31 56
REMARK SMILES IDX 32 57 36 58 33 59 35 60 34 61 53 62 54 63 58 64 55 65 57 66
REMARK SMILES IDX 56 67 43 68 44 69 48 70 45 71 47 72 46 73
REMARK H PARENT 12 10 63 41 41 52
REMARK Flexibility Score: inf
ROOT
ATOM      1  C   UNL A   1      34.367  35.380  33.260  1.00  0.00     0.275 C 
ENDROOT
BRANCH   1   2
ATOM      2  O   UNL A   1      33.229  34.962  32.487  1.00  0.00    -0.457 OA
BRANCH   2   3
ATOM      3  C   UNL A   1      33.002  35.670  31.340  1.00  0.00     0.354 C 
ATOM      4  O   UNL A   1      32.354  36.693  31.261  1.00  0.00    -0.244 OA
BRANCH   3   5
ATOM      5  C   UNL A   1      33.727  35.083  30.231  1.00  0.00     0.125 A 
ATOM      6  C   UNL A   1      35.038  33.857  28.818  1.00  0.00     0.042 A 
ATOM      7  C   UNL A   1      34.623  35.002  28.161  1.00  0.00     0.095 A 
ATOM      8  C   UNL A   1      34.434  33.901  30.112  1.00  0.00     0.047 A 
ATOM      9  N   UNL A   1      33.850  35.735  29.022  1.00  0.00    -0.355 N 
ATOM     10  H   UNL A   1      33.439  36.603  28.809  1.00  0.00     0.166 HD
BRANCH   6  11
ATOM     11  C   UNL A   1      35.809  32.749  28.263  1.00  0.00     0.204 C 
ATOM     12  O   UNL A   1      37.020  32.903  28.113  1.00  0.00    -0.288 OA
BRANCH  11  13
ATOM     13  C   UNL A   1      35.090  31.523  27.876  1.00  0.00     0.078 A 
ATOM     14  C   UNL A   1      35.399  30.157  27.893  1.00  0.00    -0.026 A 
ATOM     15  C   UNL A   1      34.264  29.371  27.462  1.00  0.00     0.016 A 
ATOM     16  C   UNL A   1      33.166  30.124  27.135  1.00  0.00     0.066 A 
ATOM     17  S   UNL A   1      33.468  31.780  27.314  1.00  0.00    -0.140 S 
BRANCH  14  18
ATOM     18  C   UNL A   1      36.707  29.532  28.324  1.00  0.00     0.034 C 
ATOM     19  C   UNL A   1      37.871  29.725  27.360  1.00  0.00     0.009 C 
ENDBRANCH  14  18
ENDBRANCH  11  13
ENDBRANCH   6  11
ENDBRANCH   3   5
ENDBRANCH   2   3
ENDBRANCH   1   2
BRANCH   1  20
ATOM     20  C   UNL A   1      35.035  34.213  33.990  1.00  0.00     0.275 C 
BRANCH  20  21
ATOM     21  O   UNL A   1      36.047  33.546  33.224  1.00  0.00    -0.458 OA
BRANCH  21  22
ATOM     22  C   UNL A   1      36.711  32.598  33.919  1.00  0.00     0.338 C 
ATOM     23  O   UNL A   1      36.840  32.518  35.130  1.00  0.00    -0.246 OA
BRANCH  22  24
ATOM     24  C   UNL A   1      37.463  31.711  33.034  1.00  0.00     0.060 A 
ATOM     25  C   UNL A   1      38.416  30.878  33.627  1.00  0.00     0.016 A 
ATOM     26  C   UNL A   1      37.431  31.928  31.653  1.00  0.00     0.016 A 
ATOM     27  C   UNL A   1      39.405  30.323  32.837  1.00  0.00     0.010 A 
ATOM     28  C   UNL A   1      38.439  31.395  30.865  1.00  0.00     0.010 A 
ATOM     29  C   UNL A   1      39.437  30.617  31.468  1.00  0.00    -0.014 A 
BRANCH  29  30
ATOM     30  C   UNL A   1      40.455  29.935  30.654  1.00  0.00     0.031 A 
ATOM     31  C   UNL A   1      41.682  30.819  30.444  1.00  0.00     0.074 A 
ATOM     32  C   UNL A   1      40.142  28.696  30.169  1.00  0.00     0.049 A 
ATOM     33  N   UNL A   1      42.592  30.755  29.525  1.00  0.00    -0.248 NA
ATOM     34  C   UNL A   1      41.907  31.980  31.351  1.00  0.00     0.031 C 
ATOM     35  C   UNL A   1      38.887  27.971  30.465  1.00  0.00     0.029 A 
ATOM     36  N   UNL A   1      40.787  27.803  29.336  1.00  0.00    -0.354 N 
ATOM     37  C   UNL A   1      43.568  31.721  29.835  1.00  0.00     0.074 A 
ATOM     38  C   UNL A   1      43.045  32.510  30.907  1.00  0.00     0.031 C 
ATOM     39  C   UNL A   1      38.832  26.805  29.783  1.00  0.00     0.029 A 
ATOM     40  C   UNL A   1      40.043  26.644  29.000  1.00  0.00     0.049 A 
ATOM     41  H   UNL A   1      41.697  27.961  28.998  1.00  0.00     0.167 HD
ATOM     42  C   UNL A   1      44.812  31.722  29.283  1.00  0.00     0.031 A 
ATOM     43  C   UNL A   1      40.361  25.633  28.137  1.00  0.00     0.031 A 
ATOM     44  C   UNL A   1      44.905  30.745  28.251  1.00  0.00     0.049 A 
ATOM     45  C   UNL A   1      41.753  25.853  27.724  1.00  0.00     0.074 A 
ATOM     46  C   UNL A   1      44.341  30.651  27.006  1.00  0.00     0.029 A 
ATOM     47  N   UNL A   1      45.383  29.513  28.623  1.00  0.00    -0.354 N 
ATOM     48  N   UNL A   1      42.789  25.637  28.474  1.00  0.00    -0.248 NA
ATOM     49  C   UNL A   1      42.029  26.363  26.375  1.00  0.00     0.031 C 
ATOM     50  C   UNL A   1      44.082  29.271  26.860  1.00  0.00     0.029 A 
ATOM     51  C   UNL A   1      44.643  28.581  27.941  1.00  0.00     0.049 A 
ATOM     52  H   UNL A   1      46.115  29.333  29.256  1.00  0.00     0.167 HD
ATOM     53  C   UNL A   1      43.761  26.370  27.841  1.00  0.00     0.074 A 
ATOM     54  C   UNL A   1      43.352  26.484  26.458  1.00  0.00     0.031 C 
ATOM     55  C   UNL A   1      44.457  27.289  28.557  1.00  0.00     0.031 A 
BRANCH  42  56
ATOM     56  C   UNL A   1      46.080  32.357  29.773  1.00  0.00    -0.014 A 
ATOM     57  C   UNL A   1      46.732  33.262  28.902  1.00  0.00     0.009 A 
ATOM     58  C   UNL A   1      46.811  31.877  30.864  1.00  0.00     0.009 A 
ATOM     59  C   UNL A   1      48.083  33.577  29.049  1.00  0.00     0.001 A 
ATOM     60  C   UNL A   1      48.156  32.227  31.037  1.00  0.00     0.001 A 
ATOM     61  C   UNL A   1      48.800  33.045  30.111  1.00  0.00     0.000 A 
ENDBRANCH  42  56
BRANCH  43  62
ATOM     62  C   UNL A   1      39.695  24.435  27.506  1.00  0.00    -0.014 A 
ATOM     63  C   UNL A   1      38.512  24.447  26.765  1.00  0.00     0.009 A 
ATOM     64  C   UNL A   1      40.358  23.176  27.579  1.00  0.00     0.009 A 
ATOM     65  C   UNL A   1      38.073  23.294  26.078  1.00  0.00     0.001 A 
ATOM     66  C   UNL A   1      39.956  22.046  26.862  1.00  0.00     0.001 A 
ATOM     67  C   UNL A   1      38.810  22.110  26.097  1.00  0.00     0.000 A 
ENDBRANCH  43  62
BRANCH  55  68
ATOM     68  C   UNL A   1      44.515  27.019  30.056  1.00  0.00    -0.014 A 
ATOM     69  C   UNL A   1      45.343  26.004  30.560  1.00  0.00     0.009 A 
ATOM     70  C   UNL A   1      43.665  27.663  30.971  1.00  0.00     0.009 A 
ATOM     71  C   UNL A   1      45.301  25.632  31.912  1.00  0.00     0.001 A 
ATOM     72  C   UNL A   1      43.620  27.298  32.324  1.00  0.00     0.001 A 
ATOM     73  C   UNL A   1      44.437  26.276  32.794  1.00  0.00     0.000 A 
ENDBRANCH  55  68
ENDBRANCH  29  30
ENDBRANCH  22  24
ENDBRANCH  21  22
ENDBRANCH  20  21
ENDBRANCH   1  20
TORSDOF 14
ENDMDL
MODEL 2
REMARK VINA RESULT:      -9.8      3.634      5.887
REMARK SMILES CCc1ccsc1C(=O)c1c[nH]c(C(=O)OCCOC(=O)c2ccc(-c3c4nc(c(-c5ccccc5)c5ccc([nH]5)c(-c5ccccc5)c5nc(c(-c6ccccc6)c6ccc3[nH]6)C=C5)C=C4)cc2)c1
REMARK SMILES IDX 17 1 16 2 14 3 15 4 13 5 10 6 11 7 70 8 12 9 8 11 9 12 7 13
REMARK SMILES IDX 3 14 4 15 5 16 6 17 2 18 1 19 18 20 19 21 20 22 21 23 22 24
REMARK SMILES IDX 23 25 69 26 24 27 68 28 25 29 26 30 27 31 62 32 28 33 67 34
REMARK SMILES IDX 61 35 63 36 29 37 66 38 60 39 59 40 30 42 52 43 37 44 51 45
REMARK SMILES IDX 38 46 41 47 50 48 64 49 39 50 40 51 49 53 65 54 42 55 31 56
REMARK SMILES IDX 32 57 36 58 33 59 35 60 34 61 53 62 54 63 58 64 55 65 57 66
REMARK SMILES IDX 56 67 43 68 44 69 48 70 45 71 47 72 46 73
REMARK H PARENT 12 10 63 41 41 52
REMARK Flexibility Score: inf
ROOT
ATOM      1  C   UNL A   1      34.944  29.412  27.075  1.00  0.00     0.275 C 
ENDROOT
BRANCH   1   2
ATOM      2  O   UNL A   1      33.599  29.598  26.604  1.00  0.00    -0.457 OA
BRANCH   2   3
ATOM      3  C   UNL A   1      33.269  28.908  25.471  1.00  0.00     0.354 C 
ATOM      4  O   UNL A   1      33.246  29.369  24.348  1.00  0.00    -0.244 OA
BRANCH   3   5
ATOM      5  C   UNL A   1      33.042  27.510  25.777  1.00  0.00     0.125 A 
ATOM      6  C   UNL A   1      33.046  25.233  25.951  1.00  0.00     0.042 A 
ATOM      7  C   UNL A   1      31.895  25.723  26.543  1.00  0.00     0.095 A 
ATOM      8  C   UNL A   1      33.781  26.373  25.506  1.00  0.00     0.047 A 
ATOM      9  N   UNL A   1      31.897  27.088  26.420  1.00  0.00    -0.355 N 
ATOM     10  H   UNL A   1      31.184  27.683  26.745  1.00  0.00     0.166 HD
BRANCH   6  11
ATOM     11  C   UNL A   1      33.502  23.846  25.919  1.00  0.00     0.204 C 
ATOM     12  O   UNL A   1      32.941  23.034  26.654  1.00  0.00    -0.288 OA
BRANCH  11  13
ATOM     13  C   UNL A   1      34.632  23.503  25.040  1.00  0.00     0.078 A 
ATOM     14  C   UNL A   1      34.763  23.220  23.674  1.00  0.00    -0.026 A 
ATOM     15  C   UNL A   1      36.151  23.024  23.323  1.00  0.00     0.016 A 
ATOM     16  C   UNL A   1      37.010  23.152  24.384  1.00  0.00     0.066 A 
ATOM     17  S   UNL A   1      36.182  23.486  25.821  1.00  0.00    -0.140 S 
BRANCH  14  18
ATOM     18  C   UNL A   1      33.646  23.149  22.656  1.00  0.00     0.034 C 
ATOM     19  C   UNL A   1      33.154  24.494  22.134  1.00  0.00     0.009 C 
ENDBRANCH  14  18
ENDBRANCH  11  13
ENDBRANCH   6  11
ENDBRANCH   3   5
ENDBRANCH   2   3
ENDBRANCH   1   2
BRANCH   1  20
ATOM     20  C   UNL A   1      35.302  30.375  28.209  1.00  0.00     0.275 C 
BRANCH  20  21
ATOM     21  O   UNL A   1      36.709  30.475  28.469  1.00  0.00    -0.458 OA
BRANCH  21  22
ATOM     22  C   UNL A   1      37.163  29.542  29.334  1.00  0.00     0.338 C 
ATOM     23  O   UNL A   1      36.837  29.387  30.500  1.00  0.00    -0.246 OA
BRANCH  22  24
ATOM     24  C   UNL A   1      38.285  28.792  28.774  1.00  0.00     0.060 A 
ATOM     25  C   UNL A   1      39.043  28.022  29.660  1.00  0.00     0.016 A 
ATOM     26  C   UNL A   1      38.738  29.090  27.484  1.00  0.00     0.016 A 
ATOM     27  C   UNL A   1      40.310  27.619  29.283  1.00  0.00     0.010 A 
ATOM     28  C   UNL A   1      40.019  28.710  27.117  1.00  0.00     0.010 A 
ATOM     29  C   UNL A   1      40.809  27.999  28.031  1.00  0.00    -0.014 A 
BRANCH  29  30
ATOM     30  C   UNL A   1      42.125  27.474  27.640  1.00  0.00     0.031 A 
ATOM     31  C   UNL A   1      43.137  28.601  27.444  1.00  0.00     0.074 A 
ATOM     32  C   UNL A   1      42.231  26.125  27.450  1.00  0.00     0.049 A 
ATOM     33  N   UNL A   1      44.242  28.604  26.769  1.00  0.00    -0.248 NA
ATOM     34  C   UNL A   1      42.859  29.941  28.037  1.00  0.00     0.031 C 
ATOM     35  C   UNL A   1      41.136  25.157  27.680  1.00  0.00     0.029 A 
ATOM     36  N   UNL A   1      43.248  25.295  27.025  1.00  0.00    -0.354 N 
ATOM     37  C   UNL A   1      44.866  29.846  26.994  1.00  0.00     0.074 A 
ATOM     38  C   UNL A   1      43.926  30.662  27.696  1.00  0.00     0.031 C 
ATOM     39  C   UNL A   1      41.517  23.908  27.334  1.00  0.00     0.029 A 
ATOM     40  C   UNL A   1      42.893  23.931  26.871  1.00  0.00     0.049 A 
ATOM     41  H   UNL A   1      44.156  25.626  26.840  1.00  0.00     0.167 HD
ATOM     42  C   UNL A   1      46.178  30.078  26.713  1.00  0.00     0.031 A 
ATOM     43  C   UNL A   1      43.636  22.892  26.386  1.00  0.00     0.031 A 
ATOM     44  C   UNL A   1      46.745  28.975  26.015  1.00  0.00     0.049 A 
ATOM     45  C   UNL A   1      45.003  23.401  26.206  1.00  0.00     0.074 A 
ATOM     46  C   UNL A   1      46.554  28.473  24.755  1.00  0.00     0.029 A 
ATOM     47  N   UNL A   1      47.374  28.028  26.785  1.00  0.00    -0.354 N 
ATOM     48  N   UNL A   1      45.835  23.641  27.172  1.00  0.00    -0.248 NA
ATOM     49  C   UNL A   1      45.493  23.677  24.850  1.00  0.00     0.031 C 
ATOM     50  C   UNL A   1      46.654  27.076  24.933  1.00  0.00     0.029 A 
ATOM     51  C   UNL A   1      47.060  26.808  26.246  1.00  0.00     0.049 A 
ATOM     52  H   UNL A   1      47.942  28.194  27.573  1.00  0.00     0.167 HD
ATOM     53  C   UNL A   1      46.747  24.467  26.567  1.00  0.00     0.074 A 
ATOM     54  C   UNL A   1      46.690  24.175  25.151  1.00  0.00     0.031 C 
ATOM     55  C   UNL A   1      47.016  25.671  27.134  1.00  0.00     0.031 A 
BRANCH  42  56
ATOM     56  C   UNL A   1      47.104  31.128  27.252  1.00  0.00    -0.014 A 
ATOM     57  C   UNL A   1      47.544  30.982  28.589  1.00  0.00     0.009 A 
ATOM     58  C   UNL A   1      47.290  32.376  26.647  1.00  0.00     0.009 A 
ATOM     59  C   UNL A   1      48.037  32.062  29.321  1.00  0.00     0.001 A 
ATOM     60  C   UNL A   1      47.824  33.450  27.370  1.00  0.00     0.001 A 
ATOM     61  C   UNL A   1      48.162  33.303  28.713  1.00  0.00     0.000 A 
ENDBRANCH  42  56
BRANCH  43  62
ATOM     62  C   UNL A   1      43.437  21.453  25.978  1.00  0.00    -0.014 A 
ATOM     63  C   UNL A   1      44.346  20.666  25.270  1.00  0.00     0.009 A 
ATOM     64  C   UNL A   1      42.261  20.781  26.421  1.00  0.00     0.009 A 
ATOM     65  C   UNL A   1      44.126  19.282  25.092  1.00  0.00     0.001 A 
ATOM     66  C   UNL A   1      42.061  19.405  26.292  1.00  0.00     0.001 A 
ATOM     67  C   UNL A   1      43.006  18.648  25.631  1.00  0.00     0.000 A 
ENDBRANCH  43  62
BRANCH  55  68
ATOM     68  C   UNL A   1      46.747  25.744  28.632  1.00  0.00    -0.014 A 
ATOM     69  C   UNL A   1      45.477  26.106  29.106  1.00  0.00     0.009 A 
ATOM     70  C   UNL A   1      47.765  25.589  29.590  1.00  0.00     0.009 A 
ATOM     71  C   UNL A   1      45.242  26.330  30.471  1.00  0.00     0.001 A 
ATOM     72  C   UNL A   1      47.537  25.808  30.956  1.00  0.00     0.001 A 
ATOM     73  C   UNL A   1      46.273  26.185  31.396  1.00  0.00     0.000 A 
ENDBRANCH  55  68
ENDBRANCH  29  30
ENDBRANCH  22  24
ENDBRANCH  21  22
ENDBRANCH  20  21
ENDBRANCH   1  20
TORSDOF 14
ENDMDL
MODEL 3
REMARK VINA RESULT:      -9.8      5.056     10.005
REMARK SMILES CCc1ccsc1C(=O)c1c[nH]c(C(=O)OCCOC(=O)c2ccc(-c3c4nc(c(-c5ccccc5)c5ccc([nH]5)c(-c5ccccc5)c5nc(c(-c6ccccc6)c6ccc3[nH]6)C=C5)C=C4)cc2)c1
REMARK SMILES IDX 17 1 16 2 14 3 15 4 13 5 10 6 11 7 70 8 12 9 8 11 9 12 7 13
REMARK SMILES IDX 3 14 4 15 5 16 6 17 2 18 1 19 18 20 19 21 20 22 21 23 22 24
REMARK SMILES IDX 23 25 69 26 24 27 68 28 25 29 26 30 27 31 62 32 28 33 67 34
REMARK SMILES IDX 61 35 63 36 29 37 66 38 60 39 59 40 30 42 52 43 37 44 51 45
REMARK SMILES IDX 38 46 41 47 50 48 64 49 39 50 40 51 49 53 65 54 42 55 31 56
REMARK SMILES IDX 32 57 36 58 33 59 35 60 34 61 53 62 54 63 58 64 55 65 57 66
REMARK SMILES IDX 56 67 43 68 44 69 48 70 45 71 47 72 46 73
REMARK H PARENT 12 10 63 41 41 52
REMARK Flexibility Score: inf
ROOT
ATOM      1  C   UNL A   1      46.185  23.481  26.698  1.00  0.00     0.275 C 
ENDROOT
BRANCH   1   2
ATOM      2  O   UNL A   1      46.157  22.557  25.598  1.00  0.00    -0.457 OA
BRANCH   2   3
ATOM      3  C   UNL A   1      45.092  22.678  24.750  1.00  0.00     0.354 C 
ATOM      4  O   UNL A   1      45.125  23.185  23.647  1.00  0.00    -0.244 OA
BRANCH   3   5
ATOM      5  C   UNL A   1      43.924  22.027  25.307  1.00  0.00     0.125 A 
ATOM      6  C   UNL A   1      42.057  21.394  26.461  1.00  0.00     0.042 A 
ATOM      7  C   UNL A   1      42.536  20.305  25.756  1.00  0.00     0.095 A 
ATOM      8  C   UNL A   1      42.920  22.486  26.140  1.00  0.00     0.047 A 
ATOM      9  N   UNL A   1      43.663  20.693  25.078  1.00  0.00    -0.355 N 
ATOM     10  H   UNL A   1      44.208  20.103  24.509  1.00  0.00     0.166 HD
BRANCH   6  11
ATOM     11  C   UNL A   1      40.833  21.466  27.254  1.00  0.00     0.204 C 
ATOM     12  O   UNL A   1      40.729  20.721  28.227  1.00  0.00    -0.288 OA
BRANCH  11  13
ATOM     13  C   UNL A   1      39.776  22.396  26.824  1.00  0.00     0.078 A 
ATOM     14  C   UNL A   1      39.499  23.748  27.066  1.00  0.00    -0.026 A 
ATOM     15  C   UNL A   1      38.347  24.177  26.306  1.00  0.00     0.016 A 
ATOM     16  C   UNL A   1      37.792  23.185  25.539  1.00  0.00     0.066 A 
ATOM     17  S   UNL A   1      38.617  21.719  25.723  1.00  0.00    -0.140 S 
BRANCH  14  18
ATOM     18  C   UNL A   1      40.282  24.683  27.960  1.00  0.00     0.034 C 
ATOM     19  C   UNL A   1      39.458  25.757  28.660  1.00  0.00     0.009 C 
ENDBRANCH  14  18
ENDBRANCH  11  13
ENDBRANCH   6  11
ENDBRANCH   3   5
ENDBRANCH   2   3
ENDBRANCH   1   2
BRANCH   1  20
ATOM     20  C   UNL A   1      47.194  24.611  26.484  1.00  0.00     0.275 C 
BRANCH  20  21
ATOM     21  O   UNL A   1      46.676  25.918  26.766  1.00  0.00    -0.458 OA
BRANCH  21  22
ATOM     22  C   UNL A   1      45.761  26.339  25.867  1.00  0.00     0.338 C 
ATOM     23  O   UNL A   1      45.877  26.385  24.652  1.00  0.00    -0.246 OA
BRANCH  22  24
ATOM     24  C   UNL A   1      44.602  26.942  26.522  1.00  0.00     0.060 A 
ATOM     25  C   UNL A   1      44.488  28.334  26.461  1.00  0.00     0.016 A 
ATOM     26  C   UNL A   1      43.841  26.180  27.415  1.00  0.00     0.016 A 
ATOM     27  C   UNL A   1      43.665  28.980  27.364  1.00  0.00     0.010 A 
ATOM     28  C   UNL A   1      43.038  26.829  28.339  1.00  0.00     0.010 A 
ATOM     29  C   UNL A   1      42.976  28.229  28.325  1.00  0.00    -0.014 A 
BRANCH  29  30
ATOM     30  C   UNL A   1      42.047  28.951  29.207  1.00  0.00     0.031 A 
ATOM     31  C   UNL A   1      42.658  29.182  30.587  1.00  0.00     0.074 A 
ATOM     32  C   UNL A   1      40.806  29.235  28.711  1.00  0.00     0.049 A 
ATOM     33  N   UNL A   1      42.070  29.426  31.715  1.00  0.00    -0.248 NA
ATOM     34  C   UNL A   1      44.135  29.073  30.758  1.00  0.00     0.031 C 
ATOM     35  C   UNL A   1      40.362  28.931  27.332  1.00  0.00     0.029 A 
ATOM     36  N   UNL A   1      39.672  29.815  29.244  1.00  0.00    -0.354 N 
ATOM     37  C   UNL A   1      43.076  29.673  32.667  1.00  0.00     0.074 A 
ATOM     38  C   UNL A   1      44.323  29.343  32.049  1.00  0.00     0.031 C 
ATOM     39  C   UNL A   1      39.063  29.260  27.161  1.00  0.00     0.029 A 
ATOM     40  C   UNL A   1      38.540  29.827  28.390  1.00  0.00     0.049 A 
ATOM     41  H   UNL A   1      39.650  30.193  30.152  1.00  0.00     0.167 HD
ATOM     42  C   UNL A   1      42.834  30.273  33.865  1.00  0.00     0.031 A 
ATOM     43  C   UNL A   1      37.263  30.239  28.652  1.00  0.00     0.031 A 
ATOM     44  C   UNL A   1      41.435  30.436  34.071  1.00  0.00     0.049 A 
ATOM     45  C   UNL A   1      37.290  30.875  29.976  1.00  0.00     0.074 A 
ATOM     46  C   UNL A   1      40.418  29.546  34.298  1.00  0.00     0.029 A 
ATOM     47  N   UNL A   1      40.900  31.640  33.684  1.00  0.00    -0.354 N 
ATOM     48  N   UNL A   1      37.796  32.043  30.225  1.00  0.00    -0.248 NA
ATOM     49  C   UNL A   1      36.718  30.163  31.126  1.00  0.00     0.031 C 
ATOM     50  C   UNL A   1      39.326  30.101  33.596  1.00  0.00     0.029 A 
ATOM     51  C   UNL A   1      39.682  31.368  33.119  1.00  0.00     0.049 A 
ATOM     52  H   UNL A   1      41.313  32.528  33.792  1.00  0.00     0.167 HD
ATOM     53  C   UNL A   1      37.970  31.998  31.584  1.00  0.00     0.074 A 
ATOM     54  C   UNL A   1      37.019  31.032  32.088  1.00  0.00     0.031 C 
ATOM     55  C   UNL A   1      39.200  32.264  32.095  1.00  0.00     0.031 A 
BRANCH  42  56
ATOM     56  C   UNL A   1      43.774  30.990  34.788  1.00  0.00    -0.014 A 
ATOM     57  C   UNL A   1      43.586  30.806  36.179  1.00  0.00     0.009 A 
ATOM     58  C   UNL A   1      44.587  32.055  34.385  1.00  0.00     0.009 A 
ATOM     59  C   UNL A   1      44.089  31.711  37.113  1.00  0.00     0.001 A 
ATOM     60  C   UNL A   1      45.127  32.941  35.327  1.00  0.00     0.001 A 
ATOM     61  C   UNL A   1      44.848  32.791  36.683  1.00  0.00     0.000 A 
ENDBRANCH  42  56
BRANCH  43  62
ATOM     62  C   UNL A   1      35.904  30.193  27.998  1.00  0.00    -0.014 A 
ATOM     63  C   UNL A   1      35.291  29.064  27.455  1.00  0.00     0.009 A 
ATOM     64  C   UNL A   1      35.111  31.377  28.001  1.00  0.00     0.009 A 
ATOM     65  C   UNL A   1      33.947  29.103  27.022  1.00  0.00     0.001 A 
ATOM     66  C   UNL A   1      33.768  31.411  27.621  1.00  0.00     0.001 A 
ATOM     67  C   UNL A   1      33.179  30.261  27.137  1.00  0.00     0.000 A 
ENDBRANCH  43  62
BRANCH  55  68
ATOM     68  C   UNL A   1      40.084  33.132  31.208  1.00  0.00    -0.014 A 
ATOM     69  C   UNL A   1      39.588  34.333  30.675  1.00  0.00     0.009 A 
ATOM     70  C   UNL A   1      41.358  32.722  30.779  1.00  0.00     0.009 A 
ATOM     71  C   UNL A   1      40.322  35.073  29.736  1.00  0.00     0.001 A 
ATOM     72  C   UNL A   1      42.098  33.458  29.843  1.00  0.00     0.001 A 
ATOM     73  C   UNL A   1      41.575  34.634  29.316  1.00  0.00     0.000 A 
ENDBRANCH  55  68
ENDBRANCH  29  30
ENDBRANCH  22  24
ENDBRANCH  21  22
ENDBRANCH  20  21
ENDBRANCH   1  20
TORSDOF 14
ENDMDL
