MODEL 1
REMARK VINA RESULT:     -10.5      0.000      0.000
REMARK SMILES COC(=O)c1ccc(Cl)c(-c2ccc(C(=O)OCCOC(=O)c3ccc(-c4c5nc(c(-c6ccccc6)c6ccc([nH]6)c(-c6ccccc6)c6nc(c(-c7ccccc7)c7ccc4[nH]7)C=C6)C=C5)cc3)nc2)c1
REMARK SMILES IDX 18 1 17 2 15 3 16 4 14 5 11 6 12 7 72 8 13 9 71 10 10 11
REMARK SMILES IDX 5 12 6 13 73 14 7 15 8 16 9 17 3 18 4 19 2 20 1 21 19 22
REMARK SMILES IDX 20 23 21 24 22 25 23 26 24 27 70 28 25 29 69 30 26 31 27 32
REMARK SMILES IDX 28 33 63 34 29 35 68 36 62 37 64 38 30 39 67 40 61 41 60 42
REMARK SMILES IDX 31 44 53 45 38 46 52 47 39 48 42 49 51 50 65 51 40 52 41 53
REMARK SMILES IDX 50 55 66 56 43 57 32 58 33 59 37 60 34 61 36 62 35 63 54 64
REMARK SMILES IDX 55 65 59 66 56 67 58 68 57 69 44 70 45 71 49 72 46 73 48 74
REMARK SMILES IDX 47 75
REMARK H PARENT 64 43 42 54
REMARK Flexibility Score: inf
ROOT
ATOM      1  C   UNL A   1      42.328  19.310  26.477  1.00  0.00     0.275 C 
ENDROOT
BRANCH   1   2
ATOM      2  O   UNL A   1      41.615  20.343  25.765  1.00  0.00    -0.457 OA
BRANCH   2   3
ATOM      3  C   UNL A   1      41.368  21.474  26.478  1.00  0.00     0.357 C 
ATOM      4  O   UNL A   1      42.197  22.097  27.124  1.00  0.00    -0.244 OA
BRANCH   3   5
ATOM      5  C   UNL A   1      39.957  21.941  26.280  1.00  0.00     0.148 A 
ATOM      6  C   UNL A   1      37.311  22.606  25.826  1.00  0.00     0.002 A 
ATOM      7  C   UNL A   1      38.199  23.560  26.342  1.00  0.00     0.013 A 
ATOM      8  C   UNL A   1      37.827  21.340  25.583  1.00  0.00     0.120 A 
ATOM      9  C   UNL A   1      39.538  23.227  26.585  1.00  0.00     0.037 A 
ATOM     10  N   UNL A   1      39.119  21.001  25.768  1.00  0.00    -0.249 NA
BRANCH   6  11
ATOM     11  C   UNL A   1      35.931  22.925  25.442  1.00  0.00     0.003 A 
ATOM     12  C   UNL A   1      33.566  23.150  26.036  1.00  0.00     0.060 A 
ATOM     13  C   UNL A   1      33.248  23.380  24.693  1.00  0.00     0.017 A 
ATOM     14  C   UNL A   1      34.904  22.934  26.407  1.00  0.00     0.026 A 
ATOM     15  C   UNL A   1      34.254  23.380  23.726  1.00  0.00     0.022 A 
ATOM     16  C   UNL A   1      35.581  23.149  24.094  1.00  0.00     0.048 A 
ATOM     17  Cl  UNL A   1      36.759  23.114  22.825  1.00  0.00    -0.084 Cl
BRANCH  12  18
ATOM     18  C   UNL A   1      32.513  23.131  27.089  1.00  0.00     0.337 C 
ATOM     19  O   UNL A   1      32.656  22.608  28.178  1.00  0.00    -0.246 OA
BRANCH  18  20
ATOM     20  O   UNL A   1      31.395  23.748  26.631  1.00  0.00    -0.465 OA
ATOM     21  C   UNL A   1      30.174  23.051  26.890  1.00  0.00     0.282 C 
ENDBRANCH  18  20
ENDBRANCH  12  18
ENDBRANCH   6  11
ENDBRANCH   3   5
ENDBRANCH   2   3
ENDBRANCH   1   2
BRANCH   1  22
ATOM     22  C   UNL A   1      43.235  18.509  25.537  1.00  0.00     0.275 C 
BRANCH  22  23
ATOM     23  O   UNL A   1      43.554  19.251  24.345  1.00  0.00    -0.458 OA
BRANCH  23  24
ATOM     24  C   UNL A   1      44.840  19.665  24.249  1.00  0.00     0.338 C 
ATOM     25  O   UNL A   1      45.780  19.063  23.759  1.00  0.00    -0.246 OA
BRANCH  24  26
ATOM     26  C   UNL A   1      44.950  21.041  24.752  1.00  0.00     0.060 A 
ATOM     27  C   UNL A   1      44.575  22.074  23.899  1.00  0.00     0.016 A 
ATOM     28  C   UNL A   1      45.502  21.327  25.997  1.00  0.00     0.016 A 
ATOM     29  C   UNL A   1      44.790  23.399  24.249  1.00  0.00     0.010 A 
ATOM     30  C   UNL A   1      45.649  22.665  26.386  1.00  0.00     0.010 A 
ATOM     31  C   UNL A   1      45.298  23.712  25.512  1.00  0.00    -0.014 A 
BRANCH  31  32
ATOM     32  C   UNL A   1      45.415  25.132  25.921  1.00  0.00     0.031 A 
ATOM     33  C   UNL A   1      46.736  25.840  25.859  1.00  0.00     0.074 A 
ATOM     34  C   UNL A   1      44.317  25.789  26.344  1.00  0.00     0.049 A 
ATOM     35  N   UNL A   1      47.053  27.035  26.285  1.00  0.00    -0.248 NA
ATOM     36  C   UNL A   1      47.848  25.105  25.238  1.00  0.00     0.031 C 
ATOM     37  C   UNL A   1      42.961  25.236  26.379  1.00  0.00     0.029 A 
ATOM     38  N   UNL A   1      44.166  27.067  26.817  1.00  0.00    -0.354 N 
ATOM     39  C   UNL A   1      48.409  27.185  26.018  1.00  0.00     0.074 A 
ATOM     40  C   UNL A   1      48.855  25.951  25.405  1.00  0.00     0.031 C 
ATOM     41  C   UNL A   1      42.114  26.178  26.818  1.00  0.00     0.029 A 
ATOM     42  C   UNL A   1      42.876  27.366  27.180  1.00  0.00     0.049 A 
ATOM     43  H   UNL A   1      44.911  27.707  26.890  1.00  0.00     0.167 HD
ATOM     44  C   UNL A   1      49.206  28.252  26.270  1.00  0.00     0.031 A 
ATOM     45  C   UNL A   1      42.366  28.456  27.780  1.00  0.00     0.031 A 
ATOM     46  C   UNL A   1      48.751  29.471  26.888  1.00  0.00     0.049 A 
ATOM     47  C   UNL A   1      43.292  29.573  28.163  1.00  0.00     0.074 A 
ATOM     48  C   UNL A   1      49.472  30.617  27.174  1.00  0.00     0.029 A 
ATOM     49  N   UNL A   1      47.453  29.696  27.328  1.00  0.00    -0.354 N 
ATOM     50  N   UNL A   1      44.573  29.701  27.919  1.00  0.00    -0.248 NA
ATOM     51  C   UNL A   1      42.705  30.684  28.923  1.00  0.00     0.031 C 
ATOM     52  C   UNL A   1      48.629  31.506  27.850  1.00  0.00     0.029 A 
ATOM     53  C   UNL A   1      47.365  30.942  27.928  1.00  0.00     0.049 A 
ATOM     54  H   UNL A   1      46.706  29.063  27.228  1.00  0.00     0.167 HD
ATOM     55  C   UNL A   1      44.947  30.911  28.484  1.00  0.00     0.074 A 
ATOM     56  C   UNL A   1      43.750  31.488  29.066  1.00  0.00     0.031 C 
ATOM     57  C   UNL A   1      46.171  31.493  28.519  1.00  0.00     0.031 A 
BRANCH  44  58
ATOM     58  C   UNL A   1      50.667  28.111  25.937  1.00  0.00    -0.014 A 
ATOM     59  C   UNL A   1      51.175  28.452  24.674  1.00  0.00     0.009 A 
ATOM     60  C   UNL A   1      51.551  27.619  26.910  1.00  0.00     0.009 A 
ATOM     61  C   UNL A   1      52.527  28.252  24.377  1.00  0.00     0.001 A 
ATOM     62  C   UNL A   1      52.906  27.451  26.622  1.00  0.00     0.001 A 
ATOM     63  C   UNL A   1      53.390  27.753  25.350  1.00  0.00     0.000 A 
ENDBRANCH  44  58
BRANCH  45  64
ATOM     64  C   UNL A   1      40.914  28.517  28.089  1.00  0.00    -0.014 A 
ATOM     65  C   UNL A   1      40.412  27.923  29.255  1.00  0.00     0.009 A 
ATOM     66  C   UNL A   1      40.028  29.197  27.238  1.00  0.00     0.009 A 
ATOM     67  C   UNL A   1      39.051  28.007  29.561  1.00  0.00     0.001 A 
ATOM     68  C   UNL A   1      38.673  29.305  27.561  1.00  0.00     0.001 A 
ATOM     69  C   UNL A   1      38.186  28.705  28.720  1.00  0.00     0.000 A 
ENDBRANCH  45  64
BRANCH  57  70
ATOM     70  C   UNL A   1      46.274  32.827  29.201  1.00  0.00    -0.014 A 
ATOM     71  C   UNL A   1      46.039  34.020  28.500  1.00  0.00     0.009 A 
ATOM     72  C   UNL A   1      46.570  32.889  30.572  1.00  0.00     0.009 A 
ATOM     73  C   UNL A   1      46.121  35.250  29.154  1.00  0.00     0.001 A 
ATOM     74  C   UNL A   1      46.622  34.119  31.230  1.00  0.00     0.001 A 
ATOM     75  C   UNL A   1      46.405  35.298  30.519  1.00  0.00     0.000 A 
ENDBRANCH  57  70
ENDBRANCH  31  32
ENDBRANCH  24  26
ENDBRANCH  23  24
ENDBRANCH  22  23
ENDBRANCH   1  22
TORSDOF 14
ENDMDL
MODEL 2
REMARK VINA RESULT:     -10.4      1.611      1.831
REMARK SMILES COC(=O)c1ccc(Cl)c(-c2ccc(C(=O)OCCOC(=O)c3ccc(-c4c5nc(c(-c6ccccc6)c6ccc([nH]6)c(-c6ccccc6)c6nc(c(-c7ccccc7)c7ccc4[nH]7)C=C6)C=C5)cc3)nc2)c1
REMARK SMILES IDX 18 1 17 2 15 3 16 4 14 5 11 6 12 7 72 8 13 9 71 10 10 11
REMARK SMILES IDX 5 12 6 13 73 14 7 15 8 16 9 17 3 18 4 19 2 20 1 21 19 22
REMARK SMILES IDX 20 23 21 24 22 25 23 26 24 27 70 28 25 29 69 30 26 31 27 32
REMARK SMILES IDX 28 33 63 34 29 35 68 36 62 37 64 38 30 39 67 40 61 41 60 42
REMARK SMILES IDX 31 44 53 45 38 46 52 47 39 48 42 49 51 50 65 51 40 52 41 53
REMARK SMILES IDX 50 55 66 56 43 57 32 58 33 59 37 60 34 61 36 62 35 63 54 64
REMARK SMILES IDX 55 65 59 66 56 67 58 68 57 69 44 70 45 71 49 72 46 73 48 74
REMARK SMILES IDX 47 75
REMARK H PARENT 64 43 42 54
REMARK Flexibility Score: inf
ROOT
ATOM      1  C   UNL A   1      42.291  19.308  26.395  1.00  0.00     0.275 C 
ENDROOT
BRANCH   1   2
ATOM      2  O   UNL A   1      41.580  20.226  25.537  1.00  0.00    -0.457 OA
BRANCH   2   3
ATOM      3  C   UNL A   1      41.005  21.284  26.168  1.00  0.00     0.357 C 
ATOM      4  O   UNL A   1      41.605  22.138  26.802  1.00  0.00    -0.244 OA
BRANCH   3   5
ATOM      5  C   UNL A   1      39.533  21.344  25.891  1.00  0.00     0.148 A 
ATOM      6  C   UNL A   1      36.833  21.252  25.298  1.00  0.00     0.002 A 
ATOM      7  C   UNL A   1      37.401  22.423  25.817  1.00  0.00     0.013 A 
ATOM      8  C   UNL A   1      37.685  20.169  25.124  1.00  0.00     0.120 A 
ATOM      9  C   UNL A   1      38.765  22.473  26.130  1.00  0.00     0.037 A 
ATOM     10  N   UNL A   1      39.009  20.199  25.377  1.00  0.00    -0.249 NA
BRANCH   6  11
ATOM     11  C   UNL A   1      35.441  21.173  24.842  1.00  0.00     0.003 A 
ATOM     12  C   UNL A   1      33.429  19.847  24.402  1.00  0.00     0.060 A 
ATOM     13  C   UNL A   1      32.816  20.966  23.824  1.00  0.00     0.017 A 
ATOM     14  C   UNL A   1      34.732  19.957  24.916  1.00  0.00     0.026 A 
ATOM     15  C   UNL A   1      33.502  22.177  23.747  1.00  0.00     0.022 A 
ATOM     16  C   UNL A   1      34.803  22.280  24.245  1.00  0.00     0.048 A 
ATOM     17  Cl  UNL A   1      35.601  23.806  24.062  1.00  0.00    -0.084 Cl
BRANCH  12  18
ATOM     18  C   UNL A   1      32.727  18.537  24.486  1.00  0.00     0.337 C 
ATOM     19  O   UNL A   1      32.140  18.147  25.477  1.00  0.00    -0.246 OA
BRANCH  18  20
ATOM     20  O   UNL A   1      32.876  17.861  23.318  1.00  0.00    -0.465 OA
ATOM     21  C   UNL A   1      33.667  16.674  23.407  1.00  0.00     0.282 C 
ENDBRANCH  18  20
ENDBRANCH  12  18
ENDBRANCH   6  11
ENDBRANCH   3   5
ENDBRANCH   2   3
ENDBRANCH   1   2
BRANCH   1  22
ATOM     22  C   UNL A   1      43.374  18.547  25.624  1.00  0.00     0.275 C 
BRANCH  22  23
ATOM     23  O   UNL A   1      43.690  19.190  24.375  1.00  0.00    -0.458 OA
BRANCH  23  24
ATOM     24  C   UNL A   1      44.981  19.573  24.233  1.00  0.00     0.338 C 
ATOM     25  O   UNL A   1      45.912  18.907  23.814  1.00  0.00    -0.246 OA
BRANCH  24  26
ATOM     26  C   UNL A   1      45.110  20.996  24.579  1.00  0.00     0.060 A 
ATOM     27  C   UNL A   1      45.638  21.314  25.825  1.00  0.00     0.016 A 
ATOM     28  C   UNL A   1      44.632  22.001  23.743  1.00  0.00     0.016 A 
ATOM     29  C   UNL A   1      45.653  22.626  26.278  1.00  0.00     0.010 A 
ATOM     30  C   UNL A   1      44.717  23.334  24.164  1.00  0.00     0.010 A 
ATOM     31  C   UNL A   1      45.223  23.656  25.438  1.00  0.00    -0.014 A 
BRANCH  31  32
ATOM     32  C   UNL A   1      45.351  25.064  25.886  1.00  0.00     0.031 A 
ATOM     33  C   UNL A   1      46.673  25.769  25.827  1.00  0.00     0.074 A 
ATOM     34  C   UNL A   1      44.260  25.711  26.341  1.00  0.00     0.049 A 
ATOM     35  N   UNL A   1      46.999  26.951  26.283  1.00  0.00    -0.248 NA
ATOM     36  C   UNL A   1      47.774  25.049  25.170  1.00  0.00     0.031 C 
ATOM     37  C   UNL A   1      42.903  25.162  26.379  1.00  0.00     0.029 A 
ATOM     38  N   UNL A   1      44.120  26.976  26.853  1.00  0.00    -0.354 N 
ATOM     39  C   UNL A   1      48.352  27.105  26.003  1.00  0.00     0.074 A 
ATOM     40  C   UNL A   1      48.786  25.887  25.349  1.00  0.00     0.031 C 
ATOM     41  C   UNL A   1      42.065  26.093  26.856  1.00  0.00     0.029 A 
ATOM     42  C   UNL A   1      42.836  27.268  27.242  1.00  0.00     0.049 A 
ATOM     43  H   UNL A   1      44.867  27.611  26.935  1.00  0.00     0.167 HD
ATOM     44  C   UNL A   1      49.155  28.161  26.274  1.00  0.00     0.031 A 
ATOM     45  C   UNL A   1      42.337  28.342  27.879  1.00  0.00     0.031 A 
ATOM     46  C   UNL A   1      48.713  29.363  26.934  1.00  0.00     0.049 A 
ATOM     47  C   UNL A   1      43.271  29.445  28.283  1.00  0.00     0.074 A 
ATOM     48  C   UNL A   1      49.441  30.499  27.243  1.00  0.00     0.029 A 
ATOM     49  N   UNL A   1      47.422  29.579  27.396  1.00  0.00    -0.354 N 
ATOM     50  N   UNL A   1      44.549  29.576  28.025  1.00  0.00    -0.248 NA
ATOM     51  C   UNL A   1      42.698  30.535  29.081  1.00  0.00     0.031 C 
ATOM     52  C   UNL A   1      48.610  31.370  27.955  1.00  0.00     0.029 A 
ATOM     53  C   UNL A   1      47.345  30.808  28.033  1.00  0.00     0.049 A 
ATOM     54  H   UNL A   1      46.671  28.952  27.289  1.00  0.00     0.167 HD
ATOM     55  C   UNL A   1      44.934  30.768  28.621  1.00  0.00     0.074 A 
ATOM     56  C   UNL A   1      43.747  31.332  29.235  1.00  0.00     0.031 C 
ATOM     57  C   UNL A   1      46.161  31.345  28.656  1.00  0.00     0.031 A 
BRANCH  44  58
ATOM     58  C   UNL A   1      50.612  28.026  25.918  1.00  0.00    -0.014 A 
ATOM     59  C   UNL A   1      51.108  28.418  24.665  1.00  0.00     0.009 A 
ATOM     60  C   UNL A   1      51.504  27.488  26.860  1.00  0.00     0.009 A 
ATOM     61  C   UNL A   1      52.454  28.222  24.344  1.00  0.00     0.001 A 
ATOM     62  C   UNL A   1      52.855  27.324  26.548  1.00  0.00     0.001 A 
ATOM     63  C   UNL A   1      53.326  27.677  25.285  1.00  0.00     0.000 A 
ENDBRANCH  44  58
BRANCH  45  64
ATOM     64  C   UNL A   1      40.889  28.398  28.209  1.00  0.00    -0.014 A 
ATOM     65  C   UNL A   1      40.406  27.809  29.387  1.00  0.00     0.009 A 
ATOM     66  C   UNL A   1      39.987  29.068  27.366  1.00  0.00     0.009 A 
ATOM     67  C   UNL A   1      39.050  27.889  29.712  1.00  0.00     0.001 A 
ATOM     68  C   UNL A   1      38.637  29.171  27.708  1.00  0.00     0.001 A 
ATOM     69  C   UNL A   1      38.170  28.577  28.878  1.00  0.00     0.000 A 
ENDBRANCH  45  64
BRANCH  57  70
ATOM     70  C   UNL A   1      46.277  32.658  29.374  1.00  0.00    -0.014 A 
ATOM     71  C   UNL A   1      46.028  33.871  28.713  1.00  0.00     0.009 A 
ATOM     72  C   UNL A   1      46.600  32.680  30.740  1.00  0.00     0.009 A 
ATOM     73  C   UNL A   1      46.122  35.082  29.402  1.00  0.00     0.001 A 
ATOM     74  C   UNL A   1      46.665  33.891  31.433  1.00  0.00     0.001 A 
ATOM     75  C   UNL A   1      46.433  35.090  30.762  1.00  0.00     0.000 A 
ENDBRANCH  57  70
ENDBRANCH  31  32
ENDBRANCH  24  26
ENDBRANCH  23  24
ENDBRANCH  22  23
ENDBRANCH   1  22
TORSDOF 14
ENDMDL
MODEL 3
REMARK VINA RESULT:     -10.4      3.725      8.746
REMARK SMILES COC(=O)c1ccc(Cl)c(-c2ccc(C(=O)OCCOC(=O)c3ccc(-c4c5nc(c(-c6ccccc6)c6ccc([nH]6)c(-c6ccccc6)c6nc(c(-c7ccccc7)c7ccc4[nH]7)C=C6)C=C5)cc3)nc2)c1
REMARK SMILES IDX 18 1 17 2 15 3 16 4 14 5 11 6 12 7 72 8 13 9 71 10 10 11
REMARK SMILES IDX 5 12 6 13 73 14 7 15 8 16 9 17 3 18 4 19 2 20 1 21 19 22
REMARK SMILES IDX 20 23 21 24 22 25 23 26 24 27 70 28 25 29 69 30 26 31 27 32
REMARK SMILES IDX 28 33 63 34 29 35 68 36 62 37 64 38 30 39 67 40 61 41 60 42
REMARK SMILES IDX 31 44 53 45 38 46 52 47 39 48 42 49 51 50 65 51 40 52 41 53
REMARK SMILES IDX 50 55 66 56 43 57 32 58 33 59 37 60 34 61 36 62 35 63 54 64
REMARK SMILES IDX 55 65 59 66 56 67 58 68 57 69 44 70 45 71 49 72 46 73 48 74
REMARK SMILES IDX 47 75
REMARK H PARENT 64 43 42 54
REMARK Flexibility Score: inf
ROOT
ATOM      1  C   UNL A   1      43.034  19.132  25.809  1.00  0.00     0.275 C 
ENDROOT
BRANCH   1   2
ATOM      2  O   UNL A   1      43.347  20.367  25.131  1.00  0.00    -0.457 OA
BRANCH   2   3
ATOM      3  C   UNL A   1      44.672  20.654  25.030  1.00  0.00     0.357 C 
ATOM      4  O   UNL A   1      45.558  19.838  24.823  1.00  0.00    -0.244 OA
BRANCH   3   5
ATOM      5  C   UNL A   1      44.911  22.133  25.088  1.00  0.00     0.148 A 
ATOM      6  C   UNL A   1      45.553  24.817  25.266  1.00  0.00     0.002 A 
ATOM      7  C   UNL A   1      44.255  24.425  24.909  1.00  0.00     0.013 A 
ATOM      8  C   UNL A   1      46.470  23.801  25.499  1.00  0.00     0.120 A 
ATOM      9  C   UNL A   1      43.926  23.068  24.806  1.00  0.00     0.037 A 
ATOM     10  N   UNL A   1      46.173  22.487  25.448  1.00  0.00    -0.249 NA
BRANCH   6  11
ATOM     11  C   UNL A   1      45.928  26.216  25.505  1.00  0.00     0.003 A 
ATOM     12  C   UNL A   1      45.315  28.484  26.195  1.00  0.00     0.060 A 
ATOM     13  C   UNL A   1      46.584  28.943  25.822  1.00  0.00     0.017 A 
ATOM     14  C   UNL A   1      44.995  27.125  26.044  1.00  0.00     0.026 A 
ATOM     15  C   UNL A   1      47.520  28.056  25.291  1.00  0.00     0.022 A 
ATOM     16  C   UNL A   1      47.195  26.707  25.128  1.00  0.00     0.048 A 
ATOM     17  Cl  UNL A   1      48.397  25.686  24.413  1.00  0.00    -0.084 Cl
BRANCH  12  18
ATOM     18  C   UNL A   1      44.290  29.409  26.752  1.00  0.00     0.337 C 
ATOM     19  O   UNL A   1      43.417  29.064  27.525  1.00  0.00    -0.246 OA
BRANCH  18  20
ATOM     20  O   UNL A   1      44.470  30.655  26.242  1.00  0.00    -0.465 OA
ATOM     21  C   UNL A   1      44.154  31.722  27.138  1.00  0.00     0.282 C 
ENDBRANCH  18  20
ENDBRANCH  12  18
ENDBRANCH   6  11
ENDBRANCH   3   5
ENDBRANCH   2   3
ENDBRANCH   1   2
BRANCH   1  22
ATOM     22  C   UNL A   1      41.534  18.827  25.751  1.00  0.00     0.275 C 
BRANCH  22  23
ATOM     23  O   UNL A   1      40.803  19.558  26.752  1.00  0.00    -0.458 OA
BRANCH  23  24
ATOM     24  C   UNL A   1      40.053  20.585  26.285  1.00  0.00     0.338 C 
ATOM     25  O   UNL A   1      39.040  20.519  25.610  1.00  0.00    -0.246 OA
BRANCH  24  26
ATOM     26  C   UNL A   1      40.589  21.854  26.797  1.00  0.00     0.060 A 
ATOM     27  C   UNL A   1      41.284  21.825  28.001  1.00  0.00     0.016 A 
ATOM     28  C   UNL A   1      40.334  23.068  26.165  1.00  0.00     0.016 A 
ATOM     29  C   UNL A   1      41.688  23.000  28.618  1.00  0.00     0.010 A 
ATOM     30  C   UNL A   1      40.809  24.251  26.745  1.00  0.00     0.010 A 
ATOM     31  C   UNL A   1      41.486  24.226  27.980  1.00  0.00    -0.014 A 
BRANCH  31  32
ATOM     32  C   UNL A   1      42.024  25.465  28.591  1.00  0.00     0.031 A 
ATOM     33  C   UNL A   1      41.113  26.604  28.942  1.00  0.00     0.074 A 
ATOM     34  C   UNL A   1      43.345  25.557  28.838  1.00  0.00     0.049 A 
ATOM     35  N   UNL A   1      41.416  27.803  29.369  1.00  0.00    -0.248 NA
ATOM     36  C   UNL A   1      39.670  26.363  28.790  1.00  0.00     0.031 C 
ATOM     37  C   UNL A   1      44.326  24.492  28.613  1.00  0.00     0.029 A 
ATOM     38  N   UNL A   1      44.091  26.593  29.341  1.00  0.00    -0.354 N 
ATOM     39  C   UNL A   1      40.207  28.474  29.504  1.00  0.00     0.074 A 
ATOM     40  C   UNL A   1      39.167  27.550  29.099  1.00  0.00     0.031 C 
ATOM     41  C   UNL A   1      45.535  24.918  29.004  1.00  0.00     0.029 A 
ATOM     42  C   UNL A   1      45.432  26.311  29.421  1.00  0.00     0.049 A 
ATOM     43  H   UNL A   1      43.702  27.455  29.616  1.00  0.00     0.167 HD
ATOM     44  C   UNL A   1      39.989  29.745  29.919  1.00  0.00     0.031 A 
ATOM     45  C   UNL A   1      46.474  27.096  29.749  1.00  0.00     0.031 A 
ATOM     46  C   UNL A   1      41.033  30.656  30.311  1.00  0.00     0.049 A 
ATOM     47  C   UNL A   1      46.219  28.537  30.083  1.00  0.00     0.074 A 
ATOM     48  C   UNL A   1      40.920  31.960  30.762  1.00  0.00     0.029 A 
ATOM     49  N   UNL A   1      42.389  30.359  30.286  1.00  0.00    -0.354 N 
ATOM     50  N   UNL A   1      45.075  29.166  30.195  1.00  0.00    -0.248 NA
ATOM     51  C   UNL A   1      47.399  29.378  30.315  1.00  0.00     0.031 C 
ATOM     52  C   UNL A   1      42.209  32.474  30.941  1.00  0.00     0.029 A 
ATOM     53  C   UNL A   1      43.126  31.471  30.666  1.00  0.00     0.049 A 
ATOM     54  H   UNL A   1      42.772  29.488  30.036  1.00  0.00     0.167 HD
ATOM     55  C   UNL A   1      45.395  30.476  30.521  1.00  0.00     0.074 A 
ATOM     56  C   UNL A   1      46.840  30.545  30.609  1.00  0.00     0.031 C 
ATOM     57  C   UNL A   1      44.564  31.528  30.729  1.00  0.00     0.031 A 
BRANCH  44  58
ATOM     58  C   UNL A   1      38.567  30.240  29.900  1.00  0.00    -0.014 A 
ATOM     59  C   UNL A   1      37.709  30.072  30.998  1.00  0.00     0.009 A 
ATOM     60  C   UNL A   1      38.077  30.882  28.751  1.00  0.00     0.009 A 
ATOM     61  C   UNL A   1      36.376  30.488  30.925  1.00  0.00     0.001 A 
ATOM     62  C   UNL A   1      36.755  31.326  28.693  1.00  0.00     0.001 A 
ATOM     63  C   UNL A   1      35.901  31.114  29.774  1.00  0.00     0.000 A 
ENDBRANCH  44  58
BRANCH  45  64
ATOM     64  C   UNL A   1      47.852  26.539  29.733  1.00  0.00    -0.014 A 
ATOM     65  C   UNL A   1      48.410  25.995  30.898  1.00  0.00     0.009 A 
ATOM     66  C   UNL A   1      48.602  26.518  28.546  1.00  0.00     0.009 A 
ATOM     67  C   UNL A   1      49.693  25.443  30.875  1.00  0.00     0.001 A 
ATOM     68  C   UNL A   1      49.873  25.940  28.519  1.00  0.00     0.001 A 
ATOM     69  C   UNL A   1      50.419  25.408  29.685  1.00  0.00     0.000 A 
ENDBRANCH  45  64
BRANCH  57  70
ATOM     70  C   UNL A   1      45.202  32.841  31.082  1.00  0.00    -0.014 A 
ATOM     71  C   UNL A   1      45.479  33.177  32.416  1.00  0.00     0.009 A 
ATOM     72  C   UNL A   1      45.568  33.735  30.063  1.00  0.00     0.009 A 
ATOM     73  C   UNL A   1      46.090  34.394  32.724  1.00  0.00     0.001 A 
ATOM     74  C   UNL A   1      46.204  34.938  30.373  1.00  0.00     0.001 A 
ATOM     75  C   UNL A   1      46.459  35.270  31.702  1.00  0.00     0.000 A 
ENDBRANCH  57  70
ENDBRANCH  31  32
ENDBRANCH  24  26
ENDBRANCH  23  24
ENDBRANCH  22  23
ENDBRANCH   1  22
TORSDOF 14
ENDMDL
