MODEL 1
REMARK VINA RESULT:      -9.7      0.000      0.000
REMARK SMILES C[C@H]([NH2+]CC1(O)CCCC1)[C@H](C)C(=O)OCCOC(=O)c1ccc(-c2c3nc(c(-c4ccccc4)c4ccc([nH]4)c(-c4ccccc4)c4nc(c(-c5ccccc5)c5ccc2[nH]5)C=C4)C=C3)cc1
REMARK SMILES IDX 15 1 13 2 14 3 11 4 12 5 2 6 1 7 3 8 4 11 5 12 7 13 10 14
REMARK SMILES IDX 8 15 9 16 6 17 16 19 17 20 18 21 19 22 20 23 21 24 22 25
REMARK SMILES IDX 68 26 23 27 67 28 24 29 25 30 26 31 61 32 27 33 66 34 60 35
REMARK SMILES IDX 62 36 28 37 65 38 59 39 58 40 29 42 51 43 36 44 50 45 37 46
REMARK SMILES IDX 40 47 49 48 63 49 38 50 39 51 48 53 64 54 41 55 30 56 31 57
REMARK SMILES IDX 35 58 32 59 34 60 33 61 52 62 53 63 57 64 54 65 56 66 55 67
REMARK SMILES IDX 42 68 43 69 47 70 44 71 46 72 45 73
REMARK H PARENT 3 9 3 10 6 18 62 41 40 52
REMARK Flexibility Score: inf
ROOT
ATOM      1  O   UNL A   1      35.227  22.905  23.564  1.00  0.00    -0.462 OA
ENDROOT
BRANCH   1   2
ATOM      2  C   UNL A   1      34.750  23.770  24.495  1.00  0.00     0.314 C 
ATOM      3  O   UNL A   1      35.445  24.527  25.165  1.00  0.00    -0.252 OA
BRANCH   2   4
ATOM      4  C   UNL A   1      33.233  23.733  24.629  1.00  0.00     0.154 C 
ATOM      5  C   UNL A   1      32.487  24.210  23.377  1.00  0.00     0.026 C 
BRANCH   4   6
ATOM      6  C   UNL A   1      32.743  22.381  25.207  1.00  0.00     0.193 C 
ATOM      7  C   UNL A   1      33.128  22.278  26.693  1.00  0.00     0.076 C 
BRANCH   6   8
ATOM      8  N   UNL A   1      33.220  21.166  24.543  1.00  0.00    -0.341 N 
ATOM      9  H   UNL A   1      34.118  20.910  24.954  1.00  0.00     0.346 HD
ATOM     10  H   UNL A   1      33.283  21.386  23.549  1.00  0.00     0.346 HD
BRANCH   8  11
ATOM     11  C   UNL A   1      32.324  20.016  24.656  1.00  0.00     0.296 C 
BRANCH  11  12
ATOM     12  C   UNL A   1      33.002  18.691  25.086  1.00  0.00     0.113 C 
ATOM     13  C   UNL A   1      34.466  18.634  24.624  1.00  0.00     0.041 C 
ATOM     14  C   UNL A   1      32.395  17.473  24.389  1.00  0.00     0.041 C 
ATOM     15  C   UNL A   1      34.809  17.149  24.551  1.00  0.00     0.003 C 
ATOM     16  C   UNL A   1      33.477  16.402  24.495  1.00  0.00     0.003 C 
BRANCH  12  17
ATOM     17  O   UNL A   1      32.894  18.496  26.501  1.00  0.00    -0.384 OA
ATOM     18  H   UNL A   1      33.781  18.464  26.891  1.00  0.00     0.211 HD
ENDBRANCH  12  17
ENDBRANCH  11  12
ENDBRANCH   8  11
ENDBRANCH   6   8
ENDBRANCH   4   6
ENDBRANCH   2   4
ENDBRANCH   1   2
BRANCH   1  19
ATOM     19  C   UNL A   1      36.653  22.710  23.535  1.00  0.00     0.274 C 
BRANCH  19  20
ATOM     20  C   UNL A   1      37.055  21.448  24.301  1.00  0.00     0.275 C 
BRANCH  20  21
ATOM     21  O   UNL A   1      37.423  21.764  25.655  1.00  0.00    -0.458 OA
BRANCH  21  22
ATOM     22  C   UNL A   1      38.703  21.475  25.976  1.00  0.00     0.338 C 
ATOM     23  O   UNL A   1      39.322  20.447  25.747  1.00  0.00    -0.246 OA
BRANCH  22  24
ATOM     24  C   UNL A   1      39.326  22.656  26.579  1.00  0.00     0.060 A 
ATOM     25  C   UNL A   1      38.892  23.919  26.172  1.00  0.00     0.016 A 
ATOM     26  C   UNL A   1      40.402  22.520  27.451  1.00  0.00     0.016 A 
ATOM     27  C   UNL A   1      39.555  25.061  26.593  1.00  0.00     0.010 A 
ATOM     28  C   UNL A   1      41.055  23.669  27.898  1.00  0.00     0.010 A 
ATOM     29  C   UNL A   1      40.648  24.940  27.451  1.00  0.00    -0.014 A 
BRANCH  29  30
ATOM     30  C   UNL A   1      41.432  26.133  27.823  1.00  0.00     0.031 A 
ATOM     31  C   UNL A   1      40.803  27.162  28.710  1.00  0.00     0.074 A 
ATOM     32  C   UNL A   1      42.682  26.293  27.358  1.00  0.00     0.049 A 
ATOM     33  N   UNL A   1      41.194  28.382  28.966  1.00  0.00    -0.248 NA
ATOM     34  C   UNL A   1      39.561  26.764  29.394  1.00  0.00     0.031 C 
ATOM     35  C   UNL A   1      43.430  25.311  26.572  1.00  0.00     0.029 A 
ATOM     36  N   UNL A   1      43.536  27.360  27.465  1.00  0.00    -0.354 N 
ATOM     37  C   UNL A   1      40.221  28.915  29.801  1.00  0.00     0.074 A 
ATOM     38  C   UNL A   1      39.228  27.886  30.016  1.00  0.00     0.031 C 
ATOM     39  C   UNL A   1      44.626  25.830  26.250  1.00  0.00     0.029 A 
ATOM     40  C   UNL A   1      44.694  27.200  26.747  1.00  0.00     0.049 A 
ATOM     41  H   UNL A   1      43.338  28.160  28.004  1.00  0.00     0.167 HD
ATOM     42  C   UNL A   1      40.162  30.161  30.323  1.00  0.00     0.031 A 
ATOM     43  C   UNL A   1      45.670  28.085  26.472  1.00  0.00     0.031 A 
ATOM     44  C   UNL A   1      41.164  31.168  30.101  1.00  0.00     0.049 A 
ATOM     45  C   UNL A   1      45.543  29.489  26.993  1.00  0.00     0.074 A 
ATOM     46  C   UNL A   1      41.200  32.470  30.565  1.00  0.00     0.029 A 
ATOM     47  N   UNL A   1      42.315  30.973  29.352  1.00  0.00    -0.354 N 
ATOM     48  N   UNL A   1      44.595  30.012  27.734  1.00  0.00    -0.248 NA
ATOM     49  C   UNL A   1      46.614  30.428  26.632  1.00  0.00     0.031 C 
ATOM     50  C   UNL A   1      42.357  33.076  30.065  1.00  0.00     0.029 A 
ATOM     51  C   UNL A   1      43.063  32.135  29.330  1.00  0.00     0.049 A 
ATOM     52  H   UNL A   1      42.562  30.134  28.902  1.00  0.00     0.167 HD
ATOM     53  C   UNL A   1      44.968  31.331  27.951  1.00  0.00     0.074 A 
ATOM     54  C   UNL A   1      46.229  31.528  27.267  1.00  0.00     0.031 C 
ATOM     55  C   UNL A   1      44.326  32.293  28.657  1.00  0.00     0.031 A 
BRANCH  42  56
ATOM     56  C   UNL A   1      38.949  30.514  31.132  1.00  0.00    -0.014 A 
ATOM     57  C   UNL A   1      38.920  30.352  32.525  1.00  0.00     0.009 A 
ATOM     58  C   UNL A   1      37.816  31.033  30.483  1.00  0.00     0.009 A 
ATOM     59  C   UNL A   1      37.769  30.674  33.249  1.00  0.00     0.001 A 
ATOM     60  C   UNL A   1      36.677  31.377  31.212  1.00  0.00     0.001 A 
ATOM     61  C   UNL A   1      36.651  31.190  32.593  1.00  0.00     0.000 A 
ENDBRANCH  42  56
BRANCH  43  62
ATOM     62  C   UNL A   1      46.816  27.685  25.617  1.00  0.00    -0.014 A 
ATOM     63  C   UNL A   1      47.973  27.136  26.187  1.00  0.00     0.009 A 
ATOM     64  C   UNL A   1      46.755  27.844  24.222  1.00  0.00     0.009 A 
ATOM     65  C   UNL A   1      49.053  26.771  25.380  1.00  0.00     0.001 A 
ATOM     66  C   UNL A   1      47.826  27.454  23.416  1.00  0.00     0.001 A 
ATOM     67  C   UNL A   1      48.977  26.925  23.996  1.00  0.00     0.000 A 
ENDBRANCH  43  62
BRANCH  55  68
ATOM     68  C   UNL A   1      45.006  33.625  28.778  1.00  0.00    -0.014 A 
ATOM     69  C   UNL A   1      44.744  34.662  27.872  1.00  0.00     0.009 A 
ATOM     70  C   UNL A   1      45.866  33.861  29.862  1.00  0.00     0.009 A 
ATOM     71  C   UNL A   1      45.348  35.909  28.041  1.00  0.00     0.001 A 
ATOM     72  C   UNL A   1      46.449  35.114  30.040  1.00  0.00     0.001 A 
ATOM     73  C   UNL A   1      46.194  36.136  29.127  1.00  0.00     0.000 A 
ENDBRANCH  55  68
ENDBRANCH  29  30
ENDBRANCH  22  24
ENDBRANCH  21  22
ENDBRANCH  20  21
ENDBRANCH  19  20
ENDBRANCH   1  19
TORSDOF 16
ENDMDL
MODEL 2
REMARK VINA RESULT:      -9.5      3.904      8.074
REMARK SMILES C[C@H]([NH2+]CC1(O)CCCC1)[C@H](C)C(=O)OCCOC(=O)c1ccc(-c2c3nc(c(-c4ccccc4)c4ccc([nH]4)c(-c4ccccc4)c4nc(c(-c5ccccc5)c5ccc2[nH]5)C=C4)C=C3)cc1
REMARK SMILES IDX 15 1 13 2 14 3 11 4 12 5 2 6 1 7 3 8 4 11 5 12 7 13 10 14
REMARK SMILES IDX 8 15 9 16 6 17 16 19 17 20 18 21 19 22 20 23 21 24 22 25
REMARK SMILES IDX 68 26 23 27 67 28 24 29 25 30 26 31 61 32 27 33 66 34 60 35
REMARK SMILES IDX 62 36 28 37 65 38 59 39 58 40 29 42 51 43 36 44 50 45 37 46
REMARK SMILES IDX 40 47 49 48 63 49 38 50 39 51 48 53 64 54 41 55 30 56 31 57
REMARK SMILES IDX 35 58 32 59 34 60 33 61 52 62 53 63 57 64 54 65 56 66 55 67
REMARK SMILES IDX 42 68 43 69 47 70 44 71 46 72 45 73
REMARK H PARENT 3 9 3 10 6 18 62 41 40 52
REMARK Flexibility Score: inf
ROOT
ATOM      1  O   UNL A   1      32.149  28.808  26.123  1.00  0.00    -0.462 OA
ENDROOT
BRANCH   1   2
ATOM      2  C   UNL A   1      32.738  28.434  24.958  1.00  0.00     0.314 C 
ATOM      3  O   UNL A   1      33.334  29.196  24.202  1.00  0.00    -0.252 OA
BRANCH   2   4
ATOM      4  C   UNL A   1      32.609  26.944  24.669  1.00  0.00     0.154 C 
ATOM      5  C   UNL A   1      32.921  26.049  25.876  1.00  0.00     0.026 C 
BRANCH   4   6
ATOM      6  C   UNL A   1      31.284  26.617  23.937  1.00  0.00     0.193 C 
ATOM      7  C   UNL A   1      31.582  26.159  22.498  1.00  0.00     0.076 C 
BRANCH   6   8
ATOM      8  N   UNL A   1      30.288  27.688  23.861  1.00  0.00    -0.341 N 
ATOM      9  H   UNL A   1      30.624  28.475  24.414  1.00  0.00     0.346 HD
ATOM     10  H   UNL A   1      29.414  27.294  24.212  1.00  0.00     0.346 HD
BRANCH   8  11
ATOM     11  C   UNL A   1      30.009  28.169  22.508  1.00  0.00     0.296 C 
BRANCH  11  12
ATOM     12  C   UNL A   1      29.519  29.635  22.417  1.00  0.00     0.113 C 
ATOM     13  C   UNL A   1      29.819  30.408  23.710  1.00  0.00     0.041 C 
ATOM     14  C   UNL A   1      27.996  29.736  22.325  1.00  0.00     0.041 C 
ATOM     15  C   UNL A   1      28.808  31.551  23.741  1.00  0.00     0.003 C 
ATOM     16  C   UNL A   1      27.686  31.159  22.781  1.00  0.00     0.003 C 
BRANCH  12  17
ATOM     17  O   UNL A   1      30.080  30.294  21.275  1.00  0.00    -0.384 OA
ATOM     18  H   UNL A   1      29.369  30.555  20.671  1.00  0.00     0.211 HD
ENDBRANCH  12  17
ENDBRANCH  11  12
ENDBRANCH   8  11
ENDBRANCH   6   8
ENDBRANCH   4   6
ENDBRANCH   2   4
ENDBRANCH   1   2
BRANCH   1  19
ATOM     19  C   UNL A   1      32.563  30.068  26.682  1.00  0.00     0.274 C 
BRANCH  19  20
ATOM     20  C   UNL A   1      33.868  29.923  27.467  1.00  0.00     0.275 C 
BRANCH  20  21
ATOM     21  O   UNL A   1      34.489  31.202  27.674  1.00  0.00    -0.458 OA
BRANCH  21  22
ATOM     22  C   UNL A   1      35.129  31.337  28.857  1.00  0.00     0.338 C 
ATOM     23  O   UNL A   1      34.754  31.942  29.850  1.00  0.00    -0.246 OA
BRANCH  22  24
ATOM     24  C   UNL A   1      36.354  30.534  28.836  1.00  0.00     0.060 A 
ATOM     25  C   UNL A   1      36.832  30.017  30.042  1.00  0.00     0.016 A 
ATOM     26  C   UNL A   1      37.082  30.385  27.660  1.00  0.00     0.016 A 
ATOM     27  C   UNL A   1      38.066  29.387  30.099  1.00  0.00     0.010 A 
ATOM     28  C   UNL A   1      38.311  29.728  27.708  1.00  0.00     0.010 A 
ATOM     29  C   UNL A   1      38.816  29.250  28.931  1.00  0.00    -0.014 A 
BRANCH  29  30
ATOM     30  C   UNL A   1      40.177  28.680  28.990  1.00  0.00     0.031 A 
ATOM     31  C   UNL A   1      41.327  29.591  29.291  1.00  0.00     0.074 A 
ATOM     32  C   UNL A   1      40.373  27.371  28.763  1.00  0.00     0.049 A 
ATOM     33  N   UNL A   1      42.608  29.375  29.155  1.00  0.00    -0.248 NA
ATOM     34  C   UNL A   1      40.986  30.927  29.806  1.00  0.00     0.031 C 
ATOM     35  C   UNL A   1      39.319  26.375  28.561  1.00  0.00     0.029 A 
ATOM     36  N   UNL A   1      41.537  26.659  28.643  1.00  0.00    -0.354 N 
ATOM     37  C   UNL A   1      43.224  30.563  29.521  1.00  0.00     0.074 A 
ATOM     38  C   UNL A   1      42.181  31.493  29.892  1.00  0.00     0.031 C 
ATOM     39  C   UNL A   1      39.888  25.182  28.321  1.00  0.00     0.029 A 
ATOM     40  C   UNL A   1      41.337  25.350  28.283  1.00  0.00     0.049 A 
ATOM     41  H   UNL A   1      42.429  27.048  28.798  1.00  0.00     0.167 HD
ATOM     42  C   UNL A   1      44.547  30.850  29.527  1.00  0.00     0.031 A 
ATOM     43  C   UNL A   1      42.224  24.411  27.907  1.00  0.00     0.031 A 
ATOM     44  C   UNL A   1      45.569  29.908  29.159  1.00  0.00     0.049 A 
ATOM     45  C   UNL A   1      43.681  24.775  27.839  1.00  0.00     0.074 A 
ATOM     46  C   UNL A   1      46.939  30.093  29.109  1.00  0.00     0.029 A 
ATOM     47  N   UNL A   1      45.324  28.596  28.783  1.00  0.00    -0.354 N 
ATOM     48  N   UNL A   1      44.260  25.916  28.129  1.00  0.00    -0.248 NA
ATOM     49  C   UNL A   1      44.604  23.727  27.384  1.00  0.00     0.031 C 
ATOM     50  C   UNL A   1      47.521  28.901  28.668  1.00  0.00     0.029 A 
ATOM     51  C   UNL A   1      46.516  27.961  28.489  1.00  0.00     0.049 A 
ATOM     52  H   UNL A   1      44.434  28.179  28.733  1.00  0.00     0.167 HD
ATOM     53  C   UNL A   1      45.617  25.716  27.918  1.00  0.00     0.074 A 
ATOM     54  C   UNL A   1      45.775  24.344  27.480  1.00  0.00     0.031 C 
ATOM     55  C   UNL A   1      46.642  26.587  28.076  1.00  0.00     0.031 A 
BRANCH  42  56
ATOM     56  C   UNL A   1      44.948  32.250  29.885  1.00  0.00    -0.014 A 
ATOM     57  C   UNL A   1      45.059  33.255  28.912  1.00  0.00     0.009 A 
ATOM     58  C   UNL A   1      45.208  32.570  31.227  1.00  0.00     0.009 A 
ATOM     59  C   UNL A   1      45.451  34.547  29.274  1.00  0.00     0.001 A 
ATOM     60  C   UNL A   1      45.576  33.867  31.589  1.00  0.00     0.001 A 
ATOM     61  C   UNL A   1      45.705  34.852  30.611  1.00  0.00     0.000 A 
ENDBRANCH  42  56
BRANCH  43  62
ATOM     62  C   UNL A   1      41.752  23.060  27.510  1.00  0.00    -0.014 A 
ATOM     63  C   UNL A   1      41.704  22.018  28.446  1.00  0.00     0.009 A 
ATOM     64  C   UNL A   1      41.340  22.809  26.190  1.00  0.00     0.009 A 
ATOM     65  C   UNL A   1      41.270  20.746  28.065  1.00  0.00     0.001 A 
ATOM     66  C   UNL A   1      40.881  21.543  25.819  1.00  0.00     0.001 A 
ATOM     67  C   UNL A   1      40.854  20.511  26.755  1.00  0.00     0.000 A 
ENDBRANCH  43  62
BRANCH  55  68
ATOM     68  C   UNL A   1      48.028  26.068  27.835  1.00  0.00    -0.014 A 
ATOM     69  C   UNL A   1      48.623  26.137  26.567  1.00  0.00     0.009 A 
ATOM     70  C   UNL A   1      48.773  25.571  28.917  1.00  0.00     0.009 A 
ATOM     71  C   UNL A   1      49.935  25.697  26.384  1.00  0.00     0.001 A 
ATOM     72  C   UNL A   1      50.090  25.154  28.735  1.00  0.00     0.001 A 
ATOM     73  C   UNL A   1      50.669  25.213  27.468  1.00  0.00     0.000 A 
ENDBRANCH  55  68
ENDBRANCH  29  30
ENDBRANCH  22  24
ENDBRANCH  21  22
ENDBRANCH  20  21
ENDBRANCH  19  20
ENDBRANCH   1  19
TORSDOF 16
ENDMDL
MODEL 3
REMARK VINA RESULT:      -9.5      4.718      9.664
REMARK SMILES C[C@H]([NH2+]CC1(O)CCCC1)[C@H](C)C(=O)OCCOC(=O)c1ccc(-c2c3nc(c(-c4ccccc4)c4ccc([nH]4)c(-c4ccccc4)c4nc(c(-c5ccccc5)c5ccc2[nH]5)C=C4)C=C3)cc1
REMARK SMILES IDX 15 1 13 2 14 3 11 4 12 5 2 6 1 7 3 8 4 11 5 12 7 13 10 14
REMARK SMILES IDX 8 15 9 16 6 17 16 19 17 20 18 21 19 22 20 23 21 24 22 25
REMARK SMILES IDX 68 26 23 27 67 28 24 29 25 30 26 31 61 32 27 33 66 34 60 35
REMARK SMILES IDX 62 36 28 37 65 38 59 39 58 40 29 42 51 43 36 44 50 45 37 46
REMARK SMILES IDX 40 47 49 48 63 49 38 50 39 51 48 53 64 54 41 55 30 56 31 57
REMARK SMILES IDX 35 58 32 59 34 60 33 61 52 62 53 63 57 64 54 65 56 66 55 67
REMARK SMILES IDX 42 68 43 69 47 70 44 71 46 72 45 73
REMARK H PARENT 3 9 3 10 6 18 62 41 40 52
REMARK Flexibility Score: inf
ROOT
ATOM      1  O   UNL A   1      34.653  34.165  29.460  1.00  0.00    -0.462 OA
ENDROOT
BRANCH   1   2
ATOM      2  C   UNL A   1      33.541  34.829  29.868  1.00  0.00     0.314 C 
ATOM      3  O   UNL A   1      32.431  34.708  29.360  1.00  0.00    -0.252 OA
BRANCH   2   4
ATOM      4  C   UNL A   1      33.792  35.749  31.055  1.00  0.00     0.154 C 
ATOM      5  C   UNL A   1      33.167  37.142  30.903  1.00  0.00     0.026 C 
BRANCH   4   6
ATOM      6  C   UNL A   1      33.495  35.042  32.401  1.00  0.00     0.193 C 
ATOM      7  C   UNL A   1      34.261  35.739  33.539  1.00  0.00     0.076 C 
BRANCH   6   8
ATOM      8  N   UNL A   1      33.798  33.611  32.477  1.00  0.00    -0.341 N 
ATOM      9  H   UNL A   1      33.894  33.255  31.527  1.00  0.00     0.346 HD
ATOM     10  H   UNL A   1      33.029  33.180  32.991  1.00  0.00     0.346 HD
BRANCH   8  11
ATOM     11  C   UNL A   1      35.020  33.283  33.212  1.00  0.00     0.296 C 
BRANCH  11  12
ATOM     12  C   UNL A   1      36.020  32.375  32.455  1.00  0.00     0.113 C 
ATOM     13  C   UNL A   1      36.970  31.656  33.425  1.00  0.00     0.041 C 
ATOM     14  C   UNL A   1      36.991  33.175  31.586  1.00  0.00     0.041 C 
ATOM     15  C   UNL A   1      38.211  31.321  32.602  1.00  0.00     0.003 C 
ATOM     16  C   UNL A   1      38.171  32.231  31.375  1.00  0.00     0.003 C 
BRANCH  12  17
ATOM     17  O   UNL A   1      35.331  31.442  31.615  1.00  0.00    -0.384 OA
ATOM     18  H   UNL A   1      34.426  31.752  31.462  1.00  0.00     0.211 HD
ENDBRANCH  12  17
ENDBRANCH  11  12
ENDBRANCH   8  11
ENDBRANCH   6   8
ENDBRANCH   4   6
ENDBRANCH   2   4
ENDBRANCH   1   2
BRANCH   1  19
ATOM     19  C   UNL A   1      34.651  33.671  28.107  1.00  0.00     0.274 C 
BRANCH  19  20
ATOM     20  C   UNL A   1      34.091  32.250  28.038  1.00  0.00     0.275 C 
BRANCH  20  21
ATOM     21  O   UNL A   1      34.810  31.370  28.919  1.00  0.00    -0.458 OA
BRANCH  21  22
ATOM     22  C   UNL A   1      35.097  30.156  28.398  1.00  0.00     0.338 C 
ATOM     23  O   UNL A   1      34.357  29.413  27.772  1.00  0.00    -0.246 OA
BRANCH  22  24
ATOM     24  C   UNL A   1      36.519  29.869  28.601  1.00  0.00     0.060 A 
ATOM     25  C   UNL A   1      37.407  30.131  27.556  1.00  0.00     0.016 A 
ATOM     26  C   UNL A   1      36.955  29.246  29.767  1.00  0.00     0.016 A 
ATOM     27  C   UNL A   1      38.732  29.732  27.640  1.00  0.00     0.010 A 
ATOM     28  C   UNL A   1      38.294  28.866  29.866  1.00  0.00     0.010 A 
ATOM     29  C   UNL A   1      39.178  29.087  28.794  1.00  0.00    -0.014 A 
BRANCH  29  30
ATOM     30  C   UNL A   1      40.555  28.558  28.859  1.00  0.00     0.031 A 
ATOM     31  C   UNL A   1      41.675  29.500  29.175  1.00  0.00     0.074 A 
ATOM     32  C   UNL A   1      40.792  27.257  28.624  1.00  0.00     0.049 A 
ATOM     33  N   UNL A   1      42.963  29.323  29.048  1.00  0.00    -0.248 NA
ATOM     34  C   UNL A   1      41.290  30.822  29.698  1.00  0.00     0.031 C 
ATOM     35  C   UNL A   1      39.770  26.232  28.406  1.00  0.00     0.029 A 
ATOM     36  N   UNL A   1      41.978  26.581  28.507  1.00  0.00    -0.354 N 
ATOM     37  C   UNL A   1      43.541  30.527  29.427  1.00  0.00     0.074 A 
ATOM     38  C   UNL A   1      42.468  31.423  29.797  1.00  0.00     0.031 C 
ATOM     39  C   UNL A   1      40.376  25.058  28.162  1.00  0.00     0.029 A 
ATOM     40  C   UNL A   1      41.819  25.269  28.137  1.00  0.00     0.049 A 
ATOM     41  H   UNL A   1      42.856  26.996  28.673  1.00  0.00     0.167 HD
ATOM     42  C   UNL A   1      44.854  30.853  29.445  1.00  0.00     0.031 A 
ATOM     43  C   UNL A   1      42.737  24.360  27.760  1.00  0.00     0.031 A 
ATOM     44  C   UNL A   1      45.906  29.945  29.078  1.00  0.00     0.049 A 
ATOM     45  C   UNL A   1      44.183  24.768  27.707  1.00  0.00     0.074 A 
ATOM     46  C   UNL A   1      47.270  30.171  29.040  1.00  0.00     0.029 A 
ATOM     47  N   UNL A   1      45.704  28.629  28.691  1.00  0.00    -0.354 N 
ATOM     48  N   UNL A   1      44.726  25.924  28.009  1.00  0.00    -0.248 NA
ATOM     49  C   UNL A   1      45.141  23.752  27.251  1.00  0.00     0.031 C 
ATOM     50  C   UNL A   1      47.891  29.000  28.595  1.00  0.00     0.029 A 
ATOM     51  C   UNL A   1      46.917  28.032  28.402  1.00  0.00     0.049 A 
ATOM     52  H   UNL A   1      44.827  28.186  28.631  1.00  0.00     0.167 HD
ATOM     53  C   UNL A   1      46.089  25.766  27.807  1.00  0.00     0.074 A 
ATOM     54  C   UNL A   1      46.292  24.403  27.360  1.00  0.00     0.031 C 
ATOM     55  C   UNL A   1      47.087  26.666  27.979  1.00  0.00     0.031 A 
BRANCH  42  56
ATOM     56  C   UNL A   1      45.211  32.262  29.817  1.00  0.00    -0.014 A 
ATOM     57  C   UNL A   1      45.061  33.322  28.910  1.00  0.00     0.009 A 
ATOM     58  C   UNL A   1      45.694  32.533  31.107  1.00  0.00     0.009 A 
ATOM     59  C   UNL A   1      45.418  34.622  29.279  1.00  0.00     0.001 A 
ATOM     60  C   UNL A   1      46.026  33.836  31.481  1.00  0.00     0.001 A 
ATOM     61  C   UNL A   1      45.895  34.878  30.565  1.00  0.00     0.000 A 
ENDBRANCH  42  56
BRANCH  43  62
ATOM     62  C   UNL A   1      42.308  22.999  27.350  1.00  0.00    -0.014 A 
ATOM     63  C   UNL A   1      42.051  22.708  26.003  1.00  0.00     0.009 A 
ATOM     64  C   UNL A   1      42.161  21.980  28.306  1.00  0.00     0.009 A 
ATOM     65  C   UNL A   1      41.637  21.429  25.623  1.00  0.00     0.001 A 
ATOM     66  C   UNL A   1      41.773  20.695  27.920  1.00  0.00     0.001 A 
ATOM     67  C   UNL A   1      41.504  20.423  26.580  1.00  0.00     0.000 A 
ENDBRANCH  43  62
BRANCH  55  68
ATOM     68  C   UNL A   1      48.490  26.190  27.745  1.00  0.00    -0.014 A 
ATOM     69  C   UNL A   1      49.079  26.255  26.475  1.00  0.00     0.009 A 
ATOM     70  C   UNL A   1      49.253  25.741  28.835  1.00  0.00     0.009 A 
ATOM     71  C   UNL A   1      50.405  25.857  26.297  1.00  0.00     0.001 A 
ATOM     72  C   UNL A   1      50.583  25.366  28.657  1.00  0.00     0.001 A 
ATOM     73  C   UNL A   1      51.157  25.420  27.388  1.00  0.00     0.000 A 
ENDBRANCH  55  68
ENDBRANCH  29  30
ENDBRANCH  22  24
ENDBRANCH  21  22
ENDBRANCH  20  21
ENDBRANCH  19  20
ENDBRANCH   1  19
TORSDOF 16
ENDMDL
