MODEL 1
REMARK VINA RESULT:     -11.1      0.000      0.000
REMARK SMILES O=C(OCCOC(=O)[C@@H]1CC=CC[C@@H]1C(=O)Nc1sc2c(c1C(=O)N1CCCCC1)CCCC2)c1ccc(-c2c3nc(c(-c4ccccc4)c4ccc([nH]4)c(-c4ccccc4)c4nc(c(-c5ccccc5)c5ccc2[nH]5)C=C4)C=C3)cc1
REMARK SMILES IDX 5 1 4 2 3 3 2 4 1 5 35 6 36 7 82 8 37 9 81 10 38 11 39 12
REMARK SMILES IDX 40 13 75 14 41 15 80 16 74 17 76 18 42 19 79 20 73 21 72 22
REMARK SMILES IDX 43 24 65 25 50 26 64 27 51 28 54 29 63 30 77 31 52 32 53 33
REMARK SMILES IDX 62 35 78 36 55 37 44 38 45 39 49 40 46 41 48 42 47 43 66 44
REMARK SMILES IDX 67 45 71 46 68 47 70 48 69 49 56 50 57 51 61 52 58 53 60 54
REMARK SMILES IDX 59 55 6 56 7 57 8 58 9 59 10 60 14 61 11 62 13 63 12 64
REMARK SMILES IDX 15 65 16 66 17 67 18 69 19 70 22 71 20 72 21 73 34 74 31 75
REMARK SMILES IDX 33 76 32 77 23 78 24 79 25 80 26 81 30 82 27 83 29 84 28 85
REMARK H PARENT 76 23 54 34 17 68
REMARK Flexibility Score: inf
ROOT
ATOM      1  C   UNL A   1      36.517  20.760  25.094  1.00  0.00     0.274 C 
ENDROOT
BRANCH   1   2
ATOM      2  C   UNL A   1      37.952  20.283  24.835  1.00  0.00     0.275 C 
BRANCH   2   3
ATOM      3  O   UNL A   1      38.812  20.014  25.956  1.00  0.00    -0.458 OA
BRANCH   3   4
ATOM      4  C   UNL A   1      40.165  20.003  26.001  1.00  0.00     0.338 C 
ATOM      5  O   UNL A   1      40.805  19.012  25.663  1.00  0.00    -0.246 OA
BRANCH   4   6
ATOM      6  C   UNL A   1      40.898  21.167  26.546  1.00  0.00     0.060 A 
ATOM      7  C   UNL A   1      40.947  21.450  27.911  1.00  0.00     0.016 A 
ATOM      8  C   UNL A   1      41.530  22.032  25.637  1.00  0.00     0.016 A 
ATOM      9  C   UNL A   1      41.713  22.502  28.382  1.00  0.00     0.010 A 
ATOM     10  C   UNL A   1      42.243  23.141  26.099  1.00  0.00     0.010 A 
ATOM     11  C   UNL A   1      42.318  23.376  27.476  1.00  0.00    -0.014 A 
BRANCH  11  12
ATOM     12  C   UNL A   1      42.682  24.695  28.017  1.00  0.00     0.031 A 
ATOM     13  C   UNL A   1      44.146  25.029  28.007  1.00  0.00     0.074 A 
ATOM     14  C   UNL A   1      41.741  25.607  28.309  1.00  0.00     0.049 A 
ATOM     15  N   UNL A   1      44.737  26.174  28.211  1.00  0.00    -0.248 NA
ATOM     16  C   UNL A   1      45.067  23.925  27.668  1.00  0.00     0.031 C 
ATOM     17  C   UNL A   1      40.296  25.388  28.245  1.00  0.00     0.029 A 
ATOM     18  N   UNL A   1      41.870  26.917  28.682  1.00  0.00    -0.354 N 
ATOM     19  C   UNL A   1      46.088  25.931  28.000  1.00  0.00     0.074 A 
ATOM     20  C   UNL A   1      46.238  24.536  27.665  1.00  0.00     0.031 C 
ATOM     21  C   UNL A   1      39.670  26.533  28.571  1.00  0.00     0.029 A 
ATOM     22  C   UNL A   1      40.670  27.552  28.878  1.00  0.00     0.049 A 
ATOM     23  H   UNL A   1      42.741  27.360  28.800  1.00  0.00     0.167 HD
ATOM     24  C   UNL A   1      47.118  26.800  28.086  1.00  0.00     0.031 A 
ATOM     25  C   UNL A   1      40.426  28.817  29.273  1.00  0.00     0.031 A 
ATOM     26  C   UNL A   1      46.958  28.164  28.492  1.00  0.00     0.049 A 
ATOM     27  C   UNL A   1      41.605  29.729  29.500  1.00  0.00     0.074 A 
ATOM     28  C   UNL A   1      47.926  29.127  28.693  1.00  0.00     0.029 A 
ATOM     29  N   UNL A   1      45.733  28.743  28.791  1.00  0.00    -0.354 N 
ATOM     30  N   UNL A   1      42.880  29.500  29.282  1.00  0.00    -0.248 NA
ATOM     31  C   UNL A   1      41.316  31.068  30.029  1.00  0.00     0.031 C 
ATOM     32  C   UNL A   1      47.289  30.277  29.168  1.00  0.00     0.029 A 
ATOM     33  C   UNL A   1      45.921  30.042  29.214  1.00  0.00     0.049 A 
ATOM     34  H   UNL A   1      44.860  28.295  28.712  1.00  0.00     0.167 HD
ATOM     35  C   UNL A   1      43.544  30.666  29.639  1.00  0.00     0.074 A 
ATOM     36  C   UNL A   1      42.528  31.609  30.063  1.00  0.00     0.031 C 
ATOM     37  C   UNL A   1      44.872  30.939  29.628  1.00  0.00     0.031 A 
BRANCH  24  38
ATOM     38  C   UNL A   1      48.487  26.250  27.823  1.00  0.00    -0.014 A 
ATOM     39  C   UNL A   1      49.276  25.729  28.861  1.00  0.00     0.009 A 
ATOM     40  C   UNL A   1      49.018  26.313  26.527  1.00  0.00     0.009 A 
ATOM     41  C   UNL A   1      50.586  25.312  28.608  1.00  0.00     0.001 A 
ATOM     42  C   UNL A   1      50.320  25.877  26.274  1.00  0.00     0.001 A 
ATOM     43  C   UNL A   1      51.105  25.386  27.315  1.00  0.00     0.000 A 
ENDBRANCH  24  38
BRANCH  25  44
ATOM     44  C   UNL A   1      39.033  29.274  29.530  1.00  0.00    -0.014 A 
ATOM     45  C   UNL A   1      38.382  28.992  30.740  1.00  0.00     0.009 A 
ATOM     46  C   UNL A   1      38.333  29.978  28.537  1.00  0.00     0.009 A 
ATOM     47  C   UNL A   1      37.055  29.387  30.940  1.00  0.00     0.001 A 
ATOM     48  C   UNL A   1      37.016  30.397  28.748  1.00  0.00     0.001 A 
ATOM     49  C   UNL A   1      36.375  30.092  29.946  1.00  0.00     0.000 A 
ENDBRANCH  25  44
BRANCH  37  50
ATOM     50  C   UNL A   1      45.291  32.304  30.083  1.00  0.00    -0.014 A 
ATOM     51  C   UNL A   1      45.636  32.539  31.423  1.00  0.00     0.009 A 
ATOM     52  C   UNL A   1      45.426  33.338  29.145  1.00  0.00     0.009 A 
ATOM     53  C   UNL A   1      46.092  33.796  31.818  1.00  0.00     0.001 A 
ATOM     54  C   UNL A   1      45.906  34.587  29.540  1.00  0.00     0.001 A 
ATOM     55  C   UNL A   1      46.233  34.815  30.876  1.00  0.00     0.000 A 
ENDBRANCH  37  50
ENDBRANCH  11  12
ENDBRANCH   4   6
ENDBRANCH   3   4
ENDBRANCH   2   3
ENDBRANCH   1   2
BRANCH   1  56
ATOM     56  O   UNL A   1      35.837  21.616  24.163  1.00  0.00    -0.462 OA
BRANCH  56  57
ATOM     57  C   UNL A   1      35.274  22.723  24.729  1.00  0.00     0.310 C 
ATOM     58  O   UNL A   1      35.927  23.627  25.206  1.00  0.00    -0.252 OA
BRANCH  57  59
ATOM     59  C   UNL A   1      33.769  22.773  24.562  1.00  0.00     0.116 C 
ATOM     60  C   UNL A   1      33.344  21.810  23.434  1.00  0.00     0.043 C 
ATOM     61  C   UNL A   1      33.082  24.156  24.502  1.00  0.00     0.097 C 
ATOM     62  C   UNL A   1      31.903  21.922  23.053  1.00  0.00    -0.030 C 
ATOM     63  C   UNL A   1      31.551  23.895  24.547  1.00  0.00     0.041 C 
ATOM     64  C   UNL A   1      31.086  22.849  23.569  1.00  0.00    -0.030 C 
BRANCH  61  65
ATOM     65  C   UNL A   1      33.405  25.124  23.330  1.00  0.00     0.229 C 
ATOM     66  O   UNL A   1      34.180  24.819  22.422  1.00  0.00    -0.274 OA
ATOM     67  N   UNL A   1      32.546  26.185  23.168  1.00  0.00    -0.317 N 
ATOM     68  H   UNL A   1      31.729  26.044  22.637  1.00  0.00     0.170 HD
BRANCH  67  69
ATOM     69  C   UNL A   1      32.764  27.443  23.709  1.00  0.00     0.108 A 
ATOM     70  S   UNL A   1      34.315  27.880  24.232  1.00  0.00    -0.122 S 
ATOM     71  C   UNL A   1      31.802  28.421  23.964  1.00  0.00     0.078 A 
ATOM     72  C   UNL A   1      33.640  28.989  25.326  1.00  0.00     0.011 A 
ATOM     73  C   UNL A   1      32.325  29.307  25.015  1.00  0.00    -0.019 A 
ATOM     74  C   UNL A   1      34.386  29.425  26.555  1.00  0.00     0.047 C 
ATOM     75  C   UNL A   1      31.555  30.249  25.906  1.00  0.00     0.037 C 
ATOM     76  C   UNL A   1      33.399  29.887  27.637  1.00  0.00     0.006 C 
ATOM     77  C   UNL A   1      32.381  30.860  27.049  1.00  0.00     0.005 C 
BRANCH  71  78
ATOM     78  C   UNL A   1      30.412  28.218  23.485  1.00  0.00     0.257 C 
ATOM     79  O   UNL A   1      29.946  27.074  23.432  1.00  0.00    -0.269 OA
ATOM     80  N   UNL A   1      29.583  29.307  23.250  1.00  0.00    -0.339 N 
ATOM     81  C   UNL A   1      28.151  29.168  23.499  1.00  0.00     0.120 C 
ATOM     82  C   UNL A   1      29.994  30.498  22.518  1.00  0.00     0.120 C 
ATOM     83  C   UNL A   1      27.326  29.323  22.228  1.00  0.00     0.022 C 
ATOM     84  C   UNL A   1      29.203  30.643  21.220  1.00  0.00     0.022 C 
ATOM     85  C   UNL A   1      27.700  30.607  21.494  1.00  0.00     0.004 C 
ENDBRANCH  71  78
ENDBRANCH  67  69
ENDBRANCH  61  65
ENDBRANCH  57  59
ENDBRANCH  56  57
ENDBRANCH   1  56
TORSDOF 14
ENDMDL
MODEL 2
REMARK VINA RESULT:     -10.8      2.636      4.404
REMARK SMILES O=C(OCCOC(=O)[C@@H]1CC=CC[C@@H]1C(=O)Nc1sc2c(c1C(=O)N1CCCCC1)CCCC2)c1ccc(-c2c3nc(c(-c4ccccc4)c4ccc([nH]4)c(-c4ccccc4)c4nc(c(-c5ccccc5)c5ccc2[nH]5)C=C4)C=C3)cc1
REMARK SMILES IDX 5 1 4 2 3 3 2 4 1 5 35 6 36 7 82 8 37 9 81 10 38 11 39 12
REMARK SMILES IDX 40 13 75 14 41 15 80 16 74 17 76 18 42 19 79 20 73 21 72 22
REMARK SMILES IDX 43 24 65 25 50 26 64 27 51 28 54 29 63 30 77 31 52 32 53 33
REMARK SMILES IDX 62 35 78 36 55 37 44 38 45 39 49 40 46 41 48 42 47 43 66 44
REMARK SMILES IDX 67 45 71 46 68 47 70 48 69 49 56 50 57 51 61 52 58 53 60 54
REMARK SMILES IDX 59 55 6 56 7 57 8 58 9 59 10 60 14 61 11 62 13 63 12 64
REMARK SMILES IDX 15 65 16 66 17 67 18 69 19 70 22 71 20 72 21 73 34 74 31 75
REMARK SMILES IDX 33 76 32 77 23 78 24 79 25 80 26 81 30 82 27 83 29 84 28 85
REMARK H PARENT 76 23 54 34 17 68
REMARK Flexibility Score: inf
ROOT
ATOM      1  C   UNL A   1      37.428  23.402  25.273  1.00  0.00     0.274 C 
ENDROOT
BRANCH   1   2
ATOM      2  C   UNL A   1      37.935  22.010  25.673  1.00  0.00     0.275 C 
BRANCH   2   3
ATOM      3  O   UNL A   1      39.203  21.895  26.342  1.00  0.00    -0.458 OA
BRANCH   3   4
ATOM      4  C   UNL A   1      40.276  22.717  26.266  1.00  0.00     0.338 C 
ATOM      5  O   UNL A   1      41.339  22.336  25.787  1.00  0.00    -0.246 OA
BRANCH   4   6
ATOM      6  C   UNL A   1      40.209  24.078  26.847  1.00  0.00     0.060 A 
ATOM      7  C   UNL A   1      40.759  25.191  26.212  1.00  0.00     0.016 A 
ATOM      8  C   UNL A   1      39.599  24.228  28.104  1.00  0.00     0.016 A 
ATOM      9  C   UNL A   1      40.600  26.455  26.752  1.00  0.00     0.010 A 
ATOM     10  C   UNL A   1      39.501  25.491  28.693  1.00  0.00     0.010 A 
ATOM     11  C   UNL A   1      40.018  26.599  28.014  1.00  0.00    -0.014 A 
BRANCH  11  12
ATOM     12  C   UNL A   1      40.321  27.860  28.710  1.00  0.00     0.031 A 
ATOM     13  C   UNL A   1      41.753  28.058  29.118  1.00  0.00     0.074 A 
ATOM     14  C   UNL A   1      39.411  28.844  28.788  1.00  0.00     0.049 A 
ATOM     15  N   UNL A   1      42.353  29.137  29.540  1.00  0.00    -0.248 NA
ATOM     16  C   UNL A   1      42.641  26.887  28.977  1.00  0.00     0.031 C 
ATOM     17  C   UNL A   1      38.027  28.761  28.322  1.00  0.00     0.029 A 
ATOM     18  N   UNL A   1      39.535  30.123  29.258  1.00  0.00    -0.354 N 
ATOM     19  C   UNL A   1      43.686  28.778  29.690  1.00  0.00     0.074 A 
ATOM     20  C   UNL A   1      43.812  27.388  29.328  1.00  0.00     0.031 C 
ATOM     21  C   UNL A   1      37.427  29.947  28.531  1.00  0.00     0.029 A 
ATOM     22  C   UNL A   1      38.381  30.859  29.157  1.00  0.00     0.049 A 
ATOM     23  H   UNL A   1      40.372  30.480  29.634  1.00  0.00     0.167 HD
ATOM     24  C   UNL A   1      44.718  29.546  30.104  1.00  0.00     0.031 A 
ATOM     25  C   UNL A   1      38.138  32.126  29.545  1.00  0.00     0.031 A 
ATOM     26  C   UNL A   1      44.561  30.904  30.530  1.00  0.00     0.049 A 
ATOM     27  C   UNL A   1      39.277  32.917  30.136  1.00  0.00     0.074 A 
ATOM     28  C   UNL A   1      45.508  31.767  31.041  1.00  0.00     0.029 A 
ATOM     29  N   UNL A   1      43.350  31.583  30.518  1.00  0.00    -0.354 N 
ATOM     30  N   UNL A   1      40.540  32.580  30.259  1.00  0.00    -0.248 NA
ATOM     31  C   UNL A   1      38.960  34.259  30.643  1.00  0.00     0.031 C 
ATOM     32  C   UNL A   1      44.857  32.954  31.392  1.00  0.00     0.029 A 
ATOM     33  C   UNL A   1      43.516  32.844  31.051  1.00  0.00     0.049 A 
ATOM     34  H   UNL A   1      42.500  31.219  30.179  1.00  0.00     0.167 HD
ATOM     35  C   UNL A   1      41.170  33.667  30.850  1.00  0.00     0.074 A 
ATOM     36  C   UNL A   1      40.154  34.684  31.037  1.00  0.00     0.031 C 
ATOM     37  C   UNL A   1      42.467  33.818  31.216  1.00  0.00     0.031 A 
BRANCH  24  38
ATOM     38  C   UNL A   1      46.058  28.882  30.190  1.00  0.00    -0.014 A 
ATOM     39  C   UNL A   1      46.491  28.263  31.374  1.00  0.00     0.009 A 
ATOM     40  C   UNL A   1      46.926  28.933  29.090  1.00  0.00     0.009 A 
ATOM     41  C   UNL A   1      47.783  27.736  31.462  1.00  0.00     0.001 A 
ATOM     42  C   UNL A   1      48.209  28.389  29.174  1.00  0.00     0.001 A 
ATOM     43  C   UNL A   1      48.639  27.800  30.362  1.00  0.00     0.000 A 
ENDBRANCH  24  38
BRANCH  25  44
ATOM     44  C   UNL A   1      36.769  32.699  29.439  1.00  0.00    -0.014 A 
ATOM     45  C   UNL A   1      36.345  33.376  28.287  1.00  0.00     0.009 A 
ATOM     46  C   UNL A   1      35.880  32.591  30.522  1.00  0.00     0.009 A 
ATOM     47  C   UNL A   1      35.071  33.951  28.230  1.00  0.00     0.001 A 
ATOM     48  C   UNL A   1      34.597  33.142  30.453  1.00  0.00     0.001 A 
ATOM     49  C   UNL A   1      34.198  33.830  29.310  1.00  0.00     0.000 A 
ENDBRANCH  25  44
BRANCH  37  50
ATOM     50  C   UNL A   1      42.850  35.122  31.847  1.00  0.00    -0.014 A 
ATOM     51  C   UNL A   1      42.620  35.354  33.211  1.00  0.00     0.009 A 
ATOM     52  C   UNL A   1      43.528  36.089  31.088  1.00  0.00     0.009 A 
ATOM     53  C   UNL A   1      43.046  36.544  33.800  1.00  0.00     0.001 A 
ATOM     54  C   UNL A   1      43.974  37.267  31.687  1.00  0.00     0.001 A 
ATOM     55  C   UNL A   1      43.728  37.494  33.040  1.00  0.00     0.000 A 
ENDBRANCH  37  50
ENDBRANCH  11  12
ENDBRANCH   4   6
ENDBRANCH   3   4
ENDBRANCH   2   3
ENDBRANCH   1   2
BRANCH   1  56
ATOM     56  O   UNL A   1      36.086  23.820  25.568  1.00  0.00    -0.462 OA
BRANCH  56  57
ATOM     57  C   UNL A   1      35.170  23.471  24.619  1.00  0.00     0.310 C 
ATOM     58  O   UNL A   1      35.039  24.073  23.574  1.00  0.00    -0.252 OA
BRANCH  57  59
ATOM     59  C   UNL A   1      34.449  22.178  24.938  1.00  0.00     0.116 C 
ATOM     60  C   UNL A   1      33.496  21.821  23.777  1.00  0.00     0.043 C 
ATOM     61  C   UNL A   1      33.822  22.012  26.340  1.00  0.00     0.097 C 
ATOM     62  C   UNL A   1      32.592  20.668  24.069  1.00  0.00    -0.030 C 
ATOM     63  C   UNL A   1      33.353  20.534  26.447  1.00  0.00     0.041 C 
ATOM     64  C   UNL A   1      32.539  20.072  25.268  1.00  0.00    -0.030 C 
BRANCH  61  65
ATOM     65  C   UNL A   1      32.667  22.952  26.782  1.00  0.00     0.229 C 
ATOM     66  O   UNL A   1      31.789  22.588  27.566  1.00  0.00    -0.274 OA
ATOM     67  N   UNL A   1      32.848  24.292  26.533  1.00  0.00    -0.317 N 
ATOM     68  H   UNL A   1      33.343  24.824  27.197  1.00  0.00     0.170 HD
BRANCH  67  69
ATOM     69  C   UNL A   1      32.373  24.937  25.401  1.00  0.00     0.108 A 
ATOM     70  S   UNL A   1      31.354  24.115  24.326  1.00  0.00    -0.122 S 
ATOM     71  C   UNL A   1      32.707  26.221  24.969  1.00  0.00     0.078 A 
ATOM     72  C   UNL A   1      31.867  25.123  23.060  1.00  0.00     0.011 A 
ATOM     73  C   UNL A   1      32.468  26.287  23.519  1.00  0.00    -0.019 A 
ATOM     74  C   UNL A   1      31.783  24.680  21.627  1.00  0.00     0.047 C 
ATOM     75  C   UNL A   1      33.022  27.282  22.530  1.00  0.00     0.037 C 
ATOM     76  C   UNL A   1      32.820  25.431  20.780  1.00  0.00     0.006 C 
ATOM     77  C   UNL A   1      32.752  26.930  21.058  1.00  0.00     0.005 C 
BRANCH  71  78
ATOM     78  C   UNL A   1      33.524  27.096  25.847  1.00  0.00     0.257 C 
ATOM     79  O   UNL A   1      34.464  26.611  26.487  1.00  0.00    -0.269 OA
ATOM     80  N   UNL A   1      33.343  28.472  25.833  1.00  0.00    -0.339 N 
ATOM     81  C   UNL A   1      34.498  29.336  26.062  1.00  0.00     0.120 C 
ATOM     82  C   UNL A   1      32.039  29.121  25.873  1.00  0.00     0.120 C 
ATOM     83  C   UNL A   1      34.355  30.167  27.331  1.00  0.00     0.022 C 
ATOM     84  C   UNL A   1      31.866  29.924  27.161  1.00  0.00     0.022 C 
ATOM     85  C   UNL A   1      33.021  30.907  27.345  1.00  0.00     0.004 C 
ENDBRANCH  71  78
ENDBRANCH  67  69
ENDBRANCH  61  65
ENDBRANCH  57  59
ENDBRANCH  56  57
ENDBRANCH   1  56
TORSDOF 14
ENDMDL
MODEL 3
REMARK VINA RESULT:     -10.6      4.247      8.613
REMARK SMILES O=C(OCCOC(=O)[C@@H]1CC=CC[C@@H]1C(=O)Nc1sc2c(c1C(=O)N1CCCCC1)CCCC2)c1ccc(-c2c3nc(c(-c4ccccc4)c4ccc([nH]4)c(-c4ccccc4)c4nc(c(-c5ccccc5)c5ccc2[nH]5)C=C4)C=C3)cc1
REMARK SMILES IDX 5 1 4 2 3 3 2 4 1 5 35 6 36 7 82 8 37 9 81 10 38 11 39 12
REMARK SMILES IDX 40 13 75 14 41 15 80 16 74 17 76 18 42 19 79 20 73 21 72 22
REMARK SMILES IDX 43 24 65 25 50 26 64 27 51 28 54 29 63 30 77 31 52 32 53 33
REMARK SMILES IDX 62 35 78 36 55 37 44 38 45 39 49 40 46 41 48 42 47 43 66 44
REMARK SMILES IDX 67 45 71 46 68 47 70 48 69 49 56 50 57 51 61 52 58 53 60 54
REMARK SMILES IDX 59 55 6 56 7 57 8 58 9 59 10 60 14 61 11 62 13 63 12 64
REMARK SMILES IDX 15 65 16 66 17 67 18 69 19 70 22 71 20 72 21 73 34 74 31 75
REMARK SMILES IDX 33 76 32 77 23 78 24 79 25 80 26 81 30 82 27 83 29 84 28 85
REMARK H PARENT 76 23 54 34 17 68
REMARK Flexibility Score: inf
ROOT
ATOM      1  C   UNL A   1      40.016  22.418  25.843  1.00  0.00     0.274 C 
ENDROOT
BRANCH   1   2
ATOM      2  C   UNL A   1      41.465  21.995  26.119  1.00  0.00     0.275 C 
BRANCH   2   3
ATOM      3  O   UNL A   1      42.405  22.983  26.578  1.00  0.00    -0.458 OA
BRANCH   3   4
ATOM      4  C   UNL A   1      42.563  24.259  26.156  1.00  0.00     0.338 C 
ATOM      5  O   UNL A   1      43.084  24.514  25.075  1.00  0.00    -0.246 OA
BRANCH   4   6
ATOM      6  C   UNL A   1      42.184  25.384  27.041  1.00  0.00     0.060 A 
ATOM      7  C   UNL A   1      42.917  26.568  27.104  1.00  0.00     0.016 A 
ATOM      8  C   UNL A   1      41.062  25.219  27.872  1.00  0.00     0.016 A 
ATOM      9  C   UNL A   1      42.478  27.624  27.884  1.00  0.00     0.010 A 
ATOM     10  C   UNL A   1      40.655  26.252  28.720  1.00  0.00     0.010 A 
ATOM     11  C   UNL A   1      41.379  27.448  28.729  1.00  0.00    -0.014 A 
BRANCH  11  12
ATOM     12  C   UNL A   1      41.280  28.404  29.844  1.00  0.00     0.031 A 
ATOM     13  C   UNL A   1      40.150  29.390  29.767  1.00  0.00     0.074 A 
ATOM     14  C   UNL A   1      42.034  28.261  30.946  1.00  0.00     0.049 A 
ATOM     15  N   UNL A   1      39.686  30.192  30.685  1.00  0.00    -0.248 NA
ATOM     16  C   UNL A   1      39.408  29.437  28.492  1.00  0.00     0.031 C 
ATOM     17  C   UNL A   1      43.085  27.262  31.134  1.00  0.00     0.029 A 
ATOM     18  N   UNL A   1      41.998  28.944  32.131  1.00  0.00    -0.354 N 
ATOM     19  C   UNL A   1      38.589  30.815  30.106  1.00  0.00     0.074 A 
ATOM     20  C   UNL A   1      38.458  30.314  28.760  1.00  0.00     0.031 C 
ATOM     21  C   UNL A   1      43.596  27.397  32.371  1.00  0.00     0.029 A 
ATOM     22  C   UNL A   1      42.918  28.500  33.048  1.00  0.00     0.049 A 
ATOM     23  H   UNL A   1      41.372  29.683  32.309  1.00  0.00     0.167 HD
ATOM     24  C   UNL A   1      37.764  31.735  30.651  1.00  0.00     0.031 A 
ATOM     25  C   UNL A   1      43.177  28.956  34.289  1.00  0.00     0.031 A 
ATOM     26  C   UNL A   1      37.954  32.276  31.963  1.00  0.00     0.049 A 
ATOM     27  C   UNL A   1      42.330  30.083  34.822  1.00  0.00     0.074 A 
ATOM     28  C   UNL A   1      37.238  33.265  32.606  1.00  0.00     0.029 A 
ATOM     29  N   UNL A   1      38.969  31.879  32.823  1.00  0.00    -0.354 N 
ATOM     30  N   UNL A   1      41.282  30.657  34.277  1.00  0.00    -0.248 NA
ATOM     31  C   UNL A   1      42.700  30.628  36.134  1.00  0.00     0.031 C 
ATOM     32  C   UNL A   1      37.856  33.507  33.836  1.00  0.00     0.029 A 
ATOM     33  C   UNL A   1      38.924  32.633  33.978  1.00  0.00     0.049 A 
ATOM     34  H   UNL A   1      39.623  31.166  32.638  1.00  0.00     0.167 HD
ATOM     35  C   UNL A   1      40.863  31.624  35.180  1.00  0.00     0.074 A 
ATOM     36  C   UNL A   1      41.755  31.541  36.320  1.00  0.00     0.031 C 
ATOM     37  C   UNL A   1      39.840  32.510  35.083  1.00  0.00     0.031 A 
BRANCH  24  38
ATOM     38  C   UNL A   1      36.663  32.255  29.777  1.00  0.00    -0.014 A 
ATOM     39  C   UNL A   1      35.437  31.580  29.669  1.00  0.00     0.009 A 
ATOM     40  C   UNL A   1      36.882  33.403  29.001  1.00  0.00     0.009 A 
ATOM     41  C   UNL A   1      34.462  32.029  28.774  1.00  0.00     0.001 A 
ATOM     42  C   UNL A   1      35.899  33.860  28.122  1.00  0.00     0.001 A 
ATOM     43  C   UNL A   1      34.694  33.169  28.002  1.00  0.00     0.000 A 
ENDBRANCH  24  38
BRANCH  25  44
ATOM     44  C   UNL A   1      44.305  28.393  35.080  1.00  0.00    -0.014 A 
ATOM     45  C   UNL A   1      44.111  27.337  35.982  1.00  0.00     0.009 A 
ATOM     46  C   UNL A   1      45.592  28.942  34.952  1.00  0.00     0.009 A 
ATOM     47  C   UNL A   1      45.176  26.858  36.752  1.00  0.00     0.001 A 
ATOM     48  C   UNL A   1      46.661  28.443  35.702  1.00  0.00     0.001 A 
ATOM     49  C   UNL A   1      46.449  27.408  36.609  1.00  0.00     0.000 A 
ENDBRANCH  25  44
BRANCH  37  50
ATOM     50  C   UNL A   1      39.638  33.447  36.235  1.00  0.00    -0.014 A 
ATOM     51  C   UNL A   1      40.189  34.737  36.216  1.00  0.00     0.009 A 
ATOM     52  C   UNL A   1      38.816  33.064  37.306  1.00  0.00     0.009 A 
ATOM     53  C   UNL A   1      39.933  35.623  37.262  1.00  0.00     0.001 A 
ATOM     54  C   UNL A   1      38.543  33.962  38.338  1.00  0.00     0.001 A 
ATOM     55  C   UNL A   1      39.105  35.237  38.316  1.00  0.00     0.000 A 
ENDBRANCH  37  50
ENDBRANCH  11  12
ENDBRANCH   4   6
ENDBRANCH   3   4
ENDBRANCH   2   3
ENDBRANCH   1   2
BRANCH   1  56
ATOM     56  O   UNL A   1      38.912  21.751  26.474  1.00  0.00    -0.462 OA
BRANCH  56  57
ATOM     57  C   UNL A   1      37.804  21.635  25.686  1.00  0.00     0.310 C 
ATOM     58  O   UNL A   1      37.573  20.655  25.010  1.00  0.00    -0.252 OA
BRANCH  57  59
ATOM     59  C   UNL A   1      36.829  22.782  25.862  1.00  0.00     0.116 C 
ATOM     60  C   UNL A   1      35.640  22.317  26.729  1.00  0.00     0.043 C 
ATOM     61  C   UNL A   1      36.418  23.595  24.615  1.00  0.00     0.097 C 
ATOM     62  C   UNL A   1      34.524  23.307  26.807  1.00  0.00    -0.030 C 
ATOM     63  C   UNL A   1      35.600  24.813  25.127  1.00  0.00     0.041 C 
ATOM     64  C   UNL A   1      34.512  24.445  26.100  1.00  0.00    -0.030 C 
BRANCH  61  65
ATOM     65  C   UNL A   1      35.640  22.899  23.465  1.00  0.00     0.229 C 
ATOM     66  O   UNL A   1      36.000  22.975  22.289  1.00  0.00    -0.274 OA
ATOM     67  N   UNL A   1      34.742  21.929  23.842  1.00  0.00    -0.317 N 
ATOM     68  H   UNL A   1      35.077  21.014  23.977  1.00  0.00     0.170 HD
BRANCH  67  69
ATOM     69  C   UNL A   1      33.391  22.167  24.044  1.00  0.00     0.108 A 
ATOM     70  S   UNL A   1      32.664  23.540  23.368  1.00  0.00    -0.122 S 
ATOM     71  C   UNL A   1      32.521  21.421  24.841  1.00  0.00     0.078 A 
ATOM     72  C   UNL A   1      31.481  23.521  24.585  1.00  0.00     0.011 A 
ATOM     73  C   UNL A   1      31.402  22.293  25.229  1.00  0.00    -0.019 A 
ATOM     74  C   UNL A   1      30.740  24.769  24.972  1.00  0.00     0.047 C 
ATOM     75  C   UNL A   1      30.430  22.109  26.368  1.00  0.00     0.037 C 
ATOM     76  C   UNL A   1      30.232  24.656  26.417  1.00  0.00     0.006 C 
ATOM     77  C   UNL A   1      29.522  23.322  26.630  1.00  0.00     0.005 C 
BRANCH  71  78
ATOM     78  C   UNL A   1      32.990  20.143  25.432  1.00  0.00     0.257 C 
ATOM     79  O   UNL A   1      33.614  20.156  26.499  1.00  0.00    -0.269 OA
ATOM     80  N   UNL A   1      32.597  18.929  24.884  1.00  0.00    -0.339 N 
ATOM     81  C   UNL A   1      32.409  17.784  25.771  1.00  0.00     0.120 C 
ATOM     82  C   UNL A   1      32.616  18.638  23.456  1.00  0.00     0.120 C 
ATOM     83  C   UNL A   1      33.386  16.655  25.471  1.00  0.00     0.022 C 
ATOM     84  C   UNL A   1      33.623  17.535  23.135  1.00  0.00     0.022 C 
ATOM     85  C   UNL A   1      33.358  16.295  23.988  1.00  0.00     0.004 C 
ENDBRANCH  71  78
ENDBRANCH  67  69
ENDBRANCH  61  65
ENDBRANCH  57  59
ENDBRANCH  56  57
ENDBRANCH   1  56
TORSDOF 14
ENDMDL
