MODEL 1
REMARK VINA RESULT:     -12.9      0.000      0.000
REMARK SMILES Cc1nn2c(nnc3c(=O)n(CCCC(=O)OCCOC(=O)c4ccc(-c5c6nc(c(-c7ccccc7)c7ccc([nH]7)c(-c7ccccc7)c7nc(c(-c8ccccc8)c8ccc5[nH]8)C=C7)C=C6)cc4)ccc32)c1-c1ccc(F)cc1
REMARK SMILES IDX 18 1 17 2 15 3 16 4 14 5 13 6 12 7 11 8 1 9 2 10 3 11 74 12
REMARK SMILES IDX 4 13 5 14 73 15 6 16 8 17 72 18 7 19 9 20 71 21 10 22 75 23
REMARK SMILES IDX 76 24 81 25 77 26 80 27 78 28 79 29 19 30 20 31 21 32 22 33
REMARK SMILES IDX 23 34 24 35 70 36 25 37 69 38 26 39 27 40 28 41 63 42 29 43
REMARK SMILES IDX 68 44 62 45 64 46 30 47 67 48 61 49 60 50 31 52 53 53 38 54
REMARK SMILES IDX 52 55 39 56 42 57 51 58 65 59 40 60 41 61 50 63 66 64 43 65
REMARK SMILES IDX 32 66 33 67 37 68 34 69 36 70 35 71 54 72 55 73 59 74 56 75
REMARK SMILES IDX 58 76 57 77 44 78 45 79 49 80 46 81 48 82 47 83
REMARK H PARENT 64 51 42 62
REMARK Flexibility Score: inf
ROOT
ATOM      1  C   UNL A   1      33.759  31.910  27.813  1.00  0.00     0.274 C 
ENDROOT
BRANCH   1   2
ATOM      2  O   UNL A   1      33.558  30.608  27.240  1.00  0.00    -0.462 OA
BRANCH   2   3
ATOM      3  C   UNL A   1      32.503  30.396  26.422  1.00  0.00     0.305 C 
ATOM      4  O   UNL A   1      31.391  30.892  26.573  1.00  0.00    -0.252 OA
BRANCH   3   5
ATOM      5  C   UNL A   1      32.825  29.441  25.284  1.00  0.00     0.124 C 
BRANCH   5   6
ATOM      6  C   UNL A   1      31.887  28.258  25.003  1.00  0.00     0.034 C 
BRANCH   6   7
ATOM      7  C   UNL A   1      31.635  27.221  26.114  1.00  0.00     0.126 C 
BRANCH   7   8
ATOM      8  N   UNL A   1      32.379  25.969  25.947  1.00  0.00    -0.313 N 
ATOM      9  C   UNL A   1      37.022  20.046  24.905  1.00  0.00     0.069 C 
ATOM     10  C   UNL A   1      35.714  20.736  24.992  1.00  0.00     0.070 A 
ATOM     11  N   UNL A   1      35.680  22.072  25.119  1.00  0.00    -0.170 NA
ATOM     12  C   UNL A   1      34.419  20.171  24.966  1.00  0.00     0.051 A 
ATOM     13  N   UNL A   1      34.362  22.370  25.273  1.00  0.00    -0.210 N 
ATOM     14  C   UNL A   1      33.575  21.228  25.197  1.00  0.00     0.186 A 
ATOM     15  C   UNL A   1      33.756  23.595  25.528  1.00  0.00     0.102 A 
ATOM     16  N   UNL A   1      32.226  21.289  25.370  1.00  0.00    -0.129 NA
ATOM     17  C   UNL A   1      32.438  23.532  25.768  1.00  0.00     0.177 A 
ATOM     18  C   UNL A   1      34.445  24.870  25.541  1.00  0.00     0.049 A 
ATOM     19  N   UNL A   1      31.691  22.375  25.688  1.00  0.00    -0.141 NA
ATOM     20  C   UNL A   1      31.733  24.758  26.190  1.00  0.00     0.280 A 
ATOM     21  C   UNL A   1      33.740  26.003  25.682  1.00  0.00     0.091 A 
ATOM     22  O   UNL A   1      30.631  24.624  26.711  1.00  0.00    -0.267 OA
BRANCH  12  23
ATOM     23  C   UNL A   1      33.917  18.823  24.845  1.00  0.00    -0.012 A 
ATOM     24  C   UNL A   1      34.575  17.894  24.032  1.00  0.00     0.012 A 
ATOM     25  C   UNL A   1      32.830  18.417  25.635  1.00  0.00     0.012 A 
ATOM     26  C   UNL A   1      34.142  16.566  24.008  1.00  0.00     0.040 A 
ATOM     27  C   UNL A   1      32.399  17.092  25.606  1.00  0.00     0.040 A 
ATOM     28  C   UNL A   1      33.060  16.179  24.794  1.00  0.00     0.123 A 
ATOM     29  F   UNL A   1      32.657  14.903  24.775  1.00  0.00    -0.207 F 
ENDBRANCH  12  23
ENDBRANCH   7   8
ENDBRANCH   6   7
ENDBRANCH   5   6
ENDBRANCH   3   5
ENDBRANCH   2   3
ENDBRANCH   1   2
BRANCH   1  30
ATOM     30  C   UNL A   1      35.249  32.176  27.932  1.00  0.00     0.275 C 
BRANCH  30  31
ATOM     31  O   UNL A   1      35.522  32.660  29.243  1.00  0.00    -0.458 OA
BRANCH  31  32
ATOM     32  C   UNL A   1      36.135  31.753  30.035  1.00  0.00     0.338 C 
ATOM     33  O   UNL A   1      36.019  31.601  31.240  1.00  0.00    -0.246 OA
BRANCH  32  34
ATOM     34  C   UNL A   1      37.141  31.037  29.262  1.00  0.00     0.060 A 
ATOM     35  C   UNL A   1      36.834  29.710  28.945  1.00  0.00     0.016 A 
ATOM     36  C   UNL A   1      38.448  31.513  29.380  1.00  0.00     0.016 A 
ATOM     37  C   UNL A   1      37.848  28.789  29.030  1.00  0.00     0.010 A 
ATOM     38  C   UNL A   1      39.445  30.589  29.520  1.00  0.00     0.010 A 
ATOM     39  C   UNL A   1      39.111  29.239  29.425  1.00  0.00    -0.014 A 
BRANCH  39  40
ATOM     40  C   UNL A   1      40.141  28.257  29.639  1.00  0.00     0.031 A 
ATOM     41  C   UNL A   1      40.573  28.198  31.042  1.00  0.00     0.074 A 
ATOM     42  C   UNL A   1      40.562  27.412  28.685  1.00  0.00     0.049 A 
ATOM     43  N   UNL A   1      41.708  28.571  31.524  1.00  0.00    -0.248 NA
ATOM     44  C   UNL A   1      39.562  27.834  32.049  1.00  0.00     0.031 C 
ATOM     45  C   UNL A   1      39.969  27.173  27.367  1.00  0.00     0.029 A 
ATOM     46  N   UNL A   1      41.561  26.493  28.756  1.00  0.00    -0.354 N 
ATOM     47  C   UNL A   1      41.619  28.312  32.883  1.00  0.00     0.074 A 
ATOM     48  C   UNL A   1      40.233  28.054  33.177  1.00  0.00     0.031 C 
ATOM     49  C   UNL A   1      40.478  26.027  26.859  1.00  0.00     0.029 A 
ATOM     50  C   UNL A   1      41.526  25.546  27.746  1.00  0.00     0.049 A 
ATOM     51  H   UNL A   1      42.248  26.501  29.461  1.00  0.00     0.167 HD
ATOM     52  C   UNL A   1      42.722  28.019  33.616  1.00  0.00     0.031 A 
ATOM     53  C   UNL A   1      42.274  24.420  27.699  1.00  0.00     0.031 A 
ATOM     54  C   UNL A   1      43.939  28.317  32.916  1.00  0.00     0.049 A 
ATOM     55  C   UNL A   1      43.454  24.624  28.571  1.00  0.00     0.074 A 
ATOM     56  C   UNL A   1      44.677  29.443  32.629  1.00  0.00     0.029 A 
ATOM     57  N   UNL A   1      44.353  27.326  32.063  1.00  0.00    -0.354 N 
ATOM     58  N   UNL A   1      44.393  25.488  28.318  1.00  0.00    -0.248 NA
ATOM     59  C   UNL A   1      43.472  24.060  29.917  1.00  0.00     0.031 C 
ATOM     60  C   UNL A   1      45.424  29.141  31.452  1.00  0.00     0.029 A 
ATOM     61  C   UNL A   1      45.126  27.839  31.055  1.00  0.00     0.049 A 
ATOM     62  H   UNL A   1      44.125  26.372  32.163  1.00  0.00     0.167 HD
ATOM     63  C   UNL A   1      44.844  25.880  29.563  1.00  0.00     0.074 A 
ATOM     64  C   UNL A   1      44.388  24.849  30.483  1.00  0.00     0.031 C 
ATOM     65  C   UNL A   1      45.261  27.156  29.787  1.00  0.00     0.031 A 
BRANCH  52  66
ATOM     66  C   UNL A   1      42.685  27.030  34.744  1.00  0.00    -0.014 A 
ATOM     67  C   UNL A   1      42.768  25.662  34.454  1.00  0.00     0.009 A 
ATOM     68  C   UNL A   1      42.306  27.387  36.056  1.00  0.00     0.009 A 
ATOM     69  C   UNL A   1      42.483  24.702  35.432  1.00  0.00     0.001 A 
ATOM     70  C   UNL A   1      42.064  26.434  37.044  1.00  0.00     0.001 A 
ATOM     71  C   UNL A   1      42.138  25.088  36.725  1.00  0.00     0.000 A 
ENDBRANCH  52  66
BRANCH  53  72
ATOM     72  C   UNL A   1      41.943  23.089  27.154  1.00  0.00    -0.014 A 
ATOM     73  C   UNL A   1      42.840  22.455  26.279  1.00  0.00     0.009 A 
ATOM     74  C   UNL A   1      40.918  22.312  27.723  1.00  0.00     0.009 A 
ATOM     75  C   UNL A   1      42.770  21.077  26.049  1.00  0.00     0.001 A 
ATOM     76  C   UNL A   1      40.841  20.936  27.482  1.00  0.00     0.001 A 
ATOM     77  C   UNL A   1      41.782  20.316  26.667  1.00  0.00     0.000 A 
ENDBRANCH  53  72
BRANCH  65  78
ATOM     78  C   UNL A   1      45.676  27.964  28.594  1.00  0.00    -0.014 A 
ATOM     79  C   UNL A   1      46.926  27.825  27.971  1.00  0.00     0.009 A 
ATOM     80  C   UNL A   1      44.732  28.832  28.028  1.00  0.00     0.009 A 
ATOM     81  C   UNL A   1      47.225  28.549  26.812  1.00  0.00     0.001 A 
ATOM     82  C   UNL A   1      45.024  29.541  26.862  1.00  0.00     0.001 A 
ATOM     83  C   UNL A   1      46.271  29.401  26.256  1.00  0.00     0.000 A 
ENDBRANCH  65  78
ENDBRANCH  39  40
ENDBRANCH  32  34
ENDBRANCH  31  32
ENDBRANCH  30  31
ENDBRANCH   1  30
TORSDOF 15
ENDMDL
MODEL 2
REMARK VINA RESULT:     -12.7      2.871      4.651
REMARK SMILES Cc1nn2c(nnc3c(=O)n(CCCC(=O)OCCOC(=O)c4ccc(-c5c6nc(c(-c7ccccc7)c7ccc([nH]7)c(-c7ccccc7)c7nc(c(-c8ccccc8)c8ccc5[nH]8)C=C7)C=C6)cc4)ccc32)c1-c1ccc(F)cc1
REMARK SMILES IDX 18 1 17 2 15 3 16 4 14 5 13 6 12 7 11 8 1 9 2 10 3 11 74 12
REMARK SMILES IDX 4 13 5 14 73 15 6 16 8 17 72 18 7 19 9 20 71 21 10 22 75 23
REMARK SMILES IDX 76 24 81 25 77 26 80 27 78 28 79 29 19 30 20 31 21 32 22 33
REMARK SMILES IDX 23 34 24 35 70 36 25 37 69 38 26 39 27 40 28 41 63 42 29 43
REMARK SMILES IDX 68 44 62 45 64 46 30 47 67 48 61 49 60 50 31 52 53 53 38 54
REMARK SMILES IDX 52 55 39 56 42 57 51 58 65 59 40 60 41 61 50 63 66 64 43 65
REMARK SMILES IDX 32 66 33 67 37 68 34 69 36 70 35 71 54 72 55 73 59 74 56 75
REMARK SMILES IDX 58 76 57 77 44 78 45 79 49 80 46 81 48 82 47 83
REMARK H PARENT 64 51 42 62
REMARK Flexibility Score: inf
ROOT
ATOM      1  C   UNL A   1      34.240  34.589  32.180  1.00  0.00     0.274 C 
ENDROOT
BRANCH   1   2
ATOM      2  O   UNL A   1      34.051  35.969  31.828  1.00  0.00    -0.462 OA
BRANCH   2   3
ATOM      3  C   UNL A   1      32.979  36.326  31.086  1.00  0.00     0.305 C 
ATOM      4  O   UNL A   1      31.872  36.593  31.540  1.00  0.00    -0.252 OA
BRANCH   3   5
ATOM      5  C   UNL A   1      33.276  36.342  29.595  1.00  0.00     0.124 C 
BRANCH   5   6
ATOM      6  C   UNL A   1      32.962  35.099  28.749  1.00  0.00     0.034 C 
BRANCH   6   7
ATOM      7  C   UNL A   1      34.053  34.029  28.554  1.00  0.00     0.126 C 
BRANCH   7   8
ATOM      8  N   UNL A   1      33.593  32.821  27.861  1.00  0.00    -0.313 N 
ATOM      9  C   UNL A   1      30.344  27.018  24.189  1.00  0.00     0.069 C 
ATOM     10  C   UNL A   1      31.357  27.672  25.049  1.00  0.00     0.070 A 
ATOM     11  N   UNL A   1      31.177  28.948  25.426  1.00  0.00    -0.170 NA
ATOM     12  C   UNL A   1      32.558  27.132  25.559  1.00  0.00     0.051 A 
ATOM     13  N   UNL A   1      32.311  29.270  26.104  1.00  0.00    -0.210 N 
ATOM     14  C   UNL A   1      33.173  28.185  26.188  1.00  0.00     0.186 A 
ATOM     15  C   UNL A   1      32.701  30.490  26.646  1.00  0.00     0.102 A 
ATOM     16  N   UNL A   1      34.391  28.296  26.787  1.00  0.00    -0.129 NA
ATOM     17  C   UNL A   1      33.950  30.515  27.135  1.00  0.00     0.177 A 
ATOM     18  C   UNL A   1      31.864  31.671  26.709  1.00  0.00     0.049 A 
ATOM     19  N   UNL A   1      34.780  29.414  27.195  1.00  0.00    -0.141 NA
ATOM     20  C   UNL A   1      34.506  31.801  27.599  1.00  0.00     0.280 A 
ATOM     21  C   UNL A   1      32.301  32.759  27.360  1.00  0.00     0.091 A 
ATOM     22  O   UNL A   1      35.723  31.875  27.731  1.00  0.00    -0.267 OA
BRANCH  12  23
ATOM     23  C   UNL A   1      33.199  25.842  25.457  1.00  0.00    -0.012 A 
ATOM     24  C   UNL A   1      32.848  24.807  26.330  1.00  0.00     0.012 A 
ATOM     25  C   UNL A   1      34.096  25.598  24.404  1.00  0.00     0.012 A 
ATOM     26  C   UNL A   1      33.396  23.535  26.151  1.00  0.00     0.040 A 
ATOM     27  C   UNL A   1      34.643  24.327  24.231  1.00  0.00     0.040 A 
ATOM     28  C   UNL A   1      34.287  23.307  25.106  1.00  0.00     0.123 A 
ATOM     29  F   UNL A   1      34.801  22.084  24.933  1.00  0.00    -0.207 F 
ENDBRANCH  12  23
ENDBRANCH   7   8
ENDBRANCH   6   7
ENDBRANCH   5   6
ENDBRANCH   3   5
ENDBRANCH   2   3
ENDBRANCH   1   2
BRANCH   1  30
ATOM     30  C   UNL A   1      35.721  34.262  32.129  1.00  0.00     0.275 C 
BRANCH  30  31
ATOM     31  O   UNL A   1      35.929  33.240  31.160  1.00  0.00    -0.458 OA
BRANCH  31  32
ATOM     32  C   UNL A   1      36.237  32.040  31.700  1.00  0.00     0.338 C 
ATOM     33  O   UNL A   1      36.095  31.672  32.855  1.00  0.00    -0.246 OA
BRANCH  32  34
ATOM     34  C   UNL A   1      36.954  31.236  30.719  1.00  0.00     0.060 A 
ATOM     35  C   UNL A   1      36.642  29.873  30.703  1.00  0.00     0.016 A 
ATOM     36  C   UNL A   1      38.186  31.746  30.303  1.00  0.00     0.016 A 
ATOM     37  C   UNL A   1      37.680  28.990  30.539  1.00  0.00     0.010 A 
ATOM     38  C   UNL A   1      39.227  30.867  30.197  1.00  0.00     0.010 A 
ATOM     39  C   UNL A   1      38.969  29.512  30.399  1.00  0.00    -0.014 A 
BRANCH  39  40
ATOM     40  C   UNL A   1      40.071  28.587  30.358  1.00  0.00     0.031 A 
ATOM     41  C   UNL A   1      40.730  28.443  31.663  1.00  0.00     0.074 A 
ATOM     42  C   UNL A   1      40.374  27.851  29.276  1.00  0.00     0.049 A 
ATOM     43  N   UNL A   1      41.908  28.852  31.990  1.00  0.00    -0.248 NA
ATOM     44  C   UNL A   1      39.919  27.933  32.780  1.00  0.00     0.031 C 
ATOM     45  C   UNL A   1      39.586  27.680  28.053  1.00  0.00     0.029 A 
ATOM     46  N   UNL A   1      41.419  26.999  29.104  1.00  0.00    -0.354 N 
ATOM     47  C   UNL A   1      42.056  28.478  33.316  1.00  0.00     0.074 A 
ATOM     48  C   UNL A   1      40.753  28.106  33.803  1.00  0.00     0.031 C 
ATOM     49  C   UNL A   1      40.065  26.615  27.369  1.00  0.00     0.029 A 
ATOM     50  C   UNL A   1      41.269  26.136  28.031  1.00  0.00     0.049 A 
ATOM     51  H   UNL A   1      42.210  26.996  29.689  1.00  0.00     0.167 HD
ATOM     52  C   UNL A   1      43.279  28.202  33.836  1.00  0.00     0.031 A 
ATOM     53  C   UNL A   1      42.057  25.070  27.764  1.00  0.00     0.031 A 
ATOM     54  C   UNL A   1      44.347  28.636  32.981  1.00  0.00     0.049 A 
ATOM     55  C   UNL A   1      43.352  25.281  28.452  1.00  0.00     0.074 A 
ATOM     56  C   UNL A   1      44.967  29.829  32.683  1.00  0.00     0.029 A 
ATOM     57  N   UNL A   1      44.667  27.747  31.987  1.00  0.00    -0.354 N 
ATOM     58  N   UNL A   1      44.190  26.225  28.133  1.00  0.00    -0.248 NA
ATOM     59  C   UNL A   1      43.620  24.613  29.722  1.00  0.00     0.031 C 
ATOM     60  C   UNL A   1      45.526  29.674  31.380  1.00  0.00     0.029 A 
ATOM     61  C   UNL A   1      45.236  28.390  30.920  1.00  0.00     0.049 A 
ATOM     62  H   UNL A   1      44.510  26.775  32.035  1.00  0.00     0.167 HD
ATOM     63  C   UNL A   1      44.817  26.544  29.320  1.00  0.00     0.074 A 
ATOM     64  C   UNL A   1      44.574  25.414  30.204  1.00  0.00     0.031 C 
ATOM     65  C   UNL A   1      45.197  27.822  29.590  1.00  0.00     0.031 A 
BRANCH  52  66
ATOM     66  C   UNL A   1      43.480  27.125  34.862  1.00  0.00    -0.014 A 
ATOM     67  C   UNL A   1      43.465  25.784  34.454  1.00  0.00     0.009 A 
ATOM     68  C   UNL A   1      43.418  27.376  36.249  1.00  0.00     0.009 A 
ATOM     69  C   UNL A   1      43.391  24.749  35.393  1.00  0.00     0.001 A 
ATOM     70  C   UNL A   1      43.388  26.347  37.188  1.00  0.00     0.001 A 
ATOM     71  C   UNL A   1      43.359  25.030  36.757  1.00  0.00     0.000 A 
ENDBRANCH  52  66
BRANCH  53  72
ATOM     72  C   UNL A   1      41.712  23.768  27.161  1.00  0.00    -0.014 A 
ATOM     73  C   UNL A   1      42.509  23.249  26.127  1.00  0.00     0.009 A 
ATOM     74  C   UNL A   1      40.807  22.898  27.794  1.00  0.00     0.009 A 
ATOM     75  C   UNL A   1      42.467  21.891  25.797  1.00  0.00     0.001 A 
ATOM     76  C   UNL A   1      40.756  21.542  27.454  1.00  0.00     0.001 A 
ATOM     77  C   UNL A   1      41.605  21.035  26.475  1.00  0.00     0.000 A 
ENDBRANCH  53  72
BRANCH  65  78
ATOM     78  C   UNL A   1      45.367  28.750  28.424  1.00  0.00    -0.014 A 
ATOM     79  C   UNL A   1      44.369  29.644  28.003  1.00  0.00     0.009 A 
ATOM     80  C   UNL A   1      46.615  28.783  27.787  1.00  0.00     0.009 A 
ATOM     81  C   UNL A   1      44.616  30.541  26.960  1.00  0.00     0.001 A 
ATOM     82  C   UNL A   1      46.866  29.690  26.757  1.00  0.00     0.001 A 
ATOM     83  C   UNL A   1      45.866  30.568  26.343  1.00  0.00     0.000 A 
ENDBRANCH  65  78
ENDBRANCH  39  40
ENDBRANCH  32  34
ENDBRANCH  31  32
ENDBRANCH  30  31
ENDBRANCH   1  30
TORSDOF 15
ENDMDL
MODEL 3
REMARK VINA RESULT:     -12.6      3.225      5.342
REMARK SMILES Cc1nn2c(nnc3c(=O)n(CCCC(=O)OCCOC(=O)c4ccc(-c5c6nc(c(-c7ccccc7)c7ccc([nH]7)c(-c7ccccc7)c7nc(c(-c8ccccc8)c8ccc5[nH]8)C=C7)C=C6)cc4)ccc32)c1-c1ccc(F)cc1
REMARK SMILES IDX 18 1 17 2 15 3 16 4 14 5 13 6 12 7 11 8 1 9 2 10 3 11 74 12
REMARK SMILES IDX 4 13 5 14 73 15 6 16 8 17 72 18 7 19 9 20 71 21 10 22 75 23
REMARK SMILES IDX 76 24 81 25 77 26 80 27 78 28 79 29 19 30 20 31 21 32 22 33
REMARK SMILES IDX 23 34 24 35 70 36 25 37 69 38 26 39 27 40 28 41 63 42 29 43
REMARK SMILES IDX 68 44 62 45 64 46 30 47 67 48 61 49 60 50 31 52 53 53 38 54
REMARK SMILES IDX 52 55 39 56 42 57 51 58 65 59 40 60 41 61 50 63 66 64 43 65
REMARK SMILES IDX 32 66 33 67 37 68 34 69 36 70 35 71 54 72 55 73 59 74 56 75
REMARK SMILES IDX 58 76 57 77 44 78 45 79 49 80 46 81 48 82 47 83
REMARK H PARENT 64 51 42 62
REMARK Flexibility Score: inf
ROOT
ATOM      1  C   UNL A   1      37.472  34.202  33.262  1.00  0.00     0.274 C 
ENDROOT
BRANCH   1   2
ATOM      2  O   UNL A   1      36.587  34.543  32.182  1.00  0.00    -0.462 OA
BRANCH   2   3
ATOM      3  C   UNL A   1      35.349  35.009  32.457  1.00  0.00     0.305 C 
ATOM      4  O   UNL A   1      35.059  35.686  33.437  1.00  0.00    -0.252 OA
BRANCH   3   5
ATOM      5  C   UNL A   1      34.318  34.584  31.423  1.00  0.00     0.124 C 
BRANCH   5   6
ATOM      6  C   UNL A   1      34.706  33.555  30.351  1.00  0.00     0.034 C 
BRANCH   6   7
ATOM      7  C   UNL A   1      34.448  33.884  28.868  1.00  0.00     0.126 C 
BRANCH   7   8
ATOM      8  N   UNL A   1      33.923  32.761  28.086  1.00  0.00    -0.313 N 
ATOM      9  C   UNL A   1      30.352  27.437  24.008  1.00  0.00     0.069 C 
ATOM     10  C   UNL A   1      31.408  27.971  24.898  1.00  0.00     0.070 A 
ATOM     11  N   UNL A   1      31.292  29.217  25.385  1.00  0.00    -0.170 NA
ATOM     12  C   UNL A   1      32.592  27.338  25.336  1.00  0.00     0.051 A 
ATOM     13  N   UNL A   1      32.451  29.431  26.064  1.00  0.00    -0.210 N 
ATOM     14  C   UNL A   1      33.265  28.306  26.037  1.00  0.00     0.186 A 
ATOM     15  C   UNL A   1      32.905  30.582  26.698  1.00  0.00     0.102 A 
ATOM     16  N   UNL A   1      34.497  28.313  26.618  1.00  0.00    -0.129 NA
ATOM     17  C   UNL A   1      34.163  30.511  27.161  1.00  0.00     0.177 A 
ATOM     18  C   UNL A   1      32.123  31.788  26.878  1.00  0.00     0.049 A 
ATOM     19  N   UNL A   1      34.943  29.374  27.110  1.00  0.00    -0.141 NA
ATOM     20  C   UNL A   1      34.784  31.727  27.720  1.00  0.00     0.280 A 
ATOM     21  C   UNL A   1      32.621  32.798  27.609  1.00  0.00     0.091 A 
ATOM     22  O   UNL A   1      36.005  31.737  27.832  1.00  0.00    -0.267 OA
BRANCH  12  23
ATOM     23  C   UNL A   1      33.173  26.035  25.112  1.00  0.00    -0.012 A 
ATOM     24  C   UNL A   1      33.187  25.081  26.135  1.00  0.00     0.012 A 
ATOM     25  C   UNL A   1      33.622  25.690  23.826  1.00  0.00     0.012 A 
ATOM     26  C   UNL A   1      33.652  23.791  25.873  1.00  0.00     0.040 A 
ATOM     27  C   UNL A   1      34.088  24.402  23.570  1.00  0.00     0.040 A 
ATOM     28  C   UNL A   1      34.098  23.464  24.595  1.00  0.00     0.123 A 
ATOM     29  F   UNL A   1      34.533  22.223  24.347  1.00  0.00    -0.207 F 
ENDBRANCH  12  23
ENDBRANCH   7   8
ENDBRANCH   6   7
ENDBRANCH   5   6
ENDBRANCH   3   5
ENDBRANCH   2   3
ENDBRANCH   1   2
BRANCH   1  30
ATOM     30  C   UNL A   1      38.902  34.481  32.840  1.00  0.00     0.275 C 
BRANCH  30  31
ATOM     31  O   UNL A   1      39.203  33.686  31.697  1.00  0.00    -0.458 OA
BRANCH  31  32
ATOM     32  C   UNL A   1      40.471  33.220  31.684  1.00  0.00     0.338 C 
ATOM     33  O   UNL A   1      41.424  33.603  32.345  1.00  0.00    -0.246 OA
BRANCH  32  34
ATOM     34  C   UNL A   1      40.622  32.253  30.606  1.00  0.00     0.060 A 
ATOM     35  C   UNL A   1      39.588  31.320  30.475  1.00  0.00     0.016 A 
ATOM     36  C   UNL A   1      41.933  32.006  30.192  1.00  0.00     0.016 A 
ATOM     37  C   UNL A   1      39.939  30.024  30.190  1.00  0.00     0.010 A 
ATOM     38  C   UNL A   1      42.287  30.707  29.964  1.00  0.00     0.010 A 
ATOM     39  C   UNL A   1      41.298  29.729  30.049  1.00  0.00    -0.014 A 
BRANCH  39  40
ATOM     40  C   UNL A   1      41.675  28.350  29.879  1.00  0.00     0.031 A 
ATOM     41  C   UNL A   1      42.407  27.823  31.039  1.00  0.00     0.074 A 
ATOM     42  C   UNL A   1      41.288  27.605  28.830  1.00  0.00     0.049 A 
ATOM     43  N   UNL A   1      43.653  27.500  31.092  1.00  0.00    -0.248 NA
ATOM     44  C   UNL A   1      41.708  27.811  32.334  1.00  0.00     0.031 C 
ATOM     45  C   UNL A   1      40.297  27.939  27.804  1.00  0.00     0.029 A 
ATOM     46  N   UNL A   1      41.631  26.323  28.537  1.00  0.00    -0.354 N 
ATOM     47  C   UNL A   1      43.850  27.063  32.392  1.00  0.00     0.074 A 
ATOM     48  C   UNL A   1      42.694  27.460  33.155  1.00  0.00     0.031 C 
ATOM     49  C   UNL A   1      39.957  26.811  27.140  1.00  0.00     0.029 A 
ATOM     50  C   UNL A   1      40.809  25.723  27.597  1.00  0.00     0.049 A 
ATOM     51  H   UNL A   1      42.394  25.863  28.955  1.00  0.00     0.167 HD
ATOM     52  C   UNL A   1      44.799  26.140  32.687  1.00  0.00     0.031 A 
ATOM     53  C   UNL A   1      40.808  24.409  27.280  1.00  0.00     0.031 A 
ATOM     54  C   UNL A   1      45.720  25.937  31.605  1.00  0.00     0.049 A 
ATOM     55  C   UNL A   1      42.117  23.845  27.681  1.00  0.00     0.074 A 
ATOM     56  C   UNL A   1      46.811  26.595  31.085  1.00  0.00     0.029 A 
ATOM     57  N   UNL A   1      45.281  25.052  30.654  1.00  0.00    -0.354 N 
ATOM     58  N   UNL A   1      43.244  24.176  27.120  1.00  0.00    -0.248 NA
ATOM     59  C   UNL A   1      42.238  23.099  28.930  1.00  0.00     0.031 C 
ATOM     60  C   UNL A   1      46.903  26.199  29.718  1.00  0.00     0.029 A 
ATOM     61  C   UNL A   1      45.868  25.307  29.441  1.00  0.00     0.049 A 
ATOM     62  H   UNL A   1      44.632  24.330  30.819  1.00  0.00     0.167 HD
ATOM     63  C   UNL A   1      44.179  24.055  28.129  1.00  0.00     0.074 A 
ATOM     64  C   UNL A   1      43.551  23.221  29.142  1.00  0.00     0.031 C 
ATOM     65  C   UNL A   1      45.243  24.900  28.202  1.00  0.00     0.031 A 
BRANCH  52  66
ATOM     66  C   UNL A   1      44.589  25.099  33.748  1.00  0.00    -0.014 A 
ATOM     67  C   UNL A   1      45.501  25.012  34.808  1.00  0.00     0.009 A 
ATOM     68  C   UNL A   1      43.676  24.034  33.597  1.00  0.00     0.009 A 
ATOM     69  C   UNL A   1      45.497  23.911  35.671  1.00  0.00     0.001 A 
ATOM     70  C   UNL A   1      43.640  22.956  34.481  1.00  0.00     0.001 A 
ATOM     71  C   UNL A   1      44.564  22.888  35.511  1.00  0.00     0.000 A 
ENDBRANCH  52  66
BRANCH  53  72
ATOM     72  C   UNL A   1      39.687  23.536  26.877  1.00  0.00    -0.014 A 
ATOM     73  C   UNL A   1      38.459  24.110  26.509  1.00  0.00     0.009 A 
ATOM     74  C   UNL A   1      39.906  22.186  26.554  1.00  0.00     0.009 A 
ATOM     75  C   UNL A   1      37.519  23.387  25.768  1.00  0.00     0.001 A 
ATOM     76  C   UNL A   1      38.959  21.459  25.824  1.00  0.00     0.001 A 
ATOM     77  C   UNL A   1      37.780  22.068  25.408  1.00  0.00     0.000 A 
ENDBRANCH  53  72
BRANCH  65  78
ATOM     78  C   UNL A   1      45.641  25.615  26.946  1.00  0.00    -0.014 A 
ATOM     79  C   UNL A   1      45.018  26.794  26.505  1.00  0.00     0.009 A 
ATOM     80  C   UNL A   1      46.746  25.128  26.233  1.00  0.00     0.009 A 
ATOM     81  C   UNL A   1      45.487  27.460  25.368  1.00  0.00     0.001 A 
ATOM     82  C   UNL A   1      47.223  25.802  25.109  1.00  0.00     0.001 A 
ATOM     83  C   UNL A   1      46.593  26.967  24.676  1.00  0.00     0.000 A 
ENDBRANCH  65  78
ENDBRANCH  39  40
ENDBRANCH  32  34
ENDBRANCH  31  32
ENDBRANCH  30  31
ENDBRANCH   1  30
TORSDOF 15
ENDMDL
