MODEL 1
REMARK VINA RESULT:     -10.2      0.000      0.000
REMARK SMILES Cc1ccccc1C(=O)Nc1ccc(N2CCC(n3c(C)nc4cccnc43)CC2)c(C(=O)OCCOC(=O)c2ccc(-c3c4nc(c(-c5ccccc5)c5ccc([nH]5)c(-c5ccccc5)c5nc(c(-c6ccccc6)c6ccc3[nH]6)C=C5)C=C4)cc2)c1
REMARK SMILES IDX 35 1 34 2 32 3 33 4 31 5 11 6 12 7 88 8 13 9 14 10 10 11
REMARK SMILES IDX 8 12 9 13 7 15 1 16 2 17 3 18 4 19 6 20 5 21 15 22 16 23
REMARK SMILES IDX 30 24 17 25 29 26 18 27 19 28 20 29 28 30 21 31 22 32 23 33
REMARK SMILES IDX 27 34 24 35 26 36 25 37 36 38 37 39 38 40 39 41 40 42 41 43
REMARK SMILES IDX 87 44 42 45 86 46 43 47 44 48 45 49 80 50 46 51 85 52 79 53
REMARK SMILES IDX 81 54 47 55 84 56 78 57 77 58 48 60 70 61 55 62 69 63 56 64
REMARK SMILES IDX 59 65 68 66 82 67 57 68 58 69 67 71 83 72 60 73 49 74 50 75
REMARK SMILES IDX 54 76 51 77 53 78 52 79 71 80 72 81 76 82 73 83 75 84 74 85
REMARK SMILES IDX 61 86 62 87 66 88 63 89 65 90 64 91
REMARK H PARENT 10 14 81 59 59 70
REMARK Flexibility Score: inf
ROOT
ATOM      1  C   UNL A   1      37.221  29.286  31.672  1.00  0.00     0.275 C 
ENDROOT
BRANCH   1   2
ATOM      2  O   UNL A   1      37.917  30.449  32.157  1.00  0.00    -0.458 OA
BRANCH   2   3
ATOM      3  C   UNL A   1      38.401  30.268  33.400  1.00  0.00     0.340 C 
ATOM      4  O   UNL A   1      37.802  29.762  34.340  1.00  0.00    -0.246 OA
BRANCH   3   5
ATOM      5  C   UNL A   1      39.685  30.869  33.708  1.00  0.00     0.085 A 
ATOM      6  C   UNL A   1      41.575  30.629  35.196  1.00  0.00     0.042 A 
ATOM      7  C   UNL A   1      41.770  32.005  35.152  1.00  0.00     0.028 A 
ATOM      8  C   UNL A   1      40.614  30.047  34.364  1.00  0.00     0.044 A 
ATOM      9  C   UNL A   1      40.855  32.818  34.468  1.00  0.00     0.029 A 
ATOM     10  C   UNL A   1      39.722  32.268  33.851  1.00  0.00     0.051 A 
BRANCH   6  11
ATOM     11  N   UNL A   1      42.192  29.783  36.132  1.00  0.00    -0.322 N 
ATOM     12  C   UNL A   1      43.005  28.675  35.997  1.00  0.00     0.255 C 
ATOM     13  O   UNL A   1      43.317  28.065  37.024  1.00  0.00    -0.269 OA
ATOM     14  H   UNL A   1      42.008  30.027  37.067  1.00  0.00     0.170 HD
BRANCH  12  15
ATOM     15  C   UNL A   1      43.585  28.194  34.708  1.00  0.00     0.043 A 
ATOM     16  C   UNL A   1      45.098  30.228  34.241  1.00  0.00     0.045 C 
ATOM     17  C   UNL A   1      44.489  28.901  33.891  1.00  0.00    -0.038 A 
ATOM     18  C   UNL A   1      44.919  28.315  32.681  1.00  0.00     0.004 A 
ATOM     19  C   UNL A   1      44.571  27.007  32.348  1.00  0.00     0.000 A 
ATOM     20  C   UNL A   1      43.287  26.856  34.380  1.00  0.00     0.014 A 
ATOM     21  C   UNL A   1      43.787  26.263  33.219  1.00  0.00     0.001 A 
ENDBRANCH  12  15
ENDBRANCH   6  11
BRANCH  10  22
ATOM     22  N   UNL A   1      38.617  33.103  33.693  1.00  0.00    -0.371 N 
ATOM     23  C   UNL A   1      37.520  33.086  34.642  1.00  0.00     0.118 C 
ATOM     24  C   UNL A   1      38.870  34.417  33.098  1.00  0.00     0.118 C 
ATOM     25  C   UNL A   1      36.244  33.493  33.894  1.00  0.00     0.047 C 
ATOM     26  C   UNL A   1      37.687  34.770  32.240  1.00  0.00     0.047 C 
ATOM     27  C   UNL A   1      36.383  34.793  33.044  1.00  0.00     0.094 C 
BRANCH  27  28
ATOM     28  N   UNL A   1      35.187  35.042  32.220  1.00  0.00    -0.310 N 
ATOM     29  C   UNL A   1      34.142  35.946  32.378  1.00  0.00     0.108 A 
ATOM     30  C   UNL A   1      34.910  34.330  31.069  1.00  0.00     0.160 A 
ATOM     31  C   UNL A   1      33.871  36.817  33.545  1.00  0.00     0.088 C 
ATOM     32  N   UNL A   1      33.324  35.921  31.342  1.00  0.00    -0.232 NA
ATOM     33  C   UNL A   1      33.780  34.928  30.534  1.00  0.00     0.108 A 
ATOM     34  N   UNL A   1      35.602  33.295  30.549  1.00  0.00    -0.237 NA
ATOM     35  C   UNL A   1      33.290  34.459  29.314  1.00  0.00     0.034 A 
ATOM     36  C   UNL A   1      35.091  32.875  29.366  1.00  0.00     0.113 A 
ATOM     37  C   UNL A   1      33.978  33.405  28.719  1.00  0.00     0.022 A 
ENDBRANCH  27  28
ENDBRANCH  10  22
ENDBRANCH   3   5
ENDBRANCH   2   3
ENDBRANCH   1   2
BRANCH   1  38
ATOM     38  C   UNL A   1      36.345  29.546  30.447  1.00  0.00     0.275 C 
BRANCH  38  39
ATOM     39  O   UNL A   1      36.995  29.720  29.160  1.00  0.00    -0.458 OA
BRANCH  39  40
ATOM     40  C   UNL A   1      38.076  30.448  28.775  1.00  0.00     0.338 C 
ATOM     41  O   UNL A   1      38.061  31.664  28.835  1.00  0.00    -0.246 OA
BRANCH  40  42
ATOM     42  C   UNL A   1      39.308  29.755  28.341  1.00  0.00     0.060 A 
ATOM     43  C   UNL A   1      39.356  29.231  27.033  1.00  0.00     0.016 A 
ATOM     44  C   UNL A   1      40.432  29.703  29.158  1.00  0.00     0.016 A 
ATOM     45  C   UNL A   1      40.564  28.768  26.507  1.00  0.00     0.010 A 
ATOM     46  C   UNL A   1      41.650  29.362  28.607  1.00  0.00     0.010 A 
ATOM     47  C   UNL A   1      41.717  28.868  27.293  1.00  0.00    -0.014 A 
BRANCH  47  48
ATOM     48  C   UNL A   1      42.936  28.097  27.039  1.00  0.00     0.031 A 
ATOM     49  C   UNL A   1      42.981  26.622  27.183  1.00  0.00     0.074 A 
ATOM     50  C   UNL A   1      43.953  28.917  26.698  1.00  0.00     0.049 A 
ATOM     51  N   UNL A   1      43.383  25.760  26.299  1.00  0.00    -0.248 NA
ATOM     52  C   UNL A   1      42.517  26.013  28.437  1.00  0.00     0.031 C 
ATOM     53  C   UNL A   1      45.310  28.656  26.287  1.00  0.00     0.029 A 
ATOM     54  N   UNL A   1      43.962  30.285  26.950  1.00  0.00    -0.354 N 
ATOM     55  C   UNL A   1      43.402  24.499  26.912  1.00  0.00     0.074 A 
ATOM     56  C   UNL A   1      42.739  24.717  28.206  1.00  0.00     0.031 C 
ATOM     57  C   UNL A   1      46.066  29.720  26.641  1.00  0.00     0.029 A 
ATOM     58  C   UNL A   1      45.215  30.668  27.370  1.00  0.00     0.049 A 
ATOM     59  H   UNL A   1      43.190  30.887  26.845  1.00  0.00     0.167 HD
ATOM     60  C   UNL A   1      44.581  23.806  26.979  1.00  0.00     0.031 A 
ATOM     61  C   UNL A   1      45.370  31.033  28.681  1.00  0.00     0.031 A 
ATOM     62  C   UNL A   1      45.719  24.663  27.189  1.00  0.00     0.049 A 
ATOM     63  C   UNL A   1      46.169  29.980  29.403  1.00  0.00     0.074 A 
ATOM     64  C   UNL A   1      46.582  25.309  26.329  1.00  0.00     0.029 A 
ATOM     65  N   UNL A   1      45.948  25.160  28.459  1.00  0.00    -0.354 N 
ATOM     66  N   UNL A   1      46.028  28.694  29.218  1.00  0.00    -0.248 NA
ATOM     67  C   UNL A   1      47.246  30.319  30.326  1.00  0.00     0.031 C 
ATOM     68  C   UNL A   1      47.318  26.244  27.092  1.00  0.00     0.029 A 
ATOM     69  C   UNL A   1      46.893  26.156  28.407  1.00  0.00     0.049 A 
ATOM     70  H   UNL A   1      45.501  24.848  29.279  1.00  0.00     0.167 HD
ATOM     71  C   UNL A   1      47.081  28.064  29.833  1.00  0.00     0.074 A 
ATOM     72  C   UNL A   1      47.768  29.107  30.573  1.00  0.00     0.031 C 
ATOM     73  C   UNL A   1      47.407  26.759  29.617  1.00  0.00     0.031 A 
BRANCH  60  74
ATOM     74  C   UNL A   1      44.622  22.483  26.270  1.00  0.00    -0.014 A 
ATOM     75  C   UNL A   1      43.487  21.661  26.171  1.00  0.00     0.009 A 
ATOM     76  C   UNL A   1      45.801  22.006  25.679  1.00  0.00     0.009 A 
ATOM     77  C   UNL A   1      43.549  20.391  25.582  1.00  0.00     0.001 A 
ATOM     78  C   UNL A   1      45.877  20.728  25.108  1.00  0.00     0.001 A 
ATOM     79  C   UNL A   1      44.750  19.915  25.071  1.00  0.00     0.000 A 
ENDBRANCH  60  74
BRANCH  61  80
ATOM     80  C   UNL A   1      44.257  31.815  29.326  1.00  0.00    -0.014 A 
ATOM     81  C   UNL A   1      43.698  31.347  30.538  1.00  0.00     0.009 A 
ATOM     82  C   UNL A   1      43.826  33.067  28.864  1.00  0.00     0.009 A 
ATOM     83  C   UNL A   1      42.827  32.132  31.303  1.00  0.00     0.001 A 
ATOM     84  C   UNL A   1      42.930  33.848  29.620  1.00  0.00     0.001 A 
ATOM     85  C   UNL A   1      42.453  33.391  30.848  1.00  0.00     0.000 A 
ENDBRANCH  61  80
BRANCH  73  86
ATOM     86  C   UNL A   1      48.396  25.959  30.417  1.00  0.00    -0.014 A 
ATOM     87  C   UNL A   1      49.634  25.544  29.917  1.00  0.00     0.009 A 
ATOM     88  C   UNL A   1      48.151  25.739  31.792  1.00  0.00     0.009 A 
ATOM     89  C   UNL A   1      50.556  24.883  30.737  1.00  0.00     0.001 A 
ATOM     90  C   UNL A   1      49.086  25.126  32.623  1.00  0.00     0.001 A 
ATOM     91  C   UNL A   1      50.285  24.683  32.088  1.00  0.00     0.000 A 
ENDBRANCH  73  86
ENDBRANCH  47  48
ENDBRANCH  40  42
ENDBRANCH  39  40
ENDBRANCH  38  39
ENDBRANCH   1  38
TORSDOF 15
ENDMDL
MODEL 2
REMARK VINA RESULT:      -9.7      4.260      8.396
REMARK SMILES Cc1ccccc1C(=O)Nc1ccc(N2CCC(n3c(C)nc4cccnc43)CC2)c(C(=O)OCCOC(=O)c2ccc(-c3c4nc(c(-c5ccccc5)c5ccc([nH]5)c(-c5ccccc5)c5nc(c(-c6ccccc6)c6ccc3[nH]6)C=C5)C=C4)cc2)c1
REMARK SMILES IDX 35 1 34 2 32 3 33 4 31 5 11 6 12 7 88 8 13 9 14 10 10 11
REMARK SMILES IDX 8 12 9 13 7 15 1 16 2 17 3 18 4 19 6 20 5 21 15 22 16 23
REMARK SMILES IDX 30 24 17 25 29 26 18 27 19 28 20 29 28 30 21 31 22 32 23 33
REMARK SMILES IDX 27 34 24 35 26 36 25 37 36 38 37 39 38 40 39 41 40 42 41 43
REMARK SMILES IDX 87 44 42 45 86 46 43 47 44 48 45 49 80 50 46 51 85 52 79 53
REMARK SMILES IDX 81 54 47 55 84 56 78 57 77 58 48 60 70 61 55 62 69 63 56 64
REMARK SMILES IDX 59 65 68 66 82 67 57 68 58 69 67 71 83 72 60 73 49 74 50 75
REMARK SMILES IDX 54 76 51 77 53 78 52 79 71 80 72 81 76 82 73 83 75 84 74 85
REMARK SMILES IDX 61 86 62 87 66 88 63 89 65 90 64 91
REMARK H PARENT 10 14 81 59 59 70
REMARK Flexibility Score: inf
ROOT
ATOM      1  C   UNL A   1      43.647  31.816  39.196  1.00  0.00     0.275 C 
ENDROOT
BRANCH   1   2
ATOM      2  O   UNL A   1      42.213  31.933  39.236  1.00  0.00    -0.458 OA
BRANCH   2   3
ATOM      3  C   UNL A   1      41.788  33.108  38.735  1.00  0.00     0.340 C 
ATOM      4  O   UNL A   1      41.931  33.495  37.583  1.00  0.00    -0.246 OA
BRANCH   3   5
ATOM      5  C   UNL A   1      41.257  34.077  39.675  1.00  0.00     0.085 A 
ATOM      6  C   UNL A   1      41.116  34.527  42.047  1.00  0.00     0.042 A 
ATOM      7  C   UNL A   1      39.890  35.152  41.843  1.00  0.00     0.028 A 
ATOM      8  C   UNL A   1      41.863  34.110  40.941  1.00  0.00     0.044 A 
ATOM      9  C   UNL A   1      39.305  35.142  40.569  1.00  0.00     0.029 A 
ATOM     10  C   UNL A   1      39.922  34.483  39.497  1.00  0.00     0.051 A 
BRANCH   6  11
ATOM     11  N   UNL A   1      41.604  34.157  43.310  1.00  0.00    -0.322 N 
ATOM     12  C   UNL A   1      41.196  33.211  44.230  1.00  0.00     0.255 C 
ATOM     13  O   UNL A   1      41.773  33.186  45.320  1.00  0.00    -0.269 OA
ATOM     14  H   UNL A   1      42.391  34.673  43.597  1.00  0.00     0.170 HD
BRANCH  12  15
ATOM     15  C   UNL A   1      40.149  32.176  43.981  1.00  0.00     0.043 A 
ATOM     16  C   UNL A   1      41.642  30.478  42.742  1.00  0.00     0.045 C 
ATOM     17  C   UNL A   1      40.328  30.969  43.277  1.00  0.00    -0.038 A 
ATOM     18  C   UNL A   1      39.222  30.109  43.102  1.00  0.00     0.004 A 
ATOM     19  C   UNL A   1      38.000  30.369  43.721  1.00  0.00     0.000 A 
ATOM     20  C   UNL A   1      38.923  32.394  44.641  1.00  0.00     0.014 A 
ATOM     21  C   UNL A   1      37.863  31.493  44.524  1.00  0.00     0.001 A 
ENDBRANCH  12  15
ENDBRANCH   6  11
BRANCH  10  22
ATOM     22  N   UNL A   1      39.096  34.032  38.468  1.00  0.00    -0.371 N 
ATOM     23  C   UNL A   1      37.966  33.163  38.736  1.00  0.00     0.118 C 
ATOM     24  C   UNL A   1      38.888  34.952  37.347  1.00  0.00     0.118 C 
ATOM     25  C   UNL A   1      37.727  32.303  37.488  1.00  0.00     0.047 C 
ATOM     26  C   UNL A   1      38.797  34.133  36.090  1.00  0.00     0.047 C 
ATOM     27  C   UNL A   1      37.659  33.109  36.155  1.00  0.00     0.094 C 
BRANCH  27  28
ATOM     28  N   UNL A   1      37.597  32.222  34.980  1.00  0.00    -0.310 N 
ATOM     29  C   UNL A   1      38.346  31.100  34.642  1.00  0.00     0.108 A 
ATOM     30  C   UNL A   1      36.702  32.413  33.945  1.00  0.00     0.160 A 
ATOM     31  C   UNL A   1      39.551  30.580  35.328  1.00  0.00     0.088 C 
ATOM     32  N   UNL A   1      37.886  30.526  33.546  1.00  0.00    -0.232 NA
ATOM     33  C   UNL A   1      36.881  31.326  33.104  1.00  0.00     0.108 A 
ATOM     34  N   UNL A   1      35.816  33.420  33.791  1.00  0.00    -0.237 NA
ATOM     35  C   UNL A   1      36.057  31.206  31.983  1.00  0.00     0.034 A 
ATOM     36  C   UNL A   1      35.039  33.260  32.692  1.00  0.00     0.113 A 
ATOM     37  C   UNL A   1      35.108  32.206  31.785  1.00  0.00     0.022 A 
ENDBRANCH  27  28
ENDBRANCH  10  22
ENDBRANCH   3   5
ENDBRANCH   2   3
ENDBRANCH   1   2
BRANCH   1  38
ATOM     38  C   UNL A   1      44.164  30.767  38.211  1.00  0.00     0.275 C 
BRANCH  38  39
ATOM     39  O   UNL A   1      43.194  29.934  37.521  1.00  0.00    -0.458 OA
BRANCH  39  40
ATOM     40  C   UNL A   1      43.327  28.810  36.770  1.00  0.00     0.338 C 
ATOM     41  O   UNL A   1      43.727  27.773  37.266  1.00  0.00    -0.246 OA
BRANCH  40  42
ATOM     42  C   UNL A   1      42.918  28.827  35.349  1.00  0.00     0.060 A 
ATOM     43  C   UNL A   1      43.114  30.013  34.611  1.00  0.00     0.016 A 
ATOM     44  C   UNL A   1      42.446  27.681  34.721  1.00  0.00     0.016 A 
ATOM     45  C   UNL A   1      42.952  30.009  33.224  1.00  0.00     0.010 A 
ATOM     46  C   UNL A   1      42.402  27.638  33.342  1.00  0.00     0.010 A 
ATOM     47  C   UNL A   1      42.626  28.805  32.591  1.00  0.00    -0.014 A 
BRANCH  47  48
ATOM     48  C   UNL A   1      42.061  28.728  31.243  1.00  0.00     0.031 A 
ATOM     49  C   UNL A   1      40.606  28.849  30.989  1.00  0.00     0.074 A 
ATOM     50  C   UNL A   1      43.036  28.517  30.332  1.00  0.00     0.049 A 
ATOM     51  N   UNL A   1      40.018  29.664  30.167  1.00  0.00    -0.248 NA
ATOM     52  C   UNL A   1      39.677  27.987  31.734  1.00  0.00     0.031 C 
ATOM     53  C   UNL A   1      43.014  28.440  28.893  1.00  0.00     0.029 A 
ATOM     54  N   UNL A   1      44.301  28.035  30.651  1.00  0.00    -0.354 N 
ATOM     55  C   UNL A   1      38.657  29.328  30.133  1.00  0.00     0.074 A 
ATOM     56  C   UNL A   1      38.499  28.351  31.222  1.00  0.00     0.031 C 
ATOM     57  C   UNL A   1      44.036  27.646  28.501  1.00  0.00     0.029 A 
ATOM     58  C   UNL A   1      44.698  27.121  29.701  1.00  0.00     0.049 A 
ATOM     59  H   UNL A   1      44.831  28.305  31.435  1.00  0.00     0.167 HD
ATOM     60  C   UNL A   1      38.088  28.958  28.943  1.00  0.00     0.031 A 
ATOM     61  C   UNL A   1      44.762  25.802  30.065  1.00  0.00     0.031 A 
ATOM     62  C   UNL A   1      38.982  28.193  28.113  1.00  0.00     0.049 A 
ATOM     63  C   UNL A   1      43.655  25.042  29.383  1.00  0.00     0.074 A 
ATOM     64  C   UNL A   1      39.894  28.542  27.140  1.00  0.00     0.029 A 
ATOM     65  N   UNL A   1      39.190  26.860  28.418  1.00  0.00    -0.354 N 
ATOM     66  N   UNL A   1      42.439  25.497  29.225  1.00  0.00    -0.248 NA
ATOM     67  C   UNL A   1      43.875  23.742  28.760  1.00  0.00     0.031 C 
ATOM     68  C   UNL A   1      40.694  27.407  26.882  1.00  0.00     0.029 A 
ATOM     69  C   UNL A   1      40.260  26.379  27.702  1.00  0.00     0.049 A 
ATOM     70  H   UNL A   1      38.653  26.334  29.053  1.00  0.00     0.167 HD
ATOM     71  C   UNL A   1      41.792  24.663  28.347  1.00  0.00     0.074 A 
ATOM     72  C   UNL A   1      42.697  23.545  28.146  1.00  0.00     0.031 C 
ATOM     73  C   UNL A   1      40.612  24.976  27.742  1.00  0.00     0.031 A 
BRANCH  60  74
ATOM     74  C   UNL A   1      36.978  29.830  28.432  1.00  0.00    -0.014 A 
ATOM     75  C   UNL A   1      37.039  31.231  28.518  1.00  0.00     0.009 A 
ATOM     76  C   UNL A   1      35.826  29.283  27.850  1.00  0.00     0.009 A 
ATOM     77  C   UNL A   1      35.966  32.039  28.117  1.00  0.00     0.001 A 
ATOM     78  C   UNL A   1      34.739  30.082  27.468  1.00  0.00     0.001 A 
ATOM     79  C   UNL A   1      34.807  31.463  27.613  1.00  0.00     0.000 A 
ENDBRANCH  60  74
BRANCH  61  80
ATOM     80  C   UNL A   1      45.257  25.481  31.450  1.00  0.00    -0.014 A 
ATOM     81  C   UNL A   1      46.516  25.976  31.864  1.00  0.00     0.009 A 
ATOM     82  C   UNL A   1      44.477  24.826  32.415  1.00  0.00     0.009 A 
ATOM     83  C   UNL A   1      46.934  25.907  33.198  1.00  0.00     0.001 A 
ATOM     84  C   UNL A   1      44.908  24.735  33.752  1.00  0.00     0.001 A 
ATOM     85  C   UNL A   1      46.122  25.297  34.147  1.00  0.00     0.000 A 
ENDBRANCH  61  80
BRANCH  73  86
ATOM     86  C   UNL A   1      39.751  24.029  26.956  1.00  0.00    -0.014 A 
ATOM     87  C   UNL A   1      40.048  22.673  26.793  1.00  0.00     0.009 A 
ATOM     88  C   UNL A   1      38.495  24.475  26.480  1.00  0.00     0.009 A 
ATOM     89  C   UNL A   1      39.161  21.817  26.130  1.00  0.00     0.001 A 
ATOM     90  C   UNL A   1      37.588  23.615  25.865  1.00  0.00     0.001 A 
ATOM     91  C   UNL A   1      37.931  22.286  25.676  1.00  0.00     0.000 A 
ENDBRANCH  73  86
ENDBRANCH  47  48
ENDBRANCH  40  42
ENDBRANCH  39  40
ENDBRANCH  38  39
ENDBRANCH   1  38
TORSDOF 15
ENDMDL
MODEL 3
REMARK VINA RESULT:      -9.7      5.143     11.179
REMARK SMILES Cc1ccccc1C(=O)Nc1ccc(N2CCC(n3c(C)nc4cccnc43)CC2)c(C(=O)OCCOC(=O)c2ccc(-c3c4nc(c(-c5ccccc5)c5ccc([nH]5)c(-c5ccccc5)c5nc(c(-c6ccccc6)c6ccc3[nH]6)C=C5)C=C4)cc2)c1
REMARK SMILES IDX 35 1 34 2 32 3 33 4 31 5 11 6 12 7 88 8 13 9 14 10 10 11
REMARK SMILES IDX 8 12 9 13 7 15 1 16 2 17 3 18 4 19 6 20 5 21 15 22 16 23
REMARK SMILES IDX 30 24 17 25 29 26 18 27 19 28 20 29 28 30 21 31 22 32 23 33
REMARK SMILES IDX 27 34 24 35 26 36 25 37 36 38 37 39 38 40 39 41 40 42 41 43
REMARK SMILES IDX 87 44 42 45 86 46 43 47 44 48 45 49 80 50 46 51 85 52 79 53
REMARK SMILES IDX 81 54 47 55 84 56 78 57 77 58 48 60 70 61 55 62 69 63 56 64
REMARK SMILES IDX 59 65 68 66 82 67 57 68 58 69 67 71 83 72 60 73 49 74 50 75
REMARK SMILES IDX 54 76 51 77 53 78 52 79 71 80 72 81 76 82 73 83 75 84 74 85
REMARK SMILES IDX 61 86 62 87 66 88 63 89 65 90 64 91
REMARK H PARENT 10 14 81 59 59 70
REMARK Flexibility Score: inf
ROOT
ATOM      1  C   UNL A   1      47.143  37.053  29.483  1.00  0.00     0.275 C 
ENDROOT
BRANCH   1   2
ATOM      2  O   UNL A   1      48.008  38.195  29.345  1.00  0.00    -0.458 OA
BRANCH   2   3
ATOM      3  C   UNL A   1      48.773  38.120  28.240  1.00  0.00     0.340 C 
ATOM      4  O   UNL A   1      49.874  37.590  28.161  1.00  0.00    -0.246 OA
BRANCH   3   5
ATOM      5  C   UNL A   1      48.339  38.872  27.078  1.00  0.00     0.085 A 
ATOM      6  C   UNL A   1      47.011  40.796  26.461  1.00  0.00     0.042 A 
ATOM      7  C   UNL A   1      46.681  40.170  25.264  1.00  0.00     0.028 A 
ATOM      8  C   UNL A   1      47.951  40.201  27.308  1.00  0.00     0.044 A 
ATOM      9  C   UNL A   1      47.098  38.853  25.027  1.00  0.00     0.029 A 
ATOM     10  C   UNL A   1      47.819  38.139  25.995  1.00  0.00     0.051 A 
BRANCH   6  11
ATOM     11  N   UNL A   1      46.356  41.936  26.953  1.00  0.00    -0.322 N 
ATOM     12  C   UNL A   1      45.045  42.180  27.312  1.00  0.00     0.255 C 
ATOM     13  O   UNL A   1      44.740  43.335  27.620  1.00  0.00    -0.269 OA
ATOM     14  H   UNL A   1      46.947  42.715  27.065  1.00  0.00     0.170 HD
BRANCH  12  15
ATOM     15  C   UNL A   1      43.981  41.137  27.412  1.00  0.00     0.043 A 
ATOM     16  C   UNL A   1      42.918  41.518  25.095  1.00  0.00     0.045 C 
ATOM     17  C   UNL A   1      42.995  40.863  26.443  1.00  0.00    -0.038 A 
ATOM     18  C   UNL A   1      42.037  39.860  26.708  1.00  0.00     0.004 A 
ATOM     19  C   UNL A   1      42.129  39.055  27.842  1.00  0.00     0.000 A 
ATOM     20  C   UNL A   1      44.087  40.279  28.525  1.00  0.00     0.014 A 
ATOM     21  C   UNL A   1      43.178  39.239  28.731  1.00  0.00     0.001 A 
ENDBRANCH  12  15
ENDBRANCH   6  11
BRANCH  10  22
ATOM     22  N   UNL A   1      47.721  36.749  25.964  1.00  0.00    -0.371 N 
ATOM     23  C   UNL A   1      46.431  36.085  25.996  1.00  0.00     0.118 C 
ATOM     24  C   UNL A   1      48.737  36.039  25.183  1.00  0.00     0.118 C 
ATOM     25  C   UNL A   1      46.625  34.713  26.653  1.00  0.00     0.047 C 
ATOM     26  C   UNL A   1      49.047  34.752  25.893  1.00  0.00     0.047 C 
ATOM     27  C   UNL A   1      47.801  33.876  26.063  1.00  0.00     0.094 C 
BRANCH  27  28
ATOM     28  N   UNL A   1      48.045  32.648  26.838  1.00  0.00    -0.310 N 
ATOM     29  C   UNL A   1      49.079  32.304  27.703  1.00  0.00     0.108 A 
ATOM     30  C   UNL A   1      47.200  31.556  26.796  1.00  0.00     0.160 A 
ATOM     31  C   UNL A   1      50.331  33.054  27.955  1.00  0.00     0.088 C 
ATOM     32  N   UNL A   1      48.854  31.140  28.285  1.00  0.00    -0.232 NA
ATOM     33  C   UNL A   1      47.707  30.667  27.732  1.00  0.00     0.108 A 
ATOM     34  N   UNL A   1      46.096  31.392  26.037  1.00  0.00    -0.237 NA
ATOM     35  C   UNL A   1      47.016  29.476  27.965  1.00  0.00     0.034 A 
ATOM     36  C   UNL A   1      45.458  30.224  26.299  1.00  0.00     0.113 A 
ATOM     37  C   UNL A   1      45.855  29.263  27.225  1.00  0.00     0.022 A 
ENDBRANCH  27  28
ENDBRANCH  10  22
ENDBRANCH   3   5
ENDBRANCH   2   3
ENDBRANCH   1   2
BRANCH   1  38
ATOM     38  C   UNL A   1      47.803  35.845  30.149  1.00  0.00     0.275 C 
BRANCH  38  39
ATOM     39  O   UNL A   1      47.308  34.520  29.816  1.00  0.00    -0.458 OA
BRANCH  39  40
ATOM     40  C   UNL A   1      47.196  33.378  30.543  1.00  0.00     0.338 C 
ATOM     41  O   UNL A   1      48.082  33.034  31.303  1.00  0.00    -0.246 OA
BRANCH  40  42
ATOM     42  C   UNL A   1      45.956  32.577  30.461  1.00  0.00     0.060 A 
ATOM     43  C   UNL A   1      45.011  32.908  29.468  1.00  0.00     0.016 A 
ATOM     44  C   UNL A   1      45.762  31.463  31.270  1.00  0.00     0.016 A 
ATOM     45  C   UNL A   1      43.938  32.051  29.209  1.00  0.00     0.010 A 
ATOM     46  C   UNL A   1      44.777  30.555  30.940  1.00  0.00     0.010 A 
ATOM     47  C   UNL A   1      43.846  30.857  29.931  1.00  0.00    -0.014 A 
BRANCH  47  48
ATOM     48  C   UNL A   1      42.614  30.074  30.044  1.00  0.00     0.031 A 
ATOM     49  C   UNL A   1      42.239  29.045  29.045  1.00  0.00     0.074 A 
ATOM     50  C   UNL A   1      41.913  30.449  31.136  1.00  0.00     0.049 A 
ATOM     51  N   UNL A   1      41.928  27.806  29.274  1.00  0.00    -0.248 NA
ATOM     52  C   UNL A   1      42.213  29.409  27.621  1.00  0.00     0.031 C 
ATOM     53  C   UNL A   1      40.695  29.948  31.721  1.00  0.00     0.029 A 
ATOM     54  N   UNL A   1      42.109  31.652  31.806  1.00  0.00    -0.354 N 
ATOM     55  C   UNL A   1      41.492  27.245  28.065  1.00  0.00     0.074 A 
ATOM     56  C   UNL A   1      41.808  28.269  27.058  1.00  0.00     0.031 C 
ATOM     57  C   UNL A   1      40.099  30.966  32.383  1.00  0.00     0.029 A 
ATOM     58  C   UNL A   1      40.891  32.183  32.166  1.00  0.00     0.049 A 
ATOM     59  H   UNL A   1      42.984  32.062  31.994  1.00  0.00     0.167 HD
ATOM     60  C   UNL A   1      40.225  26.731  27.985  1.00  0.00     0.031 A 
ATOM     61  C   UNL A   1      40.463  33.308  31.512  1.00  0.00     0.031 A 
ATOM     62  C   UNL A   1      39.267  27.489  28.748  1.00  0.00     0.049 A 
ATOM     63  C   UNL A   1      39.304  32.956  30.617  1.00  0.00     0.074 A 
ATOM     64  C   UNL A   1      38.818  27.399  30.049  1.00  0.00     0.029 A 
ATOM     65  N   UNL A   1      38.807  28.686  28.231  1.00  0.00    -0.354 N 
ATOM     66  N   UNL A   1      39.231  31.862  29.905  1.00  0.00    -0.248 NA
ATOM     67  C   UNL A   1      38.108  33.785  30.533  1.00  0.00     0.031 C 
ATOM     68  C   UNL A   1      38.104  28.585  30.333  1.00  0.00     0.029 A 
ATOM     69  C   UNL A   1      38.130  29.384  29.202  1.00  0.00     0.049 A 
ATOM     70  H   UNL A   1      38.943  28.993  27.306  1.00  0.00     0.167 HD
ATOM     71  C   UNL A   1      37.947  31.755  29.432  1.00  0.00     0.074 A 
ATOM     72  C   UNL A   1      37.307  33.010  29.782  1.00  0.00     0.031 C 
ATOM     73  C   UNL A   1      37.437  30.615  28.888  1.00  0.00     0.031 A 
BRANCH  60  74
ATOM     74  C   UNL A   1      40.115  25.265  27.684  1.00  0.00    -0.014 A 
ATOM     75  C   UNL A   1      41.108  24.352  28.077  1.00  0.00     0.009 A 
ATOM     76  C   UNL A   1      39.015  24.740  26.990  1.00  0.00     0.009 A 
ATOM     77  C   UNL A   1      41.044  22.998  27.722  1.00  0.00     0.001 A 
ATOM     78  C   UNL A   1      38.953  23.392  26.611  1.00  0.00     0.001 A 
ATOM     79  C   UNL A   1      39.977  22.522  26.969  1.00  0.00     0.000 A 
ENDBRANCH  60  74
BRANCH  61  80
ATOM     80  C   UNL A   1      41.492  34.350  31.164  1.00  0.00    -0.014 A 
ATOM     81  C   UNL A   1      42.422  34.755  32.149  1.00  0.00     0.009 A 
ATOM     82  C   UNL A   1      41.671  34.853  29.867  1.00  0.00     0.009 A 
ATOM     83  C   UNL A   1      43.535  35.544  31.833  1.00  0.00     0.001 A 
ATOM     84  C   UNL A   1      42.777  35.667  29.554  1.00  0.00     0.001 A 
ATOM     85  C   UNL A   1      43.720  35.990  30.530  1.00  0.00     0.000 A 
ENDBRANCH  61  80
BRANCH  73  86
ATOM     86  C   UNL A   1      36.129  30.500  28.158  1.00  0.00    -0.014 A 
ATOM     87  C   UNL A   1      35.648  29.301  27.623  1.00  0.00     0.009 A 
ATOM     88  C   UNL A   1      35.255  31.612  28.134  1.00  0.00     0.009 A 
ATOM     89  C   UNL A   1      34.379  29.234  27.036  1.00  0.00     0.001 A 
ATOM     90  C   UNL A   1      33.973  31.536  27.595  1.00  0.00     0.001 A 
ATOM     91  C   UNL A   1      33.541  30.346  27.031  1.00  0.00     0.000 A 
ENDBRANCH  73  86
ENDBRANCH  47  48
ENDBRANCH  40  42
ENDBRANCH  39  40
ENDBRANCH  38  39
ENDBRANCH   1  38
TORSDOF 15
ENDMDL
