MODEL 1
REMARK VINA RESULT:     -11.1      0.000      0.000
REMARK SMILES CC(C)[C@@H](NC(=O)/C(=C\c1ccccc1F)NC(=O)c1ccccc1)C(=O)OCCOC(=O)c1ccc(-c2c3nc(c(-c4ccccc4)c4ccc([nH]4)c(-c4ccccc4)c4nc(c(-c5ccccc5)c5ccc2[nH]5)C=C4)C=C3)cc1
REMARK SMILES IDX 29 1 28 2 26 3 27 4 4 5 2 6 1 7 3 8 5 9 6 10 7 12 8 13 9 14
REMARK SMILES IDX 17 15 18 16 19 18 20 19 21 20 25 21 22 22 24 23 23 24 10 25
REMARK SMILES IDX 11 26 15 27 12 28 14 29 16 30 13 31 30 32 31 33 32 34 33 35
REMARK SMILES IDX 34 36 35 37 81 38 36 39 80 40 37 41 38 42 39 43 74 44 40 45
REMARK SMILES IDX 79 46 73 47 75 48 41 49 78 50 72 51 71 52 42 54 64 55 49 56
REMARK SMILES IDX 63 57 50 58 53 59 62 60 76 61 51 62 52 63 61 65 77 66 54 67
REMARK SMILES IDX 43 68 44 69 48 70 45 71 47 72 46 73 65 74 66 75 70 76 67 77
REMARK SMILES IDX 69 78 68 79 55 80 56 81 60 82 57 83 59 84 58 85
REMARK H PARENT 5 11 17 17 75 53 53 64
REMARK Flexibility Score: inf
ROOT
ATOM      1  C   UNL A   1      32.336  27.524  24.439  1.00  0.00     0.274 C 
ENDROOT
BRANCH   1   2
ATOM      2  O   UNL A   1      33.477  26.794  23.946  1.00  0.00    -0.461 OA
BRANCH   2   3
ATOM      3  C   UNL A   1      33.946  25.796  24.756  1.00  0.00     0.329 C 
ATOM      4  O   UNL A   1      34.267  25.961  25.918  1.00  0.00    -0.250 OA
BRANCH   3   5
ATOM      5  C   UNL A   1      33.865  24.420  24.049  1.00  0.00     0.195 C 
BRANCH   5   6
ATOM      6  C   UNL A   1      32.691  24.174  23.067  1.00  0.00     0.017 C 
ATOM      7  C   UNL A   1      32.938  22.891  22.240  1.00  0.00     0.010 C 
ATOM      8  C   UNL A   1      31.344  23.966  23.778  1.00  0.00     0.010 C 
ENDBRANCH   5   6
BRANCH   5   9
ATOM      9  N   UNL A   1      35.152  24.011  23.464  1.00  0.00    -0.337 N 
ATOM     10  C   UNL A   1      36.054  23.108  23.959  1.00  0.00     0.268 C 
ATOM     11  H   UNL A   1      35.393  24.440  22.612  1.00  0.00     0.164 HD
ATOM     12  O   UNL A   1      36.759  22.461  23.190  1.00  0.00    -0.268 OA
BRANCH  10  13
ATOM     13  C   UNL A   1      36.219  22.994  25.440  1.00  0.00     0.107 C 
ATOM     14  C   UNL A   1      35.590  22.007  26.108  1.00  0.00     0.043 C 
BRANCH  13  15
ATOM     15  N   UNL A   1      36.939  23.944  26.151  1.00  0.00    -0.317 N 
ATOM     16  C   UNL A   1      38.266  24.030  26.531  1.00  0.00     0.255 C 
ATOM     17  H   UNL A   1      36.396  24.711  26.444  1.00  0.00     0.170 HD
ATOM     18  O   UNL A   1      38.713  25.089  26.971  1.00  0.00    -0.269 OA
BRANCH  16  19
ATOM     19  C   UNL A   1      39.122  22.837  26.580  1.00  0.00     0.040 A 
ATOM     20  C   UNL A   1      40.151  22.819  27.526  1.00  0.00     0.014 A 
ATOM     21  C   UNL A   1      38.916  21.754  25.724  1.00  0.00     0.014 A 
ATOM     22  C   UNL A   1      40.910  21.663  27.690  1.00  0.00     0.001 A 
ATOM     23  C   UNL A   1      39.657  20.586  25.917  1.00  0.00     0.001 A 
ATOM     24  C   UNL A   1      40.640  20.538  26.910  1.00  0.00     0.000 A 
ENDBRANCH  16  19
ENDBRANCH  13  15
BRANCH  14  25
ATOM     25  C   UNL A   1      34.626  21.041  25.555  1.00  0.00     0.012 A 
ATOM     26  C   UNL A   1      33.256  21.341  25.650  1.00  0.00     0.011 A 
ATOM     27  C   UNL A   1      34.987  19.852  24.927  1.00  0.00     0.130 A 
ATOM     28  C   UNL A   1      32.277  20.509  25.112  1.00  0.00     0.001 A 
ATOM     29  C   UNL A   1      34.014  19.005  24.391  1.00  0.00     0.040 A 
ATOM     30  F   UNL A   1      36.276  19.495  24.843  1.00  0.00    -0.206 F 
ATOM     31  C   UNL A   1      32.658  19.337  24.476  1.00  0.00     0.003 A 
ENDBRANCH  14  25
ENDBRANCH  10  13
ENDBRANCH   5   9
ENDBRANCH   3   5
ENDBRANCH   2   3
ENDBRANCH   1   2
BRANCH   1  32
ATOM     32  C   UNL A   1      32.779  28.910  24.913  1.00  0.00     0.275 C 
BRANCH  32  33
ATOM     33  O   UNL A   1      32.604  29.100  26.337  1.00  0.00    -0.458 OA
BRANCH  33  34
ATOM     34  C   UNL A   1      32.903  30.378  26.720  1.00  0.00     0.338 C 
ATOM     35  O   UNL A   1      32.151  31.333  26.596  1.00  0.00    -0.246 OA
BRANCH  34  36
ATOM     36  C   UNL A   1      34.199  30.496  27.452  1.00  0.00     0.060 A 
ATOM     37  C   UNL A   1      34.852  31.703  27.676  1.00  0.00     0.016 A 
ATOM     38  C   UNL A   1      34.814  29.325  27.900  1.00  0.00     0.016 A 
ATOM     39  C   UNL A   1      36.167  31.721  28.187  1.00  0.00     0.010 A 
ATOM     40  C   UNL A   1      36.068  29.363  28.532  1.00  0.00     0.010 A 
ATOM     41  C   UNL A   1      36.791  30.560  28.666  1.00  0.00    -0.014 A 
BRANCH  41  42
ATOM     42  C   UNL A   1      38.129  30.545  29.359  1.00  0.00     0.031 A 
ATOM     43  C   UNL A   1      39.283  29.736  28.797  1.00  0.00     0.074 A 
ATOM     44  C   UNL A   1      38.318  31.145  30.556  1.00  0.00     0.049 A 
ATOM     45  N   UNL A   1      40.317  29.214  29.414  1.00  0.00    -0.248 NA
ATOM     46  C   UNL A   1      39.260  29.472  27.349  1.00  0.00     0.031 C 
ATOM     47  C   UNL A   1      37.389  32.052  31.230  1.00  0.00     0.029 A 
ATOM     48  N   UNL A   1      39.363  31.031  31.451  1.00  0.00    -0.354 N 
ATOM     49  C   UNL A   1      41.022  28.498  28.450  1.00  0.00     0.074 A 
ATOM     50  C   UNL A   1      40.309  28.670  27.201  1.00  0.00     0.031 C 
ATOM     51  C   UNL A   1      37.892  32.403  32.421  1.00  0.00     0.029 A 
ATOM     52  C   UNL A   1      39.110  31.644  32.658  1.00  0.00     0.049 A 
ATOM     53  H   UNL A   1      40.203  30.559  31.248  1.00  0.00     0.167 HD
ATOM     54  C   UNL A   1      42.146  27.749  28.598  1.00  0.00     0.031 A 
ATOM     55  C   UNL A   1      39.707  31.545  33.861  1.00  0.00     0.031 A 
ATOM     56  C   UNL A   1      42.881  27.612  29.832  1.00  0.00     0.049 A 
ATOM     57  C   UNL A   1      40.876  30.626  34.046  1.00  0.00     0.074 A 
ATOM     58  C   UNL A   1      44.034  26.881  30.074  1.00  0.00     0.029 A 
ATOM     59  N   UNL A   1      42.547  28.230  31.025  1.00  0.00    -0.354 N 
ATOM     60  N   UNL A   1      41.475  29.868  33.161  1.00  0.00    -0.248 NA
ATOM     61  C   UNL A   1      41.439  30.534  35.400  1.00  0.00     0.031 C 
ATOM     62  C   UNL A   1      44.365  27.013  31.427  1.00  0.00     0.029 A 
ATOM     63  C   UNL A   1      43.455  27.878  32.011  1.00  0.00     0.049 A 
ATOM     64  H   UNL A   1      41.778  28.832  31.154  1.00  0.00     0.167 HD
ATOM     65  C   UNL A   1      42.501  29.231  33.845  1.00  0.00     0.074 A 
ATOM     66  C   UNL A   1      42.449  29.694  35.216  1.00  0.00     0.031 C 
ATOM     67  C   UNL A   1      43.408  28.342  33.372  1.00  0.00     0.031 A 
BRANCH  54  68
ATOM     68  C   UNL A   1      42.634  26.955  27.413  1.00  0.00    -0.014 A 
ATOM     69  C   UNL A   1      42.030  25.749  27.023  1.00  0.00     0.009 A 
ATOM     70  C   UNL A   1      43.672  27.475  26.620  1.00  0.00     0.009 A 
ATOM     71  C   UNL A   1      42.476  25.070  25.885  1.00  0.00     0.001 A 
ATOM     72  C   UNL A   1      44.097  26.810  25.468  1.00  0.00     0.001 A 
ATOM     73  C   UNL A   1      43.505  25.603  25.105  1.00  0.00     0.000 A 
ENDBRANCH  54  68
BRANCH  55  74
ATOM     74  C   UNL A   1      39.130  32.276  35.023  1.00  0.00    -0.014 A 
ATOM     75  C   UNL A   1      38.296  31.619  35.939  1.00  0.00     0.009 A 
ATOM     76  C   UNL A   1      39.442  33.630  35.237  1.00  0.00     0.009 A 
ATOM     77  C   UNL A   1      37.784  32.306  37.043  1.00  0.00     0.001 A 
ATOM     78  C   UNL A   1      38.958  34.303  36.360  1.00  0.00     0.001 A 
ATOM     79  C   UNL A   1      38.123  33.641  37.259  1.00  0.00     0.000 A 
ENDBRANCH  55  74
BRANCH  67  80
ATOM     80  C   UNL A   1      44.459  27.857  34.327  1.00  0.00    -0.014 A 
ATOM     81  C   UNL A   1      45.659  28.560  34.515  1.00  0.00     0.009 A 
ATOM     82  C   UNL A   1      44.228  26.691  35.076  1.00  0.00     0.009 A 
ATOM     83  C   UNL A   1      46.618  28.089  35.416  1.00  0.00     0.001 A 
ATOM     84  C   UNL A   1      45.177  26.238  35.992  1.00  0.00     0.001 A 
ATOM     85  C   UNL A   1      46.374  26.933  36.156  1.00  0.00     0.000 A 
ENDBRANCH  67  80
ENDBRANCH  41  42
ENDBRANCH  34  36
ENDBRANCH  33  34
ENDBRANCH  32  33
ENDBRANCH   1  32
TORSDOF 17
ENDMDL
MODEL 2
REMARK VINA RESULT:     -10.6      3.624      7.365
REMARK SMILES CC(C)[C@@H](NC(=O)/C(=C\c1ccccc1F)NC(=O)c1ccccc1)C(=O)OCCOC(=O)c1ccc(-c2c3nc(c(-c4ccccc4)c4ccc([nH]4)c(-c4ccccc4)c4nc(c(-c5ccccc5)c5ccc2[nH]5)C=C4)C=C3)cc1
REMARK SMILES IDX 29 1 28 2 26 3 27 4 4 5 2 6 1 7 3 8 5 9 6 10 7 12 8 13 9 14
REMARK SMILES IDX 17 15 18 16 19 18 20 19 21 20 25 21 22 22 24 23 23 24 10 25
REMARK SMILES IDX 11 26 15 27 12 28 14 29 16 30 13 31 30 32 31 33 32 34 33 35
REMARK SMILES IDX 34 36 35 37 81 38 36 39 80 40 37 41 38 42 39 43 74 44 40 45
REMARK SMILES IDX 79 46 73 47 75 48 41 49 78 50 72 51 71 52 42 54 64 55 49 56
REMARK SMILES IDX 63 57 50 58 53 59 62 60 76 61 51 62 52 63 61 65 77 66 54 67
REMARK SMILES IDX 43 68 44 69 48 70 45 71 47 72 46 73 65 74 66 75 70 76 67 77
REMARK SMILES IDX 69 78 68 79 55 80 56 81 60 82 57 83 59 84 58 85
REMARK H PARENT 5 11 17 17 75 53 53 64
REMARK Flexibility Score: inf
ROOT
ATOM      1  C   UNL A   1      34.187  27.807  26.500  1.00  0.00     0.274 C 
ENDROOT
BRANCH   1   2
ATOM      2  O   UNL A   1      33.168  27.208  25.675  1.00  0.00    -0.461 OA
BRANCH   2   3
ATOM      3  C   UNL A   1      33.450  27.125  24.339  1.00  0.00     0.329 C 
ATOM      4  O   UNL A   1      34.059  27.976  23.721  1.00  0.00    -0.250 OA
BRANCH   3   5
ATOM      5  C   UNL A   1      33.033  25.747  23.767  1.00  0.00     0.195 C 
BRANCH   5   6
ATOM      6  C   UNL A   1      31.949  25.717  22.658  1.00  0.00     0.017 C 
ATOM      7  C   UNL A   1      32.600  25.489  21.274  1.00  0.00     0.010 C 
ATOM      8  C   UNL A   1      30.933  24.579  22.840  1.00  0.00     0.010 C 
ENDBRANCH   5   6
BRANCH   5   9
ATOM      9  N   UNL A   1      34.190  24.909  23.414  1.00  0.00    -0.337 N 
ATOM     10  C   UNL A   1      34.398  23.590  23.713  1.00  0.00     0.268 C 
ATOM     11  H   UNL A   1      34.901  25.353  22.898  1.00  0.00     0.164 HD
ATOM     12  O   UNL A   1      35.059  22.886  22.955  1.00  0.00    -0.268 OA
BRANCH  10  13
ATOM     13  C   UNL A   1      33.885  23.057  25.011  1.00  0.00     0.107 C 
ATOM     14  C   UNL A   1      34.756  22.681  25.969  1.00  0.00     0.043 C 
BRANCH  13  15
ATOM     15  N   UNL A   1      32.527  22.859  25.213  1.00  0.00    -0.317 N 
ATOM     16  C   UNL A   1      31.747  21.722  25.325  1.00  0.00     0.255 C 
ATOM     17  H   UNL A   1      32.015  23.696  25.290  1.00  0.00     0.170 HD
ATOM     18  O   UNL A   1      30.587  21.809  25.725  1.00  0.00    -0.269 OA
BRANCH  16  19
ATOM     19  C   UNL A   1      32.217  20.425  24.820  1.00  0.00     0.040 A 
ATOM     20  C   UNL A   1      32.109  20.189  23.447  1.00  0.00     0.014 A 
ATOM     21  C   UNL A   1      32.760  19.462  25.673  1.00  0.00     0.014 A 
ATOM     22  C   UNL A   1      32.650  19.025  22.907  1.00  0.00     0.001 A 
ATOM     23  C   UNL A   1      33.332  18.313  25.121  1.00  0.00     0.001 A 
ATOM     24  C   UNL A   1      33.290  18.106  23.739  1.00  0.00     0.000 A 
ENDBRANCH  16  19
ENDBRANCH  13  15
BRANCH  14  25
ATOM     25  C   UNL A   1      36.224  22.623  25.856  1.00  0.00     0.012 A 
ATOM     26  C   UNL A   1      36.957  23.789  26.134  1.00  0.00     0.011 A 
ATOM     27  C   UNL A   1      36.934  21.480  25.503  1.00  0.00     0.130 A 
ATOM     28  C   UNL A   1      38.349  23.814  26.099  1.00  0.00     0.001 A 
ATOM     29  C   UNL A   1      38.330  21.494  25.456  1.00  0.00     0.040 A 
ATOM     30  F   UNL A   1      36.285  20.350  25.188  1.00  0.00    -0.206 F 
ATOM     31  C   UNL A   1      39.039  22.659  25.762  1.00  0.00     0.003 A 
ENDBRANCH  14  25
ENDBRANCH  10  13
ENDBRANCH   5   9
ENDBRANCH   3   5
ENDBRANCH   2   3
ENDBRANCH   1   2
BRANCH   1  32
ATOM     32  C   UNL A   1      33.625  29.053  27.188  1.00  0.00     0.275 C 
BRANCH  32  33
ATOM     33  O   UNL A   1      34.377  29.431  28.366  1.00  0.00    -0.458 OA
BRANCH  33  34
ATOM     34  C   UNL A   1      35.281  30.420  28.094  1.00  0.00     0.338 C 
ATOM     35  O   UNL A   1      34.988  31.585  27.868  1.00  0.00    -0.246 OA
BRANCH  34  36
ATOM     36  C   UNL A   1      36.703  29.989  28.240  1.00  0.00     0.060 A 
ATOM     37  C   UNL A   1      37.634  30.035  27.209  1.00  0.00     0.016 A 
ATOM     38  C   UNL A   1      37.112  29.468  29.470  1.00  0.00     0.016 A 
ATOM     39  C   UNL A   1      38.896  29.421  27.355  1.00  0.00     0.010 A 
ATOM     40  C   UNL A   1      38.417  28.980  29.650  1.00  0.00     0.010 A 
ATOM     41  C   UNL A   1      39.334  28.917  28.588  1.00  0.00    -0.014 A 
BRANCH  41  42
ATOM     42  C   UNL A   1      40.723  28.390  28.838  1.00  0.00     0.031 A 
ATOM     43  C   UNL A   1      41.864  29.335  29.169  1.00  0.00     0.074 A 
ATOM     44  C   UNL A   1      41.033  27.085  28.660  1.00  0.00     0.049 A 
ATOM     45  N   UNL A   1      43.153  29.192  28.974  1.00  0.00    -0.248 NA
ATOM     46  C   UNL A   1      41.496  30.616  29.793  1.00  0.00     0.031 C 
ATOM     47  C   UNL A   1      40.088  25.990  28.440  1.00  0.00     0.029 A 
ATOM     48  N   UNL A   1      42.266  26.467  28.587  1.00  0.00    -0.354 N 
ATOM     49  C   UNL A   1      43.741  30.388  29.376  1.00  0.00     0.074 A 
ATOM     50  C   UNL A   1      42.668  31.240  29.846  1.00  0.00     0.031 C 
ATOM     51  C   UNL A   1      40.764  24.849  28.252  1.00  0.00     0.029 A 
ATOM     52  C   UNL A   1      42.187  25.148  28.200  1.00  0.00     0.049 A 
ATOM     53  H   UNL A   1      43.115  26.922  28.792  1.00  0.00     0.167 HD
ATOM     54  C   UNL A   1      45.049  30.751  29.335  1.00  0.00     0.031 A 
ATOM     55  C   UNL A   1      43.116  24.285  27.746  1.00  0.00     0.031 A 
ATOM     56  C   UNL A   1      46.124  29.887  28.907  1.00  0.00     0.049 A 
ATOM     57  C   UNL A   1      44.540  24.728  27.593  1.00  0.00     0.074 A 
ATOM     58  C   UNL A   1      47.480  30.165  28.839  1.00  0.00     0.029 A 
ATOM     59  N   UNL A   1      45.968  28.576  28.490  1.00  0.00    -0.354 N 
ATOM     60  N   UNL A   1      45.074  25.890  27.871  1.00  0.00    -0.248 NA
ATOM     61  C   UNL A   1      45.484  23.744  27.043  1.00  0.00     0.031 C 
ATOM     62  C   UNL A   1      48.137  29.040  28.328  1.00  0.00     0.029 A 
ATOM     63  C   UNL A   1      47.197  28.041  28.139  1.00  0.00     0.049 A 
ATOM     64  H   UNL A   1      45.110  28.095  28.449  1.00  0.00     0.167 HD
ATOM     65  C   UNL A   1      46.421  25.769  27.556  1.00  0.00     0.074 A 
ATOM     66  C   UNL A   1      46.624  24.420  27.073  1.00  0.00     0.031 C 
ATOM     67  C   UNL A   1      47.401  26.699  27.665  1.00  0.00     0.031 A 
BRANCH  54  68
ATOM     68  C   UNL A   1      45.409  32.168  29.703  1.00  0.00    -0.014 A 
ATOM     69  C   UNL A   1      45.379  33.212  28.767  1.00  0.00     0.009 A 
ATOM     70  C   UNL A   1      45.702  32.473  31.044  1.00  0.00     0.009 A 
ATOM     71  C   UNL A   1      45.665  34.524  29.160  1.00  0.00     0.001 A 
ATOM     72  C   UNL A   1      45.960  33.787  31.440  1.00  0.00     0.001 A 
ATOM     73  C   UNL A   1      45.950  34.811  30.496  1.00  0.00     0.000 A 
ENDBRANCH  54  68
BRANCH  55  74
ATOM     74  C   UNL A   1      42.696  22.926  27.305  1.00  0.00    -0.014 A 
ATOM     75  C   UNL A   1      42.986  22.472  26.011  1.00  0.00     0.009 A 
ATOM     76  C   UNL A   1      42.028  22.065  28.194  1.00  0.00     0.009 A 
ATOM     77  C   UNL A   1      42.615  21.185  25.617  1.00  0.00     0.001 A 
ATOM     78  C   UNL A   1      41.690  20.767  27.808  1.00  0.00     0.001 A 
ATOM     79  C   UNL A   1      41.978  20.331  26.517  1.00  0.00     0.000 A 
ENDBRANCH  55  74
BRANCH  67  80
ATOM     80  C   UNL A   1      48.796  26.272  27.313  1.00  0.00    -0.014 A 
ATOM     81  C   UNL A   1      49.635  25.657  28.255  1.00  0.00     0.009 A 
ATOM     82  C   UNL A   1      49.267  26.460  26.003  1.00  0.00     0.009 A 
ATOM     83  C   UNL A   1      50.927  25.264  27.898  1.00  0.00     0.001 A 
ATOM     84  C   UNL A   1      50.549  26.043  25.643  1.00  0.00     0.001 A 
ATOM     85  C   UNL A   1      51.380  25.452  26.593  1.00  0.00     0.000 A 
ENDBRANCH  67  80
ENDBRANCH  41  42
ENDBRANCH  34  36
ENDBRANCH  33  34
ENDBRANCH  32  33
ENDBRANCH   1  32
TORSDOF 17
ENDMDL
MODEL 3
REMARK VINA RESULT:     -10.5      1.343      3.199
REMARK SMILES CC(C)[C@@H](NC(=O)/C(=C\c1ccccc1F)NC(=O)c1ccccc1)C(=O)OCCOC(=O)c1ccc(-c2c3nc(c(-c4ccccc4)c4ccc([nH]4)c(-c4ccccc4)c4nc(c(-c5ccccc5)c5ccc2[nH]5)C=C4)C=C3)cc1
REMARK SMILES IDX 29 1 28 2 26 3 27 4 4 5 2 6 1 7 3 8 5 9 6 10 7 12 8 13 9 14
REMARK SMILES IDX 17 15 18 16 19 18 20 19 21 20 25 21 22 22 24 23 23 24 10 25
REMARK SMILES IDX 11 26 15 27 12 28 14 29 16 30 13 31 30 32 31 33 32 34 33 35
REMARK SMILES IDX 34 36 35 37 81 38 36 39 80 40 37 41 38 42 39 43 74 44 40 45
REMARK SMILES IDX 79 46 73 47 75 48 41 49 78 50 72 51 71 52 42 54 64 55 49 56
REMARK SMILES IDX 63 57 50 58 53 59 62 60 76 61 51 62 52 63 61 65 77 66 54 67
REMARK SMILES IDX 43 68 44 69 48 70 45 71 47 72 46 73 65 74 66 75 70 76 67 77
REMARK SMILES IDX 69 78 68 79 55 80 56 81 60 82 57 83 59 84 58 85
REMARK H PARENT 5 11 17 17 75 53 53 64
REMARK Flexibility Score: inf
ROOT
ATOM      1  C   UNL A   1      33.812  28.575  25.402  1.00  0.00     0.274 C 
ENDROOT
BRANCH   1   2
ATOM      2  O   UNL A   1      33.237  27.324  24.974  1.00  0.00    -0.461 OA
BRANCH   2   3
ATOM      3  C   UNL A   1      33.545  26.927  23.701  1.00  0.00     0.329 C 
ATOM      4  O   UNL A   1      34.166  27.610  22.910  1.00  0.00    -0.250 OA
BRANCH   3   5
ATOM      5  C   UNL A   1      33.136  25.452  23.464  1.00  0.00     0.195 C 
BRANCH   5   6
ATOM      6  C   UNL A   1      32.002  25.164  22.446  1.00  0.00     0.017 C 
ATOM      7  C   UNL A   1      30.868  24.354  23.116  1.00  0.00     0.010 C 
ATOM      8  C   UNL A   1      31.344  26.442  21.901  1.00  0.00     0.010 C 
ENDBRANCH   5   6
BRANCH   5   9
ATOM      9  N   UNL A   1      34.296  24.575  23.241  1.00  0.00    -0.337 N 
ATOM     10  C   UNL A   1      34.505  23.312  23.726  1.00  0.00     0.268 C 
ATOM     11  H   UNL A   1      35.010  24.942  22.671  1.00  0.00     0.164 HD
ATOM     12  O   UNL A   1      35.171  22.509  23.079  1.00  0.00    -0.268 OA
BRANCH  10  13
ATOM     13  C   UNL A   1      33.985  22.969  25.084  1.00  0.00     0.107 C 
ATOM     14  C   UNL A   1      34.849  22.774  26.100  1.00  0.00     0.043 C 
BRANCH  13  15
ATOM     15  N   UNL A   1      32.630  22.758  25.295  1.00  0.00    -0.317 N 
ATOM     16  C   UNL A   1      31.845  21.619  25.313  1.00  0.00     0.255 C 
ATOM     17  H   UNL A   1      32.125  23.585  25.465  1.00  0.00     0.170 HD
ATOM     18  O   UNL A   1      30.694  21.671  25.745  1.00  0.00    -0.269 OA
BRANCH  16  19
ATOM     19  C   UNL A   1      32.295  20.375  24.674  1.00  0.00     0.040 A 
ATOM     20  C   UNL A   1      32.881  19.404  25.491  1.00  0.00     0.014 A 
ATOM     21  C   UNL A   1      32.138  20.160  23.303  1.00  0.00     0.014 A 
ATOM     22  C   UNL A   1      33.212  18.164  24.952  1.00  0.00     0.001 A 
ATOM     23  C   UNL A   1      32.440  18.902  22.776  1.00  0.00     0.001 A 
ATOM     24  C   UNL A   1      32.960  17.903  23.604  1.00  0.00     0.000 A 
ENDBRANCH  16  19
ENDBRANCH  13  15
BRANCH  14  25
ATOM     25  C   UNL A   1      36.320  22.750  26.016  1.00  0.00     0.012 A 
ATOM     26  C   UNL A   1      37.020  23.933  26.305  1.00  0.00     0.011 A 
ATOM     27  C   UNL A   1      37.063  21.621  25.684  1.00  0.00     0.130 A 
ATOM     28  C   UNL A   1      38.412  23.990  26.298  1.00  0.00     0.001 A 
ATOM     29  C   UNL A   1      38.459  21.667  25.665  1.00  0.00     0.040 A 
ATOM     30  F   UNL A   1      36.447  20.476  25.360  1.00  0.00    -0.206 F 
ATOM     31  C   UNL A   1      39.134  22.850  25.979  1.00  0.00     0.003 A 
ENDBRANCH  14  25
ENDBRANCH  10  13
ENDBRANCH   5   9
ENDBRANCH   3   5
ENDBRANCH   2   3
ENDBRANCH   1   2
BRANCH   1  32
ATOM     32  C   UNL A   1      32.697  29.579  25.698  1.00  0.00     0.275 C 
BRANCH  32  33
ATOM     33  O   UNL A   1      32.629  29.948  27.096  1.00  0.00    -0.458 OA
BRANCH  33  34
ATOM     34  C   UNL A   1      33.190  31.174  27.325  1.00  0.00     0.338 C 
ATOM     35  O   UNL A   1      32.631  32.241  27.118  1.00  0.00    -0.246 OA
BRANCH  34  36
ATOM     36  C   UNL A   1      34.519  31.109  28.001  1.00  0.00     0.060 A 
ATOM     37  C   UNL A   1      35.417  32.169  28.045  1.00  0.00     0.016 A 
ATOM     38  C   UNL A   1      34.904  29.899  28.586  1.00  0.00     0.016 A 
ATOM     39  C   UNL A   1      36.733  31.974  28.514  1.00  0.00     0.010 A 
ATOM     40  C   UNL A   1      36.171  29.753  29.175  1.00  0.00     0.010 A 
ATOM     41  C   UNL A   1      37.129  30.777  29.129  1.00  0.00    -0.014 A 
BRANCH  41  42
ATOM     42  C   UNL A   1      38.471  30.569  29.782  1.00  0.00     0.031 A 
ATOM     43  C   UNL A   1      39.513  29.669  29.144  1.00  0.00     0.074 A 
ATOM     44  C   UNL A   1      38.753  31.070  31.007  1.00  0.00     0.049 A 
ATOM     45  N   UNL A   1      40.492  28.997  29.701  1.00  0.00    -0.248 NA
ATOM     46  C   UNL A   1      39.429  29.497  27.684  1.00  0.00     0.031 C 
ATOM     47  C   UNL A   1      37.948  32.035  31.757  1.00  0.00     0.029 A 
ATOM     48  N   UNL A   1      39.796  30.784  31.865  1.00  0.00    -0.354 N 
ATOM     49  C   UNL A   1      41.090  28.264  28.679  1.00  0.00     0.074 A 
ATOM     50  C   UNL A   1      40.375  28.591  27.462  1.00  0.00     0.031 C 
ATOM     51  C   UNL A   1      38.513  32.254  32.952  1.00  0.00     0.029 A 
ATOM     52  C   UNL A   1      39.640  31.348  33.111  1.00  0.00     0.049 A 
ATOM     53  H   UNL A   1      40.572  30.233  31.612  1.00  0.00     0.167 HD
ATOM     54  C   UNL A   1      42.123  27.385  28.752  1.00  0.00     0.031 A 
ATOM     55  C   UNL A   1      40.246  31.109  34.290  1.00  0.00     0.031 A 
ATOM     56  C   UNL A   1      42.863  27.091  29.956  1.00  0.00     0.049 A 
ATOM     57  C   UNL A   1      41.305  30.053  34.389  1.00  0.00     0.074 A 
ATOM     58  C   UNL A   1      43.928  26.220  30.124  1.00  0.00     0.029 A 
ATOM     59  N   UNL A   1      42.627  27.670  31.191  1.00  0.00    -0.354 N 
ATOM     60  N   UNL A   1      41.794  29.287  33.447  1.00  0.00    -0.248 NA
ATOM     61  C   UNL A   1      41.882  29.817  35.720  1.00  0.00     0.031 C 
ATOM     62  C   UNL A   1      44.300  26.232  31.472  1.00  0.00     0.029 A 
ATOM     63  C   UNL A   1      43.508  27.158  32.130  1.00  0.00     0.049 A 
ATOM     64  H   UNL A   1      41.935  28.346  31.376  1.00  0.00     0.167 HD
ATOM     65  C   UNL A   1      42.754  28.497  34.064  1.00  0.00     0.074 A 
ATOM     66  C   UNL A   1      42.784  28.880  35.460  1.00  0.00     0.031 C 
ATOM     67  C   UNL A   1      43.543  27.542  33.516  1.00  0.00     0.031 A 
BRANCH  54  68
ATOM     68  C   UNL A   1      42.491  26.613  27.510  1.00  0.00    -0.014 A 
ATOM     69  C   UNL A   1      41.837  25.426  27.149  1.00  0.00     0.009 A 
ATOM     70  C   UNL A   1      43.463  27.138  26.641  1.00  0.00     0.009 A 
ATOM     71  C   UNL A   1      42.170  24.768  25.960  1.00  0.00     0.001 A 
ATOM     72  C   UNL A   1      43.773  26.496  25.440  1.00  0.00     0.001 A 
ATOM     73  C   UNL A   1      43.133  25.306  25.104  1.00  0.00     0.000 A 
ENDBRANCH  54  68
BRANCH  55  74
ATOM     74  C   UNL A   1      39.781  31.829  35.508  1.00  0.00    -0.014 A 
ATOM     75  C   UNL A   1      40.432  32.991  35.944  1.00  0.00     0.009 A 
ATOM     76  C   UNL A   1      38.659  31.370  36.220  1.00  0.00     0.009 A 
ATOM     77  C   UNL A   1      39.970  33.677  37.070  1.00  0.00     0.001 A 
ATOM     78  C   UNL A   1      38.178  32.078  37.322  1.00  0.00     0.001 A 
ATOM     79  C   UNL A   1      38.838  33.228  37.751  1.00  0.00     0.000 A 
ENDBRANCH  55  74
BRANCH  67  80
ATOM     80  C   UNL A   1      44.551  26.883  34.412  1.00  0.00    -0.014 A 
ATOM     81  C   UNL A   1      45.820  27.444  34.625  1.00  0.00     0.009 A 
ATOM     82  C   UNL A   1      44.209  25.697  35.082  1.00  0.00     0.009 A 
ATOM     83  C   UNL A   1      46.736  26.813  35.470  1.00  0.00     0.001 A 
ATOM     84  C   UNL A   1      45.118  25.083  35.945  1.00  0.00     0.001 A 
ATOM     85  C   UNL A   1      46.383  25.637  36.132  1.00  0.00     0.000 A 
ENDBRANCH  67  80
ENDBRANCH  41  42
ENDBRANCH  34  36
ENDBRANCH  33  34
ENDBRANCH  32  33
ENDBRANCH   1  32
TORSDOF 17
ENDMDL
