MODEL 1
REMARK VINA RESULT:      -9.6      0.000      0.000
REMARK SMILES CC[C@@H](Nc1ccc([N+](=O)[O-])c(N)n1)C(=O)OCCOC(=O)c1ccc(-c2c3nc(c(-c4ccccc4)c4ccc([nH]4)c(-c4ccccc4)c4nc(c(-c5ccccc5)c5ccc2[nH]5)C=C4)C=C3)cc1
REMARK SMILES IDX 18 1 17 2 15 3 16 4 3 5 2 6 1 7 4 8 5 10 6 11 14 12 7 13
REMARK SMILES IDX 12 14 8 15 13 16 9 19 10 20 11 21 19 22 20 23 21 24 22 25
REMARK SMILES IDX 23 26 24 27 70 28 25 29 69 30 26 31 27 32 28 33 63 34 29 35
REMARK SMILES IDX 68 36 62 37 64 38 30 39 67 40 61 41 60 42 31 44 53 45 38 46
REMARK SMILES IDX 52 47 39 48 42 49 51 50 65 51 40 52 41 53 50 55 66 56 43 57
REMARK SMILES IDX 32 58 33 59 37 60 34 61 36 62 35 63 54 64 55 65 59 66 56 67
REMARK SMILES IDX 58 68 57 69 44 70 45 71 49 72 46 73 48 74 47 75
REMARK H PARENT 4 9 13 17 13 18 64 43 42 54
REMARK Flexibility Score: inf
ROOT
ATOM      1  C   UNL A   1      42.411  19.219  26.798  1.00  0.00     0.274 C 
ENDROOT
BRANCH   1   2
ATOM      2  O   UNL A   1      41.769  20.429  26.347  1.00  0.00    -0.461 OA
BRANCH   2   3
ATOM      3  C   UNL A   1      40.426  20.331  26.147  1.00  0.00     0.328 C 
ATOM      4  O   UNL A   1      39.880  19.313  25.726  1.00  0.00    -0.250 OA
BRANCH   3   5
ATOM      5  C   UNL A   1      39.639  21.603  26.542  1.00  0.00     0.191 C 
BRANCH   5   6
ATOM      6  C   UNL A   1      40.489  22.678  27.236  1.00  0.00     0.033 C 
ATOM      7  C   UNL A   1      39.656  23.878  27.674  1.00  0.00     0.007 C 
ENDBRANCH   5   6
BRANCH   5   8
ATOM      8  N   UNL A   1      38.911  22.177  25.410  1.00  0.00    -0.357 N 
ATOM      9  H   UNL A   1      39.448  22.537  24.668  1.00  0.00     0.162 HD
BRANCH   8  10
ATOM     10  C   UNL A   1      37.549  22.257  25.289  1.00  0.00     0.129 A 
ATOM     11  C   UNL A   1      36.829  23.445  25.328  1.00  0.00     0.054 A 
ATOM     12  N   UNL A   1      36.926  21.069  25.144  1.00  0.00    -0.208 NA
ATOM     13  C   UNL A   1      35.439  23.409  25.324  1.00  0.00     0.093 A 
ATOM     14  C   UNL A   1      35.574  21.020  25.095  1.00  0.00     0.204 A 
ATOM     15  C   UNL A   1      34.807  22.172  25.224  1.00  0.00     0.311 A 
BRANCH  14  16
ATOM     16  N   UNL A   1      35.060  19.742  25.002  1.00  0.00    -0.378 N 
ATOM     17  H   UNL A   1      35.640  18.964  25.165  1.00  0.00     0.158 HD
ATOM     18  H   UNL A   1      34.112  19.608  24.771  1.00  0.00     0.158 HD
ENDBRANCH  14  16
BRANCH  15  19
ATOM     19  N   UNL A   1      33.358  22.117  25.256  1.00  0.00     0.066 N 
ATOM     20  O   UNL A   1      32.820  21.231  25.939  1.00  0.00    -0.258 OA
ATOM     21  O   UNL A   1      32.743  22.941  24.564  1.00  0.00    -0.258 OA
ENDBRANCH  15  19
ENDBRANCH   8  10
ENDBRANCH   5   8
ENDBRANCH   3   5
ENDBRANCH   2   3
ENDBRANCH   1   2
BRANCH   1  22
ATOM     22  C   UNL A   1      43.259  18.553  25.705  1.00  0.00     0.275 C 
BRANCH  22  23
ATOM     23  O   UNL A   1      43.505  19.409  24.570  1.00  0.00    -0.458 OA
BRANCH  23  24
ATOM     24  C   UNL A   1      44.807  19.700  24.346  1.00  0.00     0.338 C 
ATOM     25  O   UNL A   1      45.640  18.977  23.824  1.00  0.00    -0.246 OA
BRANCH  24  26
ATOM     26  C   UNL A   1      45.098  21.109  24.669  1.00  0.00     0.060 A 
ATOM     27  C   UNL A   1      45.493  21.393  25.980  1.00  0.00     0.016 A 
ATOM     28  C   UNL A   1      44.891  22.147  23.759  1.00  0.00     0.016 A 
ATOM     29  C   UNL A   1      45.693  22.703  26.393  1.00  0.00     0.010 A 
ATOM     30  C   UNL A   1      45.073  23.472  24.180  1.00  0.00     0.010 A 
ATOM     31  C   UNL A   1      45.465  23.754  25.500  1.00  0.00    -0.014 A 
BRANCH  31  32
ATOM     32  C   UNL A   1      45.572  25.143  25.998  1.00  0.00     0.031 A 
ATOM     33  C   UNL A   1      46.889  25.859  25.933  1.00  0.00     0.074 A 
ATOM     34  C   UNL A   1      44.475  25.786  26.436  1.00  0.00     0.049 A 
ATOM     35  N   UNL A   1      47.197  27.062  26.344  1.00  0.00    -0.248 NA
ATOM     36  C   UNL A   1      48.006  25.128  25.314  1.00  0.00     0.031 C 
ATOM     37  C   UNL A   1      43.124  25.225  26.469  1.00  0.00     0.029 A 
ATOM     38  N   UNL A   1      44.324  27.057  26.929  1.00  0.00    -0.354 N 
ATOM     39  C   UNL A   1      48.543  27.229  26.047  1.00  0.00     0.074 A 
ATOM     40  C   UNL A   1      48.997  26.000  25.429  1.00  0.00     0.031 C 
ATOM     41  C   UNL A   1      42.280  26.149  26.959  1.00  0.00     0.029 A 
ATOM     42  C   UNL A   1      43.039  27.346  27.313  1.00  0.00     0.049 A 
ATOM     43  H   UNL A   1      45.067  27.699  27.000  1.00  0.00     0.167 HD
ATOM     44  C   UNL A   1      49.330  28.308  26.271  1.00  0.00     0.031 A 
ATOM     45  C   UNL A   1      42.537  28.442  27.911  1.00  0.00     0.031 A 
ATOM     46  C   UNL A   1      48.884  29.524  26.895  1.00  0.00     0.049 A 
ATOM     47  C   UNL A   1      43.451  29.590  28.235  1.00  0.00     0.074 A 
ATOM     48  C   UNL A   1      49.612  30.665  27.184  1.00  0.00     0.029 A 
ATOM     49  N   UNL A   1      47.588  29.756  27.329  1.00  0.00    -0.354 N 
ATOM     50  N   UNL A   1      44.730  29.725  27.975  1.00  0.00    -0.248 NA
ATOM     51  C   UNL A   1      42.855  30.733  28.941  1.00  0.00     0.031 C 
ATOM     52  C   UNL A   1      48.765  31.572  27.833  1.00  0.00     0.029 A 
ATOM     53  C   UNL A   1      47.500  31.012  27.904  1.00  0.00     0.049 A 
ATOM     54  H   UNL A   1      46.841  29.120  27.242  1.00  0.00     0.167 HD
ATOM     55  C   UNL A   1      45.086  30.972  28.470  1.00  0.00     0.074 A 
ATOM     56  C   UNL A   1      43.887  31.560  29.031  1.00  0.00     0.031 C 
ATOM     57  C   UNL A   1      46.299  31.577  28.462  1.00  0.00     0.031 A 
BRANCH  44  58
ATOM     58  C   UNL A   1      50.774  28.195  25.878  1.00  0.00    -0.014 A 
ATOM     59  C   UNL A   1      51.212  28.557  24.594  1.00  0.00     0.009 A 
ATOM     60  C   UNL A   1      51.714  27.739  26.815  1.00  0.00     0.009 A 
ATOM     61  C   UNL A   1      52.560  28.435  24.249  1.00  0.00     0.001 A 
ATOM     62  C   UNL A   1      53.064  27.638  26.473  1.00  0.00     0.001 A 
ATOM     63  C   UNL A   1      53.485  27.979  25.189  1.00  0.00     0.000 A 
ENDBRANCH  44  58
BRANCH  45  64
ATOM     64  C   UNL A   1      41.100  28.488  28.287  1.00  0.00    -0.014 A 
ATOM     65  C   UNL A   1      40.659  27.951  29.505  1.00  0.00     0.009 A 
ATOM     66  C   UNL A   1      40.162  29.067  27.418  1.00  0.00     0.009 A 
ATOM     67  C   UNL A   1      39.302  27.977  29.836  1.00  0.00     0.001 A 
ATOM     68  C   UNL A   1      38.812  29.117  27.764  1.00  0.00     0.001 A 
ATOM     69  C   UNL A   1      38.381  28.564  28.969  1.00  0.00     0.000 A 
ENDBRANCH  45  64
BRANCH  57  70
ATOM     70  C   UNL A   1      46.381  32.953  29.057  1.00  0.00    -0.014 A 
ATOM     71  C   UNL A   1      46.702  33.139  30.411  1.00  0.00     0.009 A 
ATOM     72  C   UNL A   1      46.168  34.077  28.244  1.00  0.00     0.009 A 
ATOM     73  C   UNL A   1      46.780  34.426  30.944  1.00  0.00     0.001 A 
ATOM     74  C   UNL A   1      46.269  35.363  28.775  1.00  0.00     0.001 A 
ATOM     75  C   UNL A   1      46.568  35.537  30.126  1.00  0.00     0.000 A 
ENDBRANCH  57  70
ENDBRANCH  31  32
ENDBRANCH  24  26
ENDBRANCH  23  24
ENDBRANCH  22  23
ENDBRANCH   1  22
TORSDOF 16
ENDMDL
MODEL 2
REMARK VINA RESULT:      -9.5      8.022     12.511
REMARK SMILES CC[C@@H](Nc1ccc([N+](=O)[O-])c(N)n1)C(=O)OCCOC(=O)c1ccc(-c2c3nc(c(-c4ccccc4)c4ccc([nH]4)c(-c4ccccc4)c4nc(c(-c5ccccc5)c5ccc2[nH]5)C=C4)C=C3)cc1
REMARK SMILES IDX 18 1 17 2 15 3 16 4 3 5 2 6 1 7 4 8 5 10 6 11 14 12 7 13
REMARK SMILES IDX 12 14 8 15 13 16 9 19 10 20 11 21 19 22 20 23 21 24 22 25
REMARK SMILES IDX 23 26 24 27 70 28 25 29 69 30 26 31 27 32 28 33 63 34 29 35
REMARK SMILES IDX 68 36 62 37 64 38 30 39 67 40 61 41 60 42 31 44 53 45 38 46
REMARK SMILES IDX 52 47 39 48 42 49 51 50 65 51 40 52 41 53 50 55 66 56 43 57
REMARK SMILES IDX 32 58 33 59 37 60 34 61 36 62 35 63 54 64 55 65 59 66 56 67
REMARK SMILES IDX 58 68 57 69 44 70 45 71 49 72 46 73 48 74 47 75
REMARK H PARENT 4 9 13 17 13 18 64 43 42 54
REMARK Flexibility Score: inf
ROOT
ATOM      1  C   UNL A   1      33.344  34.526  28.422  1.00  0.00     0.274 C 
ENDROOT
BRANCH   1   2
ATOM      2  O   UNL A   1      34.639  33.898  28.503  1.00  0.00    -0.461 OA
BRANCH   2   3
ATOM      3  C   UNL A   1      34.638  32.629  28.994  1.00  0.00     0.328 C 
ATOM      4  O   UNL A   1      34.502  32.369  30.188  1.00  0.00    -0.250 OA
BRANCH   3   5
ATOM      5  C   UNL A   1      34.775  31.535  27.908  1.00  0.00     0.191 C 
BRANCH   5   6
ATOM      6  C   UNL A   1      36.196  30.969  27.764  1.00  0.00     0.033 C 
ATOM      7  C   UNL A   1      36.311  29.553  28.321  1.00  0.00     0.007 C 
ENDBRANCH   5   6
BRANCH   5   8
ATOM      8  N   UNL A   1      33.808  30.454  28.086  1.00  0.00    -0.357 N 
ATOM      9  H   UNL A   1      33.702  30.093  28.997  1.00  0.00     0.162 HD
BRANCH   8  10
ATOM     10  C   UNL A   1      33.035  29.897  27.102  1.00  0.00     0.129 A 
ATOM     11  C   UNL A   1      33.127  28.572  26.690  1.00  0.00     0.054 A 
ATOM     12  N   UNL A   1      32.162  30.747  26.524  1.00  0.00    -0.208 NA
ATOM     13  C   UNL A   1      32.387  28.139  25.595  1.00  0.00     0.093 A 
ATOM     14  C   UNL A   1      31.402  30.329  25.485  1.00  0.00     0.204 A 
ATOM     15  C   UNL A   1      31.527  29.041  24.976  1.00  0.00     0.311 A 
BRANCH  14  16
ATOM     16  N   UNL A   1      30.593  31.309  24.947  1.00  0.00    -0.378 N 
ATOM     17  H   UNL A   1      29.859  31.690  25.481  1.00  0.00     0.158 HD
ATOM     18  H   UNL A   1      30.750  31.628  24.029  1.00  0.00     0.158 HD
ENDBRANCH  14  16
BRANCH  15  19
ATOM     19  N   UNL A   1      30.777  28.612  23.811  1.00  0.00     0.066 N 
ATOM     20  O   UNL A   1      29.998  27.653  23.936  1.00  0.00    -0.258 OA
ATOM     21  O   UNL A   1      30.991  29.208  22.745  1.00  0.00    -0.258 OA
ENDBRANCH  15  19
ENDBRANCH   8  10
ENDBRANCH   5   8
ENDBRANCH   3   5
ENDBRANCH   2   3
ENDBRANCH   1   2
BRANCH   1  22
ATOM     22  C   UNL A   1      33.112  35.558  29.535  1.00  0.00     0.275 C 
BRANCH  22  23
ATOM     23  O   UNL A   1      32.564  34.986  30.740  1.00  0.00    -0.458 OA
BRANCH  23  24
ATOM     24  C   UNL A   1      32.949  35.593  31.886  1.00  0.00     0.338 C 
ATOM     25  O   UNL A   1      32.366  36.491  32.472  1.00  0.00    -0.246 OA
BRANCH  24  26
ATOM     26  C   UNL A   1      34.122  34.919  32.474  1.00  0.00     0.060 A 
ATOM     27  C   UNL A   1      35.379  35.452  32.171  1.00  0.00     0.016 A 
ATOM     28  C   UNL A   1      34.020  33.738  33.211  1.00  0.00     0.016 A 
ATOM     29  C   UNL A   1      36.538  34.822  32.603  1.00  0.00     0.010 A 
ATOM     30  C   UNL A   1      35.190  33.091  33.631  1.00  0.00     0.010 A 
ATOM     31  C   UNL A   1      36.453  33.626  33.321  1.00  0.00    -0.014 A 
BRANCH  31  32
ATOM     32  C   UNL A   1      37.704  32.916  33.667  1.00  0.00     0.031 A 
ATOM     33  C   UNL A   1      38.280  31.912  32.711  1.00  0.00     0.074 A 
ATOM     34  C   UNL A   1      38.361  33.224  34.799  1.00  0.00     0.049 A 
ATOM     35  N   UNL A   1      39.345  31.165  32.841  1.00  0.00    -0.248 NA
ATOM     36  C   UNL A   1      37.569  31.736  31.435  1.00  0.00     0.031 C 
ATOM     37  C   UNL A   1      37.945  34.241  35.766  1.00  0.00     0.029 A 
ATOM     38  N   UNL A   1      39.524  32.718  35.321  1.00  0.00    -0.354 N 
ATOM     39  C   UNL A   1      39.427  30.418  31.673  1.00  0.00     0.074 A 
ATOM     40  C   UNL A   1      38.298  30.797  30.848  1.00  0.00     0.031 C 
ATOM     41  C   UNL A   1      38.841  34.282  36.767  1.00  0.00     0.029 A 
ATOM     42  C   UNL A   1      39.864  33.267  36.531  1.00  0.00     0.049 A 
ATOM     43  H   UNL A   1      40.060  32.027  34.870  1.00  0.00     0.167 HD
ATOM     44  C   UNL A   1      40.357  29.500  31.320  1.00  0.00     0.031 A 
ATOM     45  C   UNL A   1      40.872  32.963  37.370  1.00  0.00     0.031 A 
ATOM     46  C   UNL A   1      41.472  29.115  32.143  1.00  0.00     0.049 A 
ATOM     47  C   UNL A   1      41.838  31.873  36.998  1.00  0.00     0.074 A 
ATOM     48  C   UNL A   1      42.456  28.178  31.882  1.00  0.00     0.029 A 
ATOM     49  N   UNL A   1      41.748  29.648  33.392  1.00  0.00    -0.354 N 
ATOM     50  N   UNL A   1      41.889  31.154  35.902  1.00  0.00    -0.248 NA
ATOM     51  C   UNL A   1      42.881  31.549  37.981  1.00  0.00     0.031 C 
ATOM     52  C   UNL A   1      43.305  28.114  32.993  1.00  0.00     0.029 A 
ATOM     53  C   UNL A   1      42.874  29.044  33.925  1.00  0.00     0.049 A 
ATOM     54  H   UNL A   1      41.220  30.351  33.836  1.00  0.00     0.167 HD
ATOM     55  C   UNL A   1      42.976  30.305  36.058  1.00  0.00     0.074 A 
ATOM     56  C   UNL A   1      43.566  30.609  37.345  1.00  0.00     0.031 C 
ATOM     57  C   UNL A   1      43.444  29.356  35.210  1.00  0.00     0.031 A 
BRANCH  44  58
ATOM     58  C   UNL A   1      40.173  28.812  29.999  1.00  0.00    -0.014 A 
ATOM     59  C   UNL A   1      39.516  27.576  29.905  1.00  0.00     0.009 A 
ATOM     60  C   UNL A   1      40.649  29.423  28.828  1.00  0.00     0.009 A 
ATOM     61  C   UNL A   1      39.365  26.951  28.664  1.00  0.00     0.001 A 
ATOM     62  C   UNL A   1      40.478  28.806  27.587  1.00  0.00     0.001 A 
ATOM     63  C   UNL A   1      39.843  27.567  27.507  1.00  0.00     0.000 A 
ENDBRANCH  44  58
BRANCH  45  64
ATOM     64  C   UNL A   1      40.993  33.672  38.670  1.00  0.00    -0.014 A 
ATOM     65  C   UNL A   1      40.344  33.187  39.815  1.00  0.00     0.009 A 
ATOM     66  C   UNL A   1      41.756  34.846  38.765  1.00  0.00     0.009 A 
ATOM     67  C   UNL A   1      40.445  33.875  41.026  1.00  0.00     0.001 A 
ATOM     68  C   UNL A   1      41.877  35.516  39.983  1.00  0.00     0.001 A 
ATOM     69  C   UNL A   1      41.214  35.036  41.111  1.00  0.00     0.000 A 
ENDBRANCH  45  64
BRANCH  57  70
ATOM     70  C   UNL A   1      44.665  28.598  35.640  1.00  0.00    -0.014 A 
ATOM     71  C   UNL A   1      45.953  29.106  35.407  1.00  0.00     0.009 A 
ATOM     72  C   UNL A   1      44.525  27.377  36.316  1.00  0.00     0.009 A 
ATOM     73  C   UNL A   1      47.077  28.390  35.821  1.00  0.00     0.001 A 
ATOM     74  C   UNL A   1      45.650  26.675  36.749  1.00  0.00     0.001 A 
ATOM     75  C   UNL A   1      46.926  27.178  36.495  1.00  0.00     0.000 A 
ENDBRANCH  57  70
ENDBRANCH  31  32
ENDBRANCH  24  26
ENDBRANCH  23  24
ENDBRANCH  22  23
ENDBRANCH   1  22
TORSDOF 16
ENDMDL
MODEL 3
REMARK VINA RESULT:      -9.5      0.662      6.159
REMARK SMILES CC[C@@H](Nc1ccc([N+](=O)[O-])c(N)n1)C(=O)OCCOC(=O)c1ccc(-c2c3nc(c(-c4ccccc4)c4ccc([nH]4)c(-c4ccccc4)c4nc(c(-c5ccccc5)c5ccc2[nH]5)C=C4)C=C3)cc1
REMARK SMILES IDX 18 1 17 2 15 3 16 4 3 5 2 6 1 7 4 8 5 10 6 11 14 12 7 13
REMARK SMILES IDX 12 14 8 15 13 16 9 19 10 20 11 21 19 22 20 23 21 24 22 25
REMARK SMILES IDX 23 26 24 27 70 28 25 29 69 30 26 31 27 32 28 33 63 34 29 35
REMARK SMILES IDX 68 36 62 37 64 38 30 39 67 40 61 41 60 42 31 44 53 45 38 46
REMARK SMILES IDX 52 47 39 48 42 49 51 50 65 51 40 52 41 53 50 55 66 56 43 57
REMARK SMILES IDX 32 58 33 59 37 60 34 61 36 62 35 63 54 64 55 65 59 66 56 67
REMARK SMILES IDX 58 68 57 69 44 70 45 71 49 72 46 73 48 74 47 75
REMARK H PARENT 4 9 13 17 13 18 64 43 42 54
REMARK Flexibility Score: inf
ROOT
ATOM      1  C   UNL A   1      42.123  19.595  26.856  1.00  0.00     0.274 C 
ENDROOT
BRANCH   1   2
ATOM      2  O   UNL A   1      40.881  20.190  26.428  1.00  0.00    -0.461 OA
BRANCH   2   3
ATOM      3  C   UNL A   1      40.936  21.527  26.177  1.00  0.00     0.328 C 
ATOM      4  O   UNL A   1      41.827  22.052  25.513  1.00  0.00    -0.250 OA
BRANCH   3   5
ATOM      5  C   UNL A   1      39.747  22.324  26.764  1.00  0.00     0.191 C 
BRANCH   5   6
ATOM      6  C   UNL A   1      40.156  23.418  27.762  1.00  0.00     0.033 C 
ATOM      7  C   UNL A   1      39.232  24.630  27.700  1.00  0.00     0.007 C 
ENDBRANCH   5   6
BRANCH   5   8
ATOM      8  N   UNL A   1      38.884  22.878  25.721  1.00  0.00    -0.357 N 
ATOM      9  H   UNL A   1      39.250  23.617  25.183  1.00  0.00     0.162 HD
BRANCH   8  10
ATOM     10  C   UNL A   1      37.613  22.462  25.425  1.00  0.00     0.129 A 
ATOM     11  C   UNL A   1      36.521  23.311  25.299  1.00  0.00     0.054 A 
ATOM     12  N   UNL A   1      37.479  21.128  25.276  1.00  0.00    -0.208 NA
ATOM     13  C   UNL A   1      35.249  22.777  25.123  1.00  0.00     0.093 A 
ATOM     14  C   UNL A   1      36.254  20.594  25.061  1.00  0.00     0.204 A 
ATOM     15  C   UNL A   1      35.118  21.394  25.022  1.00  0.00     0.311 A 
BRANCH  14  16
ATOM     16  N   UNL A   1      36.245  19.216  24.984  1.00  0.00    -0.378 N 
ATOM     17  H   UNL A   1      36.107  18.678  25.796  1.00  0.00     0.158 HD
ATOM     18  H   UNL A   1      36.376  18.770  24.115  1.00  0.00     0.158 HD
ENDBRANCH  14  16
BRANCH  15  19
ATOM     19  N   UNL A   1      33.793  20.822  24.875  1.00  0.00     0.066 N 
ATOM     20  O   UNL A   1      33.142  21.108  23.857  1.00  0.00    -0.258 OA
ATOM     21  O   UNL A   1      33.376  20.109  25.799  1.00  0.00    -0.258 OA
ENDBRANCH  15  19
ENDBRANCH   8  10
ENDBRANCH   5   8
ENDBRANCH   3   5
ENDBRANCH   2   3
ENDBRANCH   1   2
BRANCH   1  22
ATOM     22  C   UNL A   1      42.841  18.841  25.726  1.00  0.00     0.275 C 
BRANCH  22  23
ATOM     23  O   UNL A   1      44.243  19.161  25.625  1.00  0.00    -0.458 OA
BRANCH  23  24
ATOM     24  C   UNL A   1      44.596  19.831  24.505  1.00  0.00     0.338 C 
ATOM     25  O   UNL A   1      44.500  19.437  23.354  1.00  0.00    -0.246 OA
BRANCH  24  26
ATOM     26  C   UNL A   1      44.985  21.219  24.818  1.00  0.00     0.060 A 
ATOM     27  C   UNL A   1      45.361  21.492  26.137  1.00  0.00     0.016 A 
ATOM     28  C   UNL A   1      44.886  22.256  23.888  1.00  0.00     0.016 A 
ATOM     29  C   UNL A   1      45.648  22.790  26.538  1.00  0.00     0.010 A 
ATOM     30  C   UNL A   1      45.155  23.569  24.297  1.00  0.00     0.010 A 
ATOM     31  C   UNL A   1      45.529  23.842  25.625  1.00  0.00    -0.014 A 
BRANCH  31  32
ATOM     32  C   UNL A   1      45.726  25.226  26.108  1.00  0.00     0.031 A 
ATOM     33  C   UNL A   1      44.568  25.984  26.689  1.00  0.00     0.074 A 
ATOM     34  C   UNL A   1      46.954  25.774  26.096  1.00  0.00     0.049 A 
ATOM     35  N   UNL A   1      44.526  27.212  27.137  1.00  0.00    -0.248 NA
ATOM     36  C   UNL A   1      43.290  25.260  26.788  1.00  0.00     0.031 C 
ATOM     37  C   UNL A   1      48.172  25.106  25.635  1.00  0.00     0.029 A 
ATOM     38  N   UNL A   1      47.379  27.015  26.493  1.00  0.00    -0.354 N 
ATOM     39  C   UNL A   1      43.219  27.416  27.559  1.00  0.00     0.074 A 
ATOM     40  C   UNL A   1      42.496  26.187  27.305  1.00  0.00     0.031 C 
ATOM     41  C   UNL A   1      49.209  25.948  25.774  1.00  0.00     0.029 A 
ATOM     42  C   UNL A   1      48.720  27.224  26.291  1.00  0.00     0.049 A 
ATOM     43  H   UNL A   1      46.780  27.691  26.885  1.00  0.00     0.167 HD
ATOM     44  C   UNL A   1      42.671  28.526  28.106  1.00  0.00     0.031 A 
ATOM     45  C   UNL A   1      49.465  28.330  26.475  1.00  0.00     0.031 A 
ATOM     46  C   UNL A   1      43.385  29.750  28.348  1.00  0.00     0.049 A 
ATOM     47  C   UNL A   1      48.812  29.580  26.995  1.00  0.00     0.074 A 
ATOM     48  C   UNL A   1      42.911  30.937  28.879  1.00  0.00     0.029 A 
ATOM     49  N   UNL A   1      44.729  29.945  28.070  1.00  0.00    -0.354 N 
ATOM     50  N   UNL A   1      47.568  29.769  27.365  1.00  0.00    -0.248 NA
ATOM     51  C   UNL A   1      49.665  30.770  27.118  1.00  0.00     0.031 C 
ATOM     52  C   UNL A   1      43.961  31.864  28.883  1.00  0.00     0.029 A 
ATOM     53  C   UNL A   1      45.097  31.238  28.398  1.00  0.00     0.049 A 
ATOM     54  H   UNL A   1      45.333  29.263  27.694  1.00  0.00     0.167 HD
ATOM     55  C   UNL A   1      47.493  31.092  27.777  1.00  0.00     0.074 A 
ATOM     56  C   UNL A   1      48.819  31.654  27.629  1.00  0.00     0.031 C 
ATOM     57  C   UNL A   1      46.420  31.781  28.238  1.00  0.00     0.031 A 
BRANCH  44  58
ATOM     58  C   UNL A   1      41.207  28.476  28.435  1.00  0.00    -0.014 A 
ATOM     59  C   UNL A   1      40.241  28.953  27.536  1.00  0.00     0.009 A 
ATOM     60  C   UNL A   1      40.790  27.923  29.656  1.00  0.00     0.009 A 
ATOM     61  C   UNL A   1      38.884  28.904  27.869  1.00  0.00     0.001 A 
ATOM     62  C   UNL A   1      39.432  27.856  29.976  1.00  0.00     0.001 A 
ATOM     63  C   UNL A   1      38.482  28.354  29.086  1.00  0.00     0.000 A 
ENDBRANCH  44  58
BRANCH  45  64
ATOM     64  C   UNL A   1      50.907  28.320  26.118  1.00  0.00    -0.014 A 
ATOM     65  C   UNL A   1      51.326  28.611  24.812  1.00  0.00     0.009 A 
ATOM     66  C   UNL A   1      51.872  28.009  27.090  1.00  0.00     0.009 A 
ATOM     67  C   UNL A   1      52.683  28.574  24.483  1.00  0.00     0.001 A 
ATOM     68  C   UNL A   1      53.228  28.000  26.764  1.00  0.00     0.001 A 
ATOM     69  C   UNL A   1      53.632  28.274  25.459  1.00  0.00     0.000 A 
ENDBRANCH  45  64
BRANCH  57  70
ATOM     70  C   UNL A   1      46.646  33.211  28.636  1.00  0.00    -0.014 A 
ATOM     71  C   UNL A   1      47.050  33.546  29.938  1.00  0.00     0.009 A 
ATOM     72  C   UNL A   1      46.486  34.231  27.686  1.00  0.00     0.009 A 
ATOM     73  C   UNL A   1      47.262  34.880  30.287  1.00  0.00     0.001 A 
ATOM     74  C   UNL A   1      46.721  35.562  28.032  1.00  0.00     0.001 A 
ATOM     75  C   UNL A   1      47.102  35.887  29.334  1.00  0.00     0.000 A 
ENDBRANCH  57  70
ENDBRANCH  31  32
ENDBRANCH  24  26
ENDBRANCH  23  24
ENDBRANCH  22  23
ENDBRANCH   1  22
TORSDOF 16
ENDMDL
