MODEL 1
REMARK VINA RESULT:     -10.3      0.000      0.000
REMARK SMILES CC(C)[NH2+][C@]1(C(=O)OCCOC(=O)c2ccc(-c3c4nc(c(-c5ccccc5)c5ccc([nH]5)c(-c5ccccc5)c5nc(c(-c6ccccc6)c6ccc3[nH]6)C=C5)C=C4)cc2)CC[C@@H](Oc2cc(F)ccc2F)C1
REMARK SMILES IDX 9 1 8 2 6 3 7 4 5 5 62 6 74 7 63 8 64 9 4 10 2 13 1 14 3 15
REMARK SMILES IDX 65 16 66 17 67 18 72 19 68 20 71 21 73 22 69 23 70 24 10 25
REMARK SMILES IDX 11 26 12 27 13 28 14 29 15 30 61 31 16 32 60 33 17 34 18 35
REMARK SMILES IDX 19 36 54 37 20 38 59 39 53 40 55 41 21 42 58 43 52 44 51 45
REMARK SMILES IDX 22 47 44 48 29 49 43 50 30 51 33 52 42 53 56 54 31 55 32 56
REMARK SMILES IDX 41 58 57 59 34 60 23 61 24 62 28 63 25 64 27 65 26 66 45 67
REMARK SMILES IDX 46 68 50 69 47 70 49 71 48 72 35 73 36 74 40 75 37 76 39 77
REMARK SMILES IDX 38 78
REMARK H PARENT 4 11 4 12 55 46 33 57
REMARK Flexibility Score: inf
ROOT
ATOM      1  C   UNL A   1      31.894  29.716  26.480  1.00  0.00     0.274 C 
ENDROOT
BRANCH   1   2
ATOM      2  O   UNL A   1      32.601  28.463  26.411  1.00  0.00    -0.457 OA
BRANCH   2   3
ATOM      3  C   UNL A   1      31.868  27.315  26.499  1.00  0.00     0.368 C 
ATOM      4  O   UNL A   1      30.954  27.146  27.299  1.00  0.00    -0.245 OA
BRANCH   3   5
ATOM      5  C   UNL A   1      32.359  26.239  25.479  1.00  0.00     0.198 C 
ATOM      6  C   UNL A   1      33.776  26.553  24.940  1.00  0.00     0.085 C 
ATOM      7  C   UNL A   1      32.591  24.939  26.261  1.00  0.00     0.126 C 
ATOM      8  C   UNL A   1      34.358  25.200  24.559  1.00  0.00     0.052 C 
ATOM      9  C   UNL A   1      33.743  24.212  25.564  1.00  0.00     0.180 C 
BRANCH   5  10
ATOM     10  N   UNL A   1      31.435  26.214  24.325  1.00  0.00    -0.330 N 
ATOM     11  H   UNL A   1      32.010  25.971  23.518  1.00  0.00     0.347 HD
ATOM     12  H   UNL A   1      30.716  25.577  24.671  1.00  0.00     0.347 HD
BRANCH  10  13
ATOM     13  C   UNL A   1      30.622  27.339  23.904  1.00  0.00     0.176 C 
ATOM     14  C   UNL A   1      31.010  27.687  22.464  1.00  0.00     0.075 C 
ATOM     15  C   UNL A   1      29.137  26.974  23.939  1.00  0.00     0.075 C 
ENDBRANCH  10  13
ENDBRANCH   5  10
BRANCH   9  16
ATOM     16  O   UNL A   1      34.605  23.567  26.516  1.00  0.00    -0.487 OA
BRANCH  16  17
ATOM     17  C   UNL A   1      35.646  22.837  26.017  1.00  0.00     0.158 A 
ATOM     18  C   UNL A   1      35.408  21.503  25.692  1.00  0.00     0.088 A 
ATOM     19  C   UNL A   1      36.945  23.344  25.937  1.00  0.00     0.165 A 
ATOM     20  C   UNL A   1      36.455  20.718  25.220  1.00  0.00     0.127 A 
ATOM     21  C   UNL A   1      37.991  22.552  25.466  1.00  0.00     0.046 A 
ATOM     22  F   UNL A   1      37.227  24.592  26.329  1.00  0.00    -0.203 F 
ATOM     23  F   UNL A   1      36.220  19.444  24.881  1.00  0.00    -0.207 F 
ATOM     24  C   UNL A   1      37.743  21.232  25.096  1.00  0.00     0.042 A 
ENDBRANCH  16  17
ENDBRANCH   9  16
ENDBRANCH   3   5
ENDBRANCH   2   3
ENDBRANCH   1   2
BRANCH   1  25
ATOM     25  C   UNL A   1      32.742  30.736  27.235  1.00  0.00     0.275 C 
BRANCH  25  26
ATOM     26  O   UNL A   1      33.954  30.094  27.666  1.00  0.00    -0.458 OA
BRANCH  26  27
ATOM     27  C   UNL A   1      34.748  30.806  28.496  1.00  0.00     0.338 C 
ATOM     28  O   UNL A   1      34.470  31.815  29.119  1.00  0.00    -0.246 OA
BRANCH  27  29
ATOM     29  C   UNL A   1      36.061  30.144  28.575  1.00  0.00     0.060 A 
ATOM     30  C   UNL A   1      36.461  29.560  29.776  1.00  0.00     0.016 A 
ATOM     31  C   UNL A   1      36.936  30.189  27.491  1.00  0.00     0.016 A 
ATOM     32  C   UNL A   1      37.760  29.088  29.926  1.00  0.00     0.010 A 
ATOM     33  C   UNL A   1      38.214  29.632  27.616  1.00  0.00     0.010 A 
ATOM     34  C   UNL A   1      38.652  29.106  28.846  1.00  0.00    -0.014 A 
BRANCH  34  35
ATOM     35  C   UNL A   1      40.050  28.626  29.017  1.00  0.00     0.031 A 
ATOM     36  C   UNL A   1      41.085  29.524  29.646  1.00  0.00     0.074 A 
ATOM     37  C   UNL A   1      40.400  27.378  28.644  1.00  0.00     0.049 A 
ATOM     38  N   UNL A   1      42.380  29.355  29.740  1.00  0.00    -0.248 NA
ATOM     39  C   UNL A   1      40.598  30.780  30.238  1.00  0.00     0.031 C 
ATOM     40  C   UNL A   1      39.498  26.372  28.080  1.00  0.00     0.029 A 
ATOM     41  N   UNL A   1      41.615  26.739  28.701  1.00  0.00    -0.354 N 
ATOM     42  C   UNL A   1      42.867  30.503  30.350  1.00  0.00     0.074 A 
ATOM     43  C   UNL A   1      41.731  31.362  30.606  1.00  0.00     0.031 C 
ATOM     44  C   UNL A   1      40.179  25.232  27.883  1.00  0.00     0.029 A 
ATOM     45  C   UNL A   1      41.579  25.449  28.231  1.00  0.00     0.049 A 
ATOM     46  H   UNL A   1      42.433  27.165  29.045  1.00  0.00     0.167 HD
ATOM     47  C   UNL A   1      44.146  30.818  30.667  1.00  0.00     0.031 A 
ATOM     48  C   UNL A   1      42.566  24.548  28.064  1.00  0.00     0.031 A 
ATOM     49  C   UNL A   1      45.276  29.955  30.452  1.00  0.00     0.049 A 
ATOM     50  C   UNL A   1      43.980  24.932  28.393  1.00  0.00     0.074 A 
ATOM     51  C   UNL A   1      46.612  30.198  30.720  1.00  0.00     0.029 A 
ATOM     52  N   UNL A   1      45.197  28.671  29.939  1.00  0.00    -0.354 N 
ATOM     53  N   UNL A   1      44.436  26.055  28.890  1.00  0.00    -0.248 NA
ATOM     54  C   UNL A   1      45.017  23.927  28.116  1.00  0.00     0.031 C 
ATOM     55  C   UNL A   1      47.346  29.065  30.348  1.00  0.00     0.029 A 
ATOM     56  C   UNL A   1      46.461  28.108  29.882  1.00  0.00     0.049 A 
ATOM     57  H   UNL A   1      44.366  28.225  29.656  1.00  0.00     0.167 HD
ATOM     58  C   UNL A   1      45.810  25.893  28.989  1.00  0.00     0.074 A 
ATOM     59  C   UNL A   1      46.112  24.554  28.525  1.00  0.00     0.031 C 
ATOM     60  C   UNL A   1      46.742  26.777  29.417  1.00  0.00     0.031 A 
BRANCH  47  61
ATOM     61  C   UNL A   1      44.393  32.180  31.249  1.00  0.00    -0.014 A 
ATOM     62  C   UNL A   1      44.658  33.287  30.430  1.00  0.00     0.009 A 
ATOM     63  C   UNL A   1      44.331  32.359  32.640  1.00  0.00     0.009 A 
ATOM     64  C   UNL A   1      44.886  34.544  30.996  1.00  0.00     0.001 A 
ATOM     65  C   UNL A   1      44.537  33.621  33.201  1.00  0.00     0.001 A 
ATOM     66  C   UNL A   1      44.822  34.710  32.380  1.00  0.00     0.000 A 
ENDBRANCH  47  61
BRANCH  48  67
ATOM     67  C   UNL A   1      42.260  23.204  27.511  1.00  0.00    -0.014 A 
ATOM     68  C   UNL A   1      42.479  22.925  26.155  1.00  0.00     0.009 A 
ATOM     69  C   UNL A   1      41.739  22.196  28.338  1.00  0.00     0.009 A 
ATOM     70  C   UNL A   1      42.168  21.668  25.633  1.00  0.00     0.001 A 
ATOM     71  C   UNL A   1      41.453  20.932  27.819  1.00  0.00     0.001 A 
ATOM     72  C   UNL A   1      41.660  20.672  26.466  1.00  0.00     0.000 A 
ENDBRANCH  48  67
BRANCH  60  73
ATOM     73  C   UNL A   1      48.168  26.313  29.422  1.00  0.00    -0.014 A 
ATOM     74  C   UNL A   1      48.728  25.714  30.561  1.00  0.00     0.009 A 
ATOM     75  C   UNL A   1      48.953  26.459  28.268  1.00  0.00     0.009 A 
ATOM     76  C   UNL A   1      50.060  25.296  30.553  1.00  0.00     0.001 A 
ATOM     77  C   UNL A   1      50.278  26.020  28.257  1.00  0.00     0.001 A 
ATOM     78  C   UNL A   1      50.832  25.447  29.401  1.00  0.00     0.000 A 
ENDBRANCH  60  73
ENDBRANCH  34  35
ENDBRANCH  27  29
ENDBRANCH  26  27
ENDBRANCH  25  26
ENDBRANCH   1  25
TORSDOF 15
ENDMDL
MODEL 2
REMARK VINA RESULT:      -9.9      2.634      7.943
REMARK SMILES CC(C)[NH2+][C@]1(C(=O)OCCOC(=O)c2ccc(-c3c4nc(c(-c5ccccc5)c5ccc([nH]5)c(-c5ccccc5)c5nc(c(-c6ccccc6)c6ccc3[nH]6)C=C5)C=C4)cc2)CC[C@@H](Oc2cc(F)ccc2F)C1
REMARK SMILES IDX 9 1 8 2 6 3 7 4 5 5 62 6 74 7 63 8 64 9 4 10 2 13 1 14 3 15
REMARK SMILES IDX 65 16 66 17 67 18 72 19 68 20 71 21 73 22 69 23 70 24 10 25
REMARK SMILES IDX 11 26 12 27 13 28 14 29 15 30 61 31 16 32 60 33 17 34 18 35
REMARK SMILES IDX 19 36 54 37 20 38 59 39 53 40 55 41 21 42 58 43 52 44 51 45
REMARK SMILES IDX 22 47 44 48 29 49 43 50 30 51 33 52 42 53 56 54 31 55 32 56
REMARK SMILES IDX 41 58 57 59 34 60 23 61 24 62 28 63 25 64 27 65 26 66 45 67
REMARK SMILES IDX 46 68 50 69 47 70 49 71 48 72 35 73 36 74 40 75 37 76 39 77
REMARK SMILES IDX 38 78
REMARK H PARENT 4 11 4 12 55 46 33 57
REMARK Flexibility Score: inf
ROOT
ATOM      1  C   UNL A   1      36.367  21.314  24.808  1.00  0.00     0.274 C 
ENDROOT
BRANCH   1   2
ATOM      2  O   UNL A   1      35.952  22.686  24.957  1.00  0.00    -0.457 OA
BRANCH   2   3
ATOM      3  C   UNL A   1      35.308  23.270  23.905  1.00  0.00     0.368 C 
ATOM      4  O   UNL A   1      35.718  23.243  22.750  1.00  0.00    -0.245 OA
BRANCH   3   5
ATOM      5  C   UNL A   1      34.007  24.004  24.363  1.00  0.00     0.198 C 
ATOM      6  C   UNL A   1      34.120  24.538  25.812  1.00  0.00     0.085 C 
ATOM      7  C   UNL A   1      33.899  25.298  23.547  1.00  0.00     0.126 C 
ATOM      8  C   UNL A   1      33.170  25.725  25.866  1.00  0.00     0.052 C 
ATOM      9  C   UNL A   1      33.212  26.326  24.451  1.00  0.00     0.180 C 
BRANCH   5  10
ATOM     10  N   UNL A   1      32.879  23.048  24.324  1.00  0.00    -0.330 N 
ATOM     11  H   UNL A   1      32.059  23.602  24.073  1.00  0.00     0.347 HD
ATOM     12  H   UNL A   1      33.251  22.341  23.690  1.00  0.00     0.347 HD
BRANCH  10  13
ATOM     13  C   UNL A   1      32.467  22.222  25.444  1.00  0.00     0.176 C 
ATOM     14  C   UNL A   1      31.039  22.624  25.824  1.00  0.00     0.075 C 
ATOM     15  C   UNL A   1      32.475  20.744  25.053  1.00  0.00     0.075 C 
ENDBRANCH  10  13
ENDBRANCH   5  10
BRANCH   9  16
ATOM     16  O   UNL A   1      33.775  27.636  24.272  1.00  0.00    -0.487 OA
BRANCH  16  17
ATOM     17  C   UNL A   1      33.472  28.576  25.215  1.00  0.00     0.158 A 
ATOM     18  C   UNL A   1      34.369  28.754  26.267  1.00  0.00     0.088 A 
ATOM     19  C   UNL A   1      32.258  29.267  25.222  1.00  0.00     0.165 A 
ATOM     20  C   UNL A   1      34.073  29.675  27.268  1.00  0.00     0.127 A 
ATOM     21  C   UNL A   1      31.965  30.186  26.228  1.00  0.00     0.046 A 
ATOM     22  F   UNL A   1      31.333  29.051  24.277  1.00  0.00    -0.203 F 
ATOM     23  F   UNL A   1      34.948  29.867  28.263  1.00  0.00    -0.207 F 
ATOM     24  C   UNL A   1      32.884  30.398  27.254  1.00  0.00     0.042 A 
ENDBRANCH  16  17
ENDBRANCH   9  16
ENDBRANCH   3   5
ENDBRANCH   2   3
ENDBRANCH   1   2
BRANCH   1  25
ATOM     25  C   UNL A   1      37.882  21.222  24.980  1.00  0.00     0.275 C 
BRANCH  25  26
ATOM     26  O   UNL A   1      38.253  21.954  26.161  1.00  0.00    -0.458 OA
BRANCH  26  27
ATOM     27  C   UNL A   1      39.577  22.049  26.416  1.00  0.00     0.338 C 
ATOM     28  O   UNL A   1      40.444  21.219  26.206  1.00  0.00    -0.246 OA
BRANCH  27  29
ATOM     29  C   UNL A   1      39.853  23.377  26.986  1.00  0.00     0.060 A 
ATOM     30  C   UNL A   1      39.173  24.489  26.491  1.00  0.00     0.016 A 
ATOM     31  C   UNL A   1      40.856  23.536  27.940  1.00  0.00     0.016 A 
ATOM     32  C   UNL A   1      39.543  25.770  26.887  1.00  0.00     0.010 A 
ATOM     33  C   UNL A   1      41.165  24.820  28.405  1.00  0.00     0.010 A 
ATOM     34  C   UNL A   1      40.535  25.954  27.858  1.00  0.00    -0.014 A 
BRANCH  34  35
ATOM     35  C   UNL A   1      40.948  27.326  28.261  1.00  0.00     0.031 A 
ATOM     36  C   UNL A   1      42.397  27.730  28.185  1.00  0.00     0.074 A 
ATOM     37  C   UNL A   1      40.032  28.229  28.665  1.00  0.00     0.049 A 
ATOM     38  N   UNL A   1      42.979  28.815  28.633  1.00  0.00    -0.248 NA
ATOM     39  C   UNL A   1      43.314  26.787  27.524  1.00  0.00     0.031 C 
ATOM     40  C   UNL A   1      38.586  28.007  28.732  1.00  0.00     0.029 A 
ATOM     41  N   UNL A   1      40.187  29.529  29.084  1.00  0.00    -0.354 N 
ATOM     42  C   UNL A   1      44.331  28.660  28.360  1.00  0.00     0.074 A 
ATOM     43  C   UNL A   1      44.487  27.378  27.705  1.00  0.00     0.031 C 
ATOM     44  C   UNL A   1      37.984  29.142  29.123  1.00  0.00     0.029 A 
ATOM     45  C   UNL A   1      39.003  30.145  29.411  1.00  0.00     0.049 A 
ATOM     46  H   UNL A   1      41.062  29.975  29.144  1.00  0.00     0.167 HD
ATOM     47  C   UNL A   1      45.355  29.504  28.631  1.00  0.00     0.031 A 
ATOM     48  C   UNL A   1      38.763  31.368  29.919  1.00  0.00     0.031 A 
ATOM     49  C   UNL A   1      45.205  30.796  29.245  1.00  0.00     0.049 A 
ATOM     50  C   UNL A   1      39.916  32.274  30.242  1.00  0.00     0.074 A 
ATOM     51  C   UNL A   1      46.187  31.713  29.581  1.00  0.00     0.029 A 
ATOM     52  N   UNL A   1      43.991  31.364  29.594  1.00  0.00    -0.354 N 
ATOM     53  N   UNL A   1      41.198  32.078  30.055  1.00  0.00    -0.248 NA
ATOM     54  C   UNL A   1      39.586  33.565  30.863  1.00  0.00     0.031 C 
ATOM     55  C   UNL A   1      45.566  32.829  30.153  1.00  0.00     0.029 A 
ATOM     56  C   UNL A   1      44.198  32.619  30.141  1.00  0.00     0.049 A 
ATOM     57  H   UNL A   1      43.111  30.937  29.472  1.00  0.00     0.167 HD
ATOM     58  C   UNL A   1      41.827  33.217  30.534  1.00  0.00     0.074 A 
ATOM     59  C   UNL A   1      40.787  34.113  30.995  1.00  0.00     0.031 C 
ATOM     60  C   UNL A   1      43.152  33.495  30.595  1.00  0.00     0.031 A 
BRANCH  47  61
ATOM     61  C   UNL A   1      46.740  29.034  28.296  1.00  0.00    -0.014 A 
ATOM     62  C   UNL A   1      47.507  28.304  29.216  1.00  0.00     0.009 A 
ATOM     63  C   UNL A   1      47.274  29.304  27.026  1.00  0.00     0.009 A 
ATOM     64  C   UNL A   1      48.794  27.878  28.880  1.00  0.00     0.001 A 
ATOM     65  C   UNL A   1      48.552  28.858  26.685  1.00  0.00     0.001 A 
ATOM     66  C   UNL A   1      49.314  28.152  27.615  1.00  0.00     0.000 A 
ENDBRANCH  47  61
BRANCH  48  67
ATOM     67  C   UNL A   1      37.368  31.793  30.205  1.00  0.00    -0.014 A 
ATOM     68  C   UNL A   1      36.626  32.493  29.242  1.00  0.00     0.009 A 
ATOM     69  C   UNL A   1      36.776  31.507  31.445  1.00  0.00     0.009 A 
ATOM     70  C   UNL A   1      35.325  32.912  29.522  1.00  0.00     0.001 A 
ATOM     71  C   UNL A   1      35.465  31.905  31.713  1.00  0.00     0.001 A 
ATOM     72  C   UNL A   1      34.744  32.614  30.754  1.00  0.00     0.000 A 
ENDBRANCH  48  67
BRANCH  60  73
ATOM     73  C   UNL A   1      43.541  34.828  31.160  1.00  0.00    -0.014 A 
ATOM     74  C   UNL A   1      43.753  34.994  32.537  1.00  0.00     0.009 A 
ATOM     75  C   UNL A   1      43.717  35.924  30.302  1.00  0.00     0.009 A 
ATOM     76  C   UNL A   1      44.107  36.244  33.048  1.00  0.00     0.001 A 
ATOM     77  C   UNL A   1      44.090  37.168  30.814  1.00  0.00     0.001 A 
ATOM     78  C   UNL A   1      44.277  37.328  32.187  1.00  0.00     0.000 A 
ENDBRANCH  60  73
ENDBRANCH  34  35
ENDBRANCH  27  29
ENDBRANCH  26  27
ENDBRANCH  25  26
ENDBRANCH   1  25
TORSDOF 15
ENDMDL
MODEL 3
REMARK VINA RESULT:      -9.9      2.773      8.192
REMARK SMILES CC(C)[NH2+][C@]1(C(=O)OCCOC(=O)c2ccc(-c3c4nc(c(-c5ccccc5)c5ccc([nH]5)c(-c5ccccc5)c5nc(c(-c6ccccc6)c6ccc3[nH]6)C=C5)C=C4)cc2)CC[C@@H](Oc2cc(F)ccc2F)C1
REMARK SMILES IDX 9 1 8 2 6 3 7 4 5 5 62 6 74 7 63 8 64 9 4 10 2 13 1 14 3 15
REMARK SMILES IDX 65 16 66 17 67 18 72 19 68 20 71 21 73 22 69 23 70 24 10 25
REMARK SMILES IDX 11 26 12 27 13 28 14 29 15 30 61 31 16 32 60 33 17 34 18 35
REMARK SMILES IDX 19 36 54 37 20 38 59 39 53 40 55 41 21 42 58 43 52 44 51 45
REMARK SMILES IDX 22 47 44 48 29 49 43 50 30 51 33 52 42 53 56 54 31 55 32 56
REMARK SMILES IDX 41 58 57 59 34 60 23 61 24 62 28 63 25 64 27 65 26 66 45 67
REMARK SMILES IDX 46 68 50 69 47 70 49 71 48 72 35 73 36 74 40 75 37 76 39 77
REMARK SMILES IDX 38 78
REMARK H PARENT 4 11 4 12 55 46 33 57
REMARK Flexibility Score: inf
ROOT
ATOM      1  C   UNL A   1      36.479  22.121  25.398  1.00  0.00     0.274 C 
ENDROOT
BRANCH   1   2
ATOM      2  O   UNL A   1      36.121  23.462  25.012  1.00  0.00    -0.457 OA
BRANCH   2   3
ATOM      3  C   UNL A   1      35.302  23.613  23.931  1.00  0.00     0.368 C 
ATOM      4  O   UNL A   1      35.600  23.270  22.792  1.00  0.00    -0.245 OA
BRANCH   3   5
ATOM      5  C   UNL A   1      33.957  24.306  24.321  1.00  0.00     0.198 C 
ATOM      6  C   UNL A   1      33.989  24.867  25.764  1.00  0.00     0.085 C 
ATOM      7  C   UNL A   1      33.838  25.582  23.479  1.00  0.00     0.126 C 
ATOM      8  C   UNL A   1      32.995  26.019  25.757  1.00  0.00     0.052 C 
ATOM      9  C   UNL A   1      33.077  26.598  24.335  1.00  0.00     0.180 C 
BRANCH   5  10
ATOM     10  N   UNL A   1      32.866  23.309  24.251  1.00  0.00    -0.330 N 
ATOM     11  H   UNL A   1      32.001  23.849  24.248  1.00  0.00     0.347 HD
ATOM     12  H   UNL A   1      33.154  22.770  23.434  1.00  0.00     0.347 HD
BRANCH  10  13
ATOM     13  C   UNL A   1      32.664  22.248  25.220  1.00  0.00     0.176 C 
ATOM     14  C   UNL A   1      31.250  22.394  25.790  1.00  0.00     0.075 C 
ATOM     15  C   UNL A   1      32.786  20.878  24.551  1.00  0.00     0.075 C 
ENDBRANCH  10  13
ENDBRANCH   5  10
BRANCH   9  16
ATOM     16  O   UNL A   1      33.598  27.925  24.157  1.00  0.00    -0.487 OA
BRANCH  16  17
ATOM     17  C   UNL A   1      33.310  28.841  25.127  1.00  0.00     0.158 A 
ATOM     18  C   UNL A   1      34.220  28.992  26.172  1.00  0.00     0.088 A 
ATOM     19  C   UNL A   1      32.097  29.534  25.167  1.00  0.00     0.165 A 
ATOM     20  C   UNL A   1      33.939  29.887  27.199  1.00  0.00     0.127 A 
ATOM     21  C   UNL A   1      31.819  30.428  26.200  1.00  0.00     0.046 A 
ATOM     22  F   UNL A   1      31.160  29.343  24.229  1.00  0.00    -0.203 F 
ATOM     23  F   UNL A   1      34.827  30.052  28.188  1.00  0.00    -0.207 F 
ATOM     24  C   UNL A   1      32.751  30.612  27.219  1.00  0.00     0.042 A 
ENDBRANCH  16  17
ENDBRANCH   9  16
ENDBRANCH   3   5
ENDBRANCH   2   3
ENDBRANCH   1   2
BRANCH   1  25
ATOM     25  C   UNL A   1      37.979  21.919  25.198  1.00  0.00     0.275 C 
BRANCH  25  26
ATOM     26  O   UNL A   1      38.647  22.190  26.443  1.00  0.00    -0.458 OA
BRANCH  26  27
ATOM     27  C   UNL A   1      39.933  22.594  26.359  1.00  0.00     0.338 C 
ATOM     28  O   UNL A   1      40.879  21.993  25.880  1.00  0.00    -0.246 OA
BRANCH  27  29
ATOM     29  C   UNL A   1      40.041  23.947  26.927  1.00  0.00     0.060 A 
ATOM     30  C   UNL A   1      40.984  24.834  26.410  1.00  0.00     0.016 A 
ATOM     31  C   UNL A   1      39.277  24.305  28.037  1.00  0.00     0.016 A 
ATOM     32  C   UNL A   1      41.225  26.048  27.042  1.00  0.00     0.010 A 
ATOM     33  C   UNL A   1      39.457  25.565  28.617  1.00  0.00     0.010 A 
ATOM     34  C   UNL A   1      40.457  26.437  28.148  1.00  0.00    -0.014 A 
BRANCH  34  35
ATOM     35  C   UNL A   1      40.735  27.725  28.840  1.00  0.00     0.031 A 
ATOM     36  C   UNL A   1      42.091  27.979  29.446  1.00  0.00     0.074 A 
ATOM     37  C   UNL A   1      39.794  28.689  28.904  1.00  0.00     0.049 A 
ATOM     38  N   UNL A   1      42.481  28.960  30.221  1.00  0.00    -0.248 NA
ATOM     39  C   UNL A   1      43.143  26.994  29.149  1.00  0.00     0.031 C 
ATOM     40  C   UNL A   1      38.456  28.617  28.311  1.00  0.00     0.029 A 
ATOM     41  N   UNL A   1      39.829  29.931  29.490  1.00  0.00    -0.354 N 
ATOM     42  C   UNL A   1      43.802  28.683  30.546  1.00  0.00     0.074 A 
ATOM     43  C   UNL A   1      44.150  27.443  29.885  1.00  0.00     0.031 C 
ATOM     44  C   UNL A   1      37.817  29.777  28.526  1.00  0.00     0.029 A 
ATOM     45  C   UNL A   1      38.665  30.644  29.338  1.00  0.00     0.049 A 
ATOM     46  H   UNL A   1      40.613  30.277  29.974  1.00  0.00     0.167 HD
ATOM     47  C   UNL A   1      44.651  29.393  31.327  1.00  0.00     0.031 A 
ATOM     48  C   UNL A   1      38.301  31.845  29.824  1.00  0.00     0.031 A 
ATOM     49  C   UNL A   1      44.326  30.645  31.955  1.00  0.00     0.049 A 
ATOM     50  C   UNL A   1      39.248  32.599  30.714  1.00  0.00     0.074 A 
ATOM     51  C   UNL A   1      45.114  31.426  32.784  1.00  0.00     0.029 A 
ATOM     52  N   UNL A   1      43.122  31.312  31.803  1.00  0.00    -0.354 N 
ATOM     53  N   UNL A   1      40.464  32.281  31.082  1.00  0.00    -0.248 NA
ATOM     54  C   UNL A   1      38.759  33.869  31.271  1.00  0.00     0.031 C 
ATOM     55  C   UNL A   1      44.376  32.557  33.151  1.00  0.00     0.029 A 
ATOM     56  C   UNL A   1      43.144  32.494  32.522  1.00  0.00     0.049 A 
ATOM     57  H   UNL A   1      42.363  30.991  31.265  1.00  0.00     0.167 HD
ATOM     58  C   UNL A   1      40.888  33.310  31.911  1.00  0.00     0.074 A 
ATOM     59  C   UNL A   1      39.810  34.276  31.971  1.00  0.00     0.031 C 
ATOM     60  C   UNL A   1      42.063  33.441  32.571  1.00  0.00     0.031 A 
BRANCH  47  61
ATOM     61  C   UNL A   1      46.009  28.804  31.576  1.00  0.00    -0.014 A 
ATOM     62  C   UNL A   1      46.240  27.928  32.647  1.00  0.00     0.009 A 
ATOM     63  C   UNL A   1      47.067  29.112  30.706  1.00  0.00     0.009 A 
ATOM     64  C   UNL A   1      47.514  27.394  32.859  1.00  0.00     0.001 A 
ATOM     65  C   UNL A   1      48.333  28.559  30.907  1.00  0.00     0.001 A 
ATOM     66  C   UNL A   1      48.557  27.707  31.988  1.00  0.00     0.000 A 
ENDBRANCH  47  61
BRANCH  48  67
ATOM     67  C   UNL A   1      36.955  32.394  29.521  1.00  0.00    -0.014 A 
ATOM     68  C   UNL A   1      35.901  32.240  30.435  1.00  0.00     0.009 A 
ATOM     69  C   UNL A   1      36.716  33.068  28.313  1.00  0.00     0.009 A 
ATOM     70  C   UNL A   1      34.631  32.735  30.136  1.00  0.00     0.001 A 
ATOM     71  C   UNL A   1      35.450  33.584  28.029  1.00  0.00     0.001 A 
ATOM     72  C   UNL A   1      34.408  33.411  28.937  1.00  0.00     0.000 A 
ENDBRANCH  48  67
BRANCH  60  73
ATOM     73  C   UNL A   1      42.246  34.682  33.395  1.00  0.00    -0.014 A 
ATOM     74  C   UNL A   1      42.828  35.833  32.845  1.00  0.00     0.009 A 
ATOM     75  C   UNL A   1      41.813  34.702  34.729  1.00  0.00     0.009 A 
ATOM     76  C   UNL A   1      42.999  36.977  33.627  1.00  0.00     0.001 A 
ATOM     77  C   UNL A   1      41.967  35.854  35.502  1.00  0.00     0.001 A 
ATOM     78  C   UNL A   1      42.567  36.986  34.953  1.00  0.00     0.000 A 
ENDBRANCH  60  73
ENDBRANCH  34  35
ENDBRANCH  27  29
ENDBRANCH  26  27
ENDBRANCH  25  26
ENDBRANCH   1  25
TORSDOF 15
ENDMDL
