MODEL 1
REMARK VINA RESULT:      -9.8      0.000      0.000
REMARK SMILES CCc1c([N+](=O)[O-])cc(C(=O)OCCOC(=O)c2ccc(-c3c4nc(c(-c5ccccc5)c5ccc([nH]5)c(-c5ccccc5)c5nc(c(-c6ccccc6)c6ccc3[nH]6)C=C5)C=C4)cc2)n1C
REMARK SMILES IDX 14 1 13 2 12 3 10 4 11 5 9 6 3 7 4 8 66 9 8 10 67 11 2 12
REMARK SMILES IDX 1 13 5 14 6 15 7 16 15 17 16 18 17 19 18 20 19 21 65 22
REMARK SMILES IDX 20 23 64 24 21 25 22 26 23 27 58 28 24 29 63 30 57 31 59 32
REMARK SMILES IDX 25 33 62 34 56 35 55 36 26 38 48 39 33 40 47 41 34 42 37 43
REMARK SMILES IDX 46 44 60 45 35 46 36 47 45 49 61 50 38 51 27 52 28 53 32 54
REMARK SMILES IDX 29 55 31 56 30 57 49 58 50 59 54 60 51 61 53 62 52 63 39 64
REMARK SMILES IDX 40 65 44 66 41 67 43 68 42 69
REMARK H PARENT 59 37 37 48
REMARK Flexibility Score: inf
ROOT
ATOM      1  C   UNL A   1      37.742  19.967  25.042  1.00  0.00     0.275 C 
ENDROOT
BRANCH   1   2
ATOM      2  C   UNL A   1      36.232  20.221  24.995  1.00  0.00     0.275 C 
BRANCH   2   3
ATOM      3  O   UNL A   1      35.915  21.478  24.354  1.00  0.00    -0.457 OA
BRANCH   3   4
ATOM      4  C   UNL A   1      35.273  22.400  25.123  1.00  0.00     0.355 C 
ATOM      5  O   UNL A   1      35.576  22.661  26.279  1.00  0.00    -0.244 OA
BRANCH   4   6
ATOM      6  C   UNL A   1      34.262  23.132  24.374  1.00  0.00     0.134 A 
ATOM      7  C   UNL A   1      32.319  23.911  23.463  1.00  0.00     0.096 A 
ATOM      8  C   UNL A   1      33.353  24.698  22.974  1.00  0.00     0.291 A 
ATOM      9  N   UNL A   1      32.897  22.917  24.257  1.00  0.00    -0.336 N 
ATOM     10  C   UNL A   1      34.527  24.279  23.636  1.00  0.00     0.121 A 
ATOM     11  C   UNL A   1      32.123  21.905  24.950  1.00  0.00     0.150 C 
BRANCH   7  12
ATOM     12  C   UNL A   1      30.835  24.061  23.269  1.00  0.00     0.058 C 
ATOM     13  C   UNL A   1      30.283  25.338  23.879  1.00  0.00     0.011 C 
ENDBRANCH   7  12
BRANCH   8  14
ATOM     14  N   UNL A   1      33.288  25.787  22.022  1.00  0.00     0.064 N 
ATOM     15  O   UNL A   1      33.245  25.507  20.819  1.00  0.00    -0.258 OA
ATOM     16  O   UNL A   1      33.283  26.930  22.498  1.00  0.00    -0.258 OA
ENDBRANCH   8  14
ENDBRANCH   4   6
ENDBRANCH   3   4
ENDBRANCH   2   3
ENDBRANCH   1   2
BRANCH   1  17
ATOM     17  O   UNL A   1      38.468  21.176  25.330  1.00  0.00    -0.458 OA
BRANCH  17  18
ATOM     18  C   UNL A   1      39.524  21.012  26.156  1.00  0.00     0.338 C 
ATOM     19  O   UNL A   1      40.213  20.013  26.286  1.00  0.00    -0.246 OA
BRANCH  18  20
ATOM     20  C   UNL A   1      39.860  22.279  26.816  1.00  0.00     0.060 A 
ATOM     21  C   UNL A   1      39.204  23.416  26.357  1.00  0.00     0.016 A 
ATOM     22  C   UNL A   1      40.927  22.397  27.701  1.00  0.00     0.016 A 
ATOM     23  C   UNL A   1      39.667  24.683  26.678  1.00  0.00     0.010 A 
ATOM     24  C   UNL A   1      41.346  23.677  28.093  1.00  0.00     0.010 A 
ATOM     25  C   UNL A   1      40.755  24.833  27.543  1.00  0.00    -0.014 A 
BRANCH  25  26
ATOM     26  C   UNL A   1      41.328  26.189  27.781  1.00  0.00     0.031 A 
ATOM     27  C   UNL A   1      42.622  26.583  27.115  1.00  0.00     0.074 A 
ATOM     28  C   UNL A   1      40.676  27.088  28.545  1.00  0.00     0.049 A 
ATOM     29  N   UNL A   1      43.352  27.657  27.287  1.00  0.00    -0.248 NA
ATOM     30  C   UNL A   1      43.179  25.635  26.136  1.00  0.00     0.031 C 
ATOM     31  C   UNL A   1      39.380  26.876  29.192  1.00  0.00     0.029 A 
ATOM     32  N   UNL A   1      41.013  28.373  28.896  1.00  0.00    -0.354 N 
ATOM     33  C   UNL A   1      44.473  27.488  26.482  1.00  0.00     0.074 A 
ATOM     34  C   UNL A   1      44.340  26.198  25.840  1.00  0.00     0.031 C 
ATOM     35  C   UNL A   1      39.018  27.999  29.832  1.00  0.00     0.029 A 
ATOM     36  C   UNL A   1      40.090  28.981  29.710  1.00  0.00     0.049 A 
ATOM     37  H   UNL A   1      41.840  28.815  28.592  1.00  0.00     0.167 HD
ATOM     38  C   UNL A   1      45.519  28.329  26.290  1.00  0.00     0.031 A 
ATOM     39  C   UNL A   1      40.114  30.179  30.323  1.00  0.00     0.031 A 
ATOM     40  C   UNL A   1      45.633  29.629  26.900  1.00  0.00     0.049 A 
ATOM     41  C   UNL A   1      41.309  31.073  30.139  1.00  0.00     0.074 A 
ATOM     42  C   UNL A   1      46.649  30.560  26.765  1.00  0.00     0.029 A 
ATOM     43  N   UNL A   1      44.690  30.187  27.750  1.00  0.00    -0.354 N 
ATOM     44  N   UNL A   1      42.384  30.880  29.415  1.00  0.00    -0.248 NA
ATOM     45  C   UNL A   1      41.290  32.353  30.861  1.00  0.00     0.031 C 
ATOM     46  C   UNL A   1      46.347  31.659  27.576  1.00  0.00     0.029 A 
ATOM     47  C   UNL A   1      45.108  31.443  28.159  1.00  0.00     0.049 A 
ATOM     48  H   UNL A   1      43.848  29.755  28.022  1.00  0.00     0.167 HD
ATOM     49  C   UNL A   1      43.152  32.028  29.564  1.00  0.00     0.074 A 
ATOM     50  C   UNL A   1      42.412  32.915  30.436  1.00  0.00     0.031 C 
ATOM     51  C   UNL A   1      44.361  32.320  29.022  1.00  0.00     0.031 A 
BRANCH  38  52
ATOM     52  C   UNL A   1      46.648  27.847  25.418  1.00  0.00    -0.014 A 
ATOM     53  C   UNL A   1      46.676  28.097  24.037  1.00  0.00     0.009 A 
ATOM     54  C   UNL A   1      47.716  27.145  25.999  1.00  0.00     0.009 A 
ATOM     55  C   UNL A   1      47.727  27.614  23.251  1.00  0.00     0.001 A 
ATOM     56  C   UNL A   1      48.781  26.694  25.219  1.00  0.00     0.001 A 
ATOM     57  C   UNL A   1      48.780  26.918  23.843  1.00  0.00     0.000 A 
ENDBRANCH  38  52
BRANCH  39  58
ATOM     58  C   UNL A   1      38.985  30.593  31.200  1.00  0.00    -0.014 A 
ATOM     59  C   UNL A   1      37.907  31.330  30.683  1.00  0.00     0.009 A 
ATOM     60  C   UNL A   1      38.989  30.267  32.566  1.00  0.00     0.009 A 
ATOM     61  C   UNL A   1      36.873  31.754  31.522  1.00  0.00     0.001 A 
ATOM     62  C   UNL A   1      37.937  30.662  33.394  1.00  0.00     0.001 A 
ATOM     63  C   UNL A   1      36.886  31.415  32.875  1.00  0.00     0.000 A 
ENDBRANCH  39  58
BRANCH  51  64
ATOM     64  C   UNL A   1      44.924  33.686  29.305  1.00  0.00    -0.014 A 
ATOM     65  C   UNL A   1      45.770  33.926  30.399  1.00  0.00     0.009 A 
ATOM     66  C   UNL A   1      44.611  34.750  28.444  1.00  0.00     0.009 A 
ATOM     67  C   UNL A   1      46.250  35.213  30.651  1.00  0.00     0.001 A 
ATOM     68  C   UNL A   1      45.121  36.027  28.677  1.00  0.00     0.001 A 
ATOM     69  C   UNL A   1      45.929  36.261  29.789  1.00  0.00     0.000 A 
ENDBRANCH  51  64
ENDBRANCH  25  26
ENDBRANCH  18  20
ENDBRANCH  17  18
ENDBRANCH   1  17
TORSDOF 13
ENDMDL
MODEL 2
REMARK VINA RESULT:      -9.7      2.825      4.063
REMARK SMILES CCc1c([N+](=O)[O-])cc(C(=O)OCCOC(=O)c2ccc(-c3c4nc(c(-c5ccccc5)c5ccc([nH]5)c(-c5ccccc5)c5nc(c(-c6ccccc6)c6ccc3[nH]6)C=C5)C=C4)cc2)n1C
REMARK SMILES IDX 14 1 13 2 12 3 10 4 11 5 9 6 3 7 4 8 66 9 8 10 67 11 2 12
REMARK SMILES IDX 1 13 5 14 6 15 7 16 15 17 16 18 17 19 18 20 19 21 65 22
REMARK SMILES IDX 20 23 64 24 21 25 22 26 23 27 58 28 24 29 63 30 57 31 59 32
REMARK SMILES IDX 25 33 62 34 56 35 55 36 26 38 48 39 33 40 47 41 34 42 37 43
REMARK SMILES IDX 46 44 60 45 35 46 36 47 45 49 61 50 38 51 27 52 28 53 32 54
REMARK SMILES IDX 29 55 31 56 30 57 49 58 50 59 54 60 51 61 53 62 52 63 39 64
REMARK SMILES IDX 40 65 44 66 41 67 43 68 42 69
REMARK H PARENT 59 37 37 48
REMARK Flexibility Score: inf
ROOT
ATOM      1  C   UNL A   1      39.267  19.951  25.443  1.00  0.00     0.275 C 
ENDROOT
BRANCH   1   2
ATOM      2  C   UNL A   1      38.448  21.242  25.534  1.00  0.00     0.275 C 
BRANCH   2   3
ATOM      3  O   UNL A   1      37.240  21.174  24.744  1.00  0.00    -0.457 OA
BRANCH   3   4
ATOM      4  C   UNL A   1      36.071  21.095  25.438  1.00  0.00     0.355 C 
ATOM      5  O   UNL A   1      35.723  21.899  26.291  1.00  0.00    -0.244 OA
BRANCH   4   6
ATOM      6  C   UNL A   1      35.222  20.012  24.962  1.00  0.00     0.134 A 
ATOM      7  C   UNL A   1      33.502  18.739  24.166  1.00  0.00     0.096 A 
ATOM      8  C   UNL A   1      34.595  17.900  24.341  1.00  0.00     0.291 A 
ATOM      9  N   UNL A   1      33.878  20.006  24.617  1.00  0.00    -0.336 N 
ATOM     10  C   UNL A   1      35.678  18.723  24.719  1.00  0.00     0.121 A 
ATOM     11  C   UNL A   1      32.995  21.156  24.583  1.00  0.00     0.150 C 
BRANCH   7  12
ATOM     12  C   UNL A   1      32.156  18.437  23.566  1.00  0.00     0.058 C 
ATOM     13  C   UNL A   1      32.170  18.437  22.047  1.00  0.00     0.011 C 
ENDBRANCH   7  12
BRANCH   8  14
ATOM     14  N   UNL A   1      34.680  16.471  24.129  1.00  0.00     0.064 N 
ATOM     15  O   UNL A   1      34.397  16.030  23.010  1.00  0.00    -0.258 OA
ATOM     16  O   UNL A   1      35.032  15.793  25.105  1.00  0.00    -0.258 OA
ENDBRANCH   8  14
ENDBRANCH   4   6
ENDBRANCH   3   4
ENDBRANCH   2   3
ENDBRANCH   1   2
BRANCH   1  17
ATOM     17  O   UNL A   1      40.222  19.860  26.517  1.00  0.00    -0.458 OA
BRANCH  17  18
ATOM     18  C   UNL A   1      41.513  19.850  26.119  1.00  0.00     0.338 C 
ATOM     19  O   UNL A   1      42.067  19.013  25.425  1.00  0.00    -0.246 OA
BRANCH  18  20
ATOM     20  C   UNL A   1      42.180  21.096  26.517  1.00  0.00     0.060 A 
ATOM     21  C   UNL A   1      42.255  21.356  27.880  1.00  0.00     0.016 A 
ATOM     22  C   UNL A   1      42.530  22.079  25.597  1.00  0.00     0.016 A 
ATOM     23  C   UNL A   1      42.568  22.624  28.347  1.00  0.00     0.010 A 
ATOM     24  C   UNL A   1      42.926  23.339  26.068  1.00  0.00     0.010 A 
ATOM     25  C   UNL A   1      42.897  23.641  27.445  1.00  0.00    -0.014 A 
BRANCH  25  26
ATOM     26  C   UNL A   1      43.105  25.031  27.943  1.00  0.00     0.031 A 
ATOM     27  C   UNL A   1      44.501  25.525  28.225  1.00  0.00     0.074 A 
ATOM     28  C   UNL A   1      42.062  25.871  28.095  1.00  0.00     0.049 A 
ATOM     29  N   UNL A   1      44.890  26.646  28.781  1.00  0.00    -0.248 NA
ATOM     30  C   UNL A   1      45.608  24.631  27.848  1.00  0.00     0.031 C 
ATOM     31  C   UNL A   1      40.664  25.559  27.790  1.00  0.00     0.029 A 
ATOM     32  N   UNL A   1      42.021  27.172  28.534  1.00  0.00    -0.354 N 
ATOM     33  C   UNL A   1      46.275  26.567  28.866  1.00  0.00     0.074 A 
ATOM     34  C   UNL A   1      46.658  25.280  28.329  1.00  0.00     0.031 C 
ATOM     35  C   UNL A   1      39.910  26.645  28.020  1.00  0.00     0.029 A 
ATOM     36  C   UNL A   1      40.754  27.702  28.565  1.00  0.00     0.049 A 
ATOM     37  H   UNL A   1      42.824  27.676  28.803  1.00  0.00     0.167 HD
ATOM     38  C   UNL A   1      47.153  27.483  29.345  1.00  0.00     0.031 A 
ATOM     39  C   UNL A   1      40.311  28.892  29.014  1.00  0.00     0.031 A 
ATOM     40  C   UNL A   1      46.775  28.780  29.845  1.00  0.00     0.049 A 
ATOM     41  C   UNL A   1      41.295  29.870  29.592  1.00  0.00     0.074 A 
ATOM     42  C   UNL A   1      47.587  29.782  30.346  1.00  0.00     0.029 A 
ATOM     43  N   UNL A   1      45.474  29.259  29.893  1.00  0.00    -0.354 N 
ATOM     44  N   UNL A   1      42.596  29.764  29.712  1.00  0.00    -0.248 NA
ATOM     45  C   UNL A   1      40.745  31.136  30.096  1.00  0.00     0.031 C 
ATOM     46  C   UNL A   1      46.774  30.846  30.748  1.00  0.00     0.029 A 
ATOM     47  C   UNL A   1      45.461  30.536  30.429  1.00  0.00     0.049 A 
ATOM     48  H   UNL A   1      44.678  28.764  29.590  1.00  0.00     0.167 HD
ATOM     49  C   UNL A   1      43.024  30.961  30.271  1.00  0.00     0.074 A 
ATOM     50  C   UNL A   1      41.846  31.783  30.452  1.00  0.00     0.031 C 
ATOM     51  C   UNL A   1      44.283  31.346  30.600  1.00  0.00     0.031 A 
BRANCH  38  52
ATOM     52  C   UNL A   1      48.606  27.094  29.394  1.00  0.00    -0.014 A 
ATOM     53  C   UNL A   1      49.156  26.420  30.496  1.00  0.00     0.009 A 
ATOM     54  C   UNL A   1      49.437  27.392  28.302  1.00  0.00     0.009 A 
ATOM     55  C   UNL A   1      50.515  26.095  30.521  1.00  0.00     0.001 A 
ATOM     56  C   UNL A   1      50.786  27.035  28.314  1.00  0.00     0.001 A 
ATOM     57  C   UNL A   1      51.328  26.398  29.429  1.00  0.00     0.000 A 
ENDBRANCH  38  52
BRANCH  39  58
ATOM     58  C   UNL A   1      38.858  29.213  28.971  1.00  0.00    -0.014 A 
ATOM     59  C   UNL A   1      38.270  29.722  27.803  1.00  0.00     0.009 A 
ATOM     60  C   UNL A   1      38.055  29.027  30.108  1.00  0.00     0.009 A 
ATOM     61  C   UNL A   1      36.915  30.065  27.784  1.00  0.00     0.001 A 
ATOM     62  C   UNL A   1      36.694  29.336  30.075  1.00  0.00     0.001 A 
ATOM     63  C   UNL A   1      36.128  29.866  28.917  1.00  0.00     0.000 A 
ENDBRANCH  39  58
BRANCH  51  64
ATOM     64  C   UNL A   1      44.455  32.745  31.126  1.00  0.00    -0.014 A 
ATOM     65  C   UNL A   1      44.695  33.833  30.272  1.00  0.00     0.009 A 
ATOM     66  C   UNL A   1      44.358  32.975  32.508  1.00  0.00     0.009 A 
ATOM     67  C   UNL A   1      44.882  35.114  30.796  1.00  0.00     0.001 A 
ATOM     68  C   UNL A   1      44.509  34.262  33.026  1.00  0.00     0.001 A 
ATOM     69  C   UNL A   1      44.786  35.327  32.171  1.00  0.00     0.000 A 
ENDBRANCH  51  64
ENDBRANCH  25  26
ENDBRANCH  18  20
ENDBRANCH  17  18
ENDBRANCH   1  17
TORSDOF 13
ENDMDL
MODEL 3
REMARK VINA RESULT:      -9.7      0.937      6.353
REMARK SMILES CCc1c([N+](=O)[O-])cc(C(=O)OCCOC(=O)c2ccc(-c3c4nc(c(-c5ccccc5)c5ccc([nH]5)c(-c5ccccc5)c5nc(c(-c6ccccc6)c6ccc3[nH]6)C=C5)C=C4)cc2)n1C
REMARK SMILES IDX 14 1 13 2 12 3 10 4 11 5 9 6 3 7 4 8 66 9 8 10 67 11 2 12
REMARK SMILES IDX 1 13 5 14 6 15 7 16 15 17 16 18 17 19 18 20 19 21 65 22
REMARK SMILES IDX 20 23 64 24 21 25 22 26 23 27 58 28 24 29 63 30 57 31 59 32
REMARK SMILES IDX 25 33 62 34 56 35 55 36 26 38 48 39 33 40 47 41 34 42 37 43
REMARK SMILES IDX 46 44 60 45 35 46 36 47 45 49 61 50 38 51 27 52 28 53 32 54
REMARK SMILES IDX 29 55 31 56 30 57 49 58 50 59 54 60 51 61 53 62 52 63 39 64
REMARK SMILES IDX 40 65 44 66 41 67 43 68 42 69
REMARK H PARENT 59 37 37 48
REMARK Flexibility Score: inf
ROOT
ATOM      1  C   UNL A   1      36.967  20.432  24.944  1.00  0.00     0.275 C 
ENDROOT
BRANCH   1   2
ATOM      2  C   UNL A   1      35.440  20.540  24.985  1.00  0.00     0.275 C 
BRANCH   2   3
ATOM      3  O   UNL A   1      34.949  21.612  24.148  1.00  0.00    -0.457 OA
BRANCH   3   4
ATOM      4  C   UNL A   1      33.608  21.839  24.187  1.00  0.00     0.355 C 
ATOM      5  O   UNL A   1      32.786  21.035  24.604  1.00  0.00    -0.244 OA
BRANCH   4   6
ATOM      6  C   UNL A   1      33.270  23.199  23.791  1.00  0.00     0.134 A 
ATOM      7  C   UNL A   1      32.805  25.434  23.735  1.00  0.00     0.096 A 
ATOM      8  C   UNL A   1      32.732  24.960  22.431  1.00  0.00     0.291 A 
ATOM      9  N   UNL A   1      33.062  24.335  24.559  1.00  0.00    -0.336 N 
ATOM     10  C   UNL A   1      33.136  23.609  22.471  1.00  0.00     0.121 A 
ATOM     11  C   UNL A   1      33.216  24.440  25.997  1.00  0.00     0.150 C 
BRANCH   7  12
ATOM     12  C   UNL A   1      32.695  26.845  24.244  1.00  0.00     0.058 C 
ATOM     13  C   UNL A   1      33.897  27.701  23.883  1.00  0.00     0.011 C 
ENDBRANCH   7  12
BRANCH   8  14
ATOM     14  N   UNL A   1      32.380  25.682  21.227  1.00  0.00     0.064 N 
ATOM     15  O   UNL A   1      31.368  26.391  21.248  1.00  0.00    -0.258 OA
ATOM     16  O   UNL A   1      33.133  25.525  20.256  1.00  0.00    -0.258 OA
ENDBRANCH   8  14
ENDBRANCH   4   6
ENDBRANCH   3   4
ENDBRANCH   2   3
ENDBRANCH   1   2
BRANCH   1  17
ATOM     17  O   UNL A   1      37.588  21.572  25.567  1.00  0.00    -0.458 OA
BRANCH  17  18
ATOM     18  C   UNL A   1      38.851  21.357  25.996  1.00  0.00     0.338 C 
ATOM     19  O   UNL A   1      39.550  20.381  25.777  1.00  0.00    -0.246 OA
BRANCH  18  20
ATOM     20  C   UNL A   1      39.371  22.550  26.676  1.00  0.00     0.060 A 
ATOM     21  C   UNL A   1      38.851  23.774  26.273  1.00  0.00     0.016 A 
ATOM     22  C   UNL A   1      40.476  22.502  27.520  1.00  0.00     0.016 A 
ATOM     23  C   UNL A   1      39.485  24.962  26.608  1.00  0.00     0.010 A 
ATOM     24  C   UNL A   1      41.071  23.705  27.928  1.00  0.00     0.010 A 
ATOM     25  C   UNL A   1      40.615  24.944  27.433  1.00  0.00    -0.014 A 
BRANCH  25  26
ATOM     26  C   UNL A   1      41.366  26.207  27.683  1.00  0.00     0.031 A 
ATOM     27  C   UNL A   1      40.792  27.250  28.609  1.00  0.00     0.074 A 
ATOM     28  C   UNL A   1      42.580  26.408  27.132  1.00  0.00     0.049 A 
ATOM     29  N   UNL A   1      41.218  28.463  28.861  1.00  0.00    -0.248 NA
ATOM     30  C   UNL A   1      39.564  26.886  29.336  1.00  0.00     0.031 C 
ATOM     31  C   UNL A   1      43.295  25.458  26.277  1.00  0.00     0.029 A 
ATOM     32  N   UNL A   1      43.435  27.479  27.222  1.00  0.00    -0.354 N 
ATOM     33  C   UNL A   1      40.286  29.020  29.729  1.00  0.00     0.074 A 
ATOM     34  C   UNL A   1      39.259  28.023  29.942  1.00  0.00     0.031 C 
ATOM     35  C   UNL A   1      44.490  25.975  25.949  1.00  0.00     0.029 A 
ATOM     36  C   UNL A   1      44.593  27.320  26.500  1.00  0.00     0.049 A 
ATOM     37  H   UNL A   1      43.236  28.285  27.754  1.00  0.00     0.167 HD
ATOM     38  C   UNL A   1      40.283  30.248  30.303  1.00  0.00     0.031 A 
ATOM     39  C   UNL A   1      45.610  28.173  26.274  1.00  0.00     0.031 A 
ATOM     40  C   UNL A   1      41.325  31.227  30.121  1.00  0.00     0.049 A 
ATOM     41  C   UNL A   1      45.559  29.551  26.875  1.00  0.00     0.074 A 
ATOM     42  C   UNL A   1      41.419  32.497  30.662  1.00  0.00     0.029 A 
ATOM     43  N   UNL A   1      42.461  31.036  29.349  1.00  0.00    -0.354 N 
ATOM     44  N   UNL A   1      44.649  30.082  27.654  1.00  0.00    -0.248 NA
ATOM     45  C   UNL A   1      46.682  30.446  26.563  1.00  0.00     0.031 C 
ATOM     46  C   UNL A   1      42.585  33.096  30.174  1.00  0.00     0.029 A 
ATOM     47  C   UNL A   1      43.253  32.171  29.387  1.00  0.00     0.049 A 
ATOM     48  H   UNL A   1      42.672  30.215  28.848  1.00  0.00     0.167 HD
ATOM     49  C   UNL A   1      45.106  31.358  27.955  1.00  0.00     0.074 A 
ATOM     50  C   UNL A   1      46.380  31.515  27.286  1.00  0.00     0.031 C 
ATOM     51  C   UNL A   1      44.523  32.313  28.722  1.00  0.00     0.031 A 
BRANCH  38  52
ATOM     52  C   UNL A   1      39.092  30.620  31.144  1.00  0.00    -0.014 A 
ATOM     53  C   UNL A   1      37.956  31.232  30.591  1.00  0.00     0.009 A 
ATOM     54  C   UNL A   1      39.101  30.332  32.518  1.00  0.00     0.009 A 
ATOM     55  C   UNL A   1      36.876  31.588  31.405  1.00  0.00     0.001 A 
ATOM     56  C   UNL A   1      38.008  30.656  33.323  1.00  0.00     0.001 A 
ATOM     57  C   UNL A   1      36.901  31.295  32.768  1.00  0.00     0.000 A 
ENDBRANCH  38  52
BRANCH  39  58
ATOM     58  C   UNL A   1      46.749  27.765  25.408  1.00  0.00    -0.014 A 
ATOM     59  C   UNL A   1      46.737  28.037  24.031  1.00  0.00     0.009 A 
ATOM     60  C   UNL A   1      47.849  27.084  25.953  1.00  0.00     0.009 A 
ATOM     61  C   UNL A   1      47.789  27.610  23.216  1.00  0.00     0.001 A 
ATOM     62  C   UNL A   1      48.915  26.691  25.143  1.00  0.00     0.001 A 
ATOM     63  C   UNL A   1      48.879  26.943  23.773  1.00  0.00     0.000 A 
ENDBRANCH  39  58
BRANCH  51  64
ATOM     64  C   UNL A   1      45.294  33.587  28.932  1.00  0.00    -0.014 A 
ATOM     65  C   UNL A   1      45.139  34.696  28.084  1.00  0.00     0.009 A 
ATOM     66  C   UNL A   1      46.184  33.681  30.013  1.00  0.00     0.009 A 
ATOM     67  C   UNL A   1      45.894  35.852  28.288  1.00  0.00     0.001 A 
ATOM     68  C   UNL A   1      46.912  34.850  30.237  1.00  0.00     0.001 A 
ATOM     69  C   UNL A   1      46.776  35.930  29.366  1.00  0.00     0.000 A 
ENDBRANCH  51  64
ENDBRANCH  25  26
ENDBRANCH  18  20
ENDBRANCH  17  18
ENDBRANCH   1  17
TORSDOF 13
ENDMDL
