MODEL 1
REMARK VINA RESULT:     -10.5      0.000      0.000
REMARK SMILES C[C@H]1CC[C@@]1(C(=O)OCCOC(=O)c1ccc(-c2c3nc(c(-c4ccccc4)c4ccc([nH]4)c(-c4ccccc4)c4nc(c(-c5ccccc5)c5ccc2[nH]5)C=C4)C=C3)cc1)c1ccc(Cl)cc1Cl
REMARK SMILES IDX 10 1 9 2 8 3 6 4 7 5 5 6 1 7 2 8 3 9 4 10 62 11 63 12 68 13
REMARK SMILES IDX 64 14 67 15 69 16 65 17 66 18 11 19 12 20 13 21 14 22 15 23
REMARK SMILES IDX 61 24 16 25 60 26 17 27 18 28 19 29 54 30 20 31 59 32 53 33
REMARK SMILES IDX 55 34 21 35 58 36 52 37 51 38 22 40 44 41 29 42 43 43 30 44
REMARK SMILES IDX 33 45 42 46 56 47 31 48 32 49 41 51 57 52 34 53 23 54 24 55
REMARK SMILES IDX 28 56 25 57 27 58 26 59 45 60 46 61 50 62 47 63 49 64 48 65
REMARK SMILES IDX 35 66 36 67 40 68 37 69 39 70 38 71
REMARK H PARENT 55 39 33 50
REMARK Flexibility Score: inf
ROOT
ATOM      1  C   UNL A   1      37.326  22.215  24.683  1.00  0.00     0.275 C 
ENDROOT
BRANCH   1   2
ATOM      2  C   UNL A   1      36.731  22.889  23.452  1.00  0.00     0.274 C 
BRANCH   2   3
ATOM      3  O   UNL A   1      35.708  23.818  23.865  1.00  0.00    -0.461 OA
BRANCH   3   4
ATOM      4  C   UNL A   1      34.418  23.527  23.553  1.00  0.00     0.317 C 
ATOM      5  O   UNL A   1      33.931  23.895  22.482  1.00  0.00    -0.251 OA
BRANCH   4   6
ATOM      6  C   UNL A   1      33.602  22.683  24.704  1.00  0.00     0.097 C 
ATOM      7  C   UNL A   1      30.852  23.080  25.424  1.00  0.00     0.009 C 
ATOM      8  C   UNL A   1      32.251  23.541  25.051  1.00  0.00     0.008 C 
ATOM      9  C   UNL A   1      33.032  24.158  26.230  1.00  0.00     0.006 C 
ATOM     10  C   UNL A   1      34.027  22.991  26.179  1.00  0.00     0.024 C 
BRANCH   6  11
ATOM     11  C   UNL A   1      33.499  21.049  24.350  1.00  0.00    -0.012 A 
ATOM     12  C   UNL A   1      34.418  20.120  24.896  1.00  0.00     0.008 A 
ATOM     13  C   UNL A   1      32.585  20.447  23.442  1.00  0.00     0.046 A 
ATOM     14  C   UNL A   1      34.360  18.734  24.690  1.00  0.00     0.021 A 
ATOM     15  C   UNL A   1      32.452  19.051  23.298  1.00  0.00     0.041 A 
ATOM     16  Cl  UNL A   1      31.698  21.374  22.274  1.00  0.00    -0.084 Cl
ATOM     17  C   UNL A   1      33.337  18.199  23.934  1.00  0.00     0.042 A 
ATOM     18  Cl  UNL A   1      33.225  16.499  23.720  1.00  0.00    -0.084 Cl
ENDBRANCH   6  11
ENDBRANCH   4   6
ENDBRANCH   3   4
ENDBRANCH   2   3
ENDBRANCH   1   2
BRANCH   1  19
ATOM     19  O   UNL A   1      37.825  23.220  25.583  1.00  0.00    -0.458 OA
BRANCH  19  20
ATOM     20  C   UNL A   1      38.993  22.944  26.199  1.00  0.00     0.338 C 
ATOM     21  O   UNL A   1      39.607  21.887  26.220  1.00  0.00    -0.246 OA
BRANCH  20  22
ATOM     22  C   UNL A   1      39.488  24.175  26.825  1.00  0.00     0.060 A 
ATOM     23  C   UNL A   1      39.199  24.408  28.169  1.00  0.00     0.016 A 
ATOM     24  C   UNL A   1      40.171  25.126  26.069  1.00  0.00     0.016 A 
ATOM     25  C   UNL A   1      39.583  25.603  28.771  1.00  0.00     0.010 A 
ATOM     26  C   UNL A   1      40.577  26.317  26.678  1.00  0.00     0.010 A 
ATOM     27  C   UNL A   1      40.273  26.570  28.028  1.00  0.00    -0.014 A 
BRANCH  27  28
ATOM     28  C   UNL A   1      40.615  27.876  28.643  1.00  0.00     0.031 A 
ATOM     29  C   UNL A   1      42.008  28.118  29.150  1.00  0.00     0.074 A 
ATOM     30  C   UNL A   1      39.689  28.848  28.734  1.00  0.00     0.049 A 
ATOM     31  N   UNL A   1      42.478  29.137  29.822  1.00  0.00    -0.248 NA
ATOM     32  C   UNL A   1      43.003  27.071  28.865  1.00  0.00     0.031 C 
ATOM     33  C   UNL A   1      38.318  28.766  28.228  1.00  0.00     0.029 A 
ATOM     34  N   UNL A   1      39.768  30.101  29.289  1.00  0.00    -0.354 N 
ATOM     35  C   UNL A   1      43.811  28.841  30.071  1.00  0.00     0.074 A 
ATOM     36  C   UNL A   1      44.076  27.546  29.481  1.00  0.00     0.031 C 
ATOM     37  C   UNL A   1      37.688  29.924  28.487  1.00  0.00     0.029 A 
ATOM     38  C   UNL A   1      38.590  30.805  29.223  1.00  0.00     0.049 A 
ATOM     39  H   UNL A   1      40.590  30.461  29.694  1.00  0.00     0.167 HD
ATOM     40  C   UNL A   1      44.733  29.579  30.736  1.00  0.00     0.031 A 
ATOM     41  C   UNL A   1      38.265  32.010  29.727  1.00  0.00     0.031 A 
ATOM     42  C   UNL A   1      44.477  30.870  31.314  1.00  0.00     0.049 A 
ATOM     43  C   UNL A   1      39.290  32.786  30.507  1.00  0.00     0.074 A 
ATOM     44  C   UNL A   1      45.346  31.690  32.014  1.00  0.00     0.029 A 
ATOM     45  N   UNL A   1      43.261  31.532  31.255  1.00  0.00    -0.354 N 
ATOM     46  N   UNL A   1      40.536  32.478  30.768  1.00  0.00    -0.248 NA
ATOM     47  C   UNL A   1      38.855  34.074  31.070  1.00  0.00     0.031 C 
ATOM     48  C   UNL A   1      44.645  32.836  32.407  1.00  0.00     0.029 A 
ATOM     49  C   UNL A   1      43.353  32.746  31.916  1.00  0.00     0.049 A 
ATOM     50  H   UNL A   1      42.452  31.191  30.810  1.00  0.00     0.167 HD
ATOM     51  C   UNL A   1      41.039  33.537  31.513  1.00  0.00     0.074 A 
ATOM     52  C   UNL A   1      39.969  34.504  31.646  1.00  0.00     0.031 C 
ATOM     53  C   UNL A   1      42.277  33.693  32.042  1.00  0.00     0.031 A 
BRANCH  40  54
ATOM     54  C   UNL A   1      46.096  28.976  30.910  1.00  0.00    -0.014 A 
ATOM     55  C   UNL A   1      47.119  29.202  29.977  1.00  0.00     0.009 A 
ATOM     56  C   UNL A   1      46.363  28.183  32.038  1.00  0.00     0.009 A 
ATOM     57  C   UNL A   1      48.377  28.620  30.156  1.00  0.00     0.001 A 
ATOM     58  C   UNL A   1      47.627  27.623  32.226  1.00  0.00     0.001 A 
ATOM     59  C   UNL A   1      48.630  27.834  31.281  1.00  0.00     0.000 A 
ENDBRANCH  40  54
BRANCH  41  60
ATOM     60  C   UNL A   1      36.892  32.544  29.544  1.00  0.00    -0.014 A 
ATOM     61  C   UNL A   1      35.892  32.286  30.492  1.00  0.00     0.009 A 
ATOM     62  C   UNL A   1      36.575  33.312  28.412  1.00  0.00     0.009 A 
ATOM     63  C   UNL A   1      34.596  32.772  30.303  1.00  0.00     0.001 A 
ATOM     64  C   UNL A   1      35.285  33.819  28.239  1.00  0.00     0.001 A 
ATOM     65  C   UNL A   1      34.296  33.542  29.180  1.00  0.00     0.000 A 
ENDBRANCH  41  60
BRANCH  53  66
ATOM     66  C   UNL A   1      42.544  34.967  32.789  1.00  0.00    -0.014 A 
ATOM     67  C   UNL A   1      43.255  36.020  32.195  1.00  0.00     0.009 A 
ATOM     68  C   UNL A   1      42.051  35.125  34.094  1.00  0.00     0.009 A 
ATOM     69  C   UNL A   1      43.493  37.198  32.906  1.00  0.00     0.001 A 
ATOM     70  C   UNL A   1      42.272  36.311  34.793  1.00  0.00     0.001 A 
ATOM     71  C   UNL A   1      42.999  37.343  34.203  1.00  0.00     0.000 A 
ENDBRANCH  53  66
ENDBRANCH  27  28
ENDBRANCH  20  22
ENDBRANCH  19  20
ENDBRANCH   1  19
TORSDOF 12
ENDMDL
MODEL 2
REMARK VINA RESULT:     -10.4      3.632      8.330
REMARK SMILES C[C@H]1CC[C@@]1(C(=O)OCCOC(=O)c1ccc(-c2c3nc(c(-c4ccccc4)c4ccc([nH]4)c(-c4ccccc4)c4nc(c(-c5ccccc5)c5ccc2[nH]5)C=C4)C=C3)cc1)c1ccc(Cl)cc1Cl
REMARK SMILES IDX 10 1 9 2 8 3 6 4 7 5 5 6 1 7 2 8 3 9 4 10 62 11 63 12 68 13
REMARK SMILES IDX 64 14 67 15 69 16 65 17 66 18 11 19 12 20 13 21 14 22 15 23
REMARK SMILES IDX 61 24 16 25 60 26 17 27 18 28 19 29 54 30 20 31 59 32 53 33
REMARK SMILES IDX 55 34 21 35 58 36 52 37 51 38 22 40 44 41 29 42 43 43 30 44
REMARK SMILES IDX 33 45 42 46 56 47 31 48 32 49 41 51 57 52 34 53 23 54 24 55
REMARK SMILES IDX 28 56 25 57 27 58 26 59 45 60 46 61 50 62 47 63 49 64 48 65
REMARK SMILES IDX 35 66 36 67 40 68 37 69 39 70 38 71
REMARK H PARENT 55 39 33 50
REMARK Flexibility Score: inf
ROOT
ATOM      1  C   UNL A   1      32.512  29.505  27.237  1.00  0.00     0.275 C 
ENDROOT
BRANCH   1   2
ATOM      2  C   UNL A   1      31.756  28.245  27.643  1.00  0.00     0.274 C 
BRANCH   2   3
ATOM      3  O   UNL A   1      32.361  27.101  27.006  1.00  0.00    -0.461 OA
BRANCH   3   4
ATOM      4  C   UNL A   1      31.632  26.427  26.078  1.00  0.00     0.317 C 
ATOM      5  O   UNL A   1      30.884  25.505  26.412  1.00  0.00    -0.251 OA
BRANCH   4   6
ATOM      6  C   UNL A   1      31.847  26.934  24.529  1.00  0.00     0.097 C 
ATOM      7  C   UNL A   1      31.870  25.242  22.211  1.00  0.00     0.009 C 
ATOM      8  C   UNL A   1      32.218  25.607  23.643  1.00  0.00     0.008 C 
ATOM      9  C   UNL A   1      33.703  25.976  23.843  1.00  0.00     0.006 C 
ATOM     10  C   UNL A   1      33.296  27.416  24.184  1.00  0.00     0.024 C 
BRANCH   6  11
ATOM     11  C   UNL A   1      30.642  27.979  24.022  1.00  0.00    -0.012 A 
ATOM     12  C   UNL A   1      30.812  29.384  24.087  1.00  0.00     0.008 A 
ATOM     13  C   UNL A   1      29.345  27.604  23.574  1.00  0.00     0.046 A 
ATOM     14  C   UNL A   1      29.871  30.318  23.629  1.00  0.00     0.021 A 
ATOM     15  C   UNL A   1      28.427  28.521  23.023  1.00  0.00     0.041 A 
ATOM     16  Cl  UNL A   1      28.691  26.023  23.858  1.00  0.00    -0.084 Cl
ATOM     17  C   UNL A   1      28.701  29.877  23.044  1.00  0.00     0.042 A 
ATOM     18  Cl  UNL A   1      27.566  31.012  22.431  1.00  0.00    -0.084 Cl
ENDBRANCH   6  11
ENDBRANCH   4   6
ENDBRANCH   3   4
ENDBRANCH   2   3
ENDBRANCH   1   2
BRANCH   1  19
ATOM     19  O   UNL A   1      33.902  29.356  27.575  1.00  0.00    -0.458 OA
BRANCH  19  20
ATOM     20  C   UNL A   1      34.527  30.463  28.029  1.00  0.00     0.338 C 
ATOM     21  O   UNL A   1      34.063  31.580  28.197  1.00  0.00    -0.246 OA
BRANCH  20  22
ATOM     22  C   UNL A   1      35.908  30.103  28.374  1.00  0.00     0.060 A 
ATOM     23  C   UNL A   1      36.891  30.194  27.389  1.00  0.00     0.016 A 
ATOM     24  C   UNL A   1      36.214  29.613  29.642  1.00  0.00     0.016 A 
ATOM     25  C   UNL A   1      38.194  29.784  27.661  1.00  0.00     0.010 A 
ATOM     26  C   UNL A   1      37.526  29.223  29.923  1.00  0.00     0.010 A 
ATOM     27  C   UNL A   1      38.521  29.291  28.930  1.00  0.00    -0.014 A 
BRANCH  27  28
ATOM     28  C   UNL A   1      39.888  28.780  29.199  1.00  0.00     0.031 A 
ATOM     29  C   UNL A   1      40.882  29.654  29.910  1.00  0.00     0.074 A 
ATOM     30  C   UNL A   1      40.234  27.535  28.825  1.00  0.00     0.049 A 
ATOM     31  N   UNL A   1      42.153  29.444  30.136  1.00  0.00    -0.248 NA
ATOM     32  C   UNL A   1      40.377  30.933  30.433  1.00  0.00     0.031 C 
ATOM     33  C   UNL A   1      39.349  26.563  28.182  1.00  0.00     0.029 A 
ATOM     34  N   UNL A   1      41.433  26.876  28.935  1.00  0.00    -0.354 N 
ATOM     35  C   UNL A   1      42.610  30.578  30.795  1.00  0.00     0.074 A 
ATOM     36  C   UNL A   1      41.481  31.473  30.931  1.00  0.00     0.031 C 
ATOM     37  C   UNL A   1      40.033  25.428  27.963  1.00  0.00     0.029 A 
ATOM     38  C   UNL A   1      41.415  25.611  28.400  1.00  0.00     0.049 A 
ATOM     39  H   UNL A   1      42.229  27.271  29.358  1.00  0.00     0.167 HD
ATOM     40  C   UNL A   1      43.859  30.851  31.243  1.00  0.00     0.031 A 
ATOM     41  C   UNL A   1      42.406  24.713  28.248  1.00  0.00     0.031 A 
ATOM     42  C   UNL A   1      44.980  29.960  31.120  1.00  0.00     0.049 A 
ATOM     43  C   UNL A   1      43.795  25.061  28.706  1.00  0.00     0.074 A 
ATOM     44  C   UNL A   1      46.286  30.153  31.537  1.00  0.00     0.029 A 
ATOM     45  N   UNL A   1      44.926  28.703  30.540  1.00  0.00    -0.354 N 
ATOM     46  N   UNL A   1      44.222  26.152  29.294  1.00  0.00    -0.248 NA
ATOM     47  C   UNL A   1      44.840  24.054  28.469  1.00  0.00     0.031 C 
ATOM     48  C   UNL A   1      47.031  29.024  31.180  1.00  0.00     0.029 A 
ATOM     49  C   UNL A   1      46.178  28.112  30.578  1.00  0.00     0.049 A 
ATOM     50  H   UNL A   1      44.118  28.290  30.159  1.00  0.00     0.167 HD
ATOM     51  C   UNL A   1      45.580  25.958  29.508  1.00  0.00     0.074 A 
ATOM     52  C   UNL A   1      45.902  24.639  29.005  1.00  0.00     0.031 C 
ATOM     53  C   UNL A   1      46.481  26.801  30.070  1.00  0.00     0.031 A 
BRANCH  40  54
ATOM     54  C   UNL A   1      44.082  32.197  31.870  1.00  0.00    -0.014 A 
ATOM     55  C   UNL A   1      44.443  33.311  31.099  1.00  0.00     0.009 A 
ATOM     56  C   UNL A   1      43.909  32.352  33.255  1.00  0.00     0.009 A 
ATOM     57  C   UNL A   1      44.657  34.551  31.708  1.00  0.00     0.001 A 
ATOM     58  C   UNL A   1      44.099  33.596  33.857  1.00  0.00     0.001 A 
ATOM     59  C   UNL A   1      44.481  34.692  33.085  1.00  0.00     0.000 A 
ENDBRANCH  40  54
BRANCH  41  60
ATOM     60  C   UNL A   1      42.130  23.407  27.599  1.00  0.00    -0.014 A 
ATOM     61  C   UNL A   1      42.413  23.211  26.240  1.00  0.00     0.009 A 
ATOM     62  C   UNL A   1      41.576  22.350  28.338  1.00  0.00     0.009 A 
ATOM     63  C   UNL A   1      42.130  21.987  25.628  1.00  0.00     0.001 A 
ATOM     64  C   UNL A   1      41.319  21.119  27.731  1.00  0.00     0.001 A 
ATOM     65  C   UNL A   1      41.589  20.941  26.376  1.00  0.00     0.000 A 
ENDBRANCH  41  60
BRANCH  53  66
ATOM     66  C   UNL A   1      47.893  26.307  30.192  1.00  0.00    -0.014 A 
ATOM     67  C   UNL A   1      48.362  25.739  31.385  1.00  0.00     0.009 A 
ATOM     68  C   UNL A   1      48.756  26.385  29.087  1.00  0.00     0.009 A 
ATOM     69  C   UNL A   1      49.679  25.284  31.480  1.00  0.00     0.001 A 
ATOM     70  C   UNL A   1      50.064  25.910  29.177  1.00  0.00     0.001 A 
ATOM     71  C   UNL A   1      50.527  25.367  30.375  1.00  0.00     0.000 A 
ENDBRANCH  53  66
ENDBRANCH  27  28
ENDBRANCH  20  22
ENDBRANCH  19  20
ENDBRANCH   1  19
TORSDOF 12
ENDMDL
MODEL 3
REMARK VINA RESULT:     -10.4      5.550     10.566
REMARK SMILES C[C@H]1CC[C@@]1(C(=O)OCCOC(=O)c1ccc(-c2c3nc(c(-c4ccccc4)c4ccc([nH]4)c(-c4ccccc4)c4nc(c(-c5ccccc5)c5ccc2[nH]5)C=C4)C=C3)cc1)c1ccc(Cl)cc1Cl
REMARK SMILES IDX 10 1 9 2 8 3 6 4 7 5 5 6 1 7 2 8 3 9 4 10 62 11 63 12 68 13
REMARK SMILES IDX 64 14 67 15 69 16 65 17 66 18 11 19 12 20 13 21 14 22 15 23
REMARK SMILES IDX 61 24 16 25 60 26 17 27 18 28 19 29 54 30 20 31 59 32 53 33
REMARK SMILES IDX 55 34 21 35 58 36 52 37 51 38 22 40 44 41 29 42 43 43 30 44
REMARK SMILES IDX 33 45 42 46 56 47 31 48 32 49 41 51 57 52 34 53 23 54 24 55
REMARK SMILES IDX 28 56 25 57 27 58 26 59 45 60 46 61 50 62 47 63 49 64 48 65
REMARK SMILES IDX 35 66 36 67 40 68 37 69 39 70 38 71
REMARK H PARENT 55 39 33 50
REMARK Flexibility Score: inf
ROOT
ATOM      1  C   UNL A   1      33.523  33.081  27.994  1.00  0.00     0.275 C 
ENDROOT
BRANCH   1   2
ATOM      2  C   UNL A   1      33.788  34.178  29.018  1.00  0.00     0.274 C 
BRANCH   2   3
ATOM      3  O   UNL A   1      34.345  33.591  30.212  1.00  0.00    -0.461 OA
BRANCH   3   4
ATOM      4  C   UNL A   1      34.769  34.426  31.197  1.00  0.00     0.317 C 
ATOM      5  O   UNL A   1      34.212  35.510  31.386  1.00  0.00    -0.251 OA
BRANCH   4   6
ATOM      6  C   UNL A   1      36.051  33.875  32.066  1.00  0.00     0.097 C 
ATOM      7  C   UNL A   1      36.476  31.150  32.861  1.00  0.00     0.009 C 
ATOM      8  C   UNL A   1      35.637  32.396  32.634  1.00  0.00     0.008 C 
ATOM      9  C   UNL A   1      35.207  33.097  33.940  1.00  0.00     0.006 C 
ATOM     10  C   UNL A   1      36.069  34.311  33.569  1.00  0.00     0.024 C 
BRANCH   6  11
ATOM     11  C   UNL A   1      37.508  34.099  31.273  1.00  0.00    -0.012 A 
ATOM     12  C   UNL A   1      37.588  34.072  29.859  1.00  0.00     0.008 A 
ATOM     13  C   UNL A   1      38.781  34.246  31.891  1.00  0.00     0.046 A 
ATOM     14  C   UNL A   1      38.761  34.308  29.127  1.00  0.00     0.021 A 
ATOM     15  C   UNL A   1      39.949  34.577  31.175  1.00  0.00     0.041 A 
ATOM     16  Cl  UNL A   1      39.056  33.825  33.551  1.00  0.00    -0.084 Cl
ATOM     17  C   UNL A   1      39.930  34.617  29.793  1.00  0.00     0.042 A 
ATOM     18  Cl  UNL A   1      41.359  34.961  28.904  1.00  0.00    -0.084 Cl
ENDBRANCH   6  11
ENDBRANCH   4   6
ENDBRANCH   3   4
ENDBRANCH   2   3
ENDBRANCH   1   2
BRANCH   1  19
ATOM     19  O   UNL A   1      34.702  32.270  27.847  1.00  0.00    -0.458 OA
BRANCH  19  20
ATOM     20  C   UNL A   1      34.513  30.934  27.860  1.00  0.00     0.338 C 
ATOM     21  O   UNL A   1      33.496  30.310  27.600  1.00  0.00    -0.246 OA
BRANCH  20  22
ATOM     22  C   UNL A   1      35.791  30.292  28.189  1.00  0.00     0.060 A 
ATOM     23  C   UNL A   1      35.952  29.725  29.453  1.00  0.00     0.016 A 
ATOM     24  C   UNL A   1      36.846  30.312  27.278  1.00  0.00     0.016 A 
ATOM     25  C   UNL A   1      37.179  29.179  29.824  1.00  0.00     0.010 A 
ATOM     26  C   UNL A   1      38.070  29.744  27.641  1.00  0.00     0.010 A 
ATOM     27  C   UNL A   1      38.249  29.188  28.922  1.00  0.00    -0.014 A 
BRANCH  27  28
ATOM     28  C   UNL A   1      39.579  28.680  29.341  1.00  0.00     0.031 A 
ATOM     29  C   UNL A   1      40.436  29.507  30.256  1.00  0.00     0.074 A 
ATOM     30  C   UNL A   1      40.011  27.478  28.919  1.00  0.00     0.049 A 
ATOM     31  N   UNL A   1      41.669  29.300  30.643  1.00  0.00    -0.248 NA
ATOM     32  C   UNL A   1      39.825  30.728  30.805  1.00  0.00     0.031 C 
ATOM     33  C   UNL A   1      39.255  26.549  28.077  1.00  0.00     0.029 A 
ATOM     34  N   UNL A   1      41.202  26.833  29.144  1.00  0.00    -0.354 N 
ATOM     35  C   UNL A   1      41.994  30.382  31.452  1.00  0.00     0.074 A 
ATOM     36  C   UNL A   1      40.831  31.243  31.498  1.00  0.00     0.031 C 
ATOM     37  C   UNL A   1      39.997  25.449  27.866  1.00  0.00     0.029 A 
ATOM     38  C   UNL A   1      41.297  25.618  28.509  1.00  0.00     0.049 A 
ATOM     39  H   UNL A   1      41.919  27.204  29.708  1.00  0.00     0.167 HD
ATOM     40  C   UNL A   1      43.159  30.638  32.095  1.00  0.00     0.031 A 
ATOM     41  C   UNL A   1      42.325  24.754  28.428  1.00  0.00     0.031 A 
ATOM     42  C   UNL A   1      44.312  29.781  32.061  1.00  0.00     0.049 A 
ATOM     43  C   UNL A   1      43.625  25.086  29.107  1.00  0.00     0.074 A 
ATOM     44  C   UNL A   1      45.540  29.960  32.675  1.00  0.00     0.029 A 
ATOM     45  N   UNL A   1      44.378  28.577  31.378  1.00  0.00    -0.354 N 
ATOM     46  N   UNL A   1      43.932  26.130  29.837  1.00  0.00    -0.248 NA
ATOM     47  C   UNL A   1      44.723  24.122  28.939  1.00  0.00     0.031 C 
ATOM     48  C   UNL A   1      46.361  28.879  32.335  1.00  0.00     0.029 A 
ATOM     49  C   UNL A   1      45.629  28.007  31.545  1.00  0.00     0.049 A 
ATOM     50  H   UNL A   1      43.644  28.184  30.852  1.00  0.00     0.167 HD
ATOM     51  C   UNL A   1      45.252  25.943  30.227  1.00  0.00     0.074 A 
ATOM     52  C   UNL A   1      45.681  24.677  29.668  1.00  0.00     0.031 C 
ATOM     53  C   UNL A   1      46.040  26.750  30.979  1.00  0.00     0.031 A 
BRANCH  40  54
ATOM     54  C   UNL A   1      43.251  31.929  32.856  1.00  0.00    -0.014 A 
ATOM     55  C   UNL A   1      42.872  32.011  34.204  1.00  0.00     0.009 A 
ATOM     56  C   UNL A   1      43.744  33.076  32.214  1.00  0.00     0.009 A 
ATOM     57  C   UNL A   1      42.956  33.228  34.886  1.00  0.00     0.001 A 
ATOM     58  C   UNL A   1      43.850  34.283  32.905  1.00  0.00     0.001 A 
ATOM     59  C   UNL A   1      43.448  34.360  34.237  1.00  0.00     0.000 A 
ENDBRANCH  40  54
BRANCH  41  60
ATOM     60  C   UNL A   1      42.183  23.504  27.641  1.00  0.00    -0.014 A 
ATOM     61  C   UNL A   1      41.645  22.349  28.226  1.00  0.00     0.009 A 
ATOM     62  C   UNL A   1      42.591  23.459  26.299  1.00  0.00     0.009 A 
ATOM     63  C   UNL A   1      41.535  21.168  27.488  1.00  0.00     0.001 A 
ATOM     64  C   UNL A   1      42.455  22.285  25.555  1.00  0.00     0.001 A 
ATOM     65  C   UNL A   1      41.934  21.139  26.152  1.00  0.00     0.000 A 
ENDBRANCH  41  60
BRANCH  53  66
ATOM     66  C   UNL A   1      47.434  26.272  31.260  1.00  0.00    -0.014 A 
ATOM     67  C   UNL A   1      47.749  25.623  32.463  1.00  0.00     0.009 A 
ATOM     68  C   UNL A   1      48.438  26.449  30.295  1.00  0.00     0.009 A 
ATOM     69  C   UNL A   1      49.052  25.185  32.707  1.00  0.00     0.001 A 
ATOM     70  C   UNL A   1      49.734  25.990  30.533  1.00  0.00     0.001 A 
ATOM     71  C   UNL A   1      50.042  25.367  31.740  1.00  0.00     0.000 A 
ENDBRANCH  53  66
ENDBRANCH  27  28
ENDBRANCH  20  22
ENDBRANCH  19  20
ENDBRANCH   1  19
TORSDOF 12
ENDMDL
