MODEL 1
REMARK VINA RESULT:     -11.9      0.000      0.000
REMARK SMILES C[N@@H+]1CC2(CC[NH+](C(=O)c3cc(-c4ccncc4)n[nH]3)CC2)C[C@H]1C(=O)OCCOC(=O)c1ccc(-c2c3nc(c(-c4ccccc4)c4ccc([nH]4)c(-c4ccccc4)c4nc(c(-c5ccccc5)c5ccc2[nH]5)C=C4)C=C3)cc1
REMARK SMILES IDX 28 1 27 2 25 3 26 4 24 5 1 6 2 7 3 8 4 10 23 11 5 12 22 13
REMARK SMILES IDX 6 14 21 15 7 16 8 18 9 19 10 20 11 21 20 22 12 23 19 24
REMARK SMILES IDX 13 26 14 27 18 28 15 29 17 30 16 31 29 32 30 33 31 34 32 35
REMARK SMILES IDX 33 36 34 37 80 38 35 39 79 40 36 41 37 42 38 43 73 44 39 45
REMARK SMILES IDX 78 46 72 47 74 48 40 49 77 50 71 51 70 52 41 54 63 55 48 56
REMARK SMILES IDX 62 57 49 58 52 59 61 60 75 61 50 62 51 63 60 65 76 66 53 67
REMARK SMILES IDX 42 68 43 69 47 70 44 71 46 72 45 73 64 74 65 75 69 76 66 77
REMARK SMILES IDX 68 78 67 79 54 80 55 81 59 82 56 83 58 84 57 85
REMARK H PARENT 2 9 7 17 20 25 74 53 52 64
REMARK Flexibility Score: inf
ROOT
ATOM      1  C   UNL A   1      36.377  22.325  23.906  1.00  0.00     0.274 C 
ENDROOT
BRANCH   1   2
ATOM      2  O   UNL A   1      35.003  21.919  24.042  1.00  0.00    -0.458 OA
BRANCH   2   3
ATOM      3  C   UNL A   1      34.062  22.748  23.514  1.00  0.00     0.365 C 
ATOM      4  O   UNL A   1      34.143  23.270  22.406  1.00  0.00    -0.245 OA
BRANCH   3   5
ATOM      5  C   UNL A   1      32.867  23.008  24.449  1.00  0.00     0.295 C 
ATOM      6  C   UNL A   1      32.239  22.591  26.780  1.00  0.00     0.333 C 
ATOM      7  N   UNL A   1      33.248  23.126  25.871  1.00  0.00    -0.325 N 
ATOM      8  C   UNL A   1      33.502  24.551  26.115  1.00  0.00     0.270 C 
ATOM      9  H   UNL A   1      34.080  22.565  26.057  1.00  0.00     0.348 HD
ATOM     10  C   UNL A   1      32.684  25.353  25.075  1.00  0.00     0.036 C 
ATOM     11  C   UNL A   1      32.151  24.295  24.094  1.00  0.00     0.091 C 
ATOM     12  C   UNL A   1      33.587  26.360  24.325  1.00  0.00     0.075 C 
ATOM     13  C   UNL A   1      31.492  26.103  25.722  1.00  0.00     0.075 C 
ATOM     14  C   UNL A   1      33.985  27.526  25.221  1.00  0.00     0.271 C 
ATOM     15  C   UNL A   1      31.925  27.316  26.546  1.00  0.00     0.271 C 
ATOM     16  N   UNL A   1      32.786  28.175  25.745  1.00  0.00    -0.266 N 
ATOM     17  H   UNL A   1      33.225  27.444  26.237  1.00  0.00     0.357 HD
BRANCH  16  18
ATOM     18  C   UNL A   1      32.472  29.524  25.610  1.00  0.00     0.362 C 
ATOM     19  O   UNL A   1      31.672  29.924  24.768  1.00  0.00    -0.224 OA
BRANCH  18  20
ATOM     20  C   UNL A   1      33.101  30.447  26.512  1.00  0.00     0.163 A 
ATOM     21  C   UNL A   1      32.614  31.508  27.249  1.00  0.00     0.068 A 
ATOM     22  N   UNL A   1      34.416  30.351  26.866  1.00  0.00    -0.269 N 
ATOM     23  C   UNL A   1      33.737  32.061  27.913  1.00  0.00     0.093 A 
ATOM     24  N   UNL A   1      34.848  31.367  27.631  1.00  0.00    -0.175 NA
ATOM     25  H   UNL A   1      34.995  29.605  26.586  1.00  0.00     0.190 HD
BRANCH  23  26
ATOM     26  C   UNL A   1      33.766  33.233  28.773  1.00  0.00     0.005 A 
ATOM     27  C   UNL A   1      33.179  34.429  28.362  1.00  0.00     0.030 A 
ATOM     28  C   UNL A   1      34.389  33.170  30.019  1.00  0.00     0.030 A 
ATOM     29  C   UNL A   1      33.243  35.513  29.219  1.00  0.00     0.111 A 
ATOM     30  C   UNL A   1      34.409  34.312  30.798  1.00  0.00     0.111 A 
ATOM     31  N   UNL A   1      33.854  35.485  30.423  1.00  0.00    -0.265 NA
ENDBRANCH  23  26
ENDBRANCH  18  20
ENDBRANCH  16  18
ENDBRANCH   3   5
ENDBRANCH   2   3
ENDBRANCH   1   2
BRANCH   1  32
ATOM     32  C   UNL A   1      37.316  21.273  24.498  1.00  0.00     0.275 C 
BRANCH  32  33
ATOM     33  O   UNL A   1      37.685  21.620  25.845  1.00  0.00    -0.458 OA
BRANCH  33  34
ATOM     34  C   UNL A   1      38.999  21.473  26.130  1.00  0.00     0.338 C 
ATOM     35  O   UNL A   1      39.720  20.524  25.876  1.00  0.00    -0.246 OA
BRANCH  34  36
ATOM     36  C   UNL A   1      39.514  22.706  26.739  1.00  0.00     0.060 A 
ATOM     37  C   UNL A   1      38.991  23.919  26.294  1.00  0.00     0.016 A 
ATOM     38  C   UNL A   1      40.608  22.683  27.604  1.00  0.00     0.016 A 
ATOM     39  C   UNL A   1      39.574  25.122  26.672  1.00  0.00     0.010 A 
ATOM     40  C   UNL A   1      41.193  23.893  27.993  1.00  0.00     0.010 A 
ATOM     41  C   UNL A   1      40.703  25.117  27.497  1.00  0.00    -0.014 A 
BRANCH  41  42
ATOM     42  C   UNL A   1      41.449  26.383  27.702  1.00  0.00     0.031 A 
ATOM     43  C   UNL A   1      40.895  27.415  28.648  1.00  0.00     0.074 A 
ATOM     44  C   UNL A   1      42.641  26.580  27.112  1.00  0.00     0.049 A 
ATOM     45  N   UNL A   1      41.352  28.608  28.934  1.00  0.00    -0.248 NA
ATOM     46  C   UNL A   1      39.662  27.055  29.368  1.00  0.00     0.031 C 
ATOM     47  C   UNL A   1      43.324  25.626  26.237  1.00  0.00     0.029 A 
ATOM     48  N   UNL A   1      43.497  27.651  27.172  1.00  0.00    -0.354 N 
ATOM     49  C   UNL A   1      40.443  29.154  29.832  1.00  0.00     0.074 A 
ATOM     50  C   UNL A   1      39.405  28.168  30.039  1.00  0.00     0.031 C 
ATOM     51  C   UNL A   1      44.502  26.148  25.856  1.00  0.00     0.029 A 
ATOM     52  C   UNL A   1      44.633  27.490  26.418  1.00  0.00     0.049 A 
ATOM     53  H   UNL A   1      43.315  28.458  27.707  1.00  0.00     0.167 HD
ATOM     54  C   UNL A   1      40.469  30.368  30.432  1.00  0.00     0.031 A 
ATOM     55  C   UNL A   1      45.652  28.339  26.188  1.00  0.00     0.031 A 
ATOM     56  C   UNL A   1      41.515  31.338  30.247  1.00  0.00     0.049 A 
ATOM     57  C   UNL A   1      45.631  29.701  26.826  1.00  0.00     0.074 A 
ATOM     58  C   UNL A   1      41.634  32.597  30.810  1.00  0.00     0.029 A 
ATOM     59  N   UNL A   1      42.627  31.152  29.441  1.00  0.00    -0.354 N 
ATOM     60  N   UNL A   1      44.753  30.215  27.653  1.00  0.00    -0.248 NA
ATOM     61  C   UNL A   1      46.749  30.599  26.500  1.00  0.00     0.031 C 
ATOM     62  C   UNL A   1      42.801  33.189  30.314  1.00  0.00     0.029 A 
ATOM     63  C   UNL A   1      43.432  32.278  29.483  1.00  0.00     0.049 A 
ATOM     64  H   UNL A   1      42.817  30.341  28.917  1.00  0.00     0.167 HD
ATOM     65  C   UNL A   1      45.228  31.483  27.969  1.00  0.00     0.074 A 
ATOM     66  C   UNL A   1      46.477  31.652  27.258  1.00  0.00     0.031 C 
ATOM     67  C   UNL A   1      44.678  32.422  28.777  1.00  0.00     0.031 A 
BRANCH  54  68
ATOM     68  C   UNL A   1      39.306  30.732  31.310  1.00  0.00    -0.014 A 
ATOM     69  C   UNL A   1      39.219  30.288  32.639  1.00  0.00     0.009 A 
ATOM     70  C   UNL A   1      38.290  31.556  30.801  1.00  0.00     0.009 A 
ATOM     71  C   UNL A   1      38.121  30.638  33.429  1.00  0.00     0.001 A 
ATOM     72  C   UNL A   1      37.207  31.925  31.601  1.00  0.00     0.001 A 
ATOM     73  C   UNL A   1      37.120  31.458  32.912  1.00  0.00     0.000 A 
ENDBRANCH  54  68
BRANCH  55  74
ATOM     74  C   UNL A   1      46.773  27.945  25.294  1.00  0.00    -0.014 A 
ATOM     75  C   UNL A   1      46.714  28.202  23.917  1.00  0.00     0.009 A 
ATOM     76  C   UNL A   1      47.893  27.276  25.811  1.00  0.00     0.009 A 
ATOM     77  C   UNL A   1      47.739  27.771  23.072  1.00  0.00     0.001 A 
ATOM     78  C   UNL A   1      48.932  26.873  24.969  1.00  0.00     0.001 A 
ATOM     79  C   UNL A   1      48.848  27.110  23.598  1.00  0.00     0.000 A 
ENDBRANCH  55  74
BRANCH  67  80
ATOM     80  C   UNL A   1      45.459  33.691  28.975  1.00  0.00    -0.014 A 
ATOM     81  C   UNL A   1      45.265  34.809  28.150  1.00  0.00     0.009 A 
ATOM     82  C   UNL A   1      46.393  33.769  30.021  1.00  0.00     0.009 A 
ATOM     83  C   UNL A   1      46.023  35.966  28.342  1.00  0.00     0.001 A 
ATOM     84  C   UNL A   1      47.128  34.937  30.228  1.00  0.00     0.001 A 
ATOM     85  C   UNL A   1      46.951  36.030  29.382  1.00  0.00     0.000 A 
ENDBRANCH  67  80
ENDBRANCH  41  42
ENDBRANCH  34  36
ENDBRANCH  33  34
ENDBRANCH  32  33
ENDBRANCH   1  32
TORSDOF 14
ENDMDL
MODEL 2
REMARK VINA RESULT:     -11.3      1.530      6.203
REMARK SMILES C[N@@H+]1CC2(CC[NH+](C(=O)c3cc(-c4ccncc4)n[nH]3)CC2)C[C@H]1C(=O)OCCOC(=O)c1ccc(-c2c3nc(c(-c4ccccc4)c4ccc([nH]4)c(-c4ccccc4)c4nc(c(-c5ccccc5)c5ccc2[nH]5)C=C4)C=C3)cc1
REMARK SMILES IDX 28 1 27 2 25 3 26 4 24 5 1 6 2 7 3 8 4 10 23 11 5 12 22 13
REMARK SMILES IDX 6 14 21 15 7 16 8 18 9 19 10 20 11 21 20 22 12 23 19 24
REMARK SMILES IDX 13 26 14 27 18 28 15 29 17 30 16 31 29 32 30 33 31 34 32 35
REMARK SMILES IDX 33 36 34 37 80 38 35 39 79 40 36 41 37 42 38 43 73 44 39 45
REMARK SMILES IDX 78 46 72 47 74 48 40 49 77 50 71 51 70 52 41 54 63 55 48 56
REMARK SMILES IDX 62 57 49 58 52 59 61 60 75 61 50 62 51 63 60 65 76 66 53 67
REMARK SMILES IDX 42 68 43 69 47 70 44 71 46 72 45 73 64 74 65 75 69 76 66 77
REMARK SMILES IDX 68 78 67 79 54 80 55 81 59 82 56 83 58 84 57 85
REMARK H PARENT 2 9 7 17 20 25 74 53 52 64
REMARK Flexibility Score: inf
ROOT
ATOM      1  C   UNL A   1      37.804  20.891  25.421  1.00  0.00     0.274 C 
ENDROOT
BRANCH   1   2
ATOM      2  O   UNL A   1      36.595  20.180  25.097  1.00  0.00    -0.458 OA
BRANCH   2   3
ATOM      3  C   UNL A   1      35.420  20.787  25.419  1.00  0.00     0.365 C 
ATOM      4  O   UNL A   1      35.157  21.240  26.529  1.00  0.00    -0.245 OA
BRANCH   3   5
ATOM      5  C   UNL A   1      34.408  20.839  24.260  1.00  0.00     0.295 C 
ATOM      6  C   UNL A   1      32.459  19.582  23.472  1.00  0.00     0.333 C 
ATOM      7  N   UNL A   1      33.095  20.255  24.601  1.00  0.00    -0.325 N 
ATOM      8  C   UNL A   1      32.272  21.357  25.114  1.00  0.00     0.270 C 
ATOM      9  H   UNL A   1      33.210  19.522  25.301  1.00  0.00     0.348 HD
ATOM     10  C   UNL A   1      32.823  22.669  24.507  1.00  0.00     0.036 C 
ATOM     11  C   UNL A   1      34.137  22.263  23.819  1.00  0.00     0.091 C 
ATOM     12  C   UNL A   1      33.107  23.710  25.616  1.00  0.00     0.075 C 
ATOM     13  C   UNL A   1      31.859  23.276  23.457  1.00  0.00     0.075 C 
ATOM     14  C   UNL A   1      31.815  24.273  26.195  1.00  0.00     0.271 C 
ATOM     15  C   UNL A   1      30.614  23.907  24.082  1.00  0.00     0.271 C 
ATOM     16  N   UNL A   1      31.005  24.846  25.123  1.00  0.00    -0.266 N 
ATOM     17  H   UNL A   1      30.899  23.906  25.394  1.00  0.00     0.357 HD
BRANCH  16  18
ATOM     18  C   UNL A   1      30.529  26.153  25.080  1.00  0.00     0.362 C 
ATOM     19  O   UNL A   1      29.340  26.407  24.911  1.00  0.00    -0.224 OA
BRANCH  18  20
ATOM     20  C   UNL A   1      31.480  27.214  25.265  1.00  0.00     0.163 A 
ATOM     21  C   UNL A   1      32.063  27.756  26.393  1.00  0.00     0.068 A 
ATOM     22  N   UNL A   1      32.066  27.868  24.220  1.00  0.00    -0.269 N 
ATOM     23  C   UNL A   1      32.886  28.812  25.929  1.00  0.00     0.093 A 
ATOM     24  N   UNL A   1      32.842  28.899  24.592  1.00  0.00    -0.175 NA
ATOM     25  H   UNL A   1      31.933  27.607  23.279  1.00  0.00     0.190 HD
BRANCH  23  26
ATOM     26  C   UNL A   1      33.676  29.733  26.728  1.00  0.00     0.005 A 
ATOM     27  C   UNL A   1      33.133  30.944  27.157  1.00  0.00     0.030 A 
ATOM     28  C   UNL A   1      34.990  29.414  27.070  1.00  0.00     0.030 A 
ATOM     29  C   UNL A   1      33.933  31.785  27.911  1.00  0.00     0.111 A 
ATOM     30  C   UNL A   1      35.711  30.328  27.817  1.00  0.00     0.111 A 
ATOM     31  N   UNL A   1      35.213  31.509  28.242  1.00  0.00    -0.265 NA
ENDBRANCH  23  26
ENDBRANCH  18  20
ENDBRANCH  16  18
ENDBRANCH   3   5
ENDBRANCH   2   3
ENDBRANCH   1   2
BRANCH   1  32
ATOM     32  C   UNL A   1      38.973  19.921  25.600  1.00  0.00     0.275 C 
BRANCH  32  33
ATOM     33  O   UNL A   1      40.212  20.639  25.749  1.00  0.00    -0.458 OA
BRANCH  33  34
ATOM     34  C   UNL A   1      40.729  20.627  26.998  1.00  0.00     0.338 C 
ATOM     35  O   UNL A   1      41.101  19.664  27.647  1.00  0.00    -0.246 OA
BRANCH  34  36
ATOM     36  C   UNL A   1      40.887  22.005  27.482  1.00  0.00     0.060 A 
ATOM     37  C   UNL A   1      40.235  23.018  26.781  1.00  0.00     0.016 A 
ATOM     38  C   UNL A   1      41.792  22.315  28.496  1.00  0.00     0.016 A 
ATOM     39  C   UNL A   1      40.506  24.353  27.054  1.00  0.00     0.010 A 
ATOM     40  C   UNL A   1      42.062  23.659  28.779  1.00  0.00     0.010 A 
ATOM     41  C   UNL A   1      41.449  24.685  28.033  1.00  0.00    -0.014 A 
BRANCH  41  42
ATOM     42  C   UNL A   1      41.897  26.094  28.151  1.00  0.00     0.031 A 
ATOM     43  C   UNL A   1      43.134  26.535  27.414  1.00  0.00     0.074 A 
ATOM     44  C   UNL A   1      41.171  26.989  28.845  1.00  0.00     0.049 A 
ATOM     45  N   UNL A   1      43.732  27.699  27.419  1.00  0.00    -0.248 NA
ATOM     46  C   UNL A   1      43.783  25.529  26.556  1.00  0.00     0.031 C 
ATOM     47  C   UNL A   1      39.913  26.708  29.537  1.00  0.00     0.029 A 
ATOM     48  N   UNL A   1      41.385  28.325  29.069  1.00  0.00    -0.354 N 
ATOM     49  C   UNL A   1      44.846  27.554  26.602  1.00  0.00     0.074 A 
ATOM     50  C   UNL A   1      44.847  26.189  26.123  1.00  0.00     0.031 C 
ATOM     51  C   UNL A   1      39.458  27.842  30.095  1.00  0.00     0.029 A 
ATOM     52  C   UNL A   1      40.416  28.915  29.842  1.00  0.00     0.049 A 
ATOM     53  H   UNL A   1      42.159  28.815  28.708  1.00  0.00     0.167 HD
ATOM     54  C   UNL A   1      45.785  28.474  26.278  1.00  0.00     0.031 A 
ATOM     55  C   UNL A   1      40.324  30.173  30.313  1.00  0.00     0.031 A 
ATOM     56  C   UNL A   1      45.770  29.838  26.733  1.00  0.00     0.049 A 
ATOM     57  C   UNL A   1      41.408  31.162  29.980  1.00  0.00     0.074 A 
ATOM     58  C   UNL A   1      46.675  30.849  26.460  1.00  0.00     0.029 A 
ATOM     59  N   UNL A   1      44.793  30.385  27.550  1.00  0.00    -0.354 N 
ATOM     60  N   UNL A   1      42.471  31.004  29.228  1.00  0.00    -0.248 NA
ATOM     61  C   UNL A   1      41.275  32.506  30.562  1.00  0.00     0.031 C 
ATOM     62  C   UNL A   1      46.265  31.999  27.145  1.00  0.00     0.029 A 
ATOM     63  C   UNL A   1      45.079  31.716  27.801  1.00  0.00     0.049 A 
ATOM     64  H   UNL A   1      44.012  29.899  27.899  1.00  0.00     0.167 HD
ATOM     65  C   UNL A   1      43.115  32.236  29.221  1.00  0.00     0.074 A 
ATOM     66  C   UNL A   1      42.315  33.132  30.030  1.00  0.00     0.031 C 
ATOM     67  C   UNL A   1      44.265  32.594  28.599  1.00  0.00     0.031 A 
BRANCH  54  68
ATOM     68  C   UNL A   1      46.936  28.019  25.425  1.00  0.00    -0.014 A 
ATOM     69  C   UNL A   1      48.141  27.575  25.990  1.00  0.00     0.009 A 
ATOM     70  C   UNL A   1      46.797  28.014  24.028  1.00  0.00     0.009 A 
ATOM     71  C   UNL A   1      49.196  27.164  25.170  1.00  0.00     0.001 A 
ATOM     72  C   UNL A   1      47.842  27.578  23.212  1.00  0.00     0.001 A 
ATOM     73  C   UNL A   1      49.044  27.162  23.784  1.00  0.00     0.000 A 
ENDBRANCH  54  68
BRANCH  55  74
ATOM     74  C   UNL A   1      39.179  30.574  31.171  1.00  0.00    -0.014 A 
ATOM     75  C   UNL A   1      38.039  31.170  30.612  1.00  0.00     0.009 A 
ATOM     76  C   UNL A   1      39.235  30.393  32.562  1.00  0.00     0.009 A 
ATOM     77  C   UNL A   1      36.993  31.604  31.430  1.00  0.00     0.001 A 
ATOM     78  C   UNL A   1      38.175  30.799  33.375  1.00  0.00     0.001 A 
ATOM     79  C   UNL A   1      37.061  31.416  32.810  1.00  0.00     0.000 A 
ENDBRANCH  55  74
BRANCH  67  80
ATOM     80  C   UNL A   1      44.690  34.030  28.726  1.00  0.00    -0.014 A 
ATOM     81  C   UNL A   1      45.542  34.454  29.756  1.00  0.00     0.009 A 
ATOM     82  C   UNL A   1      44.240  34.968  27.784  1.00  0.00     0.009 A 
ATOM     83  C   UNL A   1      45.901  35.800  29.864  1.00  0.00     0.001 A 
ATOM     84  C   UNL A   1      44.623  36.307  27.878  1.00  0.00     0.001 A 
ATOM     85  C   UNL A   1      45.444  36.723  28.925  1.00  0.00     0.000 A 
ENDBRANCH  67  80
ENDBRANCH  41  42
ENDBRANCH  34  36
ENDBRANCH  33  34
ENDBRANCH  32  33
ENDBRANCH   1  32
TORSDOF 14
ENDMDL
MODEL 3
REMARK VINA RESULT:     -11.2      4.198      8.995
REMARK SMILES C[N@@H+]1CC2(CC[NH+](C(=O)c3cc(-c4ccncc4)n[nH]3)CC2)C[C@H]1C(=O)OCCOC(=O)c1ccc(-c2c3nc(c(-c4ccccc4)c4ccc([nH]4)c(-c4ccccc4)c4nc(c(-c5ccccc5)c5ccc2[nH]5)C=C4)C=C3)cc1
REMARK SMILES IDX 28 1 27 2 25 3 26 4 24 5 1 6 2 7 3 8 4 10 23 11 5 12 22 13
REMARK SMILES IDX 6 14 21 15 7 16 8 18 9 19 10 20 11 21 20 22 12 23 19 24
REMARK SMILES IDX 13 26 14 27 18 28 15 29 17 30 16 31 29 32 30 33 31 34 32 35
REMARK SMILES IDX 33 36 34 37 80 38 35 39 79 40 36 41 37 42 38 43 73 44 39 45
REMARK SMILES IDX 78 46 72 47 74 48 40 49 77 50 71 51 70 52 41 54 63 55 48 56
REMARK SMILES IDX 62 57 49 58 52 59 61 60 75 61 50 62 51 63 60 65 76 66 53 67
REMARK SMILES IDX 42 68 43 69 47 70 44 71 46 72 45 73 64 74 65 75 69 76 66 77
REMARK SMILES IDX 68 78 67 79 54 80 55 81 59 82 56 83 58 84 57 85
REMARK H PARENT 2 9 7 17 20 25 74 53 52 64
REMARK Flexibility Score: inf
ROOT
ATOM      1  C   UNL A   1      34.582  31.969  27.644  1.00  0.00     0.274 C 
ENDROOT
BRANCH   1   2
ATOM      2  O   UNL A   1      33.725  30.936  28.164  1.00  0.00    -0.458 OA
BRANCH   2   3
ATOM      3  C   UNL A   1      33.622  29.794  27.430  1.00  0.00     0.365 C 
ATOM      4  O   UNL A   1      34.525  28.971  27.302  1.00  0.00    -0.245 OA
BRANCH   3   5
ATOM      5  C   UNL A   1      32.261  29.622  26.733  1.00  0.00     0.295 C 
ATOM      6  C   UNL A   1      30.792  30.895  25.242  1.00  0.00     0.333 C 
ATOM      7  N   UNL A   1      32.141  30.392  25.478  1.00  0.00    -0.325 N 
ATOM      8  C   UNL A   1      32.589  29.500  24.401  1.00  0.00     0.270 C 
ATOM      9  H   UNL A   1      32.720  31.231  25.527  1.00  0.00     0.348 HD
ATOM     10  C   UNL A   1      32.369  28.046  24.882  1.00  0.00     0.036 C 
ATOM     11  C   UNL A   1      31.999  28.175  26.369  1.00  0.00     0.091 C 
ATOM     12  C   UNL A   1      33.666  27.216  24.731  1.00  0.00     0.075 C 
ATOM     13  C   UNL A   1      31.213  27.348  24.122  1.00  0.00     0.075 C 
ATOM     14  C   UNL A   1      33.964  26.910  23.269  1.00  0.00     0.271 C 
ATOM     15  C   UNL A   1      31.578  26.981  22.684  1.00  0.00     0.271 C 
ATOM     16  N   UNL A   1      32.823  26.226  22.667  1.00  0.00    -0.266 N 
ATOM     17  H   UNL A   1      32.900  27.207  22.640  1.00  0.00     0.357 HD
BRANCH  16  18
ATOM     18  C   UNL A   1      32.866  24.991  22.028  1.00  0.00     0.362 C 
ATOM     19  O   UNL A   1      33.053  24.891  20.818  1.00  0.00    -0.224 OA
BRANCH  18  20
ATOM     20  C   UNL A   1      32.708  23.816  22.839  1.00  0.00     0.163 A 
ATOM     21  C   UNL A   1      32.914  22.474  22.586  1.00  0.00     0.068 A 
ATOM     22  N   UNL A   1      32.356  23.873  24.157  1.00  0.00    -0.269 N 
ATOM     23  C   UNL A   1      32.537  21.798  23.773  1.00  0.00     0.093 A 
ATOM     24  N   UNL A   1      32.151  22.669  24.716  1.00  0.00    -0.175 NA
ATOM     25  H   UNL A   1      32.261  24.719  24.652  1.00  0.00     0.190 HD
BRANCH  23  26
ATOM     26  C   UNL A   1      32.516  20.364  24.004  1.00  0.00     0.005 A 
ATOM     27  C   UNL A   1      32.672  19.850  25.291  1.00  0.00     0.030 A 
ATOM     28  C   UNL A   1      32.345  19.486  22.934  1.00  0.00     0.030 A 
ATOM     29  C   UNL A   1      32.650  18.476  25.450  1.00  0.00     0.111 A 
ATOM     30  C   UNL A   1      32.349  18.128  23.196  1.00  0.00     0.111 A 
ATOM     31  N   UNL A   1      32.502  17.603  24.430  1.00  0.00    -0.265 NA
ENDBRANCH  23  26
ENDBRANCH  18  20
ENDBRANCH  16  18
ENDBRANCH   3   5
ENDBRANCH   2   3
ENDBRANCH   1   2
BRANCH   1  32
ATOM     32  C   UNL A   1      33.968  33.350  27.873  1.00  0.00     0.275 C 
BRANCH  32  33
ATOM     33  O   UNL A   1      33.378  33.435  29.183  1.00  0.00    -0.458 OA
BRANCH  33  34
ATOM     34  C   UNL A   1      33.955  34.337  30.010  1.00  0.00     0.338 C 
ATOM     35  O   UNL A   1      33.555  35.450  30.302  1.00  0.00    -0.246 OA
BRANCH  34  36
ATOM     36  C   UNL A   1      35.151  33.748  30.626  1.00  0.00     0.060 A 
ATOM     37  C   UNL A   1      36.396  34.176  30.169  1.00  0.00     0.016 A 
ATOM     38  C   UNL A   1      35.054  32.675  31.512  1.00  0.00     0.016 A 
ATOM     39  C   UNL A   1      37.556  33.517  30.556  1.00  0.00     0.010 A 
ATOM     40  C   UNL A   1      36.221  32.013  31.909  1.00  0.00     0.010 A 
ATOM     41  C   UNL A   1      37.475  32.407  31.402  1.00  0.00    -0.014 A 
BRANCH  41  42
ATOM     42  C   UNL A   1      38.685  31.578  31.619  1.00  0.00     0.031 A 
ATOM     43  C   UNL A   1      39.571  31.868  32.802  1.00  0.00     0.074 A 
ATOM     44  C   UNL A   1      38.954  30.532  30.817  1.00  0.00     0.049 A 
ATOM     45  N   UNL A   1      40.701  31.307  33.149  1.00  0.00    -0.248 NA
ATOM     46  C   UNL A   1      39.123  32.933  33.715  1.00  0.00     0.031 C 
ATOM     47  C   UNL A   1      38.133  30.096  29.686  1.00  0.00     0.029 A 
ATOM     48  N   UNL A   1      39.992  29.635  30.842  1.00  0.00    -0.354 N 
ATOM     49  C   UNL A   1      41.117  31.976  34.294  1.00  0.00     0.074 A 
ATOM     50  C   UNL A   1      40.125  32.989  34.579  1.00  0.00     0.031 C 
ATOM     51  C   UNL A   1      38.691  29.005  29.136  1.00  0.00     0.029 A 
ATOM     52  C   UNL A   1      39.932  28.696  29.842  1.00  0.00     0.049 A 
ATOM     53  H   UNL A   1      40.711  29.662  31.515  1.00  0.00     0.167 HD
ATOM     54  C   UNL A   1      42.227  31.767  35.042  1.00  0.00     0.031 A 
ATOM     55  C   UNL A   1      40.792  27.712  29.520  1.00  0.00     0.031 A 
ATOM     56  C   UNL A   1      43.201  30.743  34.774  1.00  0.00     0.049 A 
ATOM     57  C   UNL A   1      42.043  27.534  30.336  1.00  0.00     0.074 A 
ATOM     58  C   UNL A   1      44.359  30.448  35.472  1.00  0.00     0.029 A 
ATOM     59  N   UNL A   1      43.123  29.839  33.726  1.00  0.00    -0.354 N 
ATOM     60  N   UNL A   1      42.438  28.191  31.400  1.00  0.00    -0.248 NA
ATOM     61  C   UNL A   1      42.965  26.473  29.906  1.00  0.00     0.031 C 
ATOM     62  C   UNL A   1      45.003  29.389  34.823  1.00  0.00     0.029 A 
ATOM     63  C   UNL A   1      44.219  28.992  33.752  1.00  0.00     0.049 A 
ATOM     64  H   UNL A   1      42.398  29.803  33.062  1.00  0.00     0.167 HD
ATOM     65  C   UNL A   1      43.637  27.602  31.784  1.00  0.00     0.074 A 
ATOM     66  C   UNL A   1      43.896  26.527  30.848  1.00  0.00     0.031 C 
ATOM     67  C   UNL A   1      44.452  27.922  32.819  1.00  0.00     0.031 A 
BRANCH  54  68
ATOM     68  C   UNL A   1      42.470  32.697  36.197  1.00  0.00    -0.014 A 
ATOM     69  C   UNL A   1      42.019  32.398  37.491  1.00  0.00     0.009 A 
ATOM     70  C   UNL A   1      43.186  33.886  35.984  1.00  0.00     0.009 A 
ATOM     71  C   UNL A   1      42.254  33.286  38.544  1.00  0.00     0.001 A 
ATOM     72  C   UNL A   1      43.442  34.759  37.043  1.00  0.00     0.001 A 
ATOM     73  C   UNL A   1      42.968  34.462  38.320  1.00  0.00     0.000 A 
ENDBRANCH  54  68
BRANCH  55  74
ATOM     74  C   UNL A   1      40.522  26.829  28.355  1.00  0.00    -0.014 A 
ATOM     75  C   UNL A   1      39.710  25.693  28.491  1.00  0.00     0.009 A 
ATOM     76  C   UNL A   1      41.105  27.098  27.107  1.00  0.00     0.009 A 
ATOM     77  C   UNL A   1      39.513  24.830  27.411  1.00  0.00     0.001 A 
ATOM     78  C   UNL A   1      40.882  26.251  26.020  1.00  0.00     0.001 A 
ATOM     79  C   UNL A   1      40.096  25.112  26.176  1.00  0.00     0.000 A 
ENDBRANCH  55  74
BRANCH  67  80
ATOM     80  C   UNL A   1      45.666  27.060  33.022  1.00  0.00    -0.014 A 
ATOM     81  C   UNL A   1      46.901  27.382  32.440  1.00  0.00     0.009 A 
ATOM     82  C   UNL A   1      45.570  25.914  33.828  1.00  0.00     0.009 A 
ATOM     83  C   UNL A   1      48.006  26.549  32.626  1.00  0.00     0.001 A 
ATOM     84  C   UNL A   1      46.684  25.098  34.035  1.00  0.00     0.001 A 
ATOM     85  C   UNL A   1      47.898  25.411  33.424  1.00  0.00     0.000 A 
ENDBRANCH  67  80
ENDBRANCH  41  42
ENDBRANCH  34  36
ENDBRANCH  33  34
ENDBRANCH  32  33
ENDBRANCH   1  32
TORSDOF 14
ENDMDL
