MODEL 1
REMARK VINA RESULT:     -11.1      0.000      0.000
REMARK SMILES O=C(C[C@H](C(=O)OCCOC(=O)c1ccc(-c2c3nc(c(-c4ccccc4)c4ccc([nH]4)c(-c4ccccc4)c4nc(c(-c5ccccc5)c5ccc2[nH]5)C=C4)C=C3)cc1)c1ccccc1)Nc1ccc(Cl)cc1Cl
REMARK SMILES IDX 8 1 7 2 5 3 6 4 4 5 3 6 2 7 1 8 67 9 68 11 69 12 74 13 70 14
REMARK SMILES IDX 73 15 75 16 71 17 72 18 61 19 62 20 66 21 63 22 65 23 64 24
REMARK SMILES IDX 9 25 10 26 11 27 12 28 13 29 14 30 60 31 15 32 59 33 16 34
REMARK SMILES IDX 17 35 18 36 53 37 19 38 58 39 52 40 54 41 20 42 57 43 51 44
REMARK SMILES IDX 50 45 21 47 43 48 28 49 42 50 29 51 32 52 41 53 55 54 30 55
REMARK SMILES IDX 31 56 40 58 56 59 33 60 22 61 23 62 27 63 24 64 26 65 25 66
REMARK SMILES IDX 44 67 45 68 49 69 46 70 48 71 47 72 34 73 35 74 39 75 36 76
REMARK SMILES IDX 38 77 37 78
REMARK H PARENT 67 10 54 46 32 57
REMARK Flexibility Score: inf
ROOT
ATOM      1  C   UNL A   1      32.232  29.291  27.186  1.00  0.00     0.274 C 
ENDROOT
BRANCH   1   2
ATOM      2  O   UNL A   1      32.467  28.737  25.874  1.00  0.00    -0.462 OA
BRANCH   2   3
ATOM      3  C   UNL A   1      31.477  27.938  25.385  1.00  0.00     0.314 C 
ATOM      4  O   UNL A   1      30.942  27.053  26.039  1.00  0.00    -0.252 OA
BRANCH   3   5
ATOM      5  C   UNL A   1      31.233  28.155  23.890  1.00  0.00     0.138 C 
BRANCH   5   6
ATOM      6  C   UNL A   1      31.313  26.879  23.026  1.00  0.00     0.120 C 
BRANCH   6   7
ATOM      7  C   UNL A   1      32.624  26.113  23.065  1.00  0.00     0.225 C 
ATOM      8  O   UNL A   1      33.516  26.392  22.270  1.00  0.00    -0.275 OA
ATOM      9  N   UNL A   1      32.654  25.115  24.020  1.00  0.00    -0.325 N 
ATOM     10  H   UNL A   1      31.842  24.991  24.563  1.00  0.00     0.169 HD
BRANCH   9  11
ATOM     11  C   UNL A   1      33.745  24.253  24.290  1.00  0.00     0.060 A 
ATOM     12  C   UNL A   1      34.786  24.829  25.040  1.00  0.00     0.029 A 
ATOM     13  C   UNL A   1      33.883  22.917  23.866  1.00  0.00     0.066 A 
ATOM     14  C   UNL A   1      35.901  24.077  25.422  1.00  0.00     0.023 A 
ATOM     15  C   UNL A   1      35.000  22.165  24.259  1.00  0.00     0.043 A 
ATOM     16  Cl  UNL A   1      32.861  22.175  22.683  1.00  0.00    -0.082 Cl
ATOM     17  C   UNL A   1      35.994  22.744  25.041  1.00  0.00     0.042 A 
ATOM     18  Cl  UNL A   1      37.368  21.820  25.506  1.00  0.00    -0.084 Cl
ENDBRANCH   9  11
ENDBRANCH   6   7
ENDBRANCH   5   6
BRANCH   5  19
ATOM     19  C   UNL A   1      29.945  28.908  23.565  1.00  0.00    -0.033 A 
ATOM     20  C   UNL A   1      29.839  30.297  23.745  1.00  0.00     0.004 A 
ATOM     21  C   UNL A   1      28.819  28.209  23.102  1.00  0.00     0.004 A 
ATOM     22  C   UNL A   1      28.640  30.965  23.490  1.00  0.00     0.000 A 
ATOM     23  C   UNL A   1      27.620  28.879  22.846  1.00  0.00     0.000 A 
ATOM     24  C   UNL A   1      27.529  30.255  23.044  1.00  0.00     0.000 A 
ENDBRANCH   5  19
ENDBRANCH   3   5
ENDBRANCH   2   3
ENDBRANCH   1   2
BRANCH   1  25
ATOM     25  C   UNL A   1      32.797  30.702  27.289  1.00  0.00     0.275 C 
BRANCH  25  26
ATOM     26  O   UNL A   1      34.233  30.655  27.247  1.00  0.00    -0.458 OA
BRANCH  26  27
ATOM     27  C   UNL A   1      34.863  31.070  28.367  1.00  0.00     0.338 C 
ATOM     28  O   UNL A   1      34.506  31.935  29.148  1.00  0.00    -0.246 OA
BRANCH  27  29
ATOM     29  C   UNL A   1      36.125  30.333  28.529  1.00  0.00     0.060 A 
ATOM     30  C   UNL A   1      36.471  29.766  29.757  1.00  0.00     0.016 A 
ATOM     31  C   UNL A   1      37.024  30.311  27.464  1.00  0.00     0.016 A 
ATOM     32  C   UNL A   1      37.747  29.238  29.946  1.00  0.00     0.010 A 
ATOM     33  C   UNL A   1      38.274  29.716  27.632  1.00  0.00     0.010 A 
ATOM     34  C   UNL A   1      38.661  29.205  28.884  1.00  0.00    -0.014 A 
BRANCH  34  35
ATOM     35  C   UNL A   1      40.037  28.669  29.051  1.00  0.00     0.031 A 
ATOM     36  C   UNL A   1      41.153  29.594  29.458  1.00  0.00     0.074 A 
ATOM     37  C   UNL A   1      40.306  27.377  28.779  1.00  0.00     0.049 A 
ATOM     38  N   UNL A   1      42.447  29.399  29.417  1.00  0.00    -0.248 NA
ATOM     39  C   UNL A   1      40.761  30.918  29.968  1.00  0.00     0.031 C 
ATOM     40  C   UNL A   1      39.318  26.357  28.428  1.00  0.00     0.029 A 
ATOM     41  N   UNL A   1      41.505  26.712  28.734  1.00  0.00    -0.354 N 
ATOM     42  C   UNL A   1      43.022  30.591  29.841  1.00  0.00     0.074 A 
ATOM     43  C   UNL A   1      41.938  31.502  30.143  1.00  0.00     0.031 C 
ATOM     44  C   UNL A   1      39.953  25.196  28.194  1.00  0.00     0.029 A 
ATOM     45  C   UNL A   1      41.391  25.410  28.314  1.00  0.00     0.049 A 
ATOM     46  H   UNL A   1      42.364  27.128  28.978  1.00  0.00     0.167 HD
ATOM     47  C   UNL A   1      44.335  30.899  29.960  1.00  0.00     0.031 A 
ATOM     48  C   UNL A   1      42.337  24.503  28.007  1.00  0.00     0.031 A 
ATOM     49  C   UNL A   1      45.412  29.982  29.700  1.00  0.00     0.049 A 
ATOM     50  C   UNL A   1      43.787  24.886  28.099  1.00  0.00     0.074 A 
ATOM     51  C   UNL A   1      46.773  30.196  29.825  1.00  0.00     0.029 A 
ATOM     52  N   UNL A   1      45.246  28.676  29.271  1.00  0.00    -0.354 N 
ATOM     53  N   UNL A   1      44.319  26.021  28.478  1.00  0.00    -0.248 NA
ATOM     54  C   UNL A   1      44.766  23.862  27.705  1.00  0.00     0.031 C 
ATOM     55  C   UNL A   1      47.436  29.025  29.437  1.00  0.00     0.029 A 
ATOM     56  C   UNL A   1      46.483  28.076  29.107  1.00  0.00     0.049 A 
ATOM     57  H   UNL A   1      44.379  28.239  29.108  1.00  0.00     0.167 HD
ATOM     58  C   UNL A   1      45.692  25.842  28.389  1.00  0.00     0.074 A 
ATOM     59  C   UNL A   1      45.914  24.487  27.931  1.00  0.00     0.031 C 
ATOM     60  C   UNL A   1      46.684  26.724  28.663  1.00  0.00     0.031 A 
BRANCH  47  61
ATOM     61  C   UNL A   1      44.689  32.303  30.355  1.00  0.00    -0.014 A 
ATOM     62  C   UNL A   1      44.767  32.687  31.701  1.00  0.00     0.009 A 
ATOM     63  C   UNL A   1      45.013  33.237  29.357  1.00  0.00     0.009 A 
ATOM     64  C   UNL A   1      45.147  33.989  32.039  1.00  0.00     0.001 A 
ATOM     65  C   UNL A   1      45.409  34.530  29.700  1.00  0.00     0.001 A 
ATOM     66  C   UNL A   1      45.472  34.906  31.040  1.00  0.00     0.000 A 
ENDBRANCH  47  61
BRANCH  48  67
ATOM     67  C   UNL A   1      41.945  23.155  27.519  1.00  0.00    -0.014 A 
ATOM     68  C   UNL A   1      41.612  22.139  28.426  1.00  0.00     0.009 A 
ATOM     69  C   UNL A   1      41.925  22.875  26.144  1.00  0.00     0.009 A 
ATOM     70  C   UNL A   1      41.289  20.861  27.964  1.00  0.00     0.001 A 
ATOM     71  C   UNL A   1      41.577  21.605  25.685  1.00  0.00     0.001 A 
ATOM     72  C   UNL A   1      41.269  20.596  26.596  1.00  0.00     0.000 A 
ENDBRANCH  48  67
BRANCH  60  73
ATOM     73  C   UNL A   1      48.094  26.237  28.514  1.00  0.00    -0.014 A 
ATOM     74  C   UNL A   1      48.789  25.686  29.601  1.00  0.00     0.009 A 
ATOM     75  C   UNL A   1      48.718  26.291  27.258  1.00  0.00     0.009 A 
ATOM     76  C   UNL A   1      50.093  25.219  29.437  1.00  0.00     0.001 A 
ATOM     77  C   UNL A   1      50.014  25.804  27.094  1.00  0.00     0.001 A 
ATOM     78  C   UNL A   1      50.703  25.274  28.184  1.00  0.00     0.000 A 
ENDBRANCH  60  73
ENDBRANCH  34  35
ENDBRANCH  27  29
ENDBRANCH  26  27
ENDBRANCH  25  26
ENDBRANCH   1  25
TORSDOF 15
ENDMDL
MODEL 2
REMARK VINA RESULT:     -11.0      1.655      4.162
REMARK SMILES O=C(C[C@H](C(=O)OCCOC(=O)c1ccc(-c2c3nc(c(-c4ccccc4)c4ccc([nH]4)c(-c4ccccc4)c4nc(c(-c5ccccc5)c5ccc2[nH]5)C=C4)C=C3)cc1)c1ccccc1)Nc1ccc(Cl)cc1Cl
REMARK SMILES IDX 8 1 7 2 5 3 6 4 4 5 3 6 2 7 1 8 67 9 68 11 69 12 74 13 70 14
REMARK SMILES IDX 73 15 75 16 71 17 72 18 61 19 62 20 66 21 63 22 65 23 64 24
REMARK SMILES IDX 9 25 10 26 11 27 12 28 13 29 14 30 60 31 15 32 59 33 16 34
REMARK SMILES IDX 17 35 18 36 53 37 19 38 58 39 52 40 54 41 20 42 57 43 51 44
REMARK SMILES IDX 50 45 21 47 43 48 28 49 42 50 29 51 32 52 41 53 55 54 30 55
REMARK SMILES IDX 31 56 40 58 56 59 33 60 22 61 23 62 27 63 24 64 26 65 25 66
REMARK SMILES IDX 44 67 45 68 49 69 46 70 48 71 47 72 34 73 35 74 39 75 36 76
REMARK SMILES IDX 38 77 37 78
REMARK H PARENT 67 10 54 46 32 57
REMARK Flexibility Score: inf
ROOT
ATOM      1  C   UNL A   1      33.353  29.181  26.045  1.00  0.00     0.274 C 
ENDROOT
BRANCH   1   2
ATOM      2  O   UNL A   1      34.044  27.931  26.247  1.00  0.00    -0.462 OA
BRANCH   2   3
ATOM      3  C   UNL A   1      34.014  27.064  25.196  1.00  0.00     0.314 C 
ATOM      4  O   UNL A   1      34.066  27.422  24.027  1.00  0.00    -0.252 OA
BRANCH   3   5
ATOM      5  C   UNL A   1      33.738  25.623  25.631  1.00  0.00     0.138 C 
BRANCH   5   6
ATOM      6  C   UNL A   1      32.282  25.152  25.434  1.00  0.00     0.120 C 
BRANCH   6   7
ATOM      7  C   UNL A   1      31.228  26.238  25.307  1.00  0.00     0.225 C 
ATOM      8  O   UNL A   1      30.655  26.652  26.310  1.00  0.00    -0.275 OA
ATOM      9  N   UNL A   1      30.998  26.636  24.004  1.00  0.00    -0.325 N 
ATOM     10  H   UNL A   1      31.517  26.184  23.299  1.00  0.00     0.169 HD
BRANCH   9  11
ATOM     11  C   UNL A   1      30.084  27.634  23.586  1.00  0.00     0.060 A 
ATOM     12  C   UNL A   1      30.668  28.861  23.222  1.00  0.00     0.029 A 
ATOM     13  C   UNL A   1      28.682  27.515  23.527  1.00  0.00     0.066 A 
ATOM     14  C   UNL A   1      29.889  29.917  22.743  1.00  0.00     0.023 A 
ATOM     15  C   UNL A   1      27.905  28.576  23.038  1.00  0.00     0.043 A 
ATOM     16  Cl  UNL A   1      27.798  26.207  24.236  1.00  0.00    -0.082 Cl
ATOM     17  C   UNL A   1      28.511  29.763  22.640  1.00  0.00     0.042 A 
ATOM     18  Cl  UNL A   1      27.551  31.064  22.055  1.00  0.00    -0.084 Cl
ENDBRANCH   9  11
ENDBRANCH   6   7
ENDBRANCH   5   6
BRANCH   5  19
ATOM     19  C   UNL A   1      34.691  24.591  25.033  1.00  0.00    -0.033 A 
ATOM     20  C   UNL A   1      35.902  24.257  25.662  1.00  0.00     0.004 A 
ATOM     21  C   UNL A   1      34.382  23.972  23.813  1.00  0.00     0.004 A 
ATOM     22  C   UNL A   1      36.786  23.347  25.079  1.00  0.00     0.000 A 
ATOM     23  C   UNL A   1      35.266  23.061  23.231  1.00  0.00     0.000 A 
ATOM     24  C   UNL A   1      36.470  22.752  23.861  1.00  0.00     0.000 A 
ENDBRANCH   5  19
ENDBRANCH   3   5
ENDBRANCH   2   3
ENDBRANCH   1   2
BRANCH   1  25
ATOM     25  C   UNL A   1      33.302  29.988  27.337  1.00  0.00     0.275 C 
BRANCH  25  26
ATOM     26  O   UNL A   1      34.391  30.926  27.368  1.00  0.00    -0.458 OA
BRANCH  26  27
ATOM     27  C   UNL A   1      34.943  31.138  28.582  1.00  0.00     0.338 C 
ATOM     28  O   UNL A   1      34.523  31.845  29.480  1.00  0.00    -0.246 OA
BRANCH  27  29
ATOM     29  C   UNL A   1      36.208  30.394  28.688  1.00  0.00     0.060 A 
ATOM     30  C   UNL A   1      36.653  29.912  29.920  1.00  0.00     0.016 A 
ATOM     31  C   UNL A   1      37.010  30.281  27.553  1.00  0.00     0.016 A 
ATOM     32  C   UNL A   1      37.936  29.378  30.036  1.00  0.00     0.010 A 
ATOM     33  C   UNL A   1      38.264  29.679  27.657  1.00  0.00     0.010 A 
ATOM     34  C   UNL A   1      38.754  29.254  28.905  1.00  0.00    -0.014 A 
BRANCH  34  35
ATOM     35  C   UNL A   1      40.134  28.709  28.992  1.00  0.00     0.031 A 
ATOM     36  C   UNL A   1      41.284  29.635  29.285  1.00  0.00     0.074 A 
ATOM     37  C   UNL A   1      40.371  27.406  28.746  1.00  0.00     0.049 A 
ATOM     38  N   UNL A   1      42.570  29.425  29.159  1.00  0.00    -0.248 NA
ATOM     39  C   UNL A   1      40.940  30.980  29.776  1.00  0.00     0.031 C 
ATOM     40  C   UNL A   1      39.352  26.385  28.502  1.00  0.00     0.029 A 
ATOM     41  N   UNL A   1      41.559  26.726  28.639  1.00  0.00    -0.354 N 
ATOM     42  C   UNL A   1      43.183  30.624  29.499  1.00  0.00     0.074 A 
ATOM     43  C   UNL A   1      42.131  31.557  29.845  1.00  0.00     0.031 C 
ATOM     44  C   UNL A   1      39.959  25.211  28.264  1.00  0.00     0.029 A 
ATOM     45  C   UNL A   1      41.404  25.412  28.273  1.00  0.00     0.049 A 
ATOM     46  H   UNL A   1      42.436  27.141  28.806  1.00  0.00     0.167 HD
ATOM     47  C   UNL A   1      44.503  30.922  29.512  1.00  0.00     0.031 A 
ATOM     48  C   UNL A   1      42.318  24.485  27.931  1.00  0.00     0.031 A 
ATOM     49  C   UNL A   1      45.551  29.986  29.208  1.00  0.00     0.049 A 
ATOM     50  C   UNL A   1      43.773  24.855  27.906  1.00  0.00     0.074 A 
ATOM     51  C   UNL A   1      46.920  30.189  29.229  1.00  0.00     0.029 A 
ATOM     52  N   UNL A   1      45.345  28.667  28.839  1.00  0.00    -0.354 N 
ATOM     53  N   UNL A   1      44.341  25.997  28.206  1.00  0.00    -0.248 NA
ATOM     54  C   UNL A   1      44.714  23.808  27.479  1.00  0.00     0.031 C 
ATOM     55  C   UNL A   1      47.544  28.999  28.835  1.00  0.00     0.029 A 
ATOM     56  C   UNL A   1      46.562  28.049  28.607  1.00  0.00     0.049 A 
ATOM     57  H   UNL A   1      44.464  28.235  28.753  1.00  0.00     0.167 HD
ATOM     58  C   UNL A   1      45.703  25.801  28.026  1.00  0.00     0.074 A 
ATOM     59  C   UNL A   1      45.880  24.429  27.600  1.00  0.00     0.031 C 
ATOM     60  C   UNL A   1      46.719  26.681  28.197  1.00  0.00     0.031 A 
BRANCH  47  61
ATOM     61  C   UNL A   1      44.897  32.335  29.832  1.00  0.00    -0.014 A 
ATOM     62  C   UNL A   1      44.982  33.316  28.834  1.00  0.00     0.009 A 
ATOM     63  C   UNL A   1      45.124  32.700  31.169  1.00  0.00     0.009 A 
ATOM     64  C   UNL A   1      45.304  34.633  29.167  1.00  0.00     0.001 A 
ATOM     65  C   UNL A   1      45.427  34.021  31.501  1.00  0.00     0.001 A 
ATOM     66  C   UNL A   1      45.521  34.985  30.500  1.00  0.00     0.000 A 
ENDBRANCH  47  61
BRANCH  48  67
ATOM     67  C   UNL A   1      41.881  23.126  27.520  1.00  0.00    -0.014 A 
ATOM     68  C   UNL A   1      41.498  22.871  26.195  1.00  0.00     0.009 A 
ATOM     69  C   UNL A   1      41.824  22.084  28.458  1.00  0.00     0.009 A 
ATOM     70  C   UNL A   1      41.044  21.604  25.824  1.00  0.00     0.001 A 
ATOM     71  C   UNL A   1      41.395  20.812  28.078  1.00  0.00     0.001 A 
ATOM     72  C   UNL A   1      40.996  20.576  26.764  1.00  0.00     0.000 A 
ENDBRANCH  48  67
BRANCH  60  73
ATOM     73  C   UNL A   1      48.111  26.173  27.965  1.00  0.00    -0.014 A 
ATOM     74  C   UNL A   1      48.824  25.523  28.983  1.00  0.00     0.009 A 
ATOM     75  C   UNL A   1      48.697  26.310  26.697  1.00  0.00     0.009 A 
ATOM     76  C   UNL A   1      50.110  25.040  28.741  1.00  0.00     0.001 A 
ATOM     77  C   UNL A   1      49.974  25.807  26.453  1.00  0.00     0.001 A 
ATOM     78  C   UNL A   1      50.683  25.178  27.476  1.00  0.00     0.000 A 
ENDBRANCH  60  73
ENDBRANCH  34  35
ENDBRANCH  27  29
ENDBRANCH  26  27
ENDBRANCH  25  26
ENDBRANCH   1  25
TORSDOF 15
ENDMDL
MODEL 3
REMARK VINA RESULT:     -10.9      0.922      1.494
REMARK SMILES O=C(C[C@H](C(=O)OCCOC(=O)c1ccc(-c2c3nc(c(-c4ccccc4)c4ccc([nH]4)c(-c4ccccc4)c4nc(c(-c5ccccc5)c5ccc2[nH]5)C=C4)C=C3)cc1)c1ccccc1)Nc1ccc(Cl)cc1Cl
REMARK SMILES IDX 8 1 7 2 5 3 6 4 4 5 3 6 2 7 1 8 67 9 68 11 69 12 74 13 70 14
REMARK SMILES IDX 73 15 75 16 71 17 72 18 61 19 62 20 66 21 63 22 65 23 64 24
REMARK SMILES IDX 9 25 10 26 11 27 12 28 13 29 14 30 60 31 15 32 59 33 16 34
REMARK SMILES IDX 17 35 18 36 53 37 19 38 58 39 52 40 54 41 20 42 57 43 51 44
REMARK SMILES IDX 50 45 21 47 43 48 28 49 42 50 29 51 32 52 41 53 55 54 30 55
REMARK SMILES IDX 31 56 40 58 56 59 33 60 22 61 23 62 27 63 24 64 26 65 25 66
REMARK SMILES IDX 44 67 45 68 49 69 46 70 48 71 47 72 34 73 35 74 39 75 36 76
REMARK SMILES IDX 38 77 37 78
REMARK H PARENT 67 10 54 46 32 57
REMARK Flexibility Score: inf
ROOT
ATOM      1  C   UNL A   1      33.470  29.097  26.381  1.00  0.00     0.274 C 
ENDROOT
BRANCH   1   2
ATOM      2  O   UNL A   1      33.010  29.181  25.016  1.00  0.00    -0.462 OA
BRANCH   2   3
ATOM      3  C   UNL A   1      31.832  28.550  24.751  1.00  0.00     0.314 C 
ATOM      4  O   UNL A   1      31.290  27.779  25.533  1.00  0.00    -0.252 OA
BRANCH   3   5
ATOM      5  C   UNL A   1      31.356  28.774  23.314  1.00  0.00     0.138 C 
BRANCH   5   6
ATOM      6  C   UNL A   1      31.224  27.493  22.464  1.00  0.00     0.120 C 
BRANCH   6   7
ATOM      7  C   UNL A   1      32.248  26.400  22.720  1.00  0.00     0.225 C 
ATOM      8  O   UNL A   1      33.380  26.507  22.259  1.00  0.00    -0.275 OA
ATOM      9  N   UNL A   1      31.753  25.338  23.452  1.00  0.00    -0.325 N 
ATOM     10  H   UNL A   1      30.807  25.383  23.724  1.00  0.00     0.169 HD
BRANCH   9  11
ATOM     11  C   UNL A   1      32.479  24.189  23.848  1.00  0.00     0.060 A 
ATOM     12  C   UNL A   1      31.986  22.971  23.347  1.00  0.00     0.029 A 
ATOM     13  C   UNL A   1      33.605  24.160  24.694  1.00  0.00     0.066 A 
ATOM     14  C   UNL A   1      32.636  21.764  23.618  1.00  0.00     0.023 A 
ATOM     15  C   UNL A   1      34.258  22.946  24.956  1.00  0.00     0.043 A 
ATOM     16  Cl  UNL A   1      34.132  25.510  25.639  1.00  0.00    -0.082 Cl
ATOM     17  C   UNL A   1      33.778  21.760  24.410  1.00  0.00     0.042 A 
ATOM     18  Cl  UNL A   1      34.575  20.274  24.748  1.00  0.00    -0.084 Cl
ENDBRANCH   9  11
ENDBRANCH   6   7
ENDBRANCH   5   6
BRANCH   5  19
ATOM     19  C   UNL A   1      30.074  29.596  23.196  1.00  0.00    -0.033 A 
ATOM     20  C   UNL A   1      29.846  30.723  24.002  1.00  0.00     0.004 A 
ATOM     21  C   UNL A   1      29.076  29.215  22.287  1.00  0.00     0.004 A 
ATOM     22  C   UNL A   1      28.649  31.436  23.917  1.00  0.00     0.000 A 
ATOM     23  C   UNL A   1      27.879  29.929  22.202  1.00  0.00     0.000 A 
ATOM     24  C   UNL A   1      27.664  31.037  23.020  1.00  0.00     0.000 A 
ENDBRANCH   5  19
ENDBRANCH   3   5
ENDBRANCH   2   3
ENDBRANCH   1   2
BRANCH   1  25
ATOM     25  C   UNL A   1      33.270  30.424  27.104  1.00  0.00     0.275 C 
BRANCH  25  26
ATOM     26  O   UNL A   1      34.535  31.089  27.259  1.00  0.00    -0.458 OA
BRANCH  26  27
ATOM     27  C   UNL A   1      34.996  31.177  28.525  1.00  0.00     0.338 C 
ATOM     28  O   UNL A   1      34.509  31.792  29.457  1.00  0.00    -0.246 OA
BRANCH  27  29
ATOM     29  C   UNL A   1      36.252  30.421  28.648  1.00  0.00     0.060 A 
ATOM     30  C   UNL A   1      36.690  29.959  29.890  1.00  0.00     0.016 A 
ATOM     31  C   UNL A   1      37.055  30.277  27.518  1.00  0.00     0.016 A 
ATOM     32  C   UNL A   1      37.967  29.413  30.020  1.00  0.00     0.010 A 
ATOM     33  C   UNL A   1      38.302  29.664  27.636  1.00  0.00     0.010 A 
ATOM     34  C   UNL A   1      38.785  29.258  28.893  1.00  0.00    -0.014 A 
BRANCH  34  35
ATOM     35  C   UNL A   1      40.159  28.700  28.993  1.00  0.00     0.031 A 
ATOM     36  C   UNL A   1      41.314  29.614  29.305  1.00  0.00     0.074 A 
ATOM     37  C   UNL A   1      40.388  27.397  28.743  1.00  0.00     0.049 A 
ATOM     38  N   UNL A   1      42.599  29.393  29.193  1.00  0.00    -0.248 NA
ATOM     39  C   UNL A   1      40.976  30.959  29.799  1.00  0.00     0.031 C 
ATOM     40  C   UNL A   1      39.363  26.386  28.481  1.00  0.00     0.029 A 
ATOM     41  N   UNL A   1      41.571  26.707  28.646  1.00  0.00    -0.354 N 
ATOM     42  C   UNL A   1      43.219  30.585  29.547  1.00  0.00     0.074 A 
ATOM     43  C   UNL A   1      42.172  31.525  29.886  1.00  0.00     0.031 C 
ATOM     44  C   UNL A   1      39.962  25.207  28.244  1.00  0.00     0.029 A 
ATOM     45  C   UNL A   1      41.408  25.396  28.271  1.00  0.00     0.049 A 
ATOM     46  H   UNL A   1      42.450  27.113  28.826  1.00  0.00     0.167 HD
ATOM     47  C   UNL A   1      44.542  30.870  29.578  1.00  0.00     0.031 A 
ATOM     48  C   UNL A   1      42.318  24.463  27.935  1.00  0.00     0.031 A 
ATOM     49  C   UNL A   1      45.585  29.926  29.281  1.00  0.00     0.049 A 
ATOM     50  C   UNL A   1      43.777  24.820  27.929  1.00  0.00     0.074 A 
ATOM     51  C   UNL A   1      46.956  30.116  29.319  1.00  0.00     0.029 A 
ATOM     52  N   UNL A   1      45.372  28.612  28.902  1.00  0.00    -0.354 N 
ATOM     53  N   UNL A   1      44.351  25.954  28.242  1.00  0.00    -0.248 NA
ATOM     54  C   UNL A   1      44.713  23.766  27.508  1.00  0.00     0.031 C 
ATOM     55  C   UNL A   1      47.573  28.923  28.926  1.00  0.00     0.029 A 
ATOM     56  C   UNL A   1      46.585  27.983  28.682  1.00  0.00     0.049 A 
ATOM     57  H   UNL A   1      44.488  28.188  28.803  1.00  0.00     0.167 HD
ATOM     58  C   UNL A   1      45.713  25.746  28.078  1.00  0.00     0.074 A 
ATOM     59  C   UNL A   1      45.882  24.375  27.646  1.00  0.00     0.031 C 
ATOM     60  C   UNL A   1      46.735  26.616  28.266  1.00  0.00     0.031 A 
BRANCH  47  61
ATOM     61  C   UNL A   1      44.945  32.278  29.910  1.00  0.00    -0.014 A 
ATOM     62  C   UNL A   1      45.041  33.265  28.920  1.00  0.00     0.009 A 
ATOM     63  C   UNL A   1      45.168  32.631  31.251  1.00  0.00     0.009 A 
ATOM     64  C   UNL A   1      45.372  34.578  29.265  1.00  0.00     0.001 A 
ATOM     65  C   UNL A   1      45.479  33.947  31.595  1.00  0.00     0.001 A 
ATOM     66  C   UNL A   1      45.585  34.918  30.601  1.00  0.00     0.000 A 
ENDBRANCH  47  61
BRANCH  48  67
ATOM     67  C   UNL A   1      41.873  23.109  27.511  1.00  0.00    -0.014 A 
ATOM     68  C   UNL A   1      41.543  22.855  26.172  1.00  0.00     0.009 A 
ATOM     69  C   UNL A   1      41.757  22.073  28.450  1.00  0.00     0.009 A 
ATOM     70  C   UNL A   1      41.082  21.595  25.788  1.00  0.00     0.001 A 
ATOM     71  C   UNL A   1      41.321  20.808  28.058  1.00  0.00     0.001 A 
ATOM     72  C   UNL A   1      40.974  20.572  26.729  1.00  0.00     0.000 A 
ENDBRANCH  48  67
BRANCH  60  73
ATOM     73  C   UNL A   1      48.124  26.098  28.048  1.00  0.00    -0.014 A 
ATOM     74  C   UNL A   1      48.729  26.154  26.783  1.00  0.00     0.009 A 
ATOM     75  C   UNL A   1      48.853  25.586  29.132  1.00  0.00     0.009 A 
ATOM     76  C   UNL A   1      50.030  25.686  26.605  1.00  0.00     0.001 A 
ATOM     77  C   UNL A   1      50.161  25.138  28.955  1.00  0.00     0.001 A 
ATOM     78  C   UNL A   1      50.747  25.182  27.690  1.00  0.00     0.000 A 
ENDBRANCH  60  73
ENDBRANCH  34  35
ENDBRANCH  27  29
ENDBRANCH  26  27
ENDBRANCH  25  26
ENDBRANCH   1  25
TORSDOF 15
ENDMDL
