MODEL 1
REMARK VINA RESULT:     -10.0      0.000      0.000
REMARK SMILES CC[N@@H+]1CCO[C@H](C[NH2+][C@@H]2CCC[C@H](C(=O)OCCOC(=O)c3ccc(-c4c5nc(c(-c6ccccc6)c6ccc([nH]6)c(-c6ccccc6)c6nc(c(-c7ccccc7)c7ccc4[nH]7)C=C6)C=C5)cc3)C2)C1
REMARK SMILES IDX 18 1 17 2 15 3 16 4 14 5 10 6 11 7 71 8 12 9 13 10 9 11 8 14
REMARK SMILES IDX 7 15 3 16 4 17 72 18 5 20 6 21 2 22 1 23 19 24 20 25 21 26
REMARK SMILES IDX 22 27 23 28 24 29 70 30 25 31 69 32 26 33 27 34 28 35 63 36
REMARK SMILES IDX 29 37 68 38 62 39 64 40 30 41 67 42 61 43 60 44 31 46 53 47
REMARK SMILES IDX 38 48 52 49 39 50 42 51 51 52 65 53 40 54 41 55 50 57 66 58
REMARK SMILES IDX 43 59 32 60 33 61 37 62 34 63 36 64 35 65 54 66 55 67 59 68
REMARK SMILES IDX 56 69 58 70 57 71 44 72 45 73 49 74 46 75 48 76 47 77
REMARK H PARENT 9 12 9 13 3 19 64 45 42 56
REMARK Flexibility Score: inf
ROOT
ATOM      1  C   UNL A   1      33.673  35.815  28.778  1.00  0.00     0.274 C 
ENDROOT
BRANCH   1   2
ATOM      2  O   UNL A   1      33.909  34.403  28.935  1.00  0.00    -0.462 OA
BRANCH   2   3
ATOM      3  C   UNL A   1      33.315  33.612  28.008  1.00  0.00     0.309 C 
ATOM      4  O   UNL A   1      32.190  33.797  27.555  1.00  0.00    -0.252 OA
BRANCH   3   5
ATOM      5  C   UNL A   1      34.160  32.422  27.578  1.00  0.00     0.105 C 
ATOM      6  C   UNL A   1      33.914  29.899  27.194  1.00  0.00     0.183 C 
ATOM      7  C   UNL A   1      35.263  29.707  27.913  1.00  0.00     0.065 C 
ATOM      8  C   UNL A   1      33.244  31.207  27.610  1.00  0.00     0.080 C 
ATOM      9  C   UNL A   1      36.155  30.945  27.851  1.00  0.00     0.007 C 
ATOM     10  C   UNL A   1      35.428  32.176  28.390  1.00  0.00     0.016 C 
BRANCH   6  11
ATOM     11  N   UNL A   1      33.059  28.774  27.580  1.00  0.00    -0.341 N 
ATOM     12  H   UNL A   1      33.653  28.058  27.995  1.00  0.00     0.346 HD
ATOM     13  H   UNL A   1      32.364  29.165  28.217  1.00  0.00     0.346 HD
BRANCH  11  14
ATOM     14  C   UNL A   1      32.293  28.149  26.500  1.00  0.00     0.299 C 
BRANCH  14  15
ATOM     15  C   UNL A   1      32.300  26.589  26.479  1.00  0.00     0.227 C 
ATOM     16  N   UNL A   1      32.004  25.771  24.080  1.00  0.00    -0.331 N 
ATOM     17  C   UNL A   1      30.705  25.247  24.478  1.00  0.00     0.291 C 
ATOM     18  C   UNL A   1      32.912  25.937  25.213  1.00  0.00     0.300 C 
ATOM     19  H   UNL A   1      32.316  24.987  23.506  1.00  0.00     0.348 HD
ATOM     20  C   UNL A   1      30.109  25.901  25.735  1.00  0.00     0.222 C 
ATOM     21  O   UNL A   1      31.034  25.994  26.825  1.00  0.00    -0.361 OA
BRANCH  16  22
ATOM     22  C   UNL A   1      32.177  26.680  22.965  1.00  0.00     0.258 C 
ATOM     23  C   UNL A   1      33.324  26.421  21.993  1.00  0.00     0.071 C 
ENDBRANCH  16  22
ENDBRANCH  14  15
ENDBRANCH  11  14
ENDBRANCH   6  11
ENDBRANCH   3   5
ENDBRANCH   2   3
ENDBRANCH   1   2
BRANCH   1  24
ATOM     24  C   UNL A   1      32.733  36.359  29.857  1.00  0.00     0.275 C 
BRANCH  24  25
ATOM     25  O   UNL A   1      32.473  35.384  30.885  1.00  0.00    -0.458 OA
BRANCH  25  26
ATOM     26  C   UNL A   1      32.698  35.813  32.146  1.00  0.00     0.338 C 
ATOM     27  O   UNL A   1      32.034  36.611  32.791  1.00  0.00    -0.246 OA
BRANCH  26  28
ATOM     28  C   UNL A   1      33.845  35.105  32.728  1.00  0.00     0.060 A 
ATOM     29  C   UNL A   1      35.110  35.674  32.590  1.00  0.00     0.016 A 
ATOM     30  C   UNL A   1      33.702  33.823  33.251  1.00  0.00     0.016 A 
ATOM     31  C   UNL A   1      36.249  34.949  32.914  1.00  0.00     0.010 A 
ATOM     32  C   UNL A   1      34.846  33.111  33.630  1.00  0.00     0.010 A 
ATOM     33  C   UNL A   1      36.127  33.659  33.437  1.00  0.00    -0.014 A 
BRANCH  33  34
ATOM     34  C   UNL A   1      37.351  32.874  33.722  1.00  0.00     0.031 A 
ATOM     35  C   UNL A   1      38.050  33.033  35.043  1.00  0.00     0.074 A 
ATOM     36  C   UNL A   1      37.807  31.985  32.821  1.00  0.00     0.049 A 
ATOM     37  N   UNL A   1      39.199  32.544  35.431  1.00  0.00    -0.248 NA
ATOM     38  C   UNL A   1      37.367  33.852  36.057  1.00  0.00     0.031 C 
ATOM     39  C   UNL A   1      37.175  31.677  31.536  1.00  0.00     0.029 A 
ATOM     40  N   UNL A   1      38.907  31.168  32.856  1.00  0.00    -0.354 N 
ATOM     41  C   UNL A   1      39.402  33.036  36.714  1.00  0.00     0.074 A 
ATOM     42  C   UNL A   1      38.255  33.855  37.042  1.00  0.00     0.031 C 
ATOM     43  C   UNL A   1      37.884  30.720  30.917  1.00  0.00     0.029 A 
ATOM     44  C   UNL A   1      39.055  30.401  31.727  1.00  0.00     0.049 A 
ATOM     45  H   UNL A   1      39.531  31.134  33.617  1.00  0.00     0.167 HD
ATOM     46  C   UNL A   1      40.456  32.830  37.537  1.00  0.00     0.031 A 
ATOM     47  C   UNL A   1      40.043  29.563  31.366  1.00  0.00     0.031 A 
ATOM     48  C   UNL A   1      41.581  31.992  37.221  1.00  0.00     0.049 A 
ATOM     49  C   UNL A   1      41.224  29.389  32.275  1.00  0.00     0.074 A 
ATOM     50  C   UNL A   1      42.704  31.727  37.984  1.00  0.00     0.029 A 
ATOM     51  N   UNL A   1      41.714  31.270  36.045  1.00  0.00    -0.354 N 
ATOM     52  N   UNL A   1      41.439  29.916  33.455  1.00  0.00    -0.248 NA
ATOM     53  C   UNL A   1      42.307  28.520  31.792  1.00  0.00     0.031 C 
ATOM     54  C   UNL A   1      43.533  30.865  37.257  1.00  0.00     0.029 A 
ATOM     55  C   UNL A   1      42.907  30.568  36.058  1.00  0.00     0.049 A 
ATOM     56  H   UNL A   1      41.058  31.258  35.312  1.00  0.00     0.167 HD
ATOM     57  C   UNL A   1      42.680  29.441  33.859  1.00  0.00     0.074 A 
ATOM     58  C   UNL A   1      43.159  28.567  32.807  1.00  0.00     0.031 C 
ATOM     59  C   UNL A   1      43.364  29.709  34.996  1.00  0.00     0.031 A 
BRANCH  46  60
ATOM     60  C   UNL A   1      40.462  33.570  38.843  1.00  0.00    -0.014 A 
ATOM     61  C   UNL A   1      39.927  33.003  40.009  1.00  0.00     0.009 A 
ATOM     62  C   UNL A   1      41.032  34.851  38.905  1.00  0.00     0.009 A 
ATOM     63  C   UNL A   1      39.939  33.719  41.208  1.00  0.00     0.001 A 
ATOM     64  C   UNL A   1      41.061  35.556  40.109  1.00  0.00     0.001 A 
ATOM     65  C   UNL A   1      40.508  34.992  41.258  1.00  0.00     0.000 A 
ENDBRANCH  46  60
BRANCH  47  66
ATOM     66  C   UNL A   1      39.981  28.868  30.055  1.00  0.00    -0.014 A 
ATOM     67  C   UNL A   1      39.343  27.624  29.938  1.00  0.00     0.009 A 
ATOM     68  C   UNL A   1      40.551  29.452  28.914  1.00  0.00     0.009 A 
ATOM     69  C   UNL A   1      39.289  26.974  28.704  1.00  0.00     0.001 A 
ATOM     70  C   UNL A   1      40.474  28.811  27.677  1.00  0.00     0.001 A 
ATOM     71  C   UNL A   1      39.848  27.570  27.574  1.00  0.00     0.000 A 
ENDBRANCH  47  66
BRANCH  59  72
ATOM     72  C   UNL A   1      44.692  29.034  35.162  1.00  0.00    -0.014 A 
ATOM     73  C   UNL A   1      45.874  29.663  34.743  1.00  0.00     0.009 A 
ATOM     74  C   UNL A   1      44.762  27.771  35.767  1.00  0.00     0.009 A 
ATOM     75  C   UNL A   1      47.104  29.023  34.906  1.00  0.00     0.001 A 
ATOM     76  C   UNL A   1      45.995  27.143  35.944  1.00  0.00     0.001 A 
ATOM     77  C   UNL A   1      47.163  27.766  35.507  1.00  0.00     0.000 A 
ENDBRANCH  59  72
ENDBRANCH  33  34
ENDBRANCH  26  28
ENDBRANCH  25  26
ENDBRANCH  24  25
ENDBRANCH   1  24
TORSDOF 15
ENDMDL
MODEL 2
REMARK VINA RESULT:      -9.7      3.745      7.878
REMARK SMILES CC[N@@H+]1CCO[C@H](C[NH2+][C@@H]2CCC[C@H](C(=O)OCCOC(=O)c3ccc(-c4c5nc(c(-c6ccccc6)c6ccc([nH]6)c(-c6ccccc6)c6nc(c(-c7ccccc7)c7ccc4[nH]7)C=C6)C=C5)cc3)C2)C1
REMARK SMILES IDX 18 1 17 2 15 3 16 4 14 5 10 6 11 7 71 8 12 9 13 10 9 11 8 14
REMARK SMILES IDX 7 15 3 16 4 17 72 18 5 20 6 21 2 22 1 23 19 24 20 25 21 26
REMARK SMILES IDX 22 27 23 28 24 29 70 30 25 31 69 32 26 33 27 34 28 35 63 36
REMARK SMILES IDX 29 37 68 38 62 39 64 40 30 41 67 42 61 43 60 44 31 46 53 47
REMARK SMILES IDX 38 48 52 49 39 50 42 51 51 52 65 53 40 54 41 55 50 57 66 58
REMARK SMILES IDX 43 59 32 60 33 61 37 62 34 63 36 64 35 65 54 66 55 67 59 68
REMARK SMILES IDX 56 69 58 70 57 71 44 72 45 73 49 74 46 75 48 76 47 77
REMARK H PARENT 9 12 9 13 3 19 64 45 42 56
REMARK Flexibility Score: inf
ROOT
ATOM      1  C   UNL A   1      33.719  33.878  28.010  1.00  0.00     0.274 C 
ENDROOT
BRANCH   1   2
ATOM      2  O   UNL A   1      33.155  34.198  29.296  1.00  0.00    -0.462 OA
BRANCH   2   3
ATOM      3  C   UNL A   1      32.962  35.519  29.530  1.00  0.00     0.309 C 
ATOM      4  O   UNL A   1      32.261  36.251  28.840  1.00  0.00    -0.252 OA
BRANCH   3   5
ATOM      5  C   UNL A   1      33.725  36.050  30.734  1.00  0.00     0.105 C 
ATOM      6  C   UNL A   1      34.790  35.183  32.900  1.00  0.00     0.183 C 
ATOM      7  C   UNL A   1      34.183  36.397  33.627  1.00  0.00     0.065 C 
ATOM      8  C   UNL A   1      34.011  34.851  31.627  1.00  0.00     0.080 C 
ATOM      9  C   UNL A   1      33.919  37.581  32.698  1.00  0.00     0.007 C 
ATOM     10  C   UNL A   1      33.042  37.168  31.517  1.00  0.00     0.016 C 
BRANCH   6  11
ATOM     11  N   UNL A   1      34.713  34.048  33.822  1.00  0.00    -0.341 N 
ATOM     12  H   UNL A   1      34.170  34.341  34.633  1.00  0.00     0.346 HD
ATOM     13  H   UNL A   1      34.292  33.288  33.287  1.00  0.00     0.346 HD
BRANCH  11  14
ATOM     14  C   UNL A   1      35.992  33.525  34.306  1.00  0.00     0.299 C 
BRANCH  14  15
ATOM     15  C   UNL A   1      37.268  34.123  33.634  1.00  0.00     0.227 C 
ATOM     16  N   UNL A   1      39.198  32.469  33.853  1.00  0.00    -0.331 N 
ATOM     17  C   UNL A   1      39.844  33.426  34.740  1.00  0.00     0.291 C 
ATOM     18  C   UNL A   1      38.219  33.097  32.968  1.00  0.00     0.300 C 
ATOM     19  H   UNL A   1      40.015  32.187  33.312  1.00  0.00     0.348 HD
ATOM     20  C   UNL A   1      38.890  34.438  35.394  1.00  0.00     0.222 C 
ATOM     21  O   UNL A   1      37.986  35.053  34.467  1.00  0.00    -0.361 OA
BRANCH  16  22
ATOM     22  C   UNL A   1      38.949  31.091  34.230  1.00  0.00     0.258 C 
ATOM     23  C   UNL A   1      37.849  30.330  33.497  1.00  0.00     0.071 C 
ENDBRANCH  16  22
ENDBRANCH  14  15
ENDBRANCH  11  14
ENDBRANCH   6  11
ENDBRANCH   3   5
ENDBRANCH   2   3
ENDBRANCH   1   2
BRANCH   1  24
ATOM     24  C   UNL A   1      33.507  32.407  27.644  1.00  0.00     0.275 C 
BRANCH  24  25
ATOM     25  O   UNL A   1      34.200  31.523  28.545  1.00  0.00    -0.458 OA
BRANCH  25  26
ATOM     26  C   UNL A   1      34.672  30.390  27.981  1.00  0.00     0.338 C 
ATOM     27  O   UNL A   1      34.117  29.683  27.153  1.00  0.00    -0.246 OA
BRANCH  26  28
ATOM     28  C   UNL A   1      36.046  30.133  28.428  1.00  0.00     0.060 A 
ATOM     29  C   UNL A   1      37.082  30.297  27.510  1.00  0.00     0.016 A 
ATOM     30  C   UNL A   1      36.297  29.576  29.681  1.00  0.00     0.016 A 
ATOM     31  C   UNL A   1      38.363  29.854  27.804  1.00  0.00     0.010 A 
ATOM     32  C   UNL A   1      37.601  29.179  29.999  1.00  0.00     0.010 A 
ATOM     33  C   UNL A   1      38.635  29.289  29.053  1.00  0.00    -0.014 A 
BRANCH  33  34
ATOM     34  C   UNL A   1      39.993  28.766  29.332  1.00  0.00     0.031 A 
ATOM     35  C   UNL A   1      40.962  29.591  30.130  1.00  0.00     0.074 A 
ATOM     36  C   UNL A   1      40.340  27.535  28.913  1.00  0.00     0.049 A 
ATOM     37  N   UNL A   1      42.230  29.374  30.366  1.00  0.00    -0.248 NA
ATOM     38  C   UNL A   1      40.436  30.822  30.741  1.00  0.00     0.031 C 
ATOM     39  C   UNL A   1      39.465  26.602  28.200  1.00  0.00     0.029 A 
ATOM     40  N   UNL A   1      41.522  26.853  29.040  1.00  0.00    -0.354 N 
ATOM     41  C   UNL A   1      42.666  30.464  31.108  1.00  0.00     0.074 A 
ATOM     42  C   UNL A   1      41.527  31.338  31.290  1.00  0.00     0.031 C 
ATOM     43  C   UNL A   1      40.133  25.460  27.975  1.00  0.00     0.029 A 
ATOM     44  C   UNL A   1      41.501  25.608  28.462  1.00  0.00     0.049 A 
ATOM     45  H   UNL A   1      42.311  27.221  29.501  1.00  0.00     0.167 HD
ATOM     46  C   UNL A   1      43.908  30.716  31.583  1.00  0.00     0.031 A 
ATOM     47  C   UNL A   1      42.482  24.702  28.308  1.00  0.00     0.031 A 
ATOM     48  C   UNL A   1      45.031  29.833  31.426  1.00  0.00     0.049 A 
ATOM     49  C   UNL A   1      43.862  25.026  28.801  1.00  0.00     0.074 A 
ATOM     50  C   UNL A   1      46.334  30.003  31.862  1.00  0.00     0.029 A 
ATOM     51  N   UNL A   1      44.977  28.601  30.792  1.00  0.00    -0.354 N 
ATOM     52  N   UNL A   1      44.280  26.092  29.438  1.00  0.00    -0.248 NA
ATOM     53  C   UNL A   1      44.909  24.029  28.536  1.00  0.00     0.031 C 
ATOM     54  C   UNL A   1      47.076  28.885  31.466  1.00  0.00     0.029 A 
ATOM     55  C   UNL A   1      46.227  28.006  30.815  1.00  0.00     0.049 A 
ATOM     56  H   UNL A   1      44.171  28.210  30.386  1.00  0.00     0.167 HD
ATOM     57  C   UNL A   1      45.637  25.895  29.653  1.00  0.00     0.074 A 
ATOM     58  C   UNL A   1      45.967  24.598  29.097  1.00  0.00     0.031 C 
ATOM     59  C   UNL A   1      46.531  26.717  30.251  1.00  0.00     0.031 A 
BRANCH  46  60
ATOM     60  C   UNL A   1      44.124  32.031  32.274  1.00  0.00    -0.014 A 
ATOM     61  C   UNL A   1      43.832  32.199  33.636  1.00  0.00     0.009 A 
ATOM     62  C   UNL A   1      44.647  33.112  31.549  1.00  0.00     0.009 A 
ATOM     63  C   UNL A   1      44.037  33.436  34.250  1.00  0.00     0.001 A 
ATOM     64  C   UNL A   1      44.869  34.342  32.171  1.00  0.00     0.001 A 
ATOM     65  C   UNL A   1      44.557  34.505  33.519  1.00  0.00     0.000 A 
ENDBRANCH  46  60
BRANCH  47  66
ATOM     66  C   UNL A   1      42.204  23.424  27.606  1.00  0.00    -0.014 A 
ATOM     67  C   UNL A   1      42.517  23.273  26.247  1.00  0.00     0.009 A 
ATOM     68  C   UNL A   1      41.632  22.344  28.298  1.00  0.00     0.009 A 
ATOM     69  C   UNL A   1      42.251  22.069  25.592  1.00  0.00     0.001 A 
ATOM     70  C   UNL A   1      41.390  21.134  27.646  1.00  0.00     0.001 A 
ATOM     71  C   UNL A   1      41.694  21.000  26.293  1.00  0.00     0.000 A 
ENDBRANCH  47  66
BRANCH  59  72
ATOM     72  C   UNL A   1      47.943  26.224  30.347  1.00  0.00    -0.014 A 
ATOM     73  C   UNL A   1      48.824  26.350  29.262  1.00  0.00     0.009 A 
ATOM     74  C   UNL A   1      48.403  25.655  31.544  1.00  0.00     0.009 A 
ATOM     75  C   UNL A   1      50.137  25.888  29.367  1.00  0.00     0.001 A 
ATOM     76  C   UNL A   1      49.722  25.211  31.650  1.00  0.00     0.001 A 
ATOM     77  C   UNL A   1      50.585  25.322  30.561  1.00  0.00     0.000 A 
ENDBRANCH  59  72
ENDBRANCH  33  34
ENDBRANCH  26  28
ENDBRANCH  25  26
ENDBRANCH  24  25
ENDBRANCH   1  24
TORSDOF 15
ENDMDL
MODEL 3
REMARK VINA RESULT:      -9.6      5.645     10.477
REMARK SMILES CC[N@@H+]1CCO[C@H](C[NH2+][C@@H]2CCC[C@H](C(=O)OCCOC(=O)c3ccc(-c4c5nc(c(-c6ccccc6)c6ccc([nH]6)c(-c6ccccc6)c6nc(c(-c7ccccc7)c7ccc4[nH]7)C=C6)C=C5)cc3)C2)C1
REMARK SMILES IDX 18 1 17 2 15 3 16 4 14 5 10 6 11 7 71 8 12 9 13 10 9 11 8 14
REMARK SMILES IDX 7 15 3 16 4 17 72 18 5 20 6 21 2 22 1 23 19 24 20 25 21 26
REMARK SMILES IDX 22 27 23 28 24 29 70 30 25 31 69 32 26 33 27 34 28 35 63 36
REMARK SMILES IDX 29 37 68 38 62 39 64 40 30 41 67 42 61 43 60 44 31 46 53 47
REMARK SMILES IDX 38 48 52 49 39 50 42 51 51 52 65 53 40 54 41 55 50 57 66 58
REMARK SMILES IDX 43 59 32 60 33 61 37 62 34 63 36 64 35 65 54 66 55 67 59 68
REMARK SMILES IDX 56 69 58 70 57 71 44 72 45 73 49 74 46 75 48 76 47 77
REMARK H PARENT 9 12 9 13 3 19 64 45 42 56
REMARK Flexibility Score: inf
ROOT
ATOM      1  C   UNL A   1      37.369  20.821  24.619  1.00  0.00     0.274 C 
ENDROOT
BRANCH   1   2
ATOM      2  O   UNL A   1      36.912  21.526  25.788  1.00  0.00    -0.462 OA
BRANCH   2   3
ATOM      3  C   UNL A   1      35.833  22.325  25.596  1.00  0.00     0.309 C 
ATOM      4  O   UNL A   1      35.633  23.377  26.195  1.00  0.00    -0.252 OA
BRANCH   3   5
ATOM      5  C   UNL A   1      34.843  21.791  24.573  1.00  0.00     0.105 C 
ATOM      6  C   UNL A   1      33.389  22.648  22.642  1.00  0.00     0.183 C 
ATOM      7  C   UNL A   1      32.246  21.764  23.176  1.00  0.00     0.065 C 
ATOM      8  C   UNL A   1      34.390  22.986  23.746  1.00  0.00     0.080 C 
ATOM      9  C   UNL A   1      32.742  20.573  23.993  1.00  0.00     0.007 C 
ATOM     10  C   UNL A   1      33.648  21.028  25.136  1.00  0.00     0.016 C 
BRANCH   6  11
ATOM     11  N   UNL A   1      32.780  23.885  22.148  1.00  0.00    -0.341 N 
ATOM     12  H   UNL A   1      33.486  24.618  22.188  1.00  0.00     0.346 HD
ATOM     13  H   UNL A   1      32.450  23.671  21.207  1.00  0.00     0.346 HD
BRANCH  11  14
ATOM     14  C   UNL A   1      31.602  24.358  22.879  1.00  0.00     0.299 C 
BRANCH  14  15
ATOM     15  C   UNL A   1      31.755  25.738  23.592  1.00  0.00     0.227 C 
ATOM     16  N   UNL A   1      31.688  25.400  26.120  1.00  0.00    -0.331 N 
ATOM     17  C   UNL A   1      30.420  26.117  26.126  1.00  0.00     0.291 C 
ATOM     18  C   UNL A   1      32.503  25.713  24.948  1.00  0.00     0.300 C 
ATOM     19  H   UNL A   1      32.105  25.821  26.949  1.00  0.00     0.348 HD
ATOM     20  C   UNL A   1      29.688  26.134  24.774  1.00  0.00     0.222 C 
ATOM     21  O   UNL A   1      30.531  26.493  23.672  1.00  0.00    -0.361 OA
BRANCH  16  22
ATOM     22  C   UNL A   1      31.845  24.076  26.690  1.00  0.00     0.258 C 
ATOM     23  C   UNL A   1      30.751  23.044  26.433  1.00  0.00     0.071 C 
ENDBRANCH  16  22
ENDBRANCH  14  15
ENDBRANCH  11  14
ENDBRANCH   6  11
ENDBRANCH   3   5
ENDBRANCH   2   3
ENDBRANCH   1   2
BRANCH   1  24
ATOM     24  C   UNL A   1      38.438  19.780  24.963  1.00  0.00     0.275 C 
BRANCH  24  25
ATOM     25  O   UNL A   1      39.162  20.128  26.159  1.00  0.00    -0.458 OA
BRANCH  25  26
ATOM     26  C   UNL A   1      40.498  19.940  26.090  1.00  0.00     0.338 C 
ATOM     27  O   UNL A   1      41.092  18.981  25.620  1.00  0.00    -0.246 OA
BRANCH  26  28
ATOM     28  C   UNL A   1      41.205  21.125  26.590  1.00  0.00     0.060 A 
ATOM     29  C   UNL A   1      41.298  21.306  27.969  1.00  0.00     0.016 A 
ATOM     30  C   UNL A   1      41.622  22.128  25.718  1.00  0.00     0.016 A 
ATOM     31  C   UNL A   1      41.749  22.509  28.494  1.00  0.00     0.010 A 
ATOM     32  C   UNL A   1      42.129  23.321  26.246  1.00  0.00     0.010 A 
ATOM     33  C   UNL A   1      42.168  23.530  27.637  1.00  0.00    -0.014 A 
BRANCH  33  34
ATOM     34  C   UNL A   1      42.591  24.829  28.208  1.00  0.00     0.031 A 
ATOM     35  C   UNL A   1      41.565  25.890  28.492  1.00  0.00     0.074 A 
ATOM     36  C   UNL A   1      43.884  25.042  28.517  1.00  0.00     0.049 A 
ATOM     37  N   UNL A   1      41.744  27.132  28.861  1.00  0.00    -0.248 NA
ATOM     38  C   UNL A   1      40.154  25.502  28.337  1.00  0.00     0.031 C 
ATOM     39  C   UNL A   1      44.964  24.065  28.367  1.00  0.00     0.029 A 
ATOM     40  N   UNL A   1      44.504  26.149  29.035  1.00  0.00    -0.354 N 
ATOM     41  C   UNL A   1      40.474  27.689  28.934  1.00  0.00     0.074 A 
ATOM     42  C   UNL A   1      39.532  26.648  28.578  1.00  0.00     0.031 C 
ATOM     43  C   UNL A   1      46.110  24.608  28.806  1.00  0.00     0.029 A 
ATOM     44  C   UNL A   1      45.857  25.990  29.201  1.00  0.00     0.049 A 
ATOM     45  H   UNL A   1      44.025  26.978  29.266  1.00  0.00     0.167 HD
ATOM     46  C   UNL A   1      40.128  28.956  29.257  1.00  0.00     0.031 A 
ATOM     47  C   UNL A   1      46.796  26.871  29.590  1.00  0.00     0.031 A 
ATOM     48  C   UNL A   1      41.062  29.980  29.638  1.00  0.00     0.049 A 
ATOM     49  C   UNL A   1      46.393  28.283  29.898  1.00  0.00     0.074 A 
ATOM     50  C   UNL A   1      40.812  31.299  29.975  1.00  0.00     0.029 A 
ATOM     51  N   UNL A   1      42.431  29.790  29.748  1.00  0.00    -0.354 N 
ATOM     52  N   UNL A   1      45.197  28.818  29.893  1.00  0.00    -0.248 NA
ATOM     53  C   UNL A   1      47.474  29.217  30.243  1.00  0.00     0.031 C 
ATOM     54  C   UNL A   1      42.035  31.916  30.260  1.00  0.00     0.029 A 
ATOM     55  C   UNL A   1      43.040  30.971  30.136  1.00  0.00     0.049 A 
ATOM     56  H   UNL A   1      42.900  28.942  29.576  1.00  0.00     0.167 HD
ATOM     57  C   UNL A   1      45.379  30.150  30.238  1.00  0.00     0.074 A 
ATOM     58  C   UNL A   1      46.798  30.337  30.465  1.00  0.00     0.031 C 
ATOM     59  C   UNL A   1      44.454  31.133  30.350  1.00  0.00     0.031 A 
BRANCH  46  60
ATOM     60  C   UNL A   1      38.674  29.317  29.159  1.00  0.00    -0.014 A 
ATOM     61  C   UNL A   1      37.818  29.216  30.266  1.00  0.00     0.009 A 
ATOM     62  C   UNL A   1      38.161  29.784  27.939  1.00  0.00     0.009 A 
ATOM     63  C   UNL A   1      36.468  29.551  30.143  1.00  0.00     0.001 A 
ATOM     64  C   UNL A   1      36.816  30.137  27.825  1.00  0.00     0.001 A 
ATOM     65  C   UNL A   1      35.969  30.013  28.925  1.00  0.00     0.000 A 
ENDBRANCH  46  60
BRANCH  47  66
ATOM     66  C   UNL A   1      48.219  26.452  29.657  1.00  0.00    -0.014 A 
ATOM     67  C   UNL A   1      49.053  26.575  28.536  1.00  0.00     0.009 A 
ATOM     68  C   UNL A   1      48.751  25.935  30.849  1.00  0.00     0.009 A 
ATOM     69  C   UNL A   1      50.389  26.178  28.605  1.00  0.00     0.001 A 
ATOM     70  C   UNL A   1      50.094  25.561  30.921  1.00  0.00     0.001 A 
ATOM     71  C   UNL A   1      50.910  25.678  29.798  1.00  0.00     0.000 A 
ENDBRANCH  47  66
BRANCH  59  72
ATOM     72  C   UNL A   1      44.953  32.488  30.753  1.00  0.00    -0.014 A 
ATOM     73  C   UNL A   1      45.060  32.841  32.106  1.00  0.00     0.009 A 
ATOM     74  C   UNL A   1      45.344  33.408  29.769  1.00  0.00     0.009 A 
ATOM     75  C   UNL A   1      45.528  34.106  32.466  1.00  0.00     0.001 A 
ATOM     76  C   UNL A   1      45.829  34.665  30.134  1.00  0.00     0.001 A 
ATOM     77  C   UNL A   1      45.914  35.014  31.481  1.00  0.00     0.000 A 
ENDBRANCH  59  72
ENDBRANCH  33  34
ENDBRANCH  26  28
ENDBRANCH  25  26
ENDBRANCH  24  25
ENDBRANCH   1  24
TORSDOF 15
ENDMDL
