MODEL 1
REMARK VINA RESULT:     -10.0      0.000      0.000
REMARK SMILES C#CCN(CC(=O)OCCOC(=O)c1ccc(-c2c3nc(c(-c4ccccc4)c4ccc([nH]4)c(-c4ccccc4)c4nc(c(-c5ccccc5)c5ccc2[nH]5)C=C4)C=C3)cc1)C(=O)[C@H](c1ccc(Cl)cc1)C(C)C
REMARK SMILES IDX 9 1 8 2 6 3 7 4 5 5 4 6 3 7 2 8 1 9 62 10 63 11 64 12 72 13
REMARK SMILES IDX 73 14 74 15 65 16 66 17 71 18 67 19 70 20 68 21 69 22 10 23
REMARK SMILES IDX 11 24 12 25 13 26 14 27 15 28 61 29 16 30 60 31 17 32 18 33
REMARK SMILES IDX 19 34 54 35 20 36 59 37 53 38 55 39 21 40 58 41 52 42 51 43
REMARK SMILES IDX 22 45 44 46 29 47 43 48 30 49 33 50 42 51 56 52 31 53 32 54
REMARK SMILES IDX 41 56 57 57 34 58 23 59 24 60 28 61 25 62 27 63 26 64 45 65
REMARK SMILES IDX 46 66 50 67 47 68 49 69 48 70 35 71 36 72 40 73 37 74 39 75
REMARK SMILES IDX 38 76
REMARK H PARENT 55 44 33 55
REMARK Flexibility Score: inf
ROOT
ATOM      1  C   UNL A   1      35.510  20.902  25.093  1.00  0.00     0.274 C 
ENDROOT
BRANCH   1   2
ATOM      2  O   UNL A   1      35.297  21.441  26.430  1.00  0.00    -0.461 OA
BRANCH   2   3
ATOM      3  C   UNL A   1      34.012  21.393  26.878  1.00  0.00     0.325 C 
ATOM      4  O   UNL A   1      33.343  20.360  26.915  1.00  0.00    -0.250 OA
BRANCH   3   5
ATOM      5  C   UNL A   1      33.408  22.757  27.321  1.00  0.00     0.243 C 
BRANCH   5   6
ATOM      6  N   UNL A   1      32.516  23.689  26.544  1.00  0.00    -0.320 N 
BRANCH   6   7
ATOM      7  C   UNL A   1      31.390  22.963  25.944  1.00  0.00     0.210 C 
BRANCH   7   8
ATOM      8  C   UNL A   1      31.756  22.441  24.612  1.00  0.00    -0.085 C 
ATOM      9  C   UNL A   1      32.014  21.978  23.534  1.00  0.00     0.006 C 
ENDBRANCH   7   8
ENDBRANCH   6   7
BRANCH   6  10
ATOM     10  C   UNL A   1      32.501  25.073  26.254  1.00  0.00     0.231 C 
ATOM     11  O   UNL A   1      31.501  25.696  26.686  1.00  0.00    -0.274 OA
BRANCH  10  12
ATOM     12  C   UNL A   1      33.562  26.081  25.595  1.00  0.00     0.111 C 
BRANCH  12  13
ATOM     13  C   UNL A   1      34.007  25.730  24.141  1.00  0.00    -0.000 C 
ATOM     14  C   UNL A   1      34.840  24.437  24.083  1.00  0.00     0.008 C 
ATOM     15  C   UNL A   1      32.841  25.482  23.179  1.00  0.00     0.008 C 
ENDBRANCH  12  13
BRANCH  12  16
ATOM     16  C   UNL A   1      33.344  27.573  25.714  1.00  0.00    -0.035 A 
ATOM     17  C   UNL A   1      34.058  28.556  27.084  1.00  0.00     0.006 A 
ATOM     18  C   UNL A   1      31.912  28.228  24.808  1.00  0.00     0.006 A 
ATOM     19  C   UNL A   1      33.432  30.255  27.416  1.00  0.00     0.021 A 
ATOM     20  C   UNL A   1      31.255  29.884  25.190  1.00  0.00     0.021 A 
ATOM     21  C   UNL A   1      32.070  30.927  26.408  1.00  0.00     0.041 A 
ATOM     22  Cl  UNL A   1      31.445  32.498  26.711  1.00  0.00    -0.084 Cl
ENDBRANCH  12  16
ENDBRANCH  10  12
ENDBRANCH   6  10
ENDBRANCH   5   6
ENDBRANCH   3   5
ENDBRANCH   2   3
ENDBRANCH   1   2
BRANCH   1  23
ATOM     23  C   UNL A   1      36.954  21.120  24.594  1.00  0.00     0.275 C 
BRANCH  23  24
ATOM     24  O   UNL A   1      37.461  22.468  24.890  1.00  0.00    -0.458 OA
BRANCH  24  25
ATOM     25  C   UNL A   1      38.666  22.543  25.768  1.00  0.00     0.338 C 
ATOM     26  O   UNL A   1      38.946  21.315  25.802  1.00  0.00    -0.246 OA
BRANCH  25  27
ATOM     27  C   UNL A   1      39.546  24.218  26.774  1.00  0.00     0.060 A 
ATOM     28  C   UNL A   1      39.393  24.639  28.227  1.00  0.00     0.016 A 
ATOM     29  C   UNL A   1      40.332  25.422  26.251  1.00  0.00     0.016 A 
ATOM     30  C   UNL A   1      39.472  25.905  28.804  1.00  0.00     0.010 A 
ATOM     31  C   UNL A   1      40.642  26.653  26.898  1.00  0.00     0.010 A 
ATOM     32  C   UNL A   1      40.155  26.908  28.160  1.00  0.00    -0.014 A 
BRANCH  32  33
ATOM     33  C   UNL A   1      40.527  28.068  28.971  1.00  0.00     0.031 A 
ATOM     34  C   UNL A   1      41.873  28.191  29.599  1.00  0.00     0.074 A 
ATOM     35  C   UNL A   1      39.618  29.062  28.973  1.00  0.00     0.049 A 
ATOM     36  N   UNL A   1      42.386  29.219  30.219  1.00  0.00    -0.248 NA
ATOM     37  C   UNL A   1      42.774  27.032  29.512  1.00  0.00     0.031 C 
ATOM     38  C   UNL A   1      38.307  29.004  28.300  1.00  0.00     0.029 A 
ATOM     39  N   UNL A   1      39.658  30.316  29.498  1.00  0.00    -0.354 N 
ATOM     40  C   UNL A   1      43.668  28.838  30.587  1.00  0.00     0.074 A 
ATOM     41  C   UNL A   1      43.869  27.489  30.107  1.00  0.00     0.031 C 
ATOM     42  C   UNL A   1      37.706  30.191  28.394  1.00  0.00     0.029 A 
ATOM     43  C   UNL A   1      38.509  31.028  29.262  1.00  0.00     0.049 A 
ATOM     44  H   UNL A   1      40.429  30.675  29.994  1.00  0.00     0.167 HD
ATOM     45  C   UNL A   1      44.563  29.549  31.310  1.00  0.00     0.031 A 
ATOM     46  C   UNL A   1      38.109  32.200  29.771  1.00  0.00     0.031 A 
ATOM     47  C   UNL A   1      44.246  30.831  31.887  1.00  0.00     0.049 A 
ATOM     48  C   UNL A   1      39.055  32.877  30.706  1.00  0.00     0.074 A 
ATOM     49  C   UNL A   1      45.019  31.625  32.713  1.00  0.00     0.029 A 
ATOM     50  N   UNL A   1      43.025  31.479  31.731  1.00  0.00    -0.354 N 
ATOM     51  N   UNL A   1      40.269  32.512  31.049  1.00  0.00    -0.248 NA
ATOM     52  C   UNL A   1      38.583  34.111  31.329  1.00  0.00     0.031 C 
ATOM     53  C   UNL A   1      44.229  32.698  33.135  1.00  0.00     0.029 A 
ATOM     54  C   UNL A   1      43.002  32.635  32.489  1.00  0.00     0.049 A 
ATOM     55  H   UNL A   1      42.286  31.161  31.164  1.00  0.00     0.167 HD
ATOM     56  C   UNL A   1      40.722  33.488  31.916  1.00  0.00     0.074 A 
ATOM     57  C   UNL A   1      39.655  34.469  32.021  1.00  0.00     0.031 C 
ATOM     58  C   UNL A   1      41.907  33.572  32.569  1.00  0.00     0.031 A 
BRANCH  45  59
ATOM     59  C   UNL A   1      45.888  28.909  31.623  1.00  0.00    -0.014 A 
ATOM     60  C   UNL A   1      47.012  29.089  30.801  1.00  0.00     0.009 A 
ATOM     61  C   UNL A   1      46.020  28.129  32.782  1.00  0.00     0.009 A 
ATOM     62  C   UNL A   1      48.231  28.487  31.126  1.00  0.00     0.001 A 
ATOM     63  C   UNL A   1      47.245  27.548  33.118  1.00  0.00     0.001 A 
ATOM     64  C   UNL A   1      48.349  27.721  32.286  1.00  0.00     0.000 A 
ENDBRANCH  45  59
BRANCH  46  65
ATOM     65  C   UNL A   1      36.743  32.703  29.484  1.00  0.00    -0.014 A 
ATOM     66  C   UNL A   1      36.445  33.328  28.269  1.00  0.00     0.009 A 
ATOM     67  C   UNL A   1      35.711  32.520  30.424  1.00  0.00     0.009 A 
ATOM     68  C   UNL A   1      35.150  33.787  28.014  1.00  0.00     0.001 A 
ATOM     69  C   UNL A   1      34.410  32.938  30.149  1.00  0.00     0.001 A 
ATOM     70  C   UNL A   1      34.134  33.586  28.950  1.00  0.00     0.000 A 
ENDBRANCH  46  65
BRANCH  58  71
ATOM     71  C   UNL A   1      42.110  34.800  33.403  1.00  0.00    -0.014 A 
ATOM     72  C   UNL A   1      41.598  34.898  34.704  1.00  0.00     0.009 A 
ATOM     73  C   UNL A   1      42.844  35.869  32.867  1.00  0.00     0.009 A 
ATOM     74  C   UNL A   1      41.777  36.070  35.438  1.00  0.00     0.001 A 
ATOM     75  C   UNL A   1      43.062  37.019  33.620  1.00  0.00     0.001 A 
ATOM     76  C   UNL A   1      42.516  37.125  34.899  1.00  0.00     0.000 A 
ENDBRANCH  58  71
ENDBRANCH  32  33
ENDBRANCH  25  27
ENDBRANCH  24  25
ENDBRANCH  23  24
ENDBRANCH   1  23
TORSDOF 18
ENDMDL
MODEL 2
REMARK VINA RESULT:      -9.8      2.662      4.336
REMARK SMILES C#CCN(CC(=O)OCCOC(=O)c1ccc(-c2c3nc(c(-c4ccccc4)c4ccc([nH]4)c(-c4ccccc4)c4nc(c(-c5ccccc5)c5ccc2[nH]5)C=C4)C=C3)cc1)C(=O)[C@H](c1ccc(Cl)cc1)C(C)C
REMARK SMILES IDX 9 1 8 2 6 3 7 4 5 5 4 6 3 7 2 8 1 9 62 10 63 11 64 12 72 13
REMARK SMILES IDX 73 14 74 15 65 16 66 17 71 18 67 19 70 20 68 21 69 22 10 23
REMARK SMILES IDX 11 24 12 25 13 26 14 27 15 28 61 29 16 30 60 31 17 32 18 33
REMARK SMILES IDX 19 34 54 35 20 36 59 37 53 38 55 39 21 40 58 41 52 42 51 43
REMARK SMILES IDX 22 45 44 46 29 47 43 48 30 49 33 50 42 51 56 52 31 53 32 54
REMARK SMILES IDX 41 56 57 57 34 58 23 59 24 60 28 61 25 62 27 63 26 64 45 65
REMARK SMILES IDX 46 66 50 67 47 68 49 69 48 70 35 71 36 72 40 73 37 74 39 75
REMARK SMILES IDX 38 76
REMARK H PARENT 55 44 33 55
REMARK Flexibility Score: inf
ROOT
ATOM      1  C   UNL A   1      40.920  20.192  26.181  1.00  0.00     0.274 C 
ENDROOT
BRANCH   1   2
ATOM      2  O   UNL A   1      39.981  20.998  26.951  1.00  0.00    -0.461 OA
BRANCH   2   3
ATOM      3  C   UNL A   1      39.206  21.845  26.219  1.00  0.00     0.325 C 
ATOM      4  O   UNL A   1      39.316  23.071  26.255  1.00  0.00    -0.250 OA
BRANCH   3   5
ATOM      5  C   UNL A   1      38.121  21.163  25.336  1.00  0.00     0.243 C 
BRANCH   5   6
ATOM      6  N   UNL A   1      36.725  21.635  25.026  1.00  0.00    -0.320 N 
BRANCH   6   7
ATOM      7  C   UNL A   1      36.750  22.860  24.219  1.00  0.00     0.210 C 
BRANCH   7   8
ATOM      8  C   UNL A   1      35.879  23.894  24.814  1.00  0.00    -0.085 C 
ATOM      9  C   UNL A   1      35.208  24.774  25.281  1.00  0.00     0.006 C 
ENDBRANCH   7   8
ENDBRANCH   6   7
BRANCH   6  10
ATOM     10  C   UNL A   1      35.415  21.191  25.322  1.00  0.00     0.231 C 
ATOM     11  O   UNL A   1      35.125  21.167  26.543  1.00  0.00    -0.274 OA
BRANCH  10  12
ATOM     12  C   UNL A   1      34.136  20.826  24.423  1.00  0.00     0.111 C 
BRANCH  12  13
ATOM     13  C   UNL A   1      33.579  19.380  24.607  1.00  0.00    -0.000 C 
ATOM     14  C   UNL A   1      32.550  19.010  23.523  1.00  0.00     0.008 C 
ATOM     15  C   UNL A   1      34.647  18.286  24.515  1.00  0.00     0.008 C 
ENDBRANCH  12  13
BRANCH  12  16
ATOM     16  C   UNL A   1      32.988  21.805  24.328  1.00  0.00    -0.035 A 
ATOM     17  C   UNL A   1      32.816  22.971  22.927  1.00  0.00     0.006 A 
ATOM     18  C   UNL A   1      32.144  22.172  25.894  1.00  0.00     0.006 A 
ATOM     19  C   UNL A   1      31.665  24.402  23.061  1.00  0.00     0.021 A 
ATOM     20  C   UNL A   1      31.058  23.630  26.040  1.00  0.00     0.021 A 
ATOM     21  C   UNL A   1      30.741  24.674  24.609  1.00  0.00     0.041 A 
ATOM     22  Cl  UNL A   1      29.680  26.014  24.776  1.00  0.00    -0.084 Cl
ENDBRANCH  12  16
ENDBRANCH  10  12
ENDBRANCH   6  10
ENDBRANCH   5   6
ENDBRANCH   3   5
ENDBRANCH   2   3
ENDBRANCH   1   2
BRANCH   1  23
ATOM     23  C   UNL A   1      42.353  20.766  26.214  1.00  0.00     0.275 C 
BRANCH  23  24
ATOM     24  O   UNL A   1      42.740  21.406  24.948  1.00  0.00    -0.458 OA
BRANCH  24  25
ATOM     25  C   UNL A   1      43.297  22.787  25.048  1.00  0.00     0.338 C 
ATOM     26  O   UNL A   1      43.950  22.801  23.971  1.00  0.00    -0.246 OA
BRANCH  25  27
ATOM     27  C   UNL A   1      43.142  24.232  26.622  1.00  0.00     0.060 A 
ATOM     28  C   UNL A   1      42.369  24.134  27.928  1.00  0.00     0.016 A 
ATOM     29  C   UNL A   1      43.588  25.693  26.711  1.00  0.00     0.016 A 
ATOM     30  C   UNL A   1      41.801  25.139  28.709  1.00  0.00     0.010 A 
ATOM     31  C   UNL A   1      43.212  26.701  27.645  1.00  0.00     0.010 A 
ATOM     32  C   UNL A   1      42.269  26.427  28.609  1.00  0.00    -0.014 A 
BRANCH  32  33
ATOM     33  C   UNL A   1      41.916  27.334  29.702  1.00  0.00     0.031 A 
ATOM     34  C   UNL A   1      42.776  27.486  30.909  1.00  0.00     0.074 A 
ATOM     35  C   UNL A   1      40.846  28.114  29.456  1.00  0.00     0.049 A 
ATOM     36  N   UNL A   1      42.663  28.351  31.881  1.00  0.00    -0.248 NA
ATOM     37  C   UNL A   1      43.922  26.574  31.049  1.00  0.00     0.031 C 
ATOM     38  C   UNL A   1      40.016  28.043  28.239  1.00  0.00     0.029 A 
ATOM     39  N   UNL A   1      40.299  29.140  30.161  1.00  0.00    -0.354 N 
ATOM     40  C   UNL A   1      43.722  28.097  32.740  1.00  0.00     0.074 A 
ATOM     41  C   UNL A   1      44.484  27.008  32.170  1.00  0.00     0.031 C 
ATOM     42  C   UNL A   1      39.117  29.029  28.255  1.00  0.00     0.029 A 
ATOM     43  C   UNL A   1      39.204  29.687  29.542  1.00  0.00     0.049 A 
ATOM     44  H   UNL A   1      40.652  29.457  31.024  1.00  0.00     0.167 HD
ATOM     45  C   UNL A   1      43.985  28.696  33.924  1.00  0.00     0.031 A 
ATOM     46  C   UNL A   1      38.310  30.568  30.007  1.00  0.00     0.031 A 
ATOM     47  C   UNL A   1      43.101  29.673  34.508  1.00  0.00     0.049 A 
ATOM     48  C   UNL A   1      38.537  31.080  31.390  1.00  0.00     0.074 A 
ATOM     49  C   UNL A   1      43.192  30.299  35.736  1.00  0.00     0.029 A 
ATOM     50  N   UNL A   1      41.928  30.124  33.910  1.00  0.00    -0.354 N 
ATOM     51  N   UNL A   1      39.544  30.837  32.198  1.00  0.00    -0.248 NA
ATOM     52  C   UNL A   1      37.514  31.972  31.931  1.00  0.00     0.031 C 
ATOM     53  C   UNL A   1      42.026  31.048  35.921  1.00  0.00     0.029 A 
ATOM     54  C   UNL A   1      41.258  30.977  34.767  1.00  0.00     0.049 A 
ATOM     55  H   UNL A   1      41.621  29.873  33.010  1.00  0.00     0.167 HD
ATOM     56  C   UNL A   1      39.289  31.569  33.343  1.00  0.00     0.074 A 
ATOM     57  C   UNL A   1      38.044  32.280  33.105  1.00  0.00     0.031 C 
ATOM     58  C   UNL A   1      40.012  31.650  34.486  1.00  0.00     0.031 A 
BRANCH  45  59
ATOM     59  C   UNL A   1      45.179  28.223  34.706  1.00  0.00    -0.014 A 
ATOM     60  C   UNL A   1      45.169  27.012  35.416  1.00  0.00     0.009 A 
ATOM     61  C   UNL A   1      46.351  28.996  34.710  1.00  0.00     0.009 A 
ATOM     62  C   UNL A   1      46.300  26.597  36.125  1.00  0.00     0.001 A 
ATOM     63  C   UNL A   1      47.488  28.569  35.399  1.00  0.00     0.001 A 
ATOM     64  C   UNL A   1      47.460  27.372  36.112  1.00  0.00     0.000 A 
ENDBRANCH  45  59
BRANCH  46  65
ATOM     65  C   UNL A   1      37.108  30.898  29.201  1.00  0.00    -0.014 A 
ATOM     66  C   UNL A   1      36.931  32.175  28.660  1.00  0.00     0.009 A 
ATOM     67  C   UNL A   1      36.143  29.908  28.934  1.00  0.00     0.009 A 
ATOM     68  C   UNL A   1      35.798  32.464  27.896  1.00  0.00     0.001 A 
ATOM     69  C   UNL A   1      35.036  30.186  28.134  1.00  0.00     0.001 A 
ATOM     70  C   UNL A   1      34.856  31.469  27.628  1.00  0.00     0.000 A 
ENDBRANCH  46  65
BRANCH  58  71
ATOM     71  C   UNL A   1      39.484  32.586  35.531  1.00  0.00    -0.014 A 
ATOM     72  C   UNL A   1      39.860  33.936  35.565  1.00  0.00     0.009 A 
ATOM     73  C   UNL A   1      38.581  32.096  36.486  1.00  0.00     0.009 A 
ATOM     74  C   UNL A   1      39.375  34.770  36.572  1.00  0.00     0.001 A 
ATOM     75  C   UNL A   1      38.062  32.943  37.462  1.00  0.00     0.001 A 
ATOM     76  C   UNL A   1      38.472  34.274  37.513  1.00  0.00     0.000 A 
ENDBRANCH  58  71
ENDBRANCH  32  33
ENDBRANCH  25  27
ENDBRANCH  24  25
ENDBRANCH  23  24
ENDBRANCH   1  23
TORSDOF 18
ENDMDL
MODEL 3
REMARK VINA RESULT:      -9.7      3.279      4.536
REMARK SMILES C#CCN(CC(=O)OCCOC(=O)c1ccc(-c2c3nc(c(-c4ccccc4)c4ccc([nH]4)c(-c4ccccc4)c4nc(c(-c5ccccc5)c5ccc2[nH]5)C=C4)C=C3)cc1)C(=O)[C@H](c1ccc(Cl)cc1)C(C)C
REMARK SMILES IDX 9 1 8 2 6 3 7 4 5 5 4 6 3 7 2 8 1 9 62 10 63 11 64 12 72 13
REMARK SMILES IDX 73 14 74 15 65 16 66 17 71 18 67 19 70 20 68 21 69 22 10 23
REMARK SMILES IDX 11 24 12 25 13 26 14 27 15 28 61 29 16 30 60 31 17 32 18 33
REMARK SMILES IDX 19 34 54 35 20 36 59 37 53 38 55 39 21 40 58 41 52 42 51 43
REMARK SMILES IDX 22 45 44 46 29 47 43 48 30 49 33 50 42 51 56 52 31 53 32 54
REMARK SMILES IDX 41 56 57 57 34 58 23 59 24 60 28 61 25 62 27 63 26 64 45 65
REMARK SMILES IDX 46 66 50 67 47 68 49 69 48 70 35 71 36 72 40 73 37 74 39 75
REMARK SMILES IDX 38 76
REMARK H PARENT 55 44 33 55
REMARK Flexibility Score: inf
ROOT
ATOM      1  C   UNL A   1      34.646  21.520  24.371  1.00  0.00     0.274 C 
ENDROOT
BRANCH   1   2
ATOM      2  O   UNL A   1      33.435  20.772  24.688  1.00  0.00    -0.461 OA
BRANCH   2   3
ATOM      3  C   UNL A   1      32.277  21.319  24.225  1.00  0.00     0.325 C 
ATOM      4  O   UNL A   1      31.907  21.238  23.053  1.00  0.00    -0.250 OA
BRANCH   3   5
ATOM      5  C   UNL A   1      31.441  22.104  25.277  1.00  0.00     0.243 C 
BRANCH   5   6
ATOM      6  N   UNL A   1      31.573  23.542  25.703  1.00  0.00    -0.320 N 
BRANCH   6   7
ATOM      7  C   UNL A   1      32.658  23.705  26.678  1.00  0.00     0.210 C 
BRANCH   7   8
ATOM      8  C   UNL A   1      33.767  24.489  26.098  1.00  0.00    -0.085 C 
ATOM      9  C   UNL A   1      34.700  25.080  25.625  1.00  0.00     0.006 C 
ENDBRANCH   7   8
ENDBRANCH   6   7
BRANCH   6  10
ATOM     10  C   UNL A   1      30.914  24.756  25.398  1.00  0.00     0.231 C 
ATOM     11  O   UNL A   1      30.040  25.109  26.226  1.00  0.00    -0.274 OA
BRANCH  10  12
ATOM     12  C   UNL A   1      31.124  25.881  24.273  1.00  0.00     0.111 C 
BRANCH  12  13
ATOM     13  C   UNL A   1      31.334  25.348  22.822  1.00  0.00    -0.000 C 
ATOM     14  C   UNL A   1      31.377  26.484  21.783  1.00  0.00     0.008 C 
ATOM     15  C   UNL A   1      32.652  24.592  22.623  1.00  0.00     0.008 C 
ENDBRANCH  12  13
BRANCH  12  16
ATOM     16  C   UNL A   1      30.209  27.085  24.244  1.00  0.00    -0.035 A 
ATOM     17  C   UNL A   1      28.497  26.991  23.603  1.00  0.00     0.006 A 
ATOM     18  C   UNL A   1      31.039  28.699  24.318  1.00  0.00     0.006 A 
ATOM     19  C   UNL A   1      27.582  28.538  23.203  1.00  0.00     0.021 A 
ATOM     20  C   UNL A   1      30.147  30.220  23.854  1.00  0.00     0.021 A 
ATOM     21  C   UNL A   1      28.407  30.151  23.402  1.00  0.00     0.041 A 
ATOM     22  Cl  UNL A   1      27.590  31.611  23.011  1.00  0.00    -0.084 Cl
ENDBRANCH  12  16
ENDBRANCH  10  12
ENDBRANCH   6  10
ENDBRANCH   5   6
ENDBRANCH   3   5
ENDBRANCH   2   3
ENDBRANCH   1   2
BRANCH   1  23
ATOM     23  C   UNL A   1      35.719  21.394  25.473  1.00  0.00     0.275 C 
BRANCH  23  24
ATOM     24  O   UNL A   1      36.607  20.239  25.276  1.00  0.00    -0.458 OA
BRANCH  24  25
ATOM     25  C   UNL A   1      38.067  20.486  25.464  1.00  0.00     0.338 C 
ATOM     26  O   UNL A   1      38.497  19.375  25.056  1.00  0.00    -0.246 OA
BRANCH  25  27
ATOM     27  C   UNL A   1      39.088  22.168  26.311  1.00  0.00     0.060 A 
ATOM     28  C   UNL A   1      38.846  23.649  26.063  1.00  0.00     0.016 A 
ATOM     29  C   UNL A   1      40.354  22.267  27.166  1.00  0.00     0.016 A 
ATOM     30  C   UNL A   1      39.731  24.724  26.132  1.00  0.00     0.010 A 
ATOM     31  C   UNL A   1      41.163  23.401  27.460  1.00  0.00     0.010 A 
ATOM     32  C   UNL A   1      40.873  24.620  26.888  1.00  0.00    -0.014 A 
BRANCH  32  33
ATOM     33  C   UNL A   1      41.544  25.874  27.230  1.00  0.00     0.031 A 
ATOM     34  C   UNL A   1      42.865  26.246  26.648  1.00  0.00     0.074 A 
ATOM     35  C   UNL A   1      40.807  26.714  27.982  1.00  0.00     0.049 A 
ATOM     36  N   UNL A   1      43.504  27.380  26.748  1.00  0.00    -0.248 NA
ATOM     37  C   UNL A   1      43.559  25.236  25.834  1.00  0.00     0.031 C 
ATOM     38  C   UNL A   1      39.465  26.410  28.512  1.00  0.00     0.029 A 
ATOM     39  N   UNL A   1      41.034  27.991  28.389  1.00  0.00    -0.354 N 
ATOM     40  C   UNL A   1      44.666  27.226  26.006  1.00  0.00     0.074 A 
ATOM     41  C   UNL A   1      44.642  25.896  25.442  1.00  0.00     0.031 C 
ATOM     42  C   UNL A   1      38.966  27.493  29.109  1.00  0.00     0.029 A 
ATOM     43  C   UNL A   1      40.008  28.500  29.143  1.00  0.00     0.049 A 
ATOM     44  H   UNL A   1      41.849  28.498  28.167  1.00  0.00     0.167 HD
ATOM     45  C   UNL A   1      45.678  28.114  25.867  1.00  0.00     0.031 A 
ATOM     46  C   UNL A   1      39.951  29.628  29.863  1.00  0.00     0.031 A 
ATOM     47  C   UNL A   1      45.709  29.367  26.577  1.00  0.00     0.049 A 
ATOM     48  C   UNL A   1      41.159  30.503  29.823  1.00  0.00     0.074 A 
ATOM     49  C   UNL A   1      46.706  30.324  26.603  1.00  0.00     0.029 A 
ATOM     50  N   UNL A   1      44.704  29.807  27.434  1.00  0.00    -0.354 N 
ATOM     51  N   UNL A   1      42.256  30.354  29.117  1.00  0.00    -0.248 NA
ATOM     52  C   UNL A   1      41.132  31.689  30.677  1.00  0.00     0.031 C 
ATOM     53  C   UNL A   1      46.347  31.289  27.550  1.00  0.00     0.029 A 
ATOM     54  C   UNL A   1      45.081  30.993  28.035  1.00  0.00     0.049 A 
ATOM     55  H   UNL A   1      43.851  29.342  27.588  1.00  0.00     0.167 HD
ATOM     56  C   UNL A   1      43.049  31.444  29.422  1.00  0.00     0.074 A 
ATOM     57  C   UNL A   1      42.288  32.254  30.359  1.00  0.00     0.031 C 
ATOM     58  C   UNL A   1      44.290  31.753  28.974  1.00  0.00     0.031 A 
BRANCH  45  59
ATOM     59  C   UNL A   1      46.865  27.708  25.037  1.00  0.00    -0.014 A 
ATOM     60  C   UNL A   1      47.952  27.013  25.588  1.00  0.00     0.009 A 
ATOM     61  C   UNL A   1      46.882  28.007  23.665  1.00  0.00     0.009 A 
ATOM     62  C   UNL A   1      49.036  26.642  24.786  1.00  0.00     0.001 A 
ATOM     63  C   UNL A   1      47.954  27.615  22.861  1.00  0.00     0.001 A 
ATOM     64  C   UNL A   1      49.034  26.938  23.422  1.00  0.00     0.000 A 
ENDBRANCH  45  59
BRANCH  46  65
ATOM     65  C   UNL A   1      38.777  29.894  30.730  1.00  0.00    -0.014 A 
ATOM     66  C   UNL A   1      38.712  29.387  32.032  1.00  0.00     0.009 A 
ATOM     67  C   UNL A   1      37.722  30.701  30.263  1.00  0.00     0.009 A 
ATOM     68  C   UNL A   1      37.602  29.656  32.837  1.00  0.00     0.001 A 
ATOM     69  C   UNL A   1      36.637  31.005  31.083  1.00  0.00     0.001 A 
ATOM     70  C   UNL A   1      36.570  30.469  32.365  1.00  0.00     0.000 A 
ENDBRANCH  46  65
BRANCH  58  71
ATOM     71  C   UNL A   1      44.858  33.051  29.462  1.00  0.00    -0.014 A 
ATOM     72  C   UNL A   1      45.647  33.120  30.619  1.00  0.00     0.009 A 
ATOM     73  C   UNL A   1      44.603  34.221  28.730  1.00  0.00     0.009 A 
ATOM     74  C   UNL A   1      46.130  34.350  31.062  1.00  0.00     0.001 A 
ATOM     75  C   UNL A   1      45.127  35.440  29.149  1.00  0.00     0.001 A 
ATOM     76  C   UNL A   1      45.876  35.506  30.322  1.00  0.00     0.000 A 
ENDBRANCH  58  71
ENDBRANCH  32  33
ENDBRANCH  25  27
ENDBRANCH  24  25
ENDBRANCH  23  24
ENDBRANCH   1  23
TORSDOF 18
ENDMDL
