MODEL 1
REMARK VINA RESULT:     -12.2      0.000      0.000
REMARK SMILES Cc1ccc(N2C(=O)N[C@@H]3CCN(C(=O)CC4(CC(=O)OCCOC(=O)c5ccc(-c6c7nc(c(-c8ccccc8)c8ccc([nH]8)c(-c8ccccc8)c8nc(c(-c9ccccc9)c9ccc6[nH]9)C=C8)C=C7)cc5)CCCC4)[C@@H]3C2=O)cc1
REMARK SMILES IDX 21 1 19 2 20 3 18 4 17 5 75 6 78 7 76 8 77 9 16 10 14 11
REMARK SMILES IDX 15 12 13 13 6 14 7 15 80 16 8 17 9 18 79 19 81 20 10 21
REMARK SMILES IDX 11 23 12 24 5 25 1 26 2 27 3 28 83 29 4 30 82 31 22 32 23 33
REMARK SMILES IDX 24 34 25 35 26 36 27 37 28 38 74 39 29 40 73 41 30 42 31 43
REMARK SMILES IDX 32 44 67 45 33 46 72 47 66 48 68 49 34 50 71 51 65 52 64 53
REMARK SMILES IDX 35 55 57 56 42 57 56 58 43 59 46 60 55 61 69 62 44 63 45 64
REMARK SMILES IDX 54 66 70 67 47 68 36 69 37 70 41 71 38 72 40 73 39 74 58 75
REMARK SMILES IDX 59 76 63 77 60 78 62 79 61 80 48 81 49 82 53 83 50 84 52 85
REMARK SMILES IDX 51 86
REMARK H PARENT 9 22 68 54 46 65
REMARK Flexibility Score: inf
ROOT
ATOM      1  O   UNL A   1      35.987  22.386  25.941  1.00  0.00    -0.462 OA
ENDROOT
BRANCH   1   2
ATOM      2  C   UNL A   1      35.502  21.864  24.790  1.00  0.00     0.306 C 
ATOM      3  O   UNL A   1      35.478  22.449  23.717  1.00  0.00    -0.252 OA
BRANCH   2   4
ATOM      4  C   UNL A   1      34.902  20.490  25.035  1.00  0.00     0.130 C 
BRANCH   4   5
ATOM      5  C   UNL A   1      33.364  20.564  25.196  1.00  0.00    -0.011 C 
ATOM      6  C   UNL A   1      32.861  19.297  25.912  1.00  0.00     0.008 C 
ATOM      7  C   UNL A   1      32.793  20.435  23.755  1.00  0.00     0.008 C 
ATOM      8  C   UNL A   1      32.798  18.225  24.838  1.00  0.00     0.001 C 
ATOM      9  C   UNL A   1      32.479  18.955  23.540  1.00  0.00     0.001 C 
BRANCH   5  10
ATOM     10  C   UNL A   1      33.003  21.881  25.969  1.00  0.00     0.107 C 
BRANCH  10  11
ATOM     11  C   UNL A   1      31.752  22.686  25.608  1.00  0.00     0.223 C 
ATOM     12  O   UNL A   1      30.747  22.636  26.317  1.00  0.00    -0.275 OA
BRANCH  11  13
ATOM     13  N   UNL A   1      31.816  23.504  24.508  1.00  0.00    -0.328 N 
ATOM     14  N   UNL A   1      32.714  27.027  24.710  1.00  0.00    -0.230 N 
ATOM     15  C   UNL A   1      32.849  27.305  23.355  1.00  0.00     0.329 C 
ATOM     16  C   UNL A   1      32.518  25.757  25.256  1.00  0.00     0.260 C 
ATOM     17  O   UNL A   1      32.842  28.418  22.833  1.00  0.00    -0.248 OA
ATOM     18  N   UNL A   1      33.050  26.244  22.530  1.00  0.00    -0.332 N 
ATOM     19  C   UNL A   1      32.833  24.551  24.357  1.00  0.00     0.197 C 
ATOM     20  O   UNL A   1      32.114  25.594  26.414  1.00  0.00    -0.271 OA
ATOM     21  C   UNL A   1      32.776  24.885  22.871  1.00  0.00     0.118 C 
ATOM     22  H   UNL A   1      33.410  26.425  21.631  1.00  0.00     0.165 HD
ATOM     23  C   UNL A   1      31.356  24.549  22.447  1.00  0.00     0.049 C 
ATOM     24  C   UNL A   1      30.958  23.427  23.359  1.00  0.00     0.122 C 
BRANCH  14  25
ATOM     25  C   UNL A   1      32.800  28.125  25.619  1.00  0.00     0.054 A 
ATOM     26  C   UNL A   1      33.326  31.744  27.894  1.00  0.00     0.044 C 
ATOM     27  C   UNL A   1      33.140  30.462  27.140  1.00  0.00    -0.051 A 
ATOM     28  C   UNL A   1      31.877  30.116  26.642  1.00  0.00     0.005 A 
ATOM     29  C   UNL A   1      34.218  29.599  26.926  1.00  0.00     0.005 A 
ATOM     30  C   UNL A   1      31.711  28.965  25.868  1.00  0.00     0.027 A 
ATOM     31  C   UNL A   1      34.046  28.428  26.187  1.00  0.00     0.027 A 
ENDBRANCH  14  25
ENDBRANCH  11  13
ENDBRANCH  10  11
ENDBRANCH   5  10
ENDBRANCH   4   5
ENDBRANCH   2   4
ENDBRANCH   1   2
BRANCH   1  32
ATOM     32  C   UNL A   1      36.972  23.404  25.815  1.00  0.00     0.274 C 
BRANCH  32  33
ATOM     33  C   UNL A   1      38.376  22.795  25.932  1.00  0.00     0.275 C 
BRANCH  33  34
ATOM     34  O   UNL A   1      39.312  23.343  26.920  1.00  0.00    -0.458 OA
BRANCH  34  35
ATOM     35  C   UNL A   1      40.245  24.343  26.879  1.00  0.00     0.338 C 
ATOM     36  O   UNL A   1      41.288  24.224  26.285  1.00  0.00    -0.246 OA
BRANCH  35  37
ATOM     37  C   UNL A   1      39.915  25.625  27.532  1.00  0.00     0.060 A 
ATOM     38  C   UNL A   1      39.299  25.646  28.797  1.00  0.00     0.016 A 
ATOM     39  C   UNL A   1      40.342  26.796  26.941  1.00  0.00     0.016 A 
ATOM     40  C   UNL A   1      39.238  26.840  29.526  1.00  0.00     0.010 A 
ATOM     41  C   UNL A   1      40.484  27.904  27.734  1.00  0.00     0.010 A 
ATOM     42  C   UNL A   1      39.876  27.961  29.001  1.00  0.00    -0.014 A 
BRANCH  42  43
ATOM     43  C   UNL A   1      39.719  29.330  29.480  1.00  0.00     0.031 A 
ATOM     44  C   UNL A   1      38.679  30.280  29.049  1.00  0.00     0.074 A 
ATOM     45  C   UNL A   1      40.587  29.599  30.484  1.00  0.00     0.049 A 
ATOM     46  N   UNL A   1      38.776  31.547  29.264  1.00  0.00    -0.248 NA
ATOM     47  C   UNL A   1      37.451  29.936  28.343  1.00  0.00     0.031 C 
ATOM     48  C   UNL A   1      40.662  30.679  31.447  1.00  0.00     0.029 A 
ATOM     49  N   UNL A   1      41.757  28.870  30.720  1.00  0.00    -0.354 N 
ATOM     50  C   UNL A   1      37.543  32.117  29.032  1.00  0.00     0.074 A 
ATOM     51  C   UNL A   1      36.774  31.093  28.372  1.00  0.00     0.031 C 
ATOM     52  C   UNL A   1      41.918  30.706  31.944  1.00  0.00     0.029 A 
ATOM     53  C   UNL A   1      42.721  29.747  31.185  1.00  0.00     0.049 A 
ATOM     54  H   UNL A   1      41.874  27.902  30.578  1.00  0.00     0.167 HD
ATOM     55  C   UNL A   1      37.294  33.350  29.558  1.00  0.00     0.031 A 
ATOM     56  C   UNL A   1      43.740  30.026  30.316  1.00  0.00     0.031 A 
ATOM     57  C   UNL A   1      38.497  33.889  30.188  1.00  0.00     0.049 A 
ATOM     58  C   UNL A   1      43.680  31.458  29.824  1.00  0.00     0.074 A 
ATOM     59  C   UNL A   1      38.947  33.948  31.496  1.00  0.00     0.029 A 
ATOM     60  N   UNL A   1      39.602  34.118  29.388  1.00  0.00    -0.354 N 
ATOM     61  N   UNL A   1      42.655  32.250  29.990  1.00  0.00    -0.248 NA
ATOM     62  C   UNL A   1      44.741  32.080  29.040  1.00  0.00     0.031 C 
ATOM     63  C   UNL A   1      40.357  34.168  31.462  1.00  0.00     0.029 A 
ATOM     64  C   UNL A   1      40.749  34.278  30.139  1.00  0.00     0.049 A 
ATOM     65  H   UNL A   1      39.574  34.161  28.404  1.00  0.00     0.167 HD
ATOM     66  C   UNL A   1      42.897  33.450  29.393  1.00  0.00     0.074 A 
ATOM     67  C   UNL A   1      44.201  33.283  28.774  1.00  0.00     0.031 C 
ATOM     68  C   UNL A   1      42.008  34.485  29.442  1.00  0.00     0.031 A 
BRANCH  55  69
ATOM     69  C   UNL A   1      35.936  33.991  29.712  1.00  0.00    -0.014 A 
ATOM     70  C   UNL A   1      35.331  34.570  28.577  1.00  0.00     0.009 A 
ATOM     71  C   UNL A   1      35.212  34.091  30.911  1.00  0.00     0.009 A 
ATOM     72  C   UNL A   1      34.113  35.258  28.641  1.00  0.00     0.001 A 
ATOM     73  C   UNL A   1      33.995  34.792  30.986  1.00  0.00     0.001 A 
ATOM     74  C   UNL A   1      33.450  35.383  29.852  1.00  0.00     0.000 A 
ENDBRANCH  55  69
BRANCH  56  75
ATOM     75  C   UNL A   1      44.148  28.850  29.455  1.00  0.00    -0.014 A 
ATOM     76  C   UNL A   1      44.419  27.605  30.074  1.00  0.00     0.009 A 
ATOM     77  C   UNL A   1      43.981  28.853  28.061  1.00  0.00     0.009 A 
ATOM     78  C   UNL A   1      44.413  26.406  29.347  1.00  0.00     0.001 A 
ATOM     79  C   UNL A   1      44.012  27.653  27.329  1.00  0.00     0.001 A 
ATOM     80  C   UNL A   1      44.195  26.430  27.975  1.00  0.00     0.000 A 
ENDBRANCH  56  75
BRANCH  68  81
ATOM     81  C   UNL A   1      42.265  35.811  28.791  1.00  0.00    -0.014 A 
ATOM     82  C   UNL A   1      41.911  36.072  27.463  1.00  0.00     0.009 A 
ATOM     83  C   UNL A   1      42.974  36.816  29.478  1.00  0.00     0.009 A 
ATOM     84  C   UNL A   1      42.164  37.319  26.883  1.00  0.00     0.001 A 
ATOM     85  C   UNL A   1      43.260  38.048  28.894  1.00  0.00     0.001 A 
ATOM     86  C   UNL A   1      42.833  38.308  27.601  1.00  0.00     0.000 A 
ENDBRANCH  68  81
ENDBRANCH  42  43
ENDBRANCH  35  37
ENDBRANCH  34  35
ENDBRANCH  33  34
ENDBRANCH  32  33
ENDBRANCH   1  32
TORSDOF 16
ENDMDL
MODEL 2
REMARK VINA RESULT:     -11.8      2.268      4.012
REMARK SMILES Cc1ccc(N2C(=O)N[C@@H]3CCN(C(=O)CC4(CC(=O)OCCOC(=O)c5ccc(-c6c7nc(c(-c8ccccc8)c8ccc([nH]8)c(-c8ccccc8)c8nc(c(-c9ccccc9)c9ccc6[nH]9)C=C8)C=C7)cc5)CCCC4)[C@@H]3C2=O)cc1
REMARK SMILES IDX 21 1 19 2 20 3 18 4 17 5 75 6 78 7 76 8 77 9 16 10 14 11
REMARK SMILES IDX 15 12 13 13 6 14 7 15 80 16 8 17 9 18 79 19 81 20 10 21
REMARK SMILES IDX 11 23 12 24 5 25 1 26 2 27 3 28 83 29 4 30 82 31 22 32 23 33
REMARK SMILES IDX 24 34 25 35 26 36 27 37 28 38 74 39 29 40 73 41 30 42 31 43
REMARK SMILES IDX 32 44 67 45 33 46 72 47 66 48 68 49 34 50 71 51 65 52 64 53
REMARK SMILES IDX 35 55 57 56 42 57 56 58 43 59 46 60 55 61 69 62 44 63 45 64
REMARK SMILES IDX 54 66 70 67 47 68 36 69 37 70 41 71 38 72 40 73 39 74 58 75
REMARK SMILES IDX 59 76 63 77 60 78 62 79 61 80 48 81 49 82 53 83 50 84 52 85
REMARK SMILES IDX 51 86
REMARK H PARENT 9 22 68 54 46 65
REMARK Flexibility Score: inf
ROOT
ATOM      1  O   UNL A   1      36.795  21.229  24.813  1.00  0.00    -0.462 OA
ENDROOT
BRANCH   1   2
ATOM      2  C   UNL A   1      35.790  22.065  25.166  1.00  0.00     0.306 C 
ATOM      3  O   UNL A   1      35.784  22.759  26.172  1.00  0.00    -0.252 OA
BRANCH   2   4
ATOM      4  C   UNL A   1      34.628  21.946  24.194  1.00  0.00     0.130 C 
BRANCH   4   5
ATOM      5  C   UNL A   1      33.345  21.446  24.903  1.00  0.00    -0.011 C 
ATOM      6  C   UNL A   1      33.658  20.147  25.669  1.00  0.00     0.008 C 
ATOM      7  C   UNL A   1      32.394  20.991  23.760  1.00  0.00     0.008 C 
ATOM      8  C   UNL A   1      33.630  19.045  24.624  1.00  0.00     0.001 C 
ATOM      9  C   UNL A   1      32.616  19.490  23.578  1.00  0.00     0.001 C 
BRANCH   5  10
ATOM     10  C   UNL A   1      32.811  22.587  25.837  1.00  0.00     0.107 C 
BRANCH  10  11
ATOM     11  C   UNL A   1      31.651  23.484  25.396  1.00  0.00     0.223 C 
ATOM     12  O   UNL A   1      30.571  23.448  25.985  1.00  0.00    -0.275 OA
BRANCH  11  13
ATOM     13  N   UNL A   1      31.881  24.364  24.369  1.00  0.00    -0.328 N 
ATOM     14  N   UNL A   1      33.229  27.706  24.889  1.00  0.00    -0.230 N 
ATOM     15  C   UNL A   1      33.471  28.061  23.568  1.00  0.00     0.329 C 
ATOM     16  C   UNL A   1      32.837  26.438  25.323  1.00  0.00     0.260 C 
ATOM     17  O   UNL A   1      33.640  29.201  23.136  1.00  0.00    -0.248 OA
ATOM     18  N   UNL A   1      33.572  27.046  22.669  1.00  0.00    -0.332 N 
ATOM     19  C   UNL A   1      33.035  25.269  24.345  1.00  0.00     0.197 C 
ATOM     20  O   UNL A   1      32.355  26.248  26.446  1.00  0.00    -0.271 OA
ATOM     21  C   UNL A   1      33.101  25.717  22.889  1.00  0.00     0.118 C 
ATOM     22  H   UNL A   1      33.998  27.242  21.804  1.00  0.00     0.165 HD
ATOM     23  C   UNL A   1      31.673  25.610  22.381  1.00  0.00     0.049 C 
ATOM     24  C   UNL A   1      31.081  24.490  23.182  1.00  0.00     0.122 C 
BRANCH  14  25
ATOM     25  C   UNL A   1      33.413  28.712  25.886  1.00  0.00     0.054 A 
ATOM     26  C   UNL A   1      34.321  32.034  28.473  1.00  0.00     0.044 C 
ATOM     27  C   UNL A   1      33.995  30.853  27.608  1.00  0.00    -0.051 A 
ATOM     28  C   UNL A   1      32.742  30.760  26.989  1.00  0.00     0.005 A 
ATOM     29  C   UNL A   1      34.932  29.836  27.409  1.00  0.00     0.005 A 
ATOM     30  C   UNL A   1      32.459  29.707  26.117  1.00  0.00     0.027 A 
ATOM     31  C   UNL A   1      34.637  28.762  26.569  1.00  0.00     0.027 A 
ENDBRANCH  14  25
ENDBRANCH  11  13
ENDBRANCH  10  11
ENDBRANCH   5  10
ENDBRANCH   4   5
ENDBRANCH   2   4
ENDBRANCH   1   2
BRANCH   1  32
ATOM     32  C   UNL A   1      38.077  21.504  25.363  1.00  0.00     0.274 C 
BRANCH  32  33
ATOM     33  C   UNL A   1      38.790  20.192  25.716  1.00  0.00     0.275 C 
BRANCH  33  34
ATOM     34  O   UNL A   1      40.256  20.154  25.720  1.00  0.00    -0.458 OA
BRANCH  34  35
ATOM     35  C   UNL A   1      41.201  20.397  26.679  1.00  0.00     0.338 C 
ATOM     36  O   UNL A   1      41.800  19.508  27.232  1.00  0.00    -0.246 OA
BRANCH  35  37
ATOM     37  C   UNL A   1      41.531  21.803  26.986  1.00  0.00     0.060 A 
ATOM     38  C   UNL A   1      41.351  22.809  26.017  1.00  0.00     0.016 A 
ATOM     39  C   UNL A   1      41.891  22.131  28.277  1.00  0.00     0.016 A 
ATOM     40  C   UNL A   1      41.403  24.157  26.391  1.00  0.00     0.010 A 
ATOM     41  C   UNL A   1      41.721  23.427  28.685  1.00  0.00     0.010 A 
ATOM     42  C   UNL A   1      41.545  24.458  27.743  1.00  0.00    -0.014 A 
BRANCH  42  43
ATOM     43  C   UNL A   1      41.861  25.771  28.293  1.00  0.00     0.031 A 
ATOM     44  C   UNL A   1      40.932  26.909  28.395  1.00  0.00     0.074 A 
ATOM     45  C   UNL A   1      43.105  25.791  28.828  1.00  0.00     0.049 A 
ATOM     46  N   UNL A   1      41.342  28.115  28.594  1.00  0.00    -0.248 NA
ATOM     47  C   UNL A   1      39.480  26.836  28.283  1.00  0.00     0.031 C 
ATOM     48  C   UNL A   1      43.778  26.730  29.702  1.00  0.00     0.029 A 
ATOM     49  N   UNL A   1      44.108  24.872  28.502  1.00  0.00    -0.354 N 
ATOM     50  C   UNL A   1      40.256  28.885  28.944  1.00  0.00     0.074 A 
ATOM     51  C   UNL A   1      39.106  28.070  28.648  1.00  0.00     0.031 C 
ATOM     52  C   UNL A   1      45.108  26.512  29.602  1.00  0.00     0.029 A 
ATOM     53  C   UNL A   1      45.323  25.536  28.534  1.00  0.00     0.049 A 
ATOM     54  H   UNL A   1      43.974  23.920  28.287  1.00  0.00     0.167 HD
ATOM     55  C   UNL A   1      40.484  30.074  29.572  1.00  0.00     0.031 A 
ATOM     56  C   UNL A   1      45.911  25.756  27.318  1.00  0.00     0.031 A 
ATOM     57  C   UNL A   1      41.918  30.351  29.634  1.00  0.00     0.049 A 
ATOM     58  C   UNL A   1      45.914  27.227  26.955  1.00  0.00     0.074 A 
ATOM     59  C   UNL A   1      42.881  30.193  30.616  1.00  0.00     0.029 A 
ATOM     60  N   UNL A   1      42.603  30.501  28.442  1.00  0.00    -0.354 N 
ATOM     61  N   UNL A   1      45.221  28.140  27.581  1.00  0.00    -0.248 NA
ATOM     62  C   UNL A   1      46.639  27.768  25.811  1.00  0.00     0.031 C 
ATOM     63  C   UNL A   1      44.158  30.200  29.979  1.00  0.00     0.029 A 
ATOM     64  C   UNL A   1      43.967  30.401  28.623  1.00  0.00     0.049 A 
ATOM     65  H   UNL A   1      42.170  30.660  27.571  1.00  0.00     0.167 HD
ATOM     66  C   UNL A   1      45.405  29.351  26.985  1.00  0.00     0.074 A 
ATOM     67  C   UNL A   1      46.270  29.061  25.853  1.00  0.00     0.031 C 
ATOM     68  C   UNL A   1      44.828  30.494  27.455  1.00  0.00     0.031 A 
BRANCH  55  69
ATOM     69  C   UNL A   1      39.463  30.890  30.327  1.00  0.00    -0.014 A 
ATOM     70  C   UNL A   1      38.559  31.685  29.593  1.00  0.00     0.009 A 
ATOM     71  C   UNL A   1      39.341  30.954  31.725  1.00  0.00     0.009 A 
ATOM     72  C   UNL A   1      37.633  32.537  30.208  1.00  0.00     0.001 A 
ATOM     73  C   UNL A   1      38.423  31.816  32.350  1.00  0.00     0.001 A 
ATOM     74  C   UNL A   1      37.575  32.614  31.591  1.00  0.00     0.000 A 
ENDBRANCH  55  69
BRANCH  56  75
ATOM     75  C   UNL A   1      45.692  24.637  26.321  1.00  0.00    -0.014 A 
ATOM     76  C   UNL A   1      46.041  23.314  26.685  1.00  0.00     0.009 A 
ATOM     77  C   UNL A   1      44.890  24.802  25.181  1.00  0.00     0.009 A 
ATOM     78  C   UNL A   1      45.522  22.204  26.004  1.00  0.00     0.001 A 
ATOM     79  C   UNL A   1      44.400  23.687  24.478  1.00  0.00     0.001 A 
ATOM     80  C   UNL A   1      44.689  22.392  24.908  1.00  0.00     0.000 A 
ENDBRANCH  56  75
BRANCH  68  81
ATOM     81  C   UNL A   1      45.026  31.832  26.808  1.00  0.00    -0.014 A 
ATOM     82  C   UNL A   1      46.113  32.657  27.115  1.00  0.00     0.009 A 
ATOM     83  C   UNL A   1      44.051  32.350  25.932  1.00  0.00     0.009 A 
ATOM     84  C   UNL A   1      46.270  33.901  26.495  1.00  0.00     0.001 A 
ATOM     85  C   UNL A   1      44.185  33.603  25.338  1.00  0.00     0.001 A 
ATOM     86  C   UNL A   1      45.309  34.370  25.603  1.00  0.00     0.000 A 
ENDBRANCH  68  81
ENDBRANCH  42  43
ENDBRANCH  35  37
ENDBRANCH  34  35
ENDBRANCH  33  34
ENDBRANCH  32  33
ENDBRANCH   1  32
TORSDOF 16
ENDMDL
MODEL 3
REMARK VINA RESULT:     -11.7      2.546      8.636
REMARK SMILES Cc1ccc(N2C(=O)N[C@@H]3CCN(C(=O)CC4(CC(=O)OCCOC(=O)c5ccc(-c6c7nc(c(-c8ccccc8)c8ccc([nH]8)c(-c8ccccc8)c8nc(c(-c9ccccc9)c9ccc6[nH]9)C=C8)C=C7)cc5)CCCC4)[C@@H]3C2=O)cc1
REMARK SMILES IDX 21 1 19 2 20 3 18 4 17 5 75 6 78 7 76 8 77 9 16 10 14 11
REMARK SMILES IDX 15 12 13 13 6 14 7 15 80 16 8 17 9 18 79 19 81 20 10 21
REMARK SMILES IDX 11 23 12 24 5 25 1 26 2 27 3 28 83 29 4 30 82 31 22 32 23 33
REMARK SMILES IDX 24 34 25 35 26 36 27 37 28 38 74 39 29 40 73 41 30 42 31 43
REMARK SMILES IDX 32 44 67 45 33 46 72 47 66 48 68 49 34 50 71 51 65 52 64 53
REMARK SMILES IDX 35 55 57 56 42 57 56 58 43 59 46 60 55 61 69 62 44 63 45 64
REMARK SMILES IDX 54 66 70 67 47 68 36 69 37 70 41 71 38 72 40 73 39 74 58 75
REMARK SMILES IDX 59 76 63 77 60 78 62 79 61 80 48 81 49 82 53 83 50 84 52 85
REMARK SMILES IDX 51 86
REMARK H PARENT 9 22 68 54 46 65
REMARK Flexibility Score: inf
ROOT
ATOM      1  O   UNL A   1      31.427  29.975  27.078  1.00  0.00    -0.462 OA
ENDROOT
BRANCH   1   2
ATOM      2  C   UNL A   1      31.906  28.730  27.308  1.00  0.00     0.306 C 
ATOM      3  O   UNL A   1      31.352  27.889  28.002  1.00  0.00    -0.252 OA
BRANCH   2   4
ATOM      4  C   UNL A   1      33.273  28.555  26.670  1.00  0.00     0.130 C 
BRANCH   4   5
ATOM      5  C   UNL A   1      33.235  27.507  25.529  1.00  0.00    -0.011 C 
ATOM      6  C   UNL A   1      34.154  27.965  24.382  1.00  0.00     0.008 C 
ATOM      7  C   UNL A   1      31.804  27.603  24.929  1.00  0.00     0.008 C 
ATOM      8  C   UNL A   1      33.346  28.989  23.603  1.00  0.00     0.001 C 
ATOM      9  C   UNL A   1      31.890  28.566  23.746  1.00  0.00     0.001 C 
BRANCH   5  10
ATOM     10  C   UNL A   1      33.648  26.112  26.116  1.00  0.00     0.107 C 
BRANCH  10  11
ATOM     11  C   UNL A   1      34.405  25.092  25.260  1.00  0.00     0.223 C 
ATOM     12  O   UNL A   1      35.539  24.731  25.570  1.00  0.00    -0.275 OA
BRANCH  11  13
ATOM     13  N   UNL A   1      33.750  24.558  24.178  1.00  0.00    -0.328 N 
ATOM     14  N   UNL A   1      32.955  21.016  23.894  1.00  0.00    -0.230 N 
ATOM     15  C   UNL A   1      32.129  21.058  22.778  1.00  0.00     0.329 C 
ATOM     16  C   UNL A   1      33.453  22.133  24.570  1.00  0.00     0.260 C 
ATOM     17  O   UNL A   1      31.823  20.108  22.059  1.00  0.00    -0.248 OA
ATOM     18  N   UNL A   1      31.569  22.259  22.475  1.00  0.00    -0.332 N 
ATOM     19  C   UNL A   1      32.764  23.480  24.302  1.00  0.00     0.197 C 
ATOM     20  O   UNL A   1      34.403  22.054  25.358  1.00  0.00    -0.271 OA
ATOM     21  C   UNL A   1      32.031  23.518  22.966  1.00  0.00     0.118 C 
ATOM     22  H   UNL A   1      30.791  22.262  21.873  1.00  0.00     0.165 HD
ATOM     23  C   UNL A   1      33.038  24.089  21.982  1.00  0.00     0.049 C 
ATOM     24  C   UNL A   1      33.892  24.995  22.817  1.00  0.00     0.122 C 
BRANCH  14  25
ATOM     25  C   UNL A   1      33.312  19.730  24.403  1.00  0.00     0.054 A 
ATOM     26  C   UNL A   1      34.125  15.625  25.421  1.00  0.00     0.044 C 
ATOM     27  C   UNL A   1      33.846  17.065  25.110  1.00  0.00    -0.051 A 
ATOM     28  C   UNL A   1      34.871  17.893  24.635  1.00  0.00     0.005 A 
ATOM     29  C   UNL A   1      32.566  17.597  25.288  1.00  0.00     0.005 A 
ATOM     30  C   UNL A   1      34.602  19.212  24.264  1.00  0.00     0.027 A 
ATOM     31  C   UNL A   1      32.304  18.926  24.955  1.00  0.00     0.027 A 
ENDBRANCH  14  25
ENDBRANCH  11  13
ENDBRANCH  10  11
ENDBRANCH   5  10
ENDBRANCH   4   5
ENDBRANCH   2   4
ENDBRANCH   1   2
BRANCH   1  32
ATOM     32  C   UNL A   1      32.383  31.025  27.015  1.00  0.00     0.274 C 
BRANCH  32  33
ATOM     33  C   UNL A   1      31.675  32.386  27.084  1.00  0.00     0.275 C 
BRANCH  33  34
ATOM     34  O   UNL A   1      32.470  33.593  27.335  1.00  0.00    -0.458 OA
BRANCH  34  35
ATOM     35  C   UNL A   1      33.075  34.106  28.449  1.00  0.00     0.338 C 
ATOM     36  O   UNL A   1      32.569  34.981  29.110  1.00  0.00    -0.246 OA
BRANCH  35  37
ATOM     37  C   UNL A   1      34.356  33.512  28.878  1.00  0.00     0.060 A 
ATOM     38  C   UNL A   1      34.380  32.288  29.573  1.00  0.00     0.016 A 
ATOM     39  C   UNL A   1      35.530  34.109  28.471  1.00  0.00     0.016 A 
ATOM     40  C   UNL A   1      35.588  31.599  29.736  1.00  0.00     0.010 A 
ATOM     41  C   UNL A   1      36.664  33.341  28.430  1.00  0.00     0.010 A 
ATOM     42  C   UNL A   1      36.725  32.115  29.119  1.00  0.00    -0.014 A 
BRANCH  42  43
ATOM     43  C   UNL A   1      38.096  31.687  29.369  1.00  0.00     0.031 A 
ATOM     44  C   UNL A   1      38.713  30.441  28.884  1.00  0.00     0.074 A 
ATOM     45  C   UNL A   1      38.798  32.649  30.015  1.00  0.00     0.049 A 
ATOM     46  N   UNL A   1      39.804  29.974  29.386  1.00  0.00    -0.248 NA
ATOM     47  C   UNL A   1      38.194  29.595  27.816  1.00  0.00     0.031 C 
ATOM     48  C   UNL A   1      40.215  32.829  30.255  1.00  0.00     0.029 A 
ATOM     49  N   UNL A   1      38.209  33.687  30.745  1.00  0.00    -0.354 N 
ATOM     50  C   UNL A   1      40.282  28.997  28.540  1.00  0.00     0.074 A 
ATOM     51  C   UNL A   1      39.202  28.730  27.625  1.00  0.00     0.031 C 
ATOM     52  C   UNL A   1      40.357  33.699  31.280  1.00  0.00     0.029 A 
ATOM     53  C   UNL A   1      39.027  33.966  31.827  1.00  0.00     0.049 A 
ATOM     54  H   UNL A   1      37.362  34.139  30.528  1.00  0.00     0.167 HD
ATOM     55  C   UNL A   1      41.593  28.638  28.646  1.00  0.00     0.031 A 
ATOM     56  C   UNL A   1      38.544  33.586  33.050  1.00  0.00     0.031 A 
ATOM     57  C   UNL A   1      42.218  29.316  29.781  1.00  0.00     0.049 A 
ATOM     58  C   UNL A   1      39.343  32.441  33.637  1.00  0.00     0.074 A 
ATOM     59  C   UNL A   1      43.011  30.444  29.902  1.00  0.00     0.029 A 
ATOM     60  N   UNL A   1      41.726  29.050  31.046  1.00  0.00    -0.354 N 
ATOM     61  N   UNL A   1      40.209  31.730  32.967  1.00  0.00    -0.248 NA
ATOM     62  C   UNL A   1      39.170  31.963  35.004  1.00  0.00     0.031 C 
ATOM     63  C   UNL A   1      42.945  30.879  31.260  1.00  0.00     0.029 A 
ATOM     64  C   UNL A   1      42.145  29.994  31.962  1.00  0.00     0.049 A 
ATOM     65  H   UNL A   1      41.150  28.282  31.267  1.00  0.00     0.167 HD
ATOM     66  C   UNL A   1      40.720  30.751  33.765  1.00  0.00     0.074 A 
ATOM     67  C   UNL A   1      40.008  30.911  35.023  1.00  0.00     0.031 C 
ATOM     68  C   UNL A   1      41.678  29.880  33.334  1.00  0.00     0.031 A 
BRANCH  55  69
ATOM     69  C   UNL A   1      42.386  27.861  27.624  1.00  0.00    -0.014 A 
ATOM     70  C   UNL A   1      43.241  26.833  28.072  1.00  0.00     0.009 A 
ATOM     71  C   UNL A   1      42.372  28.086  26.237  1.00  0.00     0.009 A 
ATOM     72  C   UNL A   1      44.075  26.115  27.207  1.00  0.00     0.001 A 
ATOM     73  C   UNL A   1      43.217  27.379  25.363  1.00  0.00     0.001 A 
ATOM     74  C   UNL A   1      44.074  26.399  25.850  1.00  0.00     0.000 A 
ENDBRANCH  55  69
BRANCH  56  75
ATOM     75  C   UNL A   1      37.043  33.731  33.186  1.00  0.00    -0.014 A 
ATOM     76  C   UNL A   1      36.448  34.993  32.941  1.00  0.00     0.009 A 
ATOM     77  C   UNL A   1      36.190  32.617  33.247  1.00  0.00     0.009 A 
ATOM     78  C   UNL A   1      35.080  35.118  32.662  1.00  0.00     0.001 A 
ATOM     79  C   UNL A   1      34.812  32.752  33.003  1.00  0.00     0.001 A 
ATOM     80  C   UNL A   1      34.264  33.993  32.679  1.00  0.00     0.000 A 
ENDBRANCH  56  75
BRANCH  68  81
ATOM     81  C   UNL A   1      42.249  28.801  34.205  1.00  0.00    -0.014 A 
ATOM     82  C   UNL A   1      41.739  27.498  34.212  1.00  0.00     0.009 A 
ATOM     83  C   UNL A   1      43.267  29.100  35.132  1.00  0.00     0.009 A 
ATOM     84  C   UNL A   1      42.294  26.513  35.035  1.00  0.00     0.001 A 
ATOM     85  C   UNL A   1      43.799  28.130  35.980  1.00  0.00     0.001 A 
ATOM     86  C   UNL A   1      43.327  26.829  35.915  1.00  0.00     0.000 A 
ENDBRANCH  68  81
ENDBRANCH  42  43
ENDBRANCH  35  37
ENDBRANCH  34  35
ENDBRANCH  33  34
ENDBRANCH  32  33
ENDBRANCH   1  32
TORSDOF 16
ENDMDL
