MODEL 1
REMARK VINA RESULT:     -11.4      0.000      0.000
REMARK SMILES Cn1ncc2c(NCCC3=CCCCC3)c(C(=O)OCCOC(=O)c3ccc(-c4c5nc(c(-c6ccccc6)c6ccc([nH]6)c(-c6ccccc6)c6nc(c(-c7ccccc7)c7ccc4[nH]7)C=C6)C=C5)cc3)cnc21
REMARK SMILES IDX 20 1 19 2 17 3 18 4 16 5 1 6 2 7 3 8 75 9 4 10 5 11 74 12
REMARK SMILES IDX 6 13 73 14 7 15 8 17 9 18 10 19 11 20 15 21 12 22 14 23
REMARK SMILES IDX 13 24 21 25 22 26 23 27 24 28 25 29 26 30 72 31 27 32 71 33
REMARK SMILES IDX 28 34 29 35 30 36 65 37 31 38 70 39 64 40 66 41 32 42 69 43
REMARK SMILES IDX 63 44 62 45 33 47 55 48 40 49 54 50 41 51 44 52 53 53 67 54
REMARK SMILES IDX 42 55 43 56 52 58 68 59 45 60 34 61 35 62 39 63 36 64 38 65
REMARK SMILES IDX 37 66 56 67 57 68 61 69 58 70 60 71 59 72 46 73 47 74 51 75
REMARK SMILES IDX 48 76 50 77 49 78
REMARK H PARENT 7 16 66 46 44 57
REMARK Flexibility Score: inf
ROOT
ATOM      1  C   UNL A   1      32.894  30.717  27.015  1.00  0.00     0.275 C 
ENDROOT
BRANCH   1   2
ATOM      2  O   UNL A   1      33.437  29.571  26.320  1.00  0.00    -0.458 OA
BRANCH   2   3
ATOM      3  C   UNL A   1      32.849  28.374  26.596  1.00  0.00     0.341 C 
ATOM      4  O   UNL A   1      32.086  28.190  27.535  1.00  0.00    -0.246 OA
BRANCH   3   5
ATOM      5  C   UNL A   1      33.203  27.319  25.607  1.00  0.00     0.102 A 
ATOM      6  C   UNL A   1      34.039  22.797  23.341  1.00  0.00     0.176 C 
ATOM      7  N   UNL A   1      33.769  24.194  23.115  1.00  0.00    -0.250 N 
ATOM      8  N   UNL A   1      33.578  24.650  21.864  1.00  0.00    -0.179 NA
ATOM      9  C   UNL A   1      33.644  25.156  24.081  1.00  0.00     0.159 A 
ATOM     10  C   UNL A   1      33.333  25.951  22.056  1.00  0.00     0.147 A 
ATOM     11  C   UNL A   1      33.324  26.342  23.422  1.00  0.00     0.063 A 
ATOM     12  N   UNL A   1      33.798  24.960  25.403  1.00  0.00    -0.236 NA
ATOM     13  C   UNL A   1      33.100  27.517  24.189  1.00  0.00     0.063 A 
ATOM     14  C   UNL A   1      33.569  26.077  26.123  1.00  0.00     0.131 A 
BRANCH  13  15
ATOM     15  N   UNL A   1      32.773  28.764  23.675  1.00  0.00    -0.383 N 
ATOM     16  H   UNL A   1      33.210  29.521  24.128  1.00  0.00     0.160 HD
BRANCH  15  17
ATOM     17  C   UNL A   1      31.894  29.142  22.577  1.00  0.00     0.117 C 
BRANCH  17  18
ATOM     18  C   UNL A   1      30.409  28.871  22.903  1.00  0.00     0.052 C 
BRANCH  18  19
ATOM     19  C   UNL A   1      29.422  29.992  22.616  1.00  0.00    -0.072 C 
ATOM     20  C   UNL A   1      28.946  30.221  21.381  1.00  0.00    -0.028 C 
ATOM     21  C   UNL A   1      29.086  30.925  23.755  1.00  0.00     0.031 C 
ATOM     22  C   UNL A   1      28.034  31.338  20.998  1.00  0.00     0.027 C 
ATOM     23  C   UNL A   1      27.985  31.944  23.430  1.00  0.00     0.005 C 
ATOM     24  C   UNL A   1      28.094  32.478  22.004  1.00  0.00     0.004 C 
ENDBRANCH  18  19
ENDBRANCH  17  18
ENDBRANCH  15  17
ENDBRANCH  13  15
ENDBRANCH   3   5
ENDBRANCH   2   3
ENDBRANCH   1   2
BRANCH   1  25
ATOM     25  C   UNL A   1      33.958  31.528  27.758  1.00  0.00     0.275 C 
BRANCH  25  26
ATOM     26  O   UNL A   1      34.839  30.721  28.548  1.00  0.00    -0.458 OA
BRANCH  26  27
ATOM     27  C   UNL A   1      35.871  31.428  29.048  1.00  0.00     0.338 C 
ATOM     28  O   UNL A   1      35.839  32.527  29.580  1.00  0.00    -0.246 OA
BRANCH  27  29
ATOM     29  C   UNL A   1      37.150  30.844  28.673  1.00  0.00     0.060 A 
ATOM     30  C   UNL A   1      37.091  29.547  28.166  1.00  0.00     0.016 A 
ATOM     31  C   UNL A   1      38.313  31.383  29.240  1.00  0.00     0.016 A 
ATOM     32  C   UNL A   1      38.157  28.715  28.389  1.00  0.00     0.010 A 
ATOM     33  C   UNL A   1      39.386  30.545  29.454  1.00  0.00     0.010 A 
ATOM     34  C   UNL A   1      39.262  29.203  29.098  1.00  0.00    -0.014 A 
BRANCH  34  35
ATOM     35  C   UNL A   1      40.328  28.253  29.339  1.00  0.00     0.031 A 
ATOM     36  C   UNL A   1      40.690  28.171  30.777  1.00  0.00     0.074 A 
ATOM     37  C   UNL A   1      40.877  27.508  28.363  1.00  0.00     0.049 A 
ATOM     38  N   UNL A   1      41.828  28.426  31.333  1.00  0.00    -0.248 NA
ATOM     39  C   UNL A   1      39.585  27.945  31.729  1.00  0.00     0.031 C 
ATOM     40  C   UNL A   1      40.427  27.336  26.979  1.00  0.00     0.029 A 
ATOM     41  N   UNL A   1      41.914  26.636  28.453  1.00  0.00    -0.354 N 
ATOM     42  C   UNL A   1      41.625  28.237  32.695  1.00  0.00     0.074 A 
ATOM     43  C   UNL A   1      40.205  28.094  32.896  1.00  0.00     0.031 C 
ATOM     44  C   UNL A   1      41.007  26.228  26.461  1.00  0.00     0.029 A 
ATOM     45  C   UNL A   1      41.964  25.707  27.422  1.00  0.00     0.049 A 
ATOM     46  H   UNL A   1      42.572  26.660  29.185  1.00  0.00     0.167 HD
ATOM     47  C   UNL A   1      42.645  27.959  33.546  1.00  0.00     0.031 A 
ATOM     48  C   UNL A   1      42.659  24.541  27.447  1.00  0.00     0.031 A 
ATOM     49  C   UNL A   1      43.921  28.360  33.026  1.00  0.00     0.049 A 
ATOM     50  C   UNL A   1      43.694  24.682  28.503  1.00  0.00     0.074 A 
ATOM     51  C   UNL A   1      44.502  29.569  32.705  1.00  0.00     0.029 A 
ATOM     52  N   UNL A   1      44.670  27.399  32.396  1.00  0.00    -0.354 N 
ATOM     53  N   UNL A   1      44.684  25.526  28.445  1.00  0.00    -0.248 NA
ATOM     54  C   UNL A   1      43.377  24.180  29.832  1.00  0.00     0.031 C 
ATOM     55  C   UNL A   1      45.273  29.310  31.535  1.00  0.00     0.029 A 
ATOM     56  C   UNL A   1      45.160  27.950  31.239  1.00  0.00     0.049 A 
ATOM     57  H   UNL A   1      44.829  26.482  32.716  1.00  0.00     0.167 HD
ATOM     58  C   UNL A   1      44.841  25.979  29.747  1.00  0.00     0.074 A 
ATOM     59  C   UNL A   1      44.068  25.051  30.570  1.00  0.00     0.031 C 
ATOM     60  C   UNL A   1      45.349  27.217  30.008  1.00  0.00     0.031 A 
BRANCH  47  61
ATOM     61  C   UNL A   1      42.483  26.945  34.643  1.00  0.00    -0.014 A 
ATOM     62  C   UNL A   1      42.653  25.582  34.365  1.00  0.00     0.009 A 
ATOM     63  C   UNL A   1      41.904  27.278  35.887  1.00  0.00     0.009 A 
ATOM     64  C   UNL A   1      42.244  24.605  35.282  1.00  0.00     0.001 A 
ATOM     65  C   UNL A   1      41.533  26.310  36.819  1.00  0.00     0.001 A 
ATOM     66  C   UNL A   1      41.686  24.969  36.507  1.00  0.00     0.000 A 
ENDBRANCH  47  61
BRANCH  48  67
ATOM     67  C   UNL A   1      42.171  23.200  27.025  1.00  0.00    -0.014 A 
ATOM     68  C   UNL A   1      43.006  22.368  26.254  1.00  0.00     0.009 A 
ATOM     69  C   UNL A   1      41.051  22.606  27.634  1.00  0.00     0.009 A 
ATOM     70  C   UNL A   1      42.779  20.988  26.174  1.00  0.00     0.001 A 
ATOM     71  C   UNL A   1      40.817  21.229  27.542  1.00  0.00     0.001 A 
ATOM     72  C   UNL A   1      41.696  20.417  26.835  1.00  0.00     0.000 A 
ENDBRANCH  48  67
BRANCH  60  73
ATOM     73  C   UNL A   1      45.934  27.995  28.855  1.00  0.00    -0.014 A 
ATOM     74  C   UNL A   1      47.291  27.916  28.488  1.00  0.00     0.009 A 
ATOM     75  C   UNL A   1      45.053  28.680  28.009  1.00  0.00     0.009 A 
ATOM     76  C   UNL A   1      47.745  28.511  27.305  1.00  0.00     0.001 A 
ATOM     77  C   UNL A   1      45.504  29.259  26.822  1.00  0.00     0.001 A 
ATOM     78  C   UNL A   1      46.849  29.174  26.468  1.00  0.00     0.000 A 
ENDBRANCH  60  73
ENDBRANCH  34  35
ENDBRANCH  27  29
ENDBRANCH  26  27
ENDBRANCH  25  26
ENDBRANCH   1  25
TORSDOF 15
ENDMDL
MODEL 2
REMARK VINA RESULT:     -11.4      1.850      2.367
REMARK SMILES Cn1ncc2c(NCCC3=CCCCC3)c(C(=O)OCCOC(=O)c3ccc(-c4c5nc(c(-c6ccccc6)c6ccc([nH]6)c(-c6ccccc6)c6nc(c(-c7ccccc7)c7ccc4[nH]7)C=C6)C=C5)cc3)cnc21
REMARK SMILES IDX 20 1 19 2 17 3 18 4 16 5 1 6 2 7 3 8 75 9 4 10 5 11 74 12
REMARK SMILES IDX 6 13 73 14 7 15 8 17 9 18 10 19 11 20 15 21 12 22 14 23
REMARK SMILES IDX 13 24 21 25 22 26 23 27 24 28 25 29 26 30 72 31 27 32 71 33
REMARK SMILES IDX 28 34 29 35 30 36 65 37 31 38 70 39 64 40 66 41 32 42 69 43
REMARK SMILES IDX 63 44 62 45 33 47 55 48 40 49 54 50 41 51 44 52 53 53 67 54
REMARK SMILES IDX 42 55 43 56 52 58 68 59 45 60 34 61 35 62 39 63 36 64 38 65
REMARK SMILES IDX 37 66 56 67 57 68 61 69 58 70 60 71 59 72 46 73 47 74 51 75
REMARK SMILES IDX 48 76 50 77 49 78
REMARK H PARENT 7 16 66 46 44 57
REMARK Flexibility Score: inf
ROOT
ATOM      1  C   UNL A   1      32.096  29.979  26.456  1.00  0.00     0.275 C 
ENDROOT
BRANCH   1   2
ATOM      2  O   UNL A   1      32.671  28.667  26.263  1.00  0.00    -0.458 OA
BRANCH   2   3
ATOM      3  C   UNL A   1      31.898  27.615  26.652  1.00  0.00     0.341 C 
ATOM      4  O   UNL A   1      31.092  27.665  27.571  1.00  0.00    -0.246 OA
BRANCH   3   5
ATOM      5  C   UNL A   1      32.112  26.404  25.812  1.00  0.00     0.102 A 
ATOM      6  C   UNL A   1      33.715  21.854  24.077  1.00  0.00     0.176 C 
ATOM      7  N   UNL A   1      32.686  22.856  23.974  1.00  0.00    -0.250 N 
ATOM      8  N   UNL A   1      31.613  22.643  23.190  1.00  0.00    -0.179 NA
ATOM      9  C   UNL A   1      32.653  24.050  24.644  1.00  0.00     0.159 A 
ATOM     10  C   UNL A   1      30.887  23.751  23.371  1.00  0.00     0.147 A 
ATOM     11  C   UNL A   1      31.454  24.669  24.294  1.00  0.00     0.063 A 
ATOM     12  N   UNL A   1      33.606  24.502  25.479  1.00  0.00    -0.236 NA
ATOM     13  C   UNL A   1      31.135  25.927  24.875  1.00  0.00     0.063 A 
ATOM     14  C   UNL A   1      33.286  25.689  26.035  1.00  0.00     0.131 A 
BRANCH  13  15
ATOM     15  N   UNL A   1      29.983  26.659  24.625  1.00  0.00    -0.383 N 
ATOM     16  H   UNL A   1      29.339  26.676  25.370  1.00  0.00     0.160 HD
BRANCH  15  17
ATOM     17  C   UNL A   1      29.566  27.409  23.448  1.00  0.00     0.117 C 
BRANCH  17  18
ATOM     18  C   UNL A   1      30.228  28.803  23.384  1.00  0.00     0.052 C 
BRANCH  18  19
ATOM     19  C   UNL A   1      29.366  29.955  22.892  1.00  0.00    -0.072 C 
ATOM     20  C   UNL A   1      28.901  30.009  21.633  1.00  0.00    -0.028 C 
ATOM     21  C   UNL A   1      29.150  31.110  23.841  1.00  0.00     0.031 C 
ATOM     22  C   UNL A   1      28.111  31.131  21.048  1.00  0.00     0.027 C 
ATOM     23  C   UNL A   1      28.163  32.168  23.330  1.00  0.00     0.005 C 
ATOM     24  C   UNL A   1      28.309  32.420  21.831  1.00  0.00     0.004 C 
ENDBRANCH  18  19
ENDBRANCH  17  18
ENDBRANCH  15  17
ENDBRANCH  13  15
ENDBRANCH   3   5
ENDBRANCH   2   3
ENDBRANCH   1   2
BRANCH   1  25
ATOM     25  C   UNL A   1      33.006  30.923  27.244  1.00  0.00     0.275 C 
BRANCH  25  26
ATOM     26  O   UNL A   1      34.391  30.566  27.177  1.00  0.00    -0.458 OA
BRANCH  26  27
ATOM     27  C   UNL A   1      35.183  31.464  27.794  1.00  0.00     0.338 C 
ATOM     28  O   UNL A   1      35.218  32.673  27.625  1.00  0.00    -0.246 OA
BRANCH  27  29
ATOM     29  C   UNL A   1      36.230  30.813  28.566  1.00  0.00     0.060 A 
ATOM     30  C   UNL A   1      37.267  31.643  28.991  1.00  0.00     0.016 A 
ATOM     31  C   UNL A   1      36.376  29.425  28.442  1.00  0.00     0.016 A 
ATOM     32  C   UNL A   1      38.519  31.101  29.123  1.00  0.00     0.010 A 
ATOM     33  C   UNL A   1      37.634  28.882  28.585  1.00  0.00     0.010 A 
ATOM     34  C   UNL A   1      38.702  29.741  28.844  1.00  0.00    -0.014 A 
BRANCH  34  35
ATOM     35  C   UNL A   1      40.060  29.251  28.956  1.00  0.00     0.031 A 
ATOM     36  C   UNL A   1      40.440  28.971  30.364  1.00  0.00     0.074 A 
ATOM     37  C   UNL A   1      40.849  29.037  27.888  1.00  0.00     0.049 A 
ATOM     38  N   UNL A   1      41.390  29.505  31.060  1.00  0.00    -0.248 NA
ATOM     39  C   UNL A   1      39.526  28.111  31.142  1.00  0.00     0.031 C 
ATOM     40  C   UNL A   1      40.489  29.044  26.468  1.00  0.00     0.029 A 
ATOM     41  N   UNL A   1      42.148  28.642  27.868  1.00  0.00    -0.354 N 
ATOM     42  C   UNL A   1      41.293  28.929  32.321  1.00  0.00     0.074 A 
ATOM     43  C   UNL A   1      40.049  28.203  32.361  1.00  0.00     0.031 C 
ATOM     44  C   UNL A   1      41.456  28.408  25.765  1.00  0.00     0.029 A 
ATOM     45  C   UNL A   1      42.551  28.083  26.662  1.00  0.00     0.049 A 
ATOM     46  H   UNL A   1      42.750  28.741  28.640  1.00  0.00     0.167 HD
ATOM     47  C   UNL A   1      42.349  28.872  33.172  1.00  0.00     0.031 A 
ATOM     48  C   UNL A   1      43.653  27.310  26.483  1.00  0.00     0.031 A 
ATOM     49  C   UNL A   1      43.355  29.849  32.868  1.00  0.00     0.049 A 
ATOM     50  C   UNL A   1      44.558  27.582  27.628  1.00  0.00     0.074 A 
ATOM     51  C   UNL A   1      43.404  31.227  32.880  1.00  0.00     0.029 A 
ATOM     52  N   UNL A   1      44.417  29.436  32.104  1.00  0.00    -0.354 N 
ATOM     53  N   UNL A   1      45.131  28.730  27.848  1.00  0.00    -0.248 NA
ATOM     54  C   UNL A   1      44.481  26.691  28.777  1.00  0.00     0.031 C 
ATOM     55  C   UNL A   1      44.202  31.578  31.752  1.00  0.00     0.029 A 
ATOM     56  C   UNL A   1      44.635  30.396  31.148  1.00  0.00     0.049 A 
ATOM     57  H   UNL A   1      44.931  28.605  32.220  1.00  0.00     0.167 HD
ATOM     58  C   UNL A   1      45.109  28.879  29.227  1.00  0.00     0.074 A 
ATOM     59  C   UNL A   1      44.777  27.556  29.749  1.00  0.00     0.031 C 
ATOM     60  C   UNL A   1      45.086  30.115  29.804  1.00  0.00     0.031 A 
BRANCH  47  61
ATOM     61  C   UNL A   1      42.615  27.642  33.993  1.00  0.00    -0.014 A 
ATOM     62  C   UNL A   1      43.421  26.619  33.478  1.00  0.00     0.009 A 
ATOM     63  C   UNL A   1      41.872  27.347  35.157  1.00  0.00     0.009 A 
ATOM     64  C   UNL A   1      43.464  25.359  34.090  1.00  0.00     0.001 A 
ATOM     65  C   UNL A   1      41.942  26.108  35.792  1.00  0.00     0.001 A 
ATOM     66  C   UNL A   1      42.726  25.106  35.245  1.00  0.00     0.000 A 
ENDBRANCH  47  61
BRANCH  48  67
ATOM     67  C   UNL A   1      43.733  26.029  25.728  1.00  0.00    -0.014 A 
ATOM     68  C   UNL A   1      44.979  25.581  25.253  1.00  0.00     0.009 A 
ATOM     69  C   UNL A   1      42.677  25.100  25.754  1.00  0.00     0.009 A 
ATOM     70  C   UNL A   1      45.183  24.238  24.908  1.00  0.00     0.001 A 
ATOM     71  C   UNL A   1      42.877  23.762  25.395  1.00  0.00     0.001 A 
ATOM     72  C   UNL A   1      44.136  23.325  24.999  1.00  0.00     0.000 A 
ENDBRANCH  48  67
BRANCH  60  73
ATOM     73  C   UNL A   1      45.302  31.312  28.912  1.00  0.00    -0.014 A 
ATOM     74  C   UNL A   1      46.570  31.882  28.688  1.00  0.00     0.009 A 
ATOM     75  C   UNL A   1      44.224  31.757  28.136  1.00  0.00     0.009 A 
ATOM     76  C   UNL A   1      46.744  32.873  27.713  1.00  0.00     0.001 A 
ATOM     77  C   UNL A   1      44.402  32.732  27.153  1.00  0.00     0.001 A 
ATOM     78  C   UNL A   1      45.661  33.289  26.940  1.00  0.00     0.000 A 
ENDBRANCH  60  73
ENDBRANCH  34  35
ENDBRANCH  27  29
ENDBRANCH  26  27
ENDBRANCH  25  26
ENDBRANCH   1  25
TORSDOF 15
ENDMDL
MODEL 3
REMARK VINA RESULT:     -11.2      5.590     10.676
REMARK SMILES Cn1ncc2c(NCCC3=CCCCC3)c(C(=O)OCCOC(=O)c3ccc(-c4c5nc(c(-c6ccccc6)c6ccc([nH]6)c(-c6ccccc6)c6nc(c(-c7ccccc7)c7ccc4[nH]7)C=C6)C=C5)cc3)cnc21
REMARK SMILES IDX 20 1 19 2 17 3 18 4 16 5 1 6 2 7 3 8 75 9 4 10 5 11 74 12
REMARK SMILES IDX 6 13 73 14 7 15 8 17 9 18 10 19 11 20 15 21 12 22 14 23
REMARK SMILES IDX 13 24 21 25 22 26 23 27 24 28 25 29 26 30 72 31 27 32 71 33
REMARK SMILES IDX 28 34 29 35 30 36 65 37 31 38 70 39 64 40 66 41 32 42 69 43
REMARK SMILES IDX 63 44 62 45 33 47 55 48 40 49 54 50 41 51 44 52 53 53 67 54
REMARK SMILES IDX 42 55 43 56 52 58 68 59 45 60 34 61 35 62 39 63 36 64 38 65
REMARK SMILES IDX 37 66 56 67 57 68 61 69 58 70 60 71 59 72 46 73 47 74 51 75
REMARK SMILES IDX 48 76 50 77 49 78
REMARK H PARENT 7 16 66 46 44 57
REMARK Flexibility Score: inf
ROOT
ATOM      1  C   UNL A   1      45.007  26.558  25.421  1.00  0.00     0.275 C 
ENDROOT
BRANCH   1   2
ATOM      2  O   UNL A   1      45.106  25.217  24.887  1.00  0.00    -0.458 OA
BRANCH   2   3
ATOM      3  C   UNL A   1      43.987  24.450  24.998  1.00  0.00     0.341 C 
ATOM      4  O   UNL A   1      42.852  24.902  25.048  1.00  0.00    -0.246 OA
BRANCH   3   5
ATOM      5  C   UNL A   1      44.291  22.991  25.014  1.00  0.00     0.102 A 
ATOM      6  C   UNL A   1      46.681  18.479  25.476  1.00  0.00     0.176 C 
ATOM      7  N   UNL A   1      45.399  19.137  25.469  1.00  0.00    -0.250 N 
ATOM      8  N   UNL A   1      44.280  18.435  25.725  1.00  0.00    -0.179 NA
ATOM      9  C   UNL A   1      45.178  20.471  25.254  1.00  0.00     0.159 A 
ATOM     10  C   UNL A   1      43.322  19.366  25.659  1.00  0.00     0.147 A 
ATOM     11  C   UNL A   1      43.807  20.676  25.401  1.00  0.00     0.063 A 
ATOM     12  N   UNL A   1      46.126  21.382  24.969  1.00  0.00    -0.236 NA
ATOM     13  C   UNL A   1      43.290  21.993  25.263  1.00  0.00     0.063 A 
ATOM     14  C   UNL A   1      45.626  22.630  24.855  1.00  0.00     0.131 A 
BRANCH  13  15
ATOM     15  N   UNL A   1      41.954  22.349  25.382  1.00  0.00    -0.383 N 
ATOM     16  H   UNL A   1      41.567  22.765  24.578  1.00  0.00     0.160 HD
BRANCH  15  17
ATOM     17  C   UNL A   1      41.025  22.209  26.496  1.00  0.00     0.117 C 
BRANCH  17  18
ATOM     18  C   UNL A   1      41.577  22.840  27.793  1.00  0.00     0.052 C 
BRANCH  18  19
ATOM     19  C   UNL A   1      41.313  24.322  28.007  1.00  0.00    -0.072 C 
ATOM     20  C   UNL A   1      42.218  25.131  28.582  1.00  0.00    -0.028 C 
ATOM     21  C   UNL A   1      39.935  24.835  27.659  1.00  0.00     0.031 C 
ATOM     22  C   UNL A   1      42.015  26.575  28.894  1.00  0.00     0.027 C 
ATOM     23  C   UNL A   1      39.785  26.359  27.770  1.00  0.00     0.005 C 
ATOM     24  C   UNL A   1      40.537  26.928  28.970  1.00  0.00     0.004 C 
ENDBRANCH  18  19
ENDBRANCH  17  18
ENDBRANCH  15  17
ENDBRANCH  13  15
ENDBRANCH   3   5
ENDBRANCH   2   3
ENDBRANCH   1   2
BRANCH   1  25
ATOM     25  C   UNL A   1      46.324  27.066  26.013  1.00  0.00     0.275 C 
BRANCH  25  26
ATOM     26  O   UNL A   1      46.162  28.208  26.862  1.00  0.00    -0.458 OA
BRANCH  26  27
ATOM     27  C   UNL A   1      45.857  29.323  26.169  1.00  0.00     0.338 C 
ATOM     28  O   UNL A   1      46.411  29.762  25.174  1.00  0.00    -0.246 OA
BRANCH  27  29
ATOM     29  C   UNL A   1      44.891  30.146  26.881  1.00  0.00     0.060 A 
ATOM     30  C   UNL A   1      45.428  31.012  27.833  1.00  0.00     0.016 A 
ATOM     31  C   UNL A   1      43.556  29.721  26.913  1.00  0.00     0.016 A 
ATOM     32  C   UNL A   1      44.670  31.317  28.934  1.00  0.00     0.010 A 
ATOM     33  C   UNL A   1      42.794  30.036  28.017  1.00  0.00     0.010 A 
ATOM     34  C   UNL A   1      43.389  30.763  29.048  1.00  0.00    -0.014 A 
BRANCH  34  35
ATOM     35  C   UNL A   1      42.667  31.087  30.261  1.00  0.00     0.031 A 
ATOM     36  C   UNL A   1      42.505  29.908  31.150  1.00  0.00     0.074 A 
ATOM     37  C   UNL A   1      42.243  32.331  30.548  1.00  0.00     0.049 A 
ATOM     38  N   UNL A   1      41.411  29.355  31.557  1.00  0.00    -0.248 NA
ATOM     39  C   UNL A   1      43.729  29.150  31.476  1.00  0.00     0.031 C 
ATOM     40  C   UNL A   1      42.565  33.588  29.867  1.00  0.00     0.029 A 
ATOM     41  N   UNL A   1      41.509  32.745  31.613  1.00  0.00    -0.354 N 
ATOM     42  C   UNL A   1      41.810  28.268  32.326  1.00  0.00     0.074 A 
ATOM     43  C   UNL A   1      43.226  28.099  32.119  1.00  0.00     0.031 C 
ATOM     44  C   UNL A   1      42.265  34.623  30.687  1.00  0.00     0.029 A 
ATOM     45  C   UNL A   1      41.607  34.105  31.874  1.00  0.00     0.049 A 
ATOM     46  H   UNL A   1      40.958  32.135  32.152  1.00  0.00     0.167 HD
ATOM     47  C   UNL A   1      41.011  27.725  33.279  1.00  0.00     0.031 A 
ATOM     48  C   UNL A   1      41.275  34.708  33.044  1.00  0.00     0.031 A 
ATOM     49  C   UNL A   1      39.624  28.031  33.076  1.00  0.00     0.049 A 
ATOM     50  C   UNL A   1      40.367  33.778  33.762  1.00  0.00     0.074 A 
ATOM     51  C   UNL A   1      38.695  27.723  32.104  1.00  0.00     0.029 A 
ATOM     52  N   UNL A   1      39.109  29.097  33.770  1.00  0.00    -0.354 N 
ATOM     53  N   UNL A   1      39.180  33.448  33.340  1.00  0.00    -0.248 NA
ATOM     54  C   UNL A   1      40.959  32.872  34.736  1.00  0.00     0.031 C 
ATOM     55  C   UNL A   1      37.902  28.899  31.964  1.00  0.00     0.029 A 
ATOM     56  C   UNL A   1      38.358  29.837  32.893  1.00  0.00     0.049 A 
ATOM     57  H   UNL A   1      39.251  29.294  34.724  1.00  0.00     0.167 HD
ATOM     58  C   UNL A   1      39.049  32.105  33.664  1.00  0.00     0.074 A 
ATOM     59  C   UNL A   1      40.138  31.829  34.598  1.00  0.00     0.031 C 
ATOM     60  C   UNL A   1      38.246  31.278  32.936  1.00  0.00     0.031 A 
BRANCH  47  61
ATOM     61  C   UNL A   1      41.573  27.286  34.602  1.00  0.00    -0.014 A 
ATOM     62  C   UNL A   1      42.153  28.229  35.462  1.00  0.00     0.009 A 
ATOM     63  C   UNL A   1      41.787  25.925  34.908  1.00  0.00     0.009 A 
ATOM     64  C   UNL A   1      42.922  27.823  36.560  1.00  0.00     0.001 A 
ATOM     65  C   UNL A   1      42.518  25.517  36.022  1.00  0.00     0.001 A 
ATOM     66  C   UNL A   1      43.103  26.469  36.839  1.00  0.00     0.000 A 
ENDBRANCH  47  61
BRANCH  48  67
ATOM     67  C   UNL A   1      42.069  35.727  33.783  1.00  0.00    -0.014 A 
ATOM     68  C   UNL A   1      41.555  36.282  34.970  1.00  0.00     0.009 A 
ATOM     69  C   UNL A   1      43.439  35.915  33.521  1.00  0.00     0.009 A 
ATOM     70  C   UNL A   1      42.394  36.914  35.897  1.00  0.00     0.001 A 
ATOM     71  C   UNL A   1      44.274  36.560  34.441  1.00  0.00     0.001 A 
ATOM     72  C   UNL A   1      43.756  37.035  35.640  1.00  0.00     0.000 A 
ENDBRANCH  48  67
BRANCH  60  73
ATOM     73  C   UNL A   1      37.341  31.904  31.905  1.00  0.00    -0.014 A 
ATOM     74  C   UNL A   1      37.756  32.182  30.588  1.00  0.00     0.009 A 
ATOM     75  C   UNL A   1      35.983  32.045  32.220  1.00  0.00     0.009 A 
ATOM     76  C   UNL A   1      36.829  32.591  29.620  1.00  0.00     0.001 A 
ATOM     77  C   UNL A   1      35.059  32.437  31.251  1.00  0.00     0.001 A 
ATOM     78  C   UNL A   1      35.480  32.709  29.951  1.00  0.00     0.000 A 
ENDBRANCH  60  73
ENDBRANCH  34  35
ENDBRANCH  27  29
ENDBRANCH  26  27
ENDBRANCH  25  26
ENDBRANCH   1  25
TORSDOF 15
ENDMDL
