MODEL 1
REMARK VINA RESULT:     -10.4      0.000      0.000
REMARK SMILES O=C(OCCOC(=O)c1nnn(-c2cccc(Br)c2)c1[C@@H]1COc2ccccc2O1)c1ccc(-c2c3nc(c(-c4ccccc4)c4ccc([nH]4)c(-c4ccccc4)c4nc(c(-c5ccccc5)c5ccc2[nH]5)C=C4)C=C3)cc1
REMARK SMILES IDX 4 1 3 2 2 3 1 4 31 5 32 6 78 7 33 8 77 9 34 10 35 11 36 12
REMARK SMILES IDX 71 13 37 14 76 15 70 16 72 17 38 18 75 19 69 20 68 21 39 23
REMARK SMILES IDX 61 24 46 25 60 26 47 27 50 28 59 29 73 30 48 31 49 32 58 34
REMARK SMILES IDX 74 35 51 36 40 37 41 38 45 39 42 40 44 41 43 42 62 43 63 44
REMARK SMILES IDX 67 45 64 46 66 47 65 48 52 49 53 50 57 51 54 52 56 53 55 54
REMARK SMILES IDX 5 55 6 56 7 57 8 58 9 59 10 60 20 61 11 62 12 63 21 64 22 65
REMARK SMILES IDX 30 66 23 67 29 68 24 69 28 70 25 71 27 72 26 73 13 74 14 75
REMARK SMILES IDX 19 76 15 77 17 78 16 79 18 80
REMARK H PARENT 72 22 50 33
REMARK Flexibility Score: inf
ROOT
ATOM      1  C   UNL A   1      34.378  30.974  27.880  1.00  0.00     0.275 C 
ENDROOT
BRANCH   1   2
ATOM      2  O   UNL A   1      35.780  30.661  27.832  1.00  0.00    -0.458 OA
BRANCH   2   3
ATOM      3  C   UNL A   1      36.360  30.142  28.937  1.00  0.00     0.338 C 
ATOM      4  O   UNL A   1      35.831  30.155  30.037  1.00  0.00    -0.246 OA
BRANCH   3   5
ATOM      5  C   UNL A   1      37.608  29.392  28.651  1.00  0.00     0.060 A 
ATOM      6  C   UNL A   1      38.110  28.423  29.529  1.00  0.00     0.016 A 
ATOM      7  C   UNL A   1      38.307  29.717  27.480  1.00  0.00     0.016 A 
ATOM      8  C   UNL A   1      39.325  27.826  29.279  1.00  0.00     0.010 A 
ATOM      9  C   UNL A   1      39.547  29.146  27.242  1.00  0.00     0.010 A 
ATOM     10  C   UNL A   1      40.063  28.247  28.178  1.00  0.00    -0.014 A 
BRANCH  10  11
ATOM     11  C   UNL A   1      41.453  27.836  28.169  1.00  0.00     0.031 A 
ATOM     12  C   UNL A   1      41.782  26.561  27.494  1.00  0.00     0.074 A 
ATOM     13  C   UNL A   1      42.365  28.605  28.794  1.00  0.00     0.049 A 
ATOM     14  N   UNL A   1      42.357  25.518  28.002  1.00  0.00    -0.248 NA
ATOM     15  C   UNL A   1      41.373  26.407  26.092  1.00  0.00     0.031 C 
ATOM     16  C   UNL A   1      42.180  29.973  29.291  1.00  0.00     0.029 A 
ATOM     17  N   UNL A   1      43.688  28.369  29.007  1.00  0.00    -0.354 N 
ATOM     18  C   UNL A   1      42.546  24.635  26.942  1.00  0.00     0.074 A 
ATOM     19  C   UNL A   1      41.825  25.183  25.819  1.00  0.00     0.031 C 
ATOM     20  C   UNL A   1      43.389  30.528  29.506  1.00  0.00     0.029 A 
ATOM     21  C   UNL A   1      44.410  29.519  29.282  1.00  0.00     0.049 A 
ATOM     22  H   UNL A   1      44.091  27.472  28.969  1.00  0.00     0.167 HD
ATOM     23  C   UNL A   1      43.473  23.639  26.996  1.00  0.00     0.031 A 
ATOM     24  C   UNL A   1      45.754  29.663  29.221  1.00  0.00     0.031 A 
ATOM     25  C   UNL A   1      43.828  23.294  28.346  1.00  0.00     0.049 A 
ATOM     26  C   UNL A   1      46.364  28.317  29.288  1.00  0.00     0.074 A 
ATOM     27  C   UNL A   1      43.143  22.824  29.449  1.00  0.00     0.029 A 
ATOM     28  N   UNL A   1      45.045  23.721  28.819  1.00  0.00    -0.354 N 
ATOM     29  N   UNL A   1      46.357  27.572  30.357  1.00  0.00    -0.248 NA
ATOM     30  C   UNL A   1      46.629  27.612  28.043  1.00  0.00     0.031 C 
ATOM     31  C   UNL A   1      43.789  23.419  30.572  1.00  0.00     0.029 A 
ATOM     32  C   UNL A   1      44.848  24.191  30.089  1.00  0.00     0.049 A 
ATOM     33  H   UNL A   1      45.901  23.694  28.334  1.00  0.00     0.167 HD
ATOM     34  C   UNL A   1      46.182  26.278  29.888  1.00  0.00     0.074 A 
ATOM     35  C   UNL A   1      46.482  26.351  28.460  1.00  0.00     0.031 C 
ATOM     36  C   UNL A   1      45.534  25.338  30.638  1.00  0.00     0.031 A 
BRANCH  23  37
ATOM     37  C   UNL A   1      44.368  23.303  25.823  1.00  0.00    -0.014 A 
ATOM     38  C   UNL A   1      44.463  21.961  25.408  1.00  0.00     0.009 A 
ATOM     39  C   UNL A   1      45.345  24.186  25.326  1.00  0.00     0.009 A 
ATOM     40  C   UNL A   1      45.540  21.512  24.634  1.00  0.00     0.001 A 
ATOM     41  C   UNL A   1      46.396  23.751  24.516  1.00  0.00     0.001 A 
ATOM     42  C   UNL A   1      46.514  22.406  24.200  1.00  0.00     0.000 A 
ENDBRANCH  23  37
BRANCH  24  43
ATOM     43  C   UNL A   1      46.491  30.870  28.799  1.00  0.00    -0.014 A 
ATOM     44  C   UNL A   1      47.174  31.662  29.729  1.00  0.00     0.009 A 
ATOM     45  C   UNL A   1      46.716  31.123  27.431  1.00  0.00     0.009 A 
ATOM     46  C   UNL A   1      48.063  32.659  29.304  1.00  0.00     0.001 A 
ATOM     47  C   UNL A   1      47.593  32.123  27.006  1.00  0.00     0.001 A 
ATOM     48  C   UNL A   1      48.278  32.883  27.945  1.00  0.00     0.000 A 
ENDBRANCH  24  43
BRANCH  36  49
ATOM     49  C   UNL A   1      45.242  25.662  32.081  1.00  0.00    -0.014 A 
ATOM     50  C   UNL A   1      44.133  26.435  32.468  1.00  0.00     0.009 A 
ATOM     51  C   UNL A   1      46.005  25.043  33.080  1.00  0.00     0.009 A 
ATOM     52  C   UNL A   1      43.820  26.612  33.819  1.00  0.00     0.001 A 
ATOM     53  C   UNL A   1      45.680  25.203  34.429  1.00  0.00     0.001 A 
ATOM     54  C   UNL A   1      44.593  25.991  34.799  1.00  0.00     0.000 A 
ENDBRANCH  36  49
ENDBRANCH  10  11
ENDBRANCH   3   5
ENDBRANCH   2   3
ENDBRANCH   1   2
BRANCH   1  55
ATOM     55  C   UNL A   1      34.014  32.450  27.969  1.00  0.00     0.275 C 
BRANCH  55  56
ATOM     56  O   UNL A   1      34.120  33.012  29.287  1.00  0.00    -0.457 OA
BRANCH  56  57
ATOM     57  C   UNL A   1      34.977  34.072  29.399  1.00  0.00     0.361 C 
ATOM     58  O   UNL A   1      34.674  35.245  29.211  1.00  0.00    -0.244 OA
BRANCH  57  59
ATOM     59  C   UNL A   1      36.339  33.667  29.681  1.00  0.00     0.198 A 
ATOM     60  N   UNL A   1      37.298  33.566  28.709  1.00  0.00    -0.122 NA
ATOM     61  C   UNL A   1      36.897  33.362  30.919  1.00  0.00     0.123 A 
ATOM     62  N   UNL A   1      38.436  33.213  29.289  1.00  0.00    -0.061 NA
ATOM     63  N   UNL A   1      38.191  32.979  30.600  1.00  0.00    -0.213 N 
BRANCH  61  64
ATOM     64  C   UNL A   1      36.405  33.557  32.322  1.00  0.00     0.262 C 
ATOM     65  C   UNL A   1      35.267  32.643  32.776  1.00  0.00     0.281 C 
ATOM     66  O   UNL A   1      36.155  34.957  32.503  1.00  0.00    -0.477 OA
ATOM     67  O   UNL A   1      33.981  33.055  32.326  1.00  0.00    -0.485 OA
ATOM     68  C   UNL A   1      34.840  35.302  32.625  1.00  0.00     0.162 A 
ATOM     69  C   UNL A   1      33.788  34.392  32.524  1.00  0.00     0.161 A 
ATOM     70  C   UNL A   1      34.569  36.662  32.783  1.00  0.00     0.050 A 
ATOM     71  C   UNL A   1      32.467  34.843  32.533  1.00  0.00     0.050 A 
ATOM     72  C   UNL A   1      33.247  37.115  32.813  1.00  0.00     0.004 A 
ATOM     73  C   UNL A   1      32.196  36.206  32.678  1.00  0.00     0.004 A 
ENDBRANCH  61  64
BRANCH  63  74
ATOM     74  C   UNL A   1      39.210  32.469  31.438  1.00  0.00     0.068 A 
ATOM     75  C   UNL A   1      40.212  33.310  31.946  1.00  0.00     0.028 A 
ATOM     76  C   UNL A   1      39.221  31.101  31.738  1.00  0.00     0.044 A 
ATOM     77  C   UNL A   1      41.253  32.771  32.703  1.00  0.00     0.003 A 
ATOM     78  C   UNL A   1      40.284  30.573  32.468  1.00  0.00     0.020 A 
ATOM     79  C   UNL A   1      41.300  31.398  32.948  1.00  0.00     0.016 A 
ATOM     80  Br  UNL A   1      40.372  28.708  32.773  1.00  0.00    -0.051 Br
ENDBRANCH  63  74
ENDBRANCH  57  59
ENDBRANCH  56  57
ENDBRANCH  55  56
ENDBRANCH   1  55
TORSDOF 13
ENDMDL
MODEL 2
REMARK VINA RESULT:     -10.3      4.912      9.290
REMARK SMILES O=C(OCCOC(=O)c1nnn(-c2cccc(Br)c2)c1[C@@H]1COc2ccccc2O1)c1ccc(-c2c3nc(c(-c4ccccc4)c4ccc([nH]4)c(-c4ccccc4)c4nc(c(-c5ccccc5)c5ccc2[nH]5)C=C4)C=C3)cc1
REMARK SMILES IDX 4 1 3 2 2 3 1 4 31 5 32 6 78 7 33 8 77 9 34 10 35 11 36 12
REMARK SMILES IDX 71 13 37 14 76 15 70 16 72 17 38 18 75 19 69 20 68 21 39 23
REMARK SMILES IDX 61 24 46 25 60 26 47 27 50 28 59 29 73 30 48 31 49 32 58 34
REMARK SMILES IDX 74 35 51 36 40 37 41 38 45 39 42 40 44 41 43 42 62 43 63 44
REMARK SMILES IDX 67 45 64 46 66 47 65 48 52 49 53 50 57 51 54 52 56 53 55 54
REMARK SMILES IDX 5 55 6 56 7 57 8 58 9 59 10 60 20 61 11 62 12 63 21 64 22 65
REMARK SMILES IDX 30 66 23 67 29 68 24 69 28 70 25 71 27 72 26 73 13 74 14 75
REMARK SMILES IDX 19 76 15 77 17 78 16 79 18 80
REMARK H PARENT 72 22 50 33
REMARK Flexibility Score: inf
ROOT
ATOM      1  C   UNL A   1      32.858  29.381  27.037  1.00  0.00     0.275 C 
ENDROOT
BRANCH   1   2
ATOM      2  O   UNL A   1      34.269  29.184  27.230  1.00  0.00    -0.458 OA
BRANCH   2   3
ATOM      3  C   UNL A   1      35.006  30.224  27.680  1.00  0.00     0.338 C 
ATOM      4  O   UNL A   1      34.573  31.362  27.764  1.00  0.00    -0.246 OA
BRANCH   3   5
ATOM      5  C   UNL A   1      36.320  29.817  28.236  1.00  0.00     0.060 A 
ATOM      6  C   UNL A   1      37.487  29.813  27.459  1.00  0.00     0.016 A 
ATOM      7  C   UNL A   1      36.358  29.388  29.570  1.00  0.00     0.016 A 
ATOM      8  C   UNL A   1      38.665  29.329  27.982  1.00  0.00     0.010 A 
ATOM      9  C   UNL A   1      37.532  28.866  30.090  1.00  0.00     0.010 A 
ATOM     10  C   UNL A   1      38.657  28.794  29.266  1.00  0.00    -0.014 A 
BRANCH  10  11
ATOM     11  C   UNL A   1      39.820  28.004  29.616  1.00  0.00     0.031 A 
ATOM     12  C   UNL A   1      40.339  28.131  30.996  1.00  0.00     0.074 A 
ATOM     13  C   UNL A   1      40.388  27.226  28.675  1.00  0.00     0.049 A 
ATOM     14  N   UNL A   1      41.525  28.495  31.369  1.00  0.00    -0.248 NA
ATOM     15  C   UNL A   1      39.408  27.872  32.101  1.00  0.00     0.031 C 
ATOM     16  C   UNL A   1      39.830  26.866  27.367  1.00  0.00     0.029 A 
ATOM     17  N   UNL A   1      41.533  26.493  28.742  1.00  0.00    -0.354 N 
ATOM     18  C   UNL A   1      41.551  28.343  32.752  1.00  0.00     0.074 A 
ATOM     19  C   UNL A   1      40.195  28.066  33.159  1.00  0.00     0.031 C 
ATOM     20  C   UNL A   1      40.499  25.800  26.884  1.00  0.00     0.029 A 
ATOM     21  C   UNL A   1      41.597  25.493  27.784  1.00  0.00     0.049 A 
ATOM     22  H   UNL A   1      42.244  26.657  29.403  1.00  0.00     0.167 HD
ATOM     23  C   UNL A   1      42.721  28.222  33.438  1.00  0.00     0.031 A 
ATOM     24  C   UNL A   1      42.423  24.422  27.790  1.00  0.00     0.031 A 
ATOM     25  C   UNL A   1      43.840  28.759  32.711  1.00  0.00     0.049 A 
ATOM     26  C   UNL A   1      43.557  24.719  28.692  1.00  0.00     0.074 A 
ATOM     27  C   UNL A   1      44.173  29.999  32.202  1.00  0.00     0.029 A 
ATOM     28  N   UNL A   1      44.712  27.872  32.129  1.00  0.00    -0.354 N 
ATOM     29  N   UNL A   1      44.480  25.600  28.427  1.00  0.00    -0.248 NA
ATOM     30  C   UNL A   1      43.449  24.335  30.092  1.00  0.00     0.031 C 
ATOM     31  C   UNL A   1      44.903  29.729  31.008  1.00  0.00     0.029 A 
ATOM     32  C   UNL A   1      44.997  28.342  30.876  1.00  0.00     0.049 A 
ATOM     33  H   UNL A   1      45.067  27.050  32.538  1.00  0.00     0.167 HD
ATOM     34  C   UNL A   1      44.766  26.193  29.648  1.00  0.00     0.074 A 
ATOM     35  C   UNL A   1      44.198  25.293  30.647  1.00  0.00     0.031 C 
ATOM     36  C   UNL A   1      45.180  27.493  29.720  1.00  0.00     0.031 A 
BRANCH  23  37
ATOM     37  C   UNL A   1      42.902  27.224  34.560  1.00  0.00    -0.014 A 
ATOM     38  C   UNL A   1      43.014  25.858  34.239  1.00  0.00     0.009 A 
ATOM     39  C   UNL A   1      42.651  27.534  35.910  1.00  0.00     0.009 A 
ATOM     40  C   UNL A   1      42.774  24.862  35.194  1.00  0.00     0.001 A 
ATOM     41  C   UNL A   1      42.457  26.544  36.876  1.00  0.00     0.001 A 
ATOM     42  C   UNL A   1      42.482  25.207  36.509  1.00  0.00     0.000 A 
ENDBRANCH  23  37
BRANCH  24  43
ATOM     43  C   UNL A   1      42.107  23.065  27.300  1.00  0.00    -0.014 A 
ATOM     44  C   UNL A   1      42.949  22.409  26.394  1.00  0.00     0.009 A 
ATOM     45  C   UNL A   1      41.080  22.313  27.905  1.00  0.00     0.009 A 
ATOM     46  C   UNL A   1      42.780  21.045  26.120  1.00  0.00     0.001 A 
ATOM     47  C   UNL A   1      40.904  20.956  27.624  1.00  0.00     0.001 A 
ATOM     48  C   UNL A   1      41.764  20.319  26.740  1.00  0.00     0.000 A 
ENDBRANCH  24  43
BRANCH  36  49
ATOM     49  C   UNL A   1      45.561  28.186  28.437  1.00  0.00    -0.014 A 
ATOM     50  C   UNL A   1      44.663  29.001  27.726  1.00  0.00     0.009 A 
ATOM     51  C   UNL A   1      46.900  28.150  28.023  1.00  0.00     0.009 A 
ATOM     52  C   UNL A   1      45.085  29.729  26.609  1.00  0.00     0.001 A 
ATOM     53  C   UNL A   1      47.327  28.893  26.919  1.00  0.00     0.001 A 
ATOM     54  C   UNL A   1      46.419  29.677  26.210  1.00  0.00     0.000 A 
ENDBRANCH  36  49
ENDBRANCH  10  11
ENDBRANCH   3   5
ENDBRANCH   2   3
ENDBRANCH   1   2
BRANCH   1  55
ATOM     55  C   UNL A   1      31.955  28.204  27.379  1.00  0.00     0.275 C 
BRANCH  55  56
ATOM     56  O   UNL A   1      32.400  26.941  26.856  1.00  0.00    -0.457 OA
BRANCH  56  57
ATOM     57  C   UNL A   1      31.404  26.103  26.436  1.00  0.00     0.361 C 
ATOM     58  O   UNL A   1      30.261  26.450  26.160  1.00  0.00    -0.244 OA
BRANCH  57  59
ATOM     59  C   UNL A   1      31.805  24.711  26.432  1.00  0.00     0.198 A 
ATOM     60  N   UNL A   1      31.494  23.847  27.448  1.00  0.00    -0.122 NA
ATOM     61  C   UNL A   1      32.503  24.030  25.440  1.00  0.00     0.123 A 
ATOM     62  N   UNL A   1      31.966  22.651  27.131  1.00  0.00    -0.061 NA
ATOM     63  N   UNL A   1      32.671  22.763  25.980  1.00  0.00    -0.213 N 
BRANCH  61  64
ATOM     64  C   UNL A   1      32.855  24.388  24.027  1.00  0.00     0.262 C 
ATOM     65  C   UNL A   1      34.143  25.189  23.831  1.00  0.00     0.281 C 
ATOM     66  O   UNL A   1      31.693  24.972  23.425  1.00  0.00    -0.477 OA
ATOM     67  O   UNL A   1      34.004  26.581  24.093  1.00  0.00    -0.485 OA
ATOM     68  C   UNL A   1      31.782  26.308  23.161  1.00  0.00     0.162 A 
ATOM     69  C   UNL A   1      32.887  27.092  23.495  1.00  0.00     0.161 A 
ATOM     70  C   UNL A   1      30.655  26.904  22.592  1.00  0.00     0.050 A 
ATOM     71  C   UNL A   1      32.850  28.474  23.307  1.00  0.00     0.050 A 
ATOM     72  C   UNL A   1      30.622  28.285  22.383  1.00  0.00     0.004 A 
ATOM     73  C   UNL A   1      31.716  29.071  22.750  1.00  0.00     0.004 A 
ENDBRANCH  61  64
BRANCH  63  74
ATOM     74  C   UNL A   1      33.390  21.656  25.470  1.00  0.00     0.068 A 
ATOM     75  C   UNL A   1      32.723  20.487  25.073  1.00  0.00     0.028 A 
ATOM     76  C   UNL A   1      34.786  21.734  25.389  1.00  0.00     0.044 A 
ATOM     77  C   UNL A   1      33.459  19.379  24.650  1.00  0.00     0.003 A 
ATOM     78  C   UNL A   1      35.508  20.608  24.995  1.00  0.00     0.020 A 
ATOM     79  C   UNL A   1      34.853  19.432  24.630  1.00  0.00     0.016 A 
ATOM     80  Br  UNL A   1      37.398  20.663  25.000  1.00  0.00    -0.051 Br
ENDBRANCH  63  74
ENDBRANCH  57  59
ENDBRANCH  56  57
ENDBRANCH  55  56
ENDBRANCH   1  55
TORSDOF 13
ENDMDL
MODEL 3
REMARK VINA RESULT:     -10.2      5.066      9.431
REMARK SMILES O=C(OCCOC(=O)c1nnn(-c2cccc(Br)c2)c1[C@@H]1COc2ccccc2O1)c1ccc(-c2c3nc(c(-c4ccccc4)c4ccc([nH]4)c(-c4ccccc4)c4nc(c(-c5ccccc5)c5ccc2[nH]5)C=C4)C=C3)cc1
REMARK SMILES IDX 4 1 3 2 2 3 1 4 31 5 32 6 78 7 33 8 77 9 34 10 35 11 36 12
REMARK SMILES IDX 71 13 37 14 76 15 70 16 72 17 38 18 75 19 69 20 68 21 39 23
REMARK SMILES IDX 61 24 46 25 60 26 47 27 50 28 59 29 73 30 48 31 49 32 58 34
REMARK SMILES IDX 74 35 51 36 40 37 41 38 45 39 42 40 44 41 43 42 62 43 63 44
REMARK SMILES IDX 67 45 64 46 66 47 65 48 52 49 53 50 57 51 54 52 56 53 55 54
REMARK SMILES IDX 5 55 6 56 7 57 8 58 9 59 10 60 20 61 11 62 12 63 21 64 22 65
REMARK SMILES IDX 30 66 23 67 29 68 24 69 28 70 25 71 27 72 26 73 13 74 14 75
REMARK SMILES IDX 19 76 15 77 17 78 16 79 18 80
REMARK H PARENT 72 22 50 33
REMARK Flexibility Score: inf
ROOT
ATOM      1  C   UNL A   1      32.457  29.237  27.313  1.00  0.00     0.275 C 
ENDROOT
BRANCH   1   2
ATOM      2  O   UNL A   1      33.328  30.244  26.770  1.00  0.00    -0.458 OA
BRANCH   2   3
ATOM      3  C   UNL A   1      33.979  31.060  27.629  1.00  0.00     0.338 C 
ATOM      4  O   UNL A   1      33.412  31.897  28.313  1.00  0.00    -0.246 OA
BRANCH   3   5
ATOM      5  C   UNL A   1      35.412  30.715  27.799  1.00  0.00     0.060 A 
ATOM      6  C   UNL A   1      35.906  29.434  27.516  1.00  0.00     0.016 A 
ATOM      7  C   UNL A   1      36.266  31.708  28.300  1.00  0.00     0.016 A 
ATOM      8  C   UNL A   1      37.220  29.124  27.786  1.00  0.00     0.010 A 
ATOM      9  C   UNL A   1      37.579  31.390  28.608  1.00  0.00     0.010 A 
ATOM     10  C   UNL A   1      38.022  30.083  28.397  1.00  0.00    -0.014 A 
BRANCH  10  11
ATOM     11  C   UNL A   1      39.263  29.588  28.957  1.00  0.00     0.031 A 
ATOM     12  C   UNL A   1      39.401  29.608  30.430  1.00  0.00     0.074 A 
ATOM     13  C   UNL A   1      40.234  29.169  28.124  1.00  0.00     0.049 A 
ATOM     14  N   UNL A   1      40.306  30.208  31.136  1.00  0.00    -0.248 NA
ATOM     15  C   UNL A   1      38.373  28.919  31.221  1.00  0.00     0.031 C 
ATOM     16  C   UNL A   1      40.115  28.906  26.686  1.00  0.00     0.029 A 
ATOM     17  N   UNL A   1      41.503  28.773  28.413  1.00  0.00    -0.354 N 
ATOM     18  C   UNL A   1      40.071  29.830  32.455  1.00  0.00     0.074 A 
ATOM     19  C   UNL A   1      38.810  29.131  32.462  1.00  0.00     0.031 C 
ATOM     20  C   UNL A   1      41.167  28.161  26.289  1.00  0.00     0.029 A 
ATOM     21  C   UNL A   1      42.078  28.010  27.409  1.00  0.00     0.049 A 
ATOM     22  H   UNL A   1      41.966  29.004  29.250  1.00  0.00     0.167 HD
ATOM     23  C   UNL A   1      41.041  29.913  33.407  1.00  0.00     0.031 A 
ATOM     24  C   UNL A   1      43.169  27.218  27.522  1.00  0.00     0.031 A 
ATOM     25  C   UNL A   1      42.074  30.850  33.058  1.00  0.00     0.049 A 
ATOM     26  C   UNL A   1      43.930  27.649  28.715  1.00  0.00     0.074 A 
ATOM     27  C   UNL A   1      42.117  32.203  32.783  1.00  0.00     0.029 A 
ATOM     28  N   UNL A   1      43.281  30.347  32.637  1.00  0.00    -0.354 N 
ATOM     29  N   UNL A   1      44.575  28.778  28.793  1.00  0.00    -0.248 NA
ATOM     30  C   UNL A   1      43.639  27.012  29.991  1.00  0.00     0.031 C 
ATOM     31  C   UNL A   1      43.139  32.352  31.801  1.00  0.00     0.029 A 
ATOM     32  C   UNL A   1      43.678  31.087  31.557  1.00  0.00     0.049 A 
ATOM     33  H   UNL A   1      43.770  29.593  33.039  1.00  0.00     0.167 HD
ATOM     34  C   UNL A   1      44.390  29.204  30.100  1.00  0.00     0.074 A 
ATOM     35  C   UNL A   1      43.918  28.024  30.818  1.00  0.00     0.031 C 
ATOM     36  C   UNL A   1      44.361  30.534  30.410  1.00  0.00     0.031 A 
BRANCH  23  37
ATOM     37  C   UNL A   1      41.265  28.820  34.430  1.00  0.00    -0.014 A 
ATOM     38  C   UNL A   1      41.691  29.180  35.723  1.00  0.00     0.009 A 
ATOM     39  C   UNL A   1      41.381  27.460  34.086  1.00  0.00     0.009 A 
ATOM     40  C   UNL A   1      42.301  28.251  36.574  1.00  0.00     0.001 A 
ATOM     41  C   UNL A   1      41.947  26.521  34.951  1.00  0.00     0.001 A 
ATOM     42  C   UNL A   1      42.442  26.925  36.181  1.00  0.00     0.000 A 
ENDBRANCH  23  37
BRANCH  24  43
ATOM     43  C   UNL A   1      43.399  25.933  26.831  1.00  0.00    -0.014 A 
ATOM     44  C   UNL A   1      42.629  24.803  27.132  1.00  0.00     0.009 A 
ATOM     45  C   UNL A   1      44.236  25.875  25.699  1.00  0.00     0.009 A 
ATOM     46  C   UNL A   1      42.683  23.664  26.318  1.00  0.00     0.001 A 
ATOM     47  C   UNL A   1      44.298  24.736  24.893  1.00  0.00     0.001 A 
ATOM     48  C   UNL A   1      43.510  23.634  25.196  1.00  0.00     0.000 A 
ENDBRANCH  24  43
BRANCH  36  49
ATOM     49  C   UNL A   1      44.786  31.517  29.349  1.00  0.00    -0.014 A 
ATOM     50  C   UNL A   1      43.929  31.921  28.310  1.00  0.00     0.009 A 
ATOM     51  C   UNL A   1      46.017  32.173  29.492  1.00  0.00     0.009 A 
ATOM     52  C   UNL A   1      44.310  32.927  27.417  1.00  0.00     0.001 A 
ATOM     53  C   UNL A   1      46.389  33.193  28.612  1.00  0.00     0.001 A 
ATOM     54  C   UNL A   1      45.539  33.565  27.572  1.00  0.00     0.000 A 
ENDBRANCH  36  49
ENDBRANCH  10  11
ENDBRANCH   3   5
ENDBRANCH   2   3
ENDBRANCH   1   2
BRANCH   1  55
ATOM     55  C   UNL A   1      31.834  28.269  26.317  1.00  0.00     0.275 C 
BRANCH  55  56
ATOM     56  O   UNL A   1      32.206  26.894  26.511  1.00  0.00    -0.457 OA
BRANCH  56  57
ATOM     57  C   UNL A   1      31.186  25.992  26.376  1.00  0.00     0.361 C 
ATOM     58  O   UNL A   1      29.997  26.279  26.299  1.00  0.00    -0.244 OA
BRANCH  57  59
ATOM     59  C   UNL A   1      31.643  24.618  26.424  1.00  0.00     0.198 A 
ATOM     60  N   UNL A   1      31.569  23.852  27.557  1.00  0.00    -0.122 NA
ATOM     61  C   UNL A   1      32.170  23.860  25.383  1.00  0.00     0.123 A 
ATOM     62  N   UNL A   1      32.027  22.643  27.267  1.00  0.00    -0.061 NA
ATOM     63  N   UNL A   1      32.495  22.659  25.996  1.00  0.00    -0.213 N 
BRANCH  61  64
ATOM     64  C   UNL A   1      32.232  24.085  23.902  1.00  0.00     0.262 C 
ATOM     65  C   UNL A   1      33.594  24.481  23.332  1.00  0.00     0.281 C 
ATOM     66  O   UNL A   1      31.159  24.969  23.552  1.00  0.00    -0.477 OA
ATOM     67  O   UNL A   1      33.913  25.858  23.500  1.00  0.00    -0.485 OA
ATOM     68  C   UNL A   1      31.540  26.220  23.162  1.00  0.00     0.162 A 
ATOM     69  C   UNL A   1      32.864  26.659  23.150  1.00  0.00     0.161 A 
ATOM     70  C   UNL A   1      30.512  27.107  22.835  1.00  0.00     0.050 A 
ATOM     71  C   UNL A   1      33.159  27.992  22.860  1.00  0.00     0.050 A 
ATOM     72  C   UNL A   1      30.805  28.437  22.523  1.00  0.00     0.004 A 
ATOM     73  C   UNL A   1      32.129  28.882  22.545  1.00  0.00     0.004 A 
ENDBRANCH  61  64
BRANCH  63  74
ATOM     74  C   UNL A   1      33.153  21.526  25.462  1.00  0.00     0.068 A 
ATOM     75  C   UNL A   1      32.426  20.398  25.053  1.00  0.00     0.028 A 
ATOM     76  C   UNL A   1      34.551  21.536  25.369  1.00  0.00     0.044 A 
ATOM     77  C   UNL A   1      33.103  19.261  24.606  1.00  0.00     0.003 A 
ATOM     78  C   UNL A   1      35.213  20.382  24.951  1.00  0.00     0.020 A 
ATOM     79  C   UNL A   1      34.498  19.246  24.574  1.00  0.00     0.016 A 
ATOM     80  Br  UNL A   1      37.103  20.343  24.939  1.00  0.00    -0.051 Br
ENDBRANCH  63  74
ENDBRANCH  57  59
ENDBRANCH  56  57
ENDBRANCH  55  56
ENDBRANCH   1  55
TORSDOF 13
ENDMDL
