MODEL 1
REMARK VINA RESULT:     -11.6      0.000      0.000
REMARK SMILES O=C(OCCOC(=O)[C@@H]1CC=CC[C@@H]1C(=O)Nc1ccc(Br)cc1Cl)c1ccc(-c2c3nc(c(-c4ccccc4)c4ccc([nH]4)c(-c4ccccc4)c4nc(c(-c5ccccc5)c5ccc2[nH]5)C=C4)C=C3)cc1
REMARK SMILES IDX 4 1 3 2 2 3 1 4 26 5 27 6 73 7 28 8 72 9 29 10 30 11 31 12
REMARK SMILES IDX 66 13 32 14 71 15 65 16 67 17 33 18 70 19 64 20 63 21 34 23
REMARK SMILES IDX 56 24 41 25 55 26 42 27 45 28 54 29 68 30 43 31 44 32 53 34
REMARK SMILES IDX 69 35 46 36 35 37 36 38 40 39 37 40 39 41 38 42 57 43 58 44
REMARK SMILES IDX 62 45 59 46 61 47 60 48 47 49 48 50 52 51 49 52 51 53 50 54
REMARK SMILES IDX 5 55 6 56 7 57 8 58 9 59 10 60 14 61 11 62 13 63 12 64 15 65
REMARK SMILES IDX 16 66 17 67 18 69 19 70 24 71 20 72 23 73 25 74 21 75 22 76
REMARK H PARENT 67 22 45 33 17 68
REMARK Flexibility Score: inf
ROOT
ATOM      1  C   UNL A   1      31.322  32.194  26.934  1.00  0.00     0.275 C 
ENDROOT
BRANCH   1   2
ATOM      2  O   UNL A   1      32.102  33.394  26.968  1.00  0.00    -0.458 OA
BRANCH   2   3
ATOM      3  C   UNL A   1      32.863  33.873  27.980  1.00  0.00     0.338 C 
ATOM      4  O   UNL A   1      32.479  34.879  28.565  1.00  0.00    -0.246 OA
BRANCH   3   5
ATOM      5  C   UNL A   1      34.209  33.313  28.352  1.00  0.00     0.060 A 
ATOM      6  C   UNL A   1      35.468  33.709  27.883  1.00  0.00     0.016 A 
ATOM      7  C   UNL A   1      34.190  32.326  29.338  1.00  0.00     0.016 A 
ATOM      8  C   UNL A   1      36.658  33.306  28.499  1.00  0.00     0.010 A 
ATOM      9  C   UNL A   1      35.380  31.880  29.911  1.00  0.00     0.010 A 
ATOM     10  C   UNL A   1      36.623  32.430  29.569  1.00  0.00    -0.014 A 
BRANCH  10  11
ATOM     11  C   UNL A   1      37.865  31.994  30.262  1.00  0.00     0.031 A 
ATOM     12  C   UNL A   1      38.488  30.706  29.805  1.00  0.00     0.074 A 
ATOM     13  C   UNL A   1      38.399  32.699  31.289  1.00  0.00     0.049 A 
ATOM     14  N   UNL A   1      39.465  30.022  30.337  1.00  0.00    -0.248 NA
ATOM     15  C   UNL A   1      37.918  30.092  28.588  1.00  0.00     0.031 C 
ATOM     16  C   UNL A   1      37.915  33.986  31.802  1.00  0.00     0.029 A 
ATOM     17  N   UNL A   1      39.451  32.406  32.129  1.00  0.00    -0.354 N 
ATOM     18  C   UNL A   1      39.649  28.937  29.489  1.00  0.00     0.074 A 
ATOM     19  C   UNL A   1      38.578  28.949  28.524  1.00  0.00     0.031 C 
ATOM     20  C   UNL A   1      38.618  34.332  32.898  1.00  0.00     0.029 A 
ATOM     21  C   UNL A   1      39.596  33.292  33.180  1.00  0.00     0.049 A 
ATOM     22  H   UNL A   1      40.048  31.633  31.993  1.00  0.00     0.167 HD
ATOM     23  C   UNL A   1      40.687  28.073  29.441  1.00  0.00     0.031 A 
ATOM     24  C   UNL A   1      40.402  33.239  34.261  1.00  0.00     0.031 A 
ATOM     25  C   UNL A   1      41.767  28.095  30.380  1.00  0.00     0.049 A 
ATOM     26  C   UNL A   1      41.391  32.109  34.334  1.00  0.00     0.074 A 
ATOM     27  C   UNL A   1      42.917  27.333  30.396  1.00  0.00     0.029 A 
ATOM     28  N   UNL A   1      41.821  28.942  31.478  1.00  0.00    -0.354 N 
ATOM     29  N   UNL A   1      41.578  31.118  33.495  1.00  0.00    -0.248 NA
ATOM     30  C   UNL A   1      42.313  32.122  35.476  1.00  0.00     0.031 C 
ATOM     31  C   UNL A   1      43.650  27.689  31.534  1.00  0.00     0.029 A 
ATOM     32  C   UNL A   1      42.978  28.709  32.193  1.00  0.00     0.049 A 
ATOM     33  H   UNL A   1      41.135  29.610  31.712  1.00  0.00     0.167 HD
ATOM     34  C   UNL A   1      42.698  30.443  33.957  1.00  0.00     0.074 A 
ATOM     35  C   UNL A   1      43.111  31.107  35.178  1.00  0.00     0.031 C 
ATOM     36  C   UNL A   1      43.359  29.402  33.395  1.00  0.00     0.031 A 
BRANCH  23  37
ATOM     37  C   UNL A   1      40.709  27.109  28.288  1.00  0.00    -0.014 A 
ATOM     38  C   UNL A   1      41.289  27.482  27.060  1.00  0.00     0.009 A 
ATOM     39  C   UNL A   1      40.124  25.843  28.403  1.00  0.00     0.009 A 
ATOM     40  C   UNL A   1      41.230  26.629  25.957  1.00  0.00     0.001 A 
ATOM     41  C   UNL A   1      40.096  24.978  27.306  1.00  0.00     0.001 A 
ATOM     42  C   UNL A   1      40.635  25.377  26.082  1.00  0.00     0.000 A 
ENDBRANCH  23  37
BRANCH  24  43
ATOM     43  C   UNL A   1      40.342  34.233  35.377  1.00  0.00    -0.014 A 
ATOM     44  C   UNL A   1      39.509  34.053  36.487  1.00  0.00     0.009 A 
ATOM     45  C   UNL A   1      41.023  35.455  35.269  1.00  0.00     0.009 A 
ATOM     46  C   UNL A   1      39.378  35.067  37.450  1.00  0.00     0.001 A 
ATOM     47  C   UNL A   1      40.928  36.451  36.244  1.00  0.00     0.001 A 
ATOM     48  C   UNL A   1      40.095  36.259  37.335  1.00  0.00     0.000 A 
ENDBRANCH  24  43
BRANCH  36  49
ATOM     49  C   UNL A   1      44.657  29.009  34.035  1.00  0.00    -0.014 A 
ATOM     50  C   UNL A   1      45.867  29.628  33.696  1.00  0.00     0.009 A 
ATOM     51  C   UNL A   1      44.648  28.007  35.019  1.00  0.00     0.009 A 
ATOM     52  C   UNL A   1      47.052  29.226  34.310  1.00  0.00     0.001 A 
ATOM     53  C   UNL A   1      45.828  27.633  35.658  1.00  0.00     0.001 A 
ATOM     54  C   UNL A   1      47.031  28.236  35.294  1.00  0.00     0.000 A 
ENDBRANCH  36  49
ENDBRANCH  10  11
ENDBRANCH   3   5
ENDBRANCH   2   3
ENDBRANCH   1   2
BRANCH   1  55
ATOM     55  C   UNL A   1      32.102  30.939  26.497  1.00  0.00     0.274 C 
BRANCH  55  56
ATOM     56  O   UNL A   1      31.434  30.171  25.457  1.00  0.00    -0.462 OA
BRANCH  56  57
ATOM     57  C   UNL A   1      32.208  29.198  24.925  1.00  0.00     0.310 C 
ATOM     58  O   UNL A   1      33.035  29.445  24.045  1.00  0.00    -0.252 OA
BRANCH  57  59
ATOM     59  C   UNL A   1      32.152  27.805  25.564  1.00  0.00     0.116 C 
ATOM     60  C   UNL A   1      33.486  27.146  25.128  1.00  0.00     0.043 C 
ATOM     61  C   UNL A   1      30.958  26.788  25.553  1.00  0.00     0.097 C 
ATOM     62  C   UNL A   1      33.686  25.735  25.555  1.00  0.00    -0.030 C 
ATOM     63  C   UNL A   1      31.380  25.590  26.449  1.00  0.00     0.041 C 
ATOM     64  C   UNL A   1      32.741  25.038  26.184  1.00  0.00    -0.030 C 
BRANCH  61  65
ATOM     65  C   UNL A   1      30.551  26.237  24.202  1.00  0.00     0.228 C 
ATOM     66  O   UNL A   1      30.996  25.138  23.837  1.00  0.00    -0.274 OA
ATOM     67  N   UNL A   1      29.690  26.846  23.328  1.00  0.00    -0.324 N 
ATOM     68  H   UNL A   1      29.309  26.161  22.733  1.00  0.00     0.169 HD
BRANCH  67  69
ATOM     69  C   UNL A   1      29.142  28.123  22.968  1.00  0.00     0.060 A 
ATOM     70  C   UNL A   1      30.043  28.904  22.217  1.00  0.00     0.029 A 
ATOM     71  C   UNL A   1      27.951  28.775  23.320  1.00  0.00     0.065 A 
ATOM     72  C   UNL A   1      29.870  30.281  21.999  1.00  0.00     0.018 A 
ATOM     73  C   UNL A   1      27.820  30.179  23.198  1.00  0.00     0.038 A 
ATOM     74  Cl  UNL A   1      26.470  28.018  23.718  1.00  0.00    -0.082 Cl
ATOM     75  C   UNL A   1      28.795  30.930  22.568  1.00  0.00     0.019 A 
ATOM     76  Br  UNL A   1      28.624  32.805  22.426  1.00  0.00    -0.051 Br
ENDBRANCH  67  69
ENDBRANCH  61  65
ENDBRANCH  57  59
ENDBRANCH  56  57
ENDBRANCH  55  56
ENDBRANCH   1  55
TORSDOF 13
ENDMDL
MODEL 2
REMARK VINA RESULT:     -11.4      3.103      7.510
REMARK SMILES O=C(OCCOC(=O)[C@@H]1CC=CC[C@@H]1C(=O)Nc1ccc(Br)cc1Cl)c1ccc(-c2c3nc(c(-c4ccccc4)c4ccc([nH]4)c(-c4ccccc4)c4nc(c(-c5ccccc5)c5ccc2[nH]5)C=C4)C=C3)cc1
REMARK SMILES IDX 4 1 3 2 2 3 1 4 26 5 27 6 73 7 28 8 72 9 29 10 30 11 31 12
REMARK SMILES IDX 66 13 32 14 71 15 65 16 67 17 33 18 70 19 64 20 63 21 34 23
REMARK SMILES IDX 56 24 41 25 55 26 42 27 45 28 54 29 68 30 43 31 44 32 53 34
REMARK SMILES IDX 69 35 46 36 35 37 36 38 40 39 37 40 39 41 38 42 57 43 58 44
REMARK SMILES IDX 62 45 59 46 61 47 60 48 47 49 48 50 52 51 49 52 51 53 50 54
REMARK SMILES IDX 5 55 6 56 7 57 8 58 9 59 10 60 14 61 11 62 13 63 12 64 15 65
REMARK SMILES IDX 16 66 17 67 18 69 19 70 24 71 20 72 23 73 25 74 21 75 22 76
REMARK H PARENT 67 22 45 33 17 68
REMARK Flexibility Score: inf
ROOT
ATOM      1  C   UNL A   1      36.353  24.075  24.823  1.00  0.00     0.275 C 
ENDROOT
BRANCH   1   2
ATOM      2  O   UNL A   1      36.986  23.224  25.785  1.00  0.00    -0.458 OA
BRANCH   2   3
ATOM      3  C   UNL A   1      38.302  23.133  26.090  1.00  0.00     0.338 C 
ATOM      4  O   UNL A   1      38.861  22.055  25.924  1.00  0.00    -0.246 OA
BRANCH   3   5
ATOM      5  C   UNL A   1      39.092  24.244  26.729  1.00  0.00     0.060 A 
ATOM      6  C   UNL A   1      39.985  25.132  26.115  1.00  0.00     0.016 A 
ATOM      7  C   UNL A   1      38.840  24.447  28.087  1.00  0.00     0.016 A 
ATOM      8  C   UNL A   1      40.448  26.289  26.752  1.00  0.00     0.010 A 
ATOM      9  C   UNL A   1      39.351  25.569  28.737  1.00  0.00     0.010 A 
ATOM     10  C   UNL A   1      40.082  26.555  28.059  1.00  0.00    -0.014 A 
BRANCH  10  11
ATOM     11  C   UNL A   1      40.538  27.784  28.762  1.00  0.00     0.031 A 
ATOM     12  C   UNL A   1      39.598  28.956  28.771  1.00  0.00     0.074 A 
ATOM     13  C   UNL A   1      41.761  27.870  29.337  1.00  0.00     0.049 A 
ATOM     14  N   UNL A   1      39.806  30.184  29.163  1.00  0.00    -0.248 NA
ATOM     15  C   UNL A   1      38.238  28.715  28.248  1.00  0.00     0.031 C 
ATOM     16  C   UNL A   1      42.752  26.791  29.434  1.00  0.00     0.029 A 
ATOM     17  N   UNL A   1      42.409  28.938  29.916  1.00  0.00    -0.354 N 
ATOM     18  C   UNL A   1      38.593  30.832  28.978  1.00  0.00     0.074 A 
ATOM     19  C   UNL A   1      37.716  29.929  28.276  1.00  0.00     0.031 C 
ATOM     20  C   UNL A   1      43.893  27.268  29.968  1.00  0.00     0.029 A 
ATOM     21  C   UNL A   1      43.730  28.687  30.242  1.00  0.00     0.049 A 
ATOM     22  H   UNL A   1      41.972  29.805  30.083  1.00  0.00     0.167 HD
ATOM     23  C   UNL A   1      38.197  32.032  29.459  1.00  0.00     0.031 A 
ATOM     24  C   UNL A   1      44.696  29.523  30.675  1.00  0.00     0.031 A 
ATOM     25  C   UNL A   1      39.064  32.904  30.192  1.00  0.00     0.049 A 
ATOM     26  C   UNL A   1      44.304  30.947  30.961  1.00  0.00     0.074 A 
ATOM     27  C   UNL A   1      38.769  34.106  30.802  1.00  0.00     0.029 A 
ATOM     28  N   UNL A   1      40.410  32.652  30.411  1.00  0.00    -0.354 N 
ATOM     29  N   UNL A   1      43.136  31.527  30.822  1.00  0.00    -0.248 NA
ATOM     30  C   UNL A   1      45.353  31.814  31.512  1.00  0.00     0.031 C 
ATOM     31  C   UNL A   1      39.952  34.605  31.357  1.00  0.00     0.029 A 
ATOM     32  C   UNL A   1      40.969  33.686  31.135  1.00  0.00     0.049 A 
ATOM     33  H   UNL A   1      40.896  31.854  30.098  1.00  0.00     0.167 HD
ATOM     34  C   UNL A   1      43.284  32.799  31.356  1.00  0.00     0.074 A 
ATOM     35  C   UNL A   1      44.669  32.920  31.768  1.00  0.00     0.031 C 
ATOM     36  C   UNL A   1      42.348  33.762  31.538  1.00  0.00     0.031 A 
BRANCH  23  37
ATOM     37  C   UNL A   1      36.753  32.396  29.259  1.00  0.00    -0.014 A 
ATOM     38  C   UNL A   1      36.347  33.090  28.103  1.00  0.00     0.009 A 
ATOM     39  C   UNL A   1      35.797  32.087  30.234  1.00  0.00     0.009 A 
ATOM     40  C   UNL A   1      35.026  33.515  27.955  1.00  0.00     0.001 A 
ATOM     41  C   UNL A   1      34.468  32.484  30.067  1.00  0.00     0.001 A 
ATOM     42  C   UNL A   1      34.087  33.209  28.937  1.00  0.00     0.000 A 
ENDBRANCH  23  37
BRANCH  24  43
ATOM     43  C   UNL A   1      46.118  29.103  30.866  1.00  0.00    -0.014 A 
ATOM     44  C   UNL A   1      47.046  29.129  29.819  1.00  0.00     0.009 A 
ATOM     45  C   UNL A   1      46.528  28.531  32.080  1.00  0.00     0.009 A 
ATOM     46  C   UNL A   1      48.337  28.603  29.997  1.00  0.00     0.001 A 
ATOM     47  C   UNL A   1      47.822  28.044  32.276  1.00  0.00     0.001 A 
ATOM     48  C   UNL A   1      48.728  28.072  31.227  1.00  0.00     0.000 A 
ENDBRANCH  24  43
BRANCH  36  49
ATOM     49  C   UNL A   1      42.772  34.969  32.320  1.00  0.00    -0.014 A 
ATOM     50  C   UNL A   1      43.485  36.021  31.730  1.00  0.00     0.009 A 
ATOM     51  C   UNL A   1      42.419  35.052  33.677  1.00  0.00     0.009 A 
ATOM     52  C   UNL A   1      43.866  37.121  32.497  1.00  0.00     0.001 A 
ATOM     53  C   UNL A   1      42.770  36.169  34.431  1.00  0.00     0.001 A 
ATOM     54  C   UNL A   1      43.502  37.197  33.842  1.00  0.00     0.000 A 
ENDBRANCH  36  49
ENDBRANCH  10  11
ENDBRANCH   3   5
ENDBRANCH   2   3
ENDBRANCH   1   2
BRANCH   1  55
ATOM     55  C   UNL A   1      34.859  24.338  25.092  1.00  0.00     0.274 C 
BRANCH  55  56
ATOM     56  O   UNL A   1      34.592  25.650  25.661  1.00  0.00    -0.462 OA
BRANCH  56  57
ATOM     57  C   UNL A   1      33.988  26.498  24.797  1.00  0.00     0.310 C 
ATOM     58  O   UNL A   1      33.761  26.173  23.630  1.00  0.00    -0.252 OA
BRANCH  57  59
ATOM     59  C   UNL A   1      33.439  27.819  25.351  1.00  0.00     0.116 C 
ATOM     60  C   UNL A   1      34.435  28.186  26.480  1.00  0.00     0.043 C 
ATOM     61  C   UNL A   1      31.956  28.159  25.735  1.00  0.00     0.097 C 
ATOM     62  C   UNL A   1      34.114  29.414  27.257  1.00  0.00    -0.030 C 
ATOM     63  C   UNL A   1      31.927  29.664  26.121  1.00  0.00     0.041 C 
ATOM     64  C   UNL A   1      32.990  30.104  27.073  1.00  0.00    -0.030 C 
BRANCH  61  65
ATOM     65  C   UNL A   1      31.357  27.372  26.882  1.00  0.00     0.228 C 
ATOM     66  O   UNL A   1      31.282  27.898  28.003  1.00  0.00    -0.274 OA
ATOM     67  N   UNL A   1      30.850  26.103  26.790  1.00  0.00    -0.324 N 
ATOM     68  H   UNL A   1      30.212  25.964  27.526  1.00  0.00     0.169 HD
BRANCH  67  69
ATOM     69  C   UNL A   1      30.913  24.903  26.006  1.00  0.00     0.060 A 
ATOM     70  C   UNL A   1      31.293  23.780  26.768  1.00  0.00     0.029 A 
ATOM     71  C   UNL A   1      30.791  24.664  24.628  1.00  0.00     0.065 A 
ATOM     72  C   UNL A   1      31.711  22.567  26.194  1.00  0.00     0.018 A 
ATOM     73  C   UNL A   1      31.310  23.487  24.039  1.00  0.00     0.038 A 
ATOM     74  Cl  UNL A   1      29.858  25.583  23.528  1.00  0.00    -0.082 Cl
ATOM     75  C   UNL A   1      31.798  22.458  24.822  1.00  0.00     0.019 A 
ATOM     76  Br  UNL A   1      32.507  20.898  24.030  1.00  0.00    -0.051 Br
ENDBRANCH  67  69
ENDBRANCH  61  65
ENDBRANCH  57  59
ENDBRANCH  56  57
ENDBRANCH  55  56
ENDBRANCH   1  55
TORSDOF 13
ENDMDL
MODEL 3
REMARK VINA RESULT:     -11.3      2.620      3.682
REMARK SMILES O=C(OCCOC(=O)[C@@H]1CC=CC[C@@H]1C(=O)Nc1ccc(Br)cc1Cl)c1ccc(-c2c3nc(c(-c4ccccc4)c4ccc([nH]4)c(-c4ccccc4)c4nc(c(-c5ccccc5)c5ccc2[nH]5)C=C4)C=C3)cc1
REMARK SMILES IDX 4 1 3 2 2 3 1 4 26 5 27 6 73 7 28 8 72 9 29 10 30 11 31 12
REMARK SMILES IDX 66 13 32 14 71 15 65 16 67 17 33 18 70 19 64 20 63 21 34 23
REMARK SMILES IDX 56 24 41 25 55 26 42 27 45 28 54 29 68 30 43 31 44 32 53 34
REMARK SMILES IDX 69 35 46 36 35 37 36 38 40 39 37 40 39 41 38 42 57 43 58 44
REMARK SMILES IDX 62 45 59 46 61 47 60 48 47 49 48 50 52 51 49 52 51 53 50 54
REMARK SMILES IDX 5 55 6 56 7 57 8 58 9 59 10 60 14 61 11 62 13 63 12 64 15 65
REMARK SMILES IDX 16 66 17 67 18 69 19 70 24 71 20 72 23 73 25 74 21 75 22 76
REMARK H PARENT 67 22 45 33 17 68
REMARK Flexibility Score: inf
ROOT
ATOM      1  C   UNL A   1      31.423  32.175  26.919  1.00  0.00     0.275 C 
ENDROOT
BRANCH   1   2
ATOM      2  O   UNL A   1      32.117  33.425  26.991  1.00  0.00    -0.458 OA
BRANCH   2   3
ATOM      3  C   UNL A   1      32.864  33.916  28.008  1.00  0.00     0.338 C 
ATOM      4  O   UNL A   1      32.460  34.914  28.592  1.00  0.00    -0.246 OA
BRANCH   3   5
ATOM      5  C   UNL A   1      34.217  33.377  28.388  1.00  0.00     0.060 A 
ATOM      6  C   UNL A   1      35.476  33.862  28.010  1.00  0.00     0.016 A 
ATOM      7  C   UNL A   1      34.200  32.304  29.280  1.00  0.00     0.016 A 
ATOM      8  C   UNL A   1      36.657  33.452  28.640  1.00  0.00     0.010 A 
ATOM      9  C   UNL A   1      35.385  31.856  29.863  1.00  0.00     0.010 A 
ATOM     10  C   UNL A   1      36.616  32.482  29.625  1.00  0.00    -0.014 A 
BRANCH  10  11
ATOM     11  C   UNL A   1      37.847  32.034  30.330  1.00  0.00     0.031 A 
ATOM     12  C   UNL A   1      38.481  30.757  29.858  1.00  0.00     0.074 A 
ATOM     13  C   UNL A   1      38.362  32.718  31.381  1.00  0.00     0.049 A 
ATOM     14  N   UNL A   1      39.450  30.063  30.392  1.00  0.00    -0.248 NA
ATOM     15  C   UNL A   1      37.933  30.167  28.619  1.00  0.00     0.031 C 
ATOM     16  C   UNL A   1      37.866  33.993  31.912  1.00  0.00     0.029 A 
ATOM     17  N   UNL A   1      39.399  32.409  32.233  1.00  0.00    -0.354 N 
ATOM     18  C   UNL A   1      39.650  28.997  29.526  1.00  0.00     0.074 A 
ATOM     19  C   UNL A   1      38.596  29.027  28.543  1.00  0.00     0.031 C 
ATOM     20  C   UNL A   1      38.549  34.318  33.027  1.00  0.00     0.029 A 
ATOM     21  C   UNL A   1      39.524  33.274  33.305  1.00  0.00     0.049 A 
ATOM     22  H   UNL A   1      40.000  31.641  32.091  1.00  0.00     0.167 HD
ATOM     23  C   UNL A   1      40.690  28.136  29.477  1.00  0.00     0.031 A 
ATOM     24  C   UNL A   1      40.311  33.200  34.398  1.00  0.00     0.031 A 
ATOM     25  C   UNL A   1      41.754  28.141  30.435  1.00  0.00     0.049 A 
ATOM     26  C   UNL A   1      41.302  32.070  34.464  1.00  0.00     0.074 A 
ATOM     27  C   UNL A   1      42.905  27.380  30.455  1.00  0.00     0.029 A 
ATOM     28  N   UNL A   1      41.787  28.964  31.551  1.00  0.00    -0.354 N 
ATOM     29  N   UNL A   1      41.505  31.098  33.609  1.00  0.00    -0.248 NA
ATOM     30  C   UNL A   1      42.204  32.061  35.622  1.00  0.00     0.031 C 
ATOM     31  C   UNL A   1      43.617  27.714  31.613  1.00  0.00     0.029 A 
ATOM     32  C   UNL A   1      42.932  28.719  32.281  1.00  0.00     0.049 A 
ATOM     33  H   UNL A   1      41.096  29.626  31.787  1.00  0.00     0.167 HD
ATOM     34  C   UNL A   1      42.619  30.415  34.076  1.00  0.00     0.074 A 
ATOM     35  C   UNL A   1      43.009  31.054  35.317  1.00  0.00     0.031 C 
ATOM     36  C   UNL A   1      43.292  29.387  33.504  1.00  0.00     0.031 A 
BRANCH  23  37
ATOM     37  C   UNL A   1      40.735  27.197  28.305  1.00  0.00    -0.014 A 
ATOM     38  C   UNL A   1      41.373  27.579  27.110  1.00  0.00     0.009 A 
ATOM     39  C   UNL A   1      40.113  25.944  28.369  1.00  0.00     0.009 A 
ATOM     40  C   UNL A   1      41.338  26.752  25.987  1.00  0.00     0.001 A 
ATOM     41  C   UNL A   1      40.108  25.103  27.253  1.00  0.00     0.001 A 
ATOM     42  C   UNL A   1      40.706  25.513  26.061  1.00  0.00     0.000 A 
ENDBRANCH  23  37
BRANCH  24  43
ATOM     43  C   UNL A   1      40.230  34.170  35.533  1.00  0.00    -0.014 A 
ATOM     44  C   UNL A   1      39.371  33.972  36.619  1.00  0.00     0.009 A 
ATOM     45  C   UNL A   1      40.920  35.391  35.468  1.00  0.00     0.009 A 
ATOM     46  C   UNL A   1      39.222  34.966  37.601  1.00  0.00     0.001 A 
ATOM     47  C   UNL A   1      40.806  36.366  36.461  1.00  0.00     0.001 A 
ATOM     48  C   UNL A   1      39.946  36.156  37.528  1.00  0.00     0.000 A 
ENDBRANCH  24  43
BRANCH  36  49
ATOM     49  C   UNL A   1      44.579  28.983  34.158  1.00  0.00    -0.014 A 
ATOM     50  C   UNL A   1      44.636  27.954  35.107  1.00  0.00     0.009 A 
ATOM     51  C   UNL A   1      45.761  29.642  33.784  1.00  0.00     0.009 A 
ATOM     52  C   UNL A   1      45.854  27.615  35.695  1.00  0.00     0.001 A 
ATOM     53  C   UNL A   1      46.982  29.276  34.347  1.00  0.00     0.001 A 
ATOM     54  C   UNL A   1      47.024  28.271  35.310  1.00  0.00     0.000 A 
ENDBRANCH  36  49
ENDBRANCH  10  11
ENDBRANCH   3   5
ENDBRANCH   2   3
ENDBRANCH   1   2
BRANCH   1  55
ATOM     55  C   UNL A   1      32.304  30.981  26.505  1.00  0.00     0.274 C 
BRANCH  55  56
ATOM     56  O   UNL A   1      31.543  29.822  26.062  1.00  0.00    -0.462 OA
BRANCH  56  57
ATOM     57  C   UNL A   1      31.878  28.681  26.706  1.00  0.00     0.310 C 
ATOM     58  O   UNL A   1      31.419  28.412  27.818  1.00  0.00    -0.252 OA
BRANCH  57  59
ATOM     59  C   UNL A   1      32.714  27.644  25.945  1.00  0.00     0.116 C 
ATOM     60  C   UNL A   1      32.374  27.919  24.457  1.00  0.00     0.043 C 
ATOM     61  C   UNL A   1      32.856  26.112  26.247  1.00  0.00     0.097 C 
ATOM     62  C   UNL A   1      33.002  27.004  23.466  1.00  0.00    -0.030 C 
ATOM     63  C   UNL A   1      33.915  25.555  25.256  1.00  0.00     0.041 C 
ATOM     64  C   UNL A   1      33.729  25.948  23.828  1.00  0.00    -0.030 C 
BRANCH  61  65
ATOM     65  C   UNL A   1      31.601  25.275  26.105  1.00  0.00     0.228 C 
ATOM     66  O   UNL A   1      30.505  25.771  26.408  1.00  0.00    -0.274 OA
ATOM     67  N   UNL A   1      31.558  23.990  25.634  1.00  0.00    -0.324 N 
ATOM     68  H   UNL A   1      30.652  23.809  25.295  1.00  0.00     0.169 HD
BRANCH  67  69
ATOM     69  C   UNL A   1      32.357  22.812  25.456  1.00  0.00     0.060 A 
ATOM     70  C   UNL A   1      32.250  22.279  24.156  1.00  0.00     0.029 A 
ATOM     71  C   UNL A   1      33.113  22.036  26.348  1.00  0.00     0.065 A 
ATOM     72  C   UNL A   1      32.687  20.987  23.816  1.00  0.00     0.018 A 
ATOM     73  C   UNL A   1      33.459  20.698  26.046  1.00  0.00     0.038 A 
ATOM     74  Cl  UNL A   1      33.889  22.603  27.763  1.00  0.00    -0.082 Cl
ATOM     75  C   UNL A   1      33.215  20.168  24.792  1.00  0.00     0.019 A 
ATOM     76  Br  UNL A   1      33.662  18.377  24.400  1.00  0.00    -0.051 Br
ENDBRANCH  67  69
ENDBRANCH  61  65
ENDBRANCH  57  59
ENDBRANCH  56  57
ENDBRANCH  55  56
ENDBRANCH   1  55
TORSDOF 13
ENDMDL
