MODEL 1
REMARK VINA RESULT:      -9.6      0.000      0.000
REMARK SMILES C[C@H](CC[NH2+]Cc1cc(C(=O)OCCOC(=O)c2ccc(-c3c4nc(c(-c5ccccc5)c5ccc([nH]5)c(-c5ccccc5)c5nc(c(-c6ccccc6)c6ccc3[nH]6)C=C5)C=C4)cc2)cs1)c1ccccc1
REMARK SMILES IDX 10 1 11 2 9 3 7 4 8 5 67 6 66 7 6 8 5 9 4 12 3 13 2 14 1 15
REMARK SMILES IDX 68 16 69 17 73 18 70 19 72 20 71 21 12 22 13 23 14 24 15 25
REMARK SMILES IDX 16 26 17 27 18 28 19 29 65 30 20 31 64 32 21 33 22 34 23 35
REMARK SMILES IDX 58 36 24 37 63 38 57 39 59 40 25 41 62 42 56 43 55 44 26 46
REMARK SMILES IDX 48 47 33 48 47 49 34 50 37 51 46 52 60 53 35 54 36 55 45 57
REMARK SMILES IDX 61 58 38 59 27 60 28 61 32 62 29 63 31 64 30 65 49 66 50 67
REMARK SMILES IDX 54 68 51 69 53 70 52 71 39 72 40 73 44 74 41 75 43 76 42 77
REMARK H PARENT 5 10 5 11 59 45 37 56
REMARK Flexibility Score: inf
ROOT
ATOM      1  C   UNL A   1      31.734  29.115  24.566  1.00  0.00     0.339 C 
ATOM      2  O   UNL A   1      30.782  29.870  24.688  1.00  0.00    -0.246 OA
ENDROOT
BRANCH   1   3
ATOM      3  C   UNL A   1      31.637  27.830  23.870  1.00  0.00     0.071 A 
ATOM      4  C   UNL A   1      31.128  25.576  23.445  1.00  0.00     0.059 A 
ATOM      5  C   UNL A   1      31.094  26.602  24.371  1.00  0.00     0.037 A 
ATOM      6  S   UNL A   1      31.852  26.080  21.978  1.00  0.00    -0.142 S 
ATOM      7  C   UNL A   1      32.077  27.663  22.568  1.00  0.00     0.081 A 
BRANCH   4   8
ATOM      8  C   UNL A   1      30.608  24.177  23.593  1.00  0.00     0.308 C 
BRANCH   8   9
ATOM      9  N   UNL A   1      30.828  23.614  24.925  1.00  0.00    -0.342 N 
ATOM     10  H   UNL A   1      31.012  24.381  25.572  1.00  0.00     0.346 HD
ATOM     11  H   UNL A   1      29.988  23.091  25.171  1.00  0.00     0.346 HD
BRANCH   9  12
ATOM     12  C   UNL A   1      31.951  22.674  24.990  1.00  0.00     0.261 C 
BRANCH  12  13
ATOM     13  C   UNL A   1      33.124  23.278  25.781  1.00  0.00     0.069 C 
BRANCH  13  14
ATOM     14  C   UNL A   1      34.275  23.952  24.975  1.00  0.00     0.021 C 
ATOM     15  C   UNL A   1      34.329  25.466  25.226  1.00  0.00     0.013 C 
BRANCH  14  16
ATOM     16  C   UNL A   1      35.642  23.255  25.040  1.00  0.00    -0.045 A 
ATOM     17  C   UNL A   1      35.845  21.961  24.523  1.00  0.00     0.004 A 
ATOM     18  C   UNL A   1      36.705  23.821  25.768  1.00  0.00     0.004 A 
ATOM     19  C   UNL A   1      37.045  21.268  24.724  1.00  0.00     0.000 A 
ATOM     20  C   UNL A   1      37.911  23.136  25.957  1.00  0.00     0.000 A 
ATOM     21  C   UNL A   1      38.079  21.856  25.442  1.00  0.00     0.000 A 
ENDBRANCH  14  16
ENDBRANCH  13  14
ENDBRANCH  12  13
ENDBRANCH   9  12
ENDBRANCH   8   9
ENDBRANCH   4   8
ENDBRANCH   1   3
BRANCH   1  22
ATOM     22  O   UNL A   1      32.991  29.375  25.034  1.00  0.00    -0.458 OA
BRANCH  22  23
ATOM     23  C   UNL A   1      33.226  29.039  26.416  1.00  0.00     0.275 C 
BRANCH  23  24
ATOM     24  C   UNL A   1      33.006  30.226  27.359  1.00  0.00     0.275 C 
BRANCH  24  25
ATOM     25  O   UNL A   1      34.085  31.179  27.295  1.00  0.00    -0.458 OA
BRANCH  25  26
ATOM     26  C   UNL A   1      34.757  31.346  28.456  1.00  0.00     0.338 C 
ATOM     27  O   UNL A   1      34.404  32.003  29.422  1.00  0.00    -0.246 OA
BRANCH  26  28
ATOM     28  C   UNL A   1      35.960  30.502  28.489  1.00  0.00     0.060 A 
ATOM     29  C   UNL A   1      36.380  30.050  29.739  1.00  0.00     0.016 A 
ATOM     30  C   UNL A   1      36.763  30.309  27.366  1.00  0.00     0.016 A 
ATOM     31  C   UNL A   1      37.625  29.453  29.892  1.00  0.00     0.010 A 
ATOM     32  C   UNL A   1      38.008  29.679  27.515  1.00  0.00     0.010 A 
ATOM     33  C   UNL A   1      38.466  29.283  28.786  1.00  0.00    -0.014 A 
BRANCH  33  34
ATOM     34  C   UNL A   1      39.859  28.805  29.005  1.00  0.00     0.031 A 
ATOM     35  C   UNL A   1      40.849  29.689  29.720  1.00  0.00     0.074 A 
ATOM     36  C   UNL A   1      40.222  27.559  28.644  1.00  0.00     0.049 A 
ATOM     37  N   UNL A   1      42.123  29.488  29.953  1.00  0.00    -0.248 NA
ATOM     38  C   UNL A   1      40.341  30.970  30.237  1.00  0.00     0.031 C 
ATOM     39  C   UNL A   1      39.346  26.571  28.010  1.00  0.00     0.029 A 
ATOM     40  N   UNL A   1      41.421  26.904  28.778  1.00  0.00    -0.354 N 
ATOM     41  C   UNL A   1      42.575  30.635  30.597  1.00  0.00     0.074 A 
ATOM     42  C   UNL A   1      41.446  31.532  30.703  1.00  0.00     0.031 C 
ATOM     43  C   UNL A   1      40.029  25.427  27.841  1.00  0.00     0.029 A 
ATOM     44  C   UNL A   1      41.404  25.620  28.290  1.00  0.00     0.049 A 
ATOM     45  H   UNL A   1      42.217  27.314  29.187  1.00  0.00     0.167 HD
ATOM     46  C   UNL A   1      43.818  30.915  31.060  1.00  0.00     0.031 A 
ATOM     47  C   UNL A   1      42.389  24.708  28.187  1.00  0.00     0.031 A 
ATOM     48  C   UNL A   1      44.937  30.011  30.985  1.00  0.00     0.049 A 
ATOM     49  C   UNL A   1      43.770  25.060  28.668  1.00  0.00     0.074 A 
ATOM     50  C   UNL A   1      46.234  30.204  31.427  1.00  0.00     0.029 A 
ATOM     51  N   UNL A   1      44.886  28.737  30.441  1.00  0.00    -0.354 N 
ATOM     52  N   UNL A   1      44.193  26.164  29.236  1.00  0.00    -0.248 NA
ATOM     53  C   UNL A   1      44.808  24.035  28.495  1.00  0.00     0.031 C 
ATOM     54  C   UNL A   1      46.979  29.063  31.110  1.00  0.00     0.029 A 
ATOM     55  C   UNL A   1      46.131  28.136  30.528  1.00  0.00     0.049 A 
ATOM     56  H   UNL A   1      44.084  28.321  30.051  1.00  0.00     0.167 HD
ATOM     57  C   UNL A   1      45.538  25.955  29.514  1.00  0.00     0.074 A 
ATOM     58  C   UNL A   1      45.853  24.612  29.072  1.00  0.00     0.031 C 
ATOM     59  C   UNL A   1      46.431  26.798  30.087  1.00  0.00     0.031 A 
BRANCH  46  60
ATOM     60  C   UNL A   1      44.043  32.281  31.652  1.00  0.00    -0.014 A 
ATOM     61  C   UNL A   1      44.424  33.377  30.861  1.00  0.00     0.009 A 
ATOM     62  C   UNL A   1      43.847  32.476  33.029  1.00  0.00     0.009 A 
ATOM     63  C   UNL A   1      44.646  34.628  31.445  1.00  0.00     0.001 A 
ATOM     64  C   UNL A   1      44.038  33.734  33.604  1.00  0.00     0.001 A 
ATOM     65  C   UNL A   1      44.449  34.806  32.813  1.00  0.00     0.000 A 
ENDBRANCH  46  60
BRANCH  47  66
ATOM     66  C   UNL A   1      42.118  23.380  27.575  1.00  0.00    -0.014 A 
ATOM     67  C   UNL A   1      41.552  22.342  28.330  1.00  0.00     0.009 A 
ATOM     68  C   UNL A   1      42.446  23.137  26.231  1.00  0.00     0.009 A 
ATOM     69  C   UNL A   1      41.344  21.083  27.760  1.00  0.00     0.001 A 
ATOM     70  C   UNL A   1      42.206  21.889  25.655  1.00  0.00     0.001 A 
ATOM     71  C   UNL A   1      41.666  20.860  26.423  1.00  0.00     0.000 A 
ENDBRANCH  47  66
BRANCH  59  72
ATOM     72  C   UNL A   1      47.819  26.267  30.321  1.00  0.00    -0.014 A 
ATOM     73  C   UNL A   1      48.805  26.314  29.323  1.00  0.00     0.009 A 
ATOM     74  C   UNL A   1      48.144  25.715  31.570  1.00  0.00     0.009 A 
ATOM     75  C   UNL A   1      50.072  25.774  29.556  1.00  0.00     0.001 A 
ATOM     76  C   UNL A   1      49.420  25.206  31.811  1.00  0.00     0.001 A 
ATOM     77  C   UNL A   1      50.379  25.223  30.800  1.00  0.00     0.000 A 
ENDBRANCH  59  72
ENDBRANCH  33  34
ENDBRANCH  26  28
ENDBRANCH  25  26
ENDBRANCH  24  25
ENDBRANCH  23  24
ENDBRANCH  22  23
ENDBRANCH   1  22
TORSDOF 17
ENDMDL
MODEL 2
REMARK VINA RESULT:      -9.5      4.670      8.975
REMARK SMILES C[C@H](CC[NH2+]Cc1cc(C(=O)OCCOC(=O)c2ccc(-c3c4nc(c(-c5ccccc5)c5ccc([nH]5)c(-c5ccccc5)c5nc(c(-c6ccccc6)c6ccc3[nH]6)C=C5)C=C4)cc2)cs1)c1ccccc1
REMARK SMILES IDX 10 1 11 2 9 3 7 4 8 5 67 6 66 7 6 8 5 9 4 12 3 13 2 14 1 15
REMARK SMILES IDX 68 16 69 17 73 18 70 19 72 20 71 21 12 22 13 23 14 24 15 25
REMARK SMILES IDX 16 26 17 27 18 28 19 29 65 30 20 31 64 32 21 33 22 34 23 35
REMARK SMILES IDX 58 36 24 37 63 38 57 39 59 40 25 41 62 42 56 43 55 44 26 46
REMARK SMILES IDX 48 47 33 48 47 49 34 50 37 51 46 52 60 53 35 54 36 55 45 57
REMARK SMILES IDX 61 58 38 59 27 60 28 61 32 62 29 63 31 64 30 65 49 66 50 67
REMARK SMILES IDX 54 68 51 69 53 70 52 71 39 72 40 73 44 74 41 75 43 76 42 77
REMARK H PARENT 5 10 5 11 59 45 37 56
REMARK Flexibility Score: inf
ROOT
ATOM      1  C   UNL A   1      39.949  20.120  26.092  1.00  0.00     0.339 C 
ATOM      2  O   UNL A   1      39.504  19.215  25.403  1.00  0.00    -0.246 OA
ENDROOT
BRANCH   1   3
ATOM      3  C   UNL A   1      39.320  21.440  26.159  1.00  0.00     0.071 A 
ATOM      4  C   UNL A   1      37.779  23.179  25.806  1.00  0.00     0.059 A 
ATOM      5  C   UNL A   1      38.115  21.871  25.512  1.00  0.00     0.037 A 
ATOM      6  S   UNL A   1      38.938  23.908  26.833  1.00  0.00    -0.142 S 
ATOM      7  C   UNL A   1      39.853  22.473  26.912  1.00  0.00     0.081 A 
BRANCH   4   8
ATOM      8  C   UNL A   1      36.572  23.948  25.357  1.00  0.00     0.308 C 
BRANCH   8   9
ATOM      9  N   UNL A   1      35.391  23.110  25.157  1.00  0.00    -0.342 N 
ATOM     10  H   UNL A   1      35.610  22.165  25.472  1.00  0.00     0.346 HD
ATOM     11  H   UNL A   1      34.631  23.532  25.691  1.00  0.00     0.346 HD
BRANCH   9  12
ATOM     12  C   UNL A   1      34.946  23.041  23.761  1.00  0.00     0.261 C 
BRANCH  12  13
ATOM     13  C   UNL A   1      33.616  22.277  23.648  1.00  0.00     0.069 C 
BRANCH  13  14
ATOM     14  C   UNL A   1      33.298  21.203  24.730  1.00  0.00     0.021 C 
ATOM     15  C   UNL A   1      32.057  21.580  25.552  1.00  0.00     0.013 C 
BRANCH  14  16
ATOM     16  C   UNL A   1      33.322  19.742  24.259  1.00  0.00    -0.045 A 
ATOM     17  C   UNL A   1      34.314  18.838  24.681  1.00  0.00     0.004 A 
ATOM     18  C   UNL A   1      32.443  19.296  23.254  1.00  0.00     0.004 A 
ATOM     19  C   UNL A   1      34.424  17.556  24.128  1.00  0.00     0.000 A 
ATOM     20  C   UNL A   1      32.542  18.010  22.710  1.00  0.00     0.000 A 
ATOM     21  C   UNL A   1      33.538  17.142  23.142  1.00  0.00     0.000 A 
ENDBRANCH  14  16
ENDBRANCH  13  14
ENDBRANCH  12  13
ENDBRANCH   9  12
ENDBRANCH   8   9
ENDBRANCH   4   8
ENDBRANCH   1   3
BRANCH   1  22
ATOM     22  O   UNL A   1      41.053  20.013  26.888  1.00  0.00    -0.458 OA
BRANCH  22  23
ATOM     23  C   UNL A   1      42.322  20.190  26.227  1.00  0.00     0.275 C 
BRANCH  23  24
ATOM     24  C   UNL A   1      42.951  18.863  25.790  1.00  0.00     0.275 C 
BRANCH  24  25
ATOM     25  O   UNL A   1      44.355  18.999  25.495  1.00  0.00    -0.458 OA
BRANCH  25  26
ATOM     26  C   UNL A   1      44.626  19.617  24.323  1.00  0.00     0.338 C 
ATOM     27  O   UNL A   1      44.448  19.173  23.200  1.00  0.00    -0.246 OA
BRANCH  26  28
ATOM     28  C   UNL A   1      45.054  21.004  24.552  1.00  0.00     0.060 A 
ATOM     29  C   UNL A   1      45.719  21.271  25.748  1.00  0.00     0.016 A 
ATOM     30  C   UNL A   1      44.660  22.050  23.718  1.00  0.00     0.016 A 
ATOM     31  C   UNL A   1      45.947  22.580  26.152  1.00  0.00     0.010 A 
ATOM     32  C   UNL A   1      44.917  23.372  24.112  1.00  0.00     0.010 A 
ATOM     33  C   UNL A   1      45.525  23.648  25.352  1.00  0.00    -0.014 A 
BRANCH  33  34
ATOM     34  C   UNL A   1      45.622  25.034  25.888  1.00  0.00     0.031 A 
ATOM     35  C   UNL A   1      46.929  25.779  25.803  1.00  0.00     0.074 A 
ATOM     36  C   UNL A   1      44.532  25.660  26.373  1.00  0.00     0.049 A 
ATOM     37  N   UNL A   1      47.240  26.964  26.268  1.00  0.00    -0.248 NA
ATOM     38  C   UNL A   1      48.035  25.099  25.110  1.00  0.00     0.031 C 
ATOM     39  C   UNL A   1      43.187  25.085  26.447  1.00  0.00     0.029 A 
ATOM     40  N   UNL A   1      44.380  26.927  26.878  1.00  0.00    -0.354 N 
ATOM     41  C   UNL A   1      48.585  27.148  25.967  1.00  0.00     0.074 A 
ATOM     42  C   UNL A   1      49.035  25.948  25.295  1.00  0.00     0.031 C 
ATOM     43  C   UNL A   1      42.343  26.008  26.937  1.00  0.00     0.029 A 
ATOM     44  C   UNL A   1      43.096  27.212  27.273  1.00  0.00     0.049 A 
ATOM     45  H   UNL A   1      45.122  27.572  26.950  1.00  0.00     0.167 HD
ATOM     46  C   UNL A   1      49.375  28.220  26.223  1.00  0.00     0.031 A 
ATOM     47  C   UNL A   1      42.584  28.307  27.867  1.00  0.00     0.031 A 
ATOM     48  C   UNL A   1      48.923  29.428  26.862  1.00  0.00     0.049 A 
ATOM     49  C   UNL A   1      43.491  29.465  28.181  1.00  0.00     0.074 A 
ATOM     50  C   UNL A   1      49.647  30.569  27.165  1.00  0.00     0.029 A 
ATOM     51  N   UNL A   1      47.623  29.657  27.287  1.00  0.00    -0.354 N 
ATOM     52  N   UNL A   1      44.770  29.608  27.929  1.00  0.00    -0.248 NA
ATOM     53  C   UNL A   1      42.879  30.614  28.860  1.00  0.00     0.031 C 
ATOM     54  C   UNL A   1      48.795  31.469  27.813  1.00  0.00     0.029 A 
ATOM     55  C   UNL A   1      47.527  30.916  27.858  1.00  0.00     0.049 A 
ATOM     56  H   UNL A   1      46.878  29.019  27.197  1.00  0.00     0.167 HD
ATOM     57  C   UNL A   1      45.107  30.873  28.391  1.00  0.00     0.074 A 
ATOM     58  C   UNL A   1      43.895  31.463  28.920  1.00  0.00     0.031 C 
ATOM     59  C   UNL A   1      46.313  31.492  28.377  1.00  0.00     0.031 A 
BRANCH  46  60
ATOM     60  C   UNL A   1      50.829  28.111  25.849  1.00  0.00    -0.014 A 
ATOM     61  C   UNL A   1      51.785  27.594  26.737  1.00  0.00     0.009 A 
ATOM     62  C   UNL A   1      51.244  28.518  24.570  1.00  0.00     0.009 A 
ATOM     63  C   UNL A   1      53.132  27.527  26.367  1.00  0.00     0.001 A 
ATOM     64  C   UNL A   1      52.584  28.419  24.192  1.00  0.00     0.001 A 
ATOM     65  C   UNL A   1      53.529  27.935  25.095  1.00  0.00     0.000 A 
ENDBRANCH  46  60
BRANCH  47  66
ATOM     66  C   UNL A   1      41.143  28.354  28.234  1.00  0.00    -0.014 A 
ATOM     67  C   UNL A   1      40.685  27.767  29.424  1.00  0.00     0.009 A 
ATOM     68  C   UNL A   1      40.213  28.968  27.381  1.00  0.00     0.009 A 
ATOM     69  C   UNL A   1      39.324  27.773  29.738  1.00  0.00     0.001 A 
ATOM     70  C   UNL A   1      38.858  29.003  27.714  1.00  0.00     0.001 A 
ATOM     71  C   UNL A   1      38.413  28.396  28.886  1.00  0.00     0.000 A 
ENDBRANCH  47  66
BRANCH  59  72
ATOM     72  C   UNL A   1      46.363  32.903  28.897  1.00  0.00    -0.014 A 
ATOM     73  C   UNL A   1      46.654  33.185  30.241  1.00  0.00     0.009 A 
ATOM     74  C   UNL A   1      46.120  33.971  28.018  1.00  0.00     0.009 A 
ATOM     75  C   UNL A   1      46.651  34.502  30.704  1.00  0.00     0.001 A 
ATOM     76  C   UNL A   1      46.149  35.288  28.476  1.00  0.00     0.001 A 
ATOM     77  C   UNL A   1      46.401  35.552  29.820  1.00  0.00     0.000 A 
ENDBRANCH  59  72
ENDBRANCH  33  34
ENDBRANCH  26  28
ENDBRANCH  25  26
ENDBRANCH  24  25
ENDBRANCH  23  24
ENDBRANCH  22  23
ENDBRANCH   1  22
TORSDOF 17
ENDMDL
MODEL 3
REMARK VINA RESULT:      -9.5      2.266      3.485
REMARK SMILES C[C@H](CC[NH2+]Cc1cc(C(=O)OCCOC(=O)c2ccc(-c3c4nc(c(-c5ccccc5)c5ccc([nH]5)c(-c5ccccc5)c5nc(c(-c6ccccc6)c6ccc3[nH]6)C=C5)C=C4)cc2)cs1)c1ccccc1
REMARK SMILES IDX 10 1 11 2 9 3 7 4 8 5 67 6 66 7 6 8 5 9 4 12 3 13 2 14 1 15
REMARK SMILES IDX 68 16 69 17 73 18 70 19 72 20 71 21 12 22 13 23 14 24 15 25
REMARK SMILES IDX 16 26 17 27 18 28 19 29 65 30 20 31 64 32 21 33 22 34 23 35
REMARK SMILES IDX 58 36 24 37 63 38 57 39 59 40 25 41 62 42 56 43 55 44 26 46
REMARK SMILES IDX 48 47 33 48 47 49 34 50 37 51 46 52 60 53 35 54 36 55 45 57
REMARK SMILES IDX 61 58 38 59 27 60 28 61 32 62 29 63 31 64 30 65 49 66 50 67
REMARK SMILES IDX 54 68 51 69 53 70 52 71 39 72 40 73 44 74 41 75 43 76 42 77
REMARK H PARENT 5 10 5 11 59 45 37 56
REMARK Flexibility Score: inf
ROOT
ATOM      1  C   UNL A   1      32.426  29.806  26.109  1.00  0.00     0.339 C 
ATOM      2  O   UNL A   1      33.615  29.972  25.885  1.00  0.00    -0.246 OA
ENDROOT
BRANCH   1   3
ATOM      3  C   UNL A   1      31.676  28.667  25.576  1.00  0.00     0.071 A 
ATOM      4  C   UNL A   1      30.603  26.579  25.465  1.00  0.00     0.059 A 
ATOM      5  C   UNL A   1      31.351  27.442  26.245  1.00  0.00     0.037 A 
ATOM      6  S   UNL A   1      30.322  27.228  23.906  1.00  0.00    -0.142 S 
ATOM      7  C   UNL A   1      31.158  28.663  24.291  1.00  0.00     0.081 A 
BRANCH   4   8
ATOM      8  C   UNL A   1      30.043  25.240  25.842  1.00  0.00     0.308 C 
BRANCH   8   9
ATOM      9  N   UNL A   1      30.796  24.573  26.904  1.00  0.00    -0.342 N 
ATOM     10  H   UNL A   1      31.232  25.288  27.486  1.00  0.00     0.346 HD
ATOM     11  H   UNL A   1      30.134  23.998  27.423  1.00  0.00     0.346 HD
BRANCH   9  12
ATOM     12  C   UNL A   1      31.846  23.677  26.408  1.00  0.00     0.261 C 
BRANCH  12  13
ATOM     13  C   UNL A   1      33.201  24.401  26.351  1.00  0.00     0.069 C 
BRANCH  13  14
ATOM     14  C   UNL A   1      33.916  24.501  24.970  1.00  0.00     0.021 C 
ATOM     15  C   UNL A   1      34.025  25.957  24.494  1.00  0.00     0.013 C 
BRANCH  14  16
ATOM     16  C   UNL A   1      35.212  23.691  24.821  1.00  0.00    -0.045 A 
ATOM     17  C   UNL A   1      35.730  23.336  23.561  1.00  0.00     0.004 A 
ATOM     18  C   UNL A   1      35.845  23.132  25.947  1.00  0.00     0.004 A 
ATOM     19  C   UNL A   1      36.820  22.467  23.432  1.00  0.00     0.000 A 
ATOM     20  C   UNL A   1      36.944  22.275  25.821  1.00  0.00     0.000 A 
ATOM     21  C   UNL A   1      37.428  21.936  24.563  1.00  0.00     0.000 A 
ENDBRANCH  14  16
ENDBRANCH  13  14
ENDBRANCH  12  13
ENDBRANCH   9  12
ENDBRANCH   8   9
ENDBRANCH   4   8
ENDBRANCH   1   3
BRANCH   1  22
ATOM     22  O   UNL A   1      31.664  30.631  26.886  1.00  0.00    -0.458 OA
BRANCH  22  23
ATOM     23  C   UNL A   1      31.110  31.784  26.220  1.00  0.00     0.275 C 
BRANCH  23  24
ATOM     24  C   UNL A   1      31.563  33.105  26.850  1.00  0.00     0.275 C 
BRANCH  24  25
ATOM     25  O   UNL A   1      32.916  33.037  27.341  1.00  0.00    -0.458 OA
BRANCH  25  26
ATOM     26  C   UNL A   1      33.229  33.978  28.261  1.00  0.00     0.338 C 
ATOM     27  O   UNL A   1      32.551  34.937  28.591  1.00  0.00    -0.246 OA
BRANCH  26  28
ATOM     28  C   UNL A   1      34.477  33.633  28.956  1.00  0.00     0.060 A 
ATOM     29  C   UNL A   1      35.670  33.955  28.308  1.00  0.00     0.016 A 
ATOM     30  C   UNL A   1      34.493  32.855  30.112  1.00  0.00     0.016 A 
ATOM     31  C   UNL A   1      36.881  33.458  28.773  1.00  0.00     0.010 A 
ATOM     32  C   UNL A   1      35.720  32.379  30.600  1.00  0.00     0.010 A 
ATOM     33  C   UNL A   1      36.919  32.643  29.910  1.00  0.00    -0.014 A 
BRANCH  33  34
ATOM     34  C   UNL A   1      38.201  31.982  30.282  1.00  0.00     0.031 A 
ATOM     35  C   UNL A   1      39.079  32.598  31.341  1.00  0.00     0.074 A 
ATOM     36  C   UNL A   1      38.545  30.797  29.742  1.00  0.00     0.049 A 
ATOM     37  N   UNL A   1      40.260  32.219  31.763  1.00  0.00    -0.248 NA
ATOM     38  C   UNL A   1      38.563  33.803  32.011  1.00  0.00     0.031 C 
ATOM     39  C   UNL A   1      37.754  30.052  28.760  1.00  0.00     0.029 A 
ATOM     40  N   UNL A   1      39.642  30.001  29.959  1.00  0.00    -0.354 N 
ATOM     41  C   UNL A   1      40.646  33.163  32.708  1.00  0.00     0.074 A 
ATOM     42  C   UNL A   1      39.583  34.141  32.785  1.00  0.00     0.031 C 
ATOM     43  C   UNL A   1      38.377  28.894  28.485  1.00  0.00     0.029 A 
ATOM     44  C   UNL A   1      39.639  28.846  29.216  1.00  0.00     0.049 A 
ATOM     45  H   UNL A   1      40.363  30.236  30.588  1.00  0.00     0.167 HD
ATOM     46  C   UNL A   1      41.782  33.212  33.446  1.00  0.00     0.031 A 
ATOM     47  C   UNL A   1      40.560  27.869  29.112  1.00  0.00     0.031 A 
ATOM     48  C   UNL A   1      42.828  32.223  33.395  1.00  0.00     0.049 A 
ATOM     49  C   UNL A   1      41.832  27.969  29.908  1.00  0.00     0.074 A 
ATOM     50  C   UNL A   1      44.016  32.184  34.104  1.00  0.00     0.029 A 
ATOM     51  N   UNL A   1      42.804  31.090  32.595  1.00  0.00    -0.354 N 
ATOM     52  N   UNL A   1      42.203  28.890  30.765  1.00  0.00    -0.248 NA
ATOM     53  C   UNL A   1      42.811  26.890  29.722  1.00  0.00     0.031 C 
ATOM     54  C   UNL A   1      44.731  31.052  33.701  1.00  0.00     0.029 A 
ATOM     55  C   UNL A   1      43.961  30.352  32.787  1.00  0.00     0.049 A 
ATOM     56  H   UNL A   1      42.074  30.847  31.981  1.00  0.00     0.167 HD
ATOM     57  C   UNL A   1      43.443  28.485  31.242  1.00  0.00     0.074 A 
ATOM     58  C   UNL A   1      43.751  27.227  30.594  1.00  0.00     0.031 C 
ATOM     59  C   UNL A   1      44.253  29.100  32.138  1.00  0.00     0.031 A 
BRANCH  46  60
ATOM     60  C   UNL A   1      41.972  34.405  34.344  1.00  0.00    -0.014 A 
ATOM     61  C   UNL A   1      42.542  35.599  33.877  1.00  0.00     0.009 A 
ATOM     62  C   UNL A   1      41.549  34.335  35.682  1.00  0.00     0.009 A 
ATOM     63  C   UNL A   1      42.725  36.682  34.742  1.00  0.00     0.001 A 
ATOM     64  C   UNL A   1      41.703  35.429  36.535  1.00  0.00     0.001 A 
ATOM     65  C   UNL A   1      42.302  36.598  36.067  1.00  0.00     0.000 A 
ENDBRANCH  46  60
BRANCH  47  66
ATOM     66  C   UNL A   1      40.332  26.722  28.193  1.00  0.00    -0.014 A 
ATOM     67  C   UNL A   1      40.877  26.715  26.900  1.00  0.00     0.009 A 
ATOM     68  C   UNL A   1      39.544  25.633  28.600  1.00  0.00     0.009 A 
ATOM     69  C   UNL A   1      40.618  25.656  26.027  1.00  0.00     0.001 A 
ATOM     70  C   UNL A   1      39.315  24.560  27.737  1.00  0.00     0.001 A 
ATOM     71  C   UNL A   1      39.842  24.577  26.448  1.00  0.00     0.000 A 
ENDBRANCH  47  66
BRANCH  59  72
ATOM     72  C   UNL A   1      45.523  28.385  32.513  1.00  0.00    -0.014 A 
ATOM     73  C   UNL A   1      46.727  28.610  31.826  1.00  0.00     0.009 A 
ATOM     74  C   UNL A   1      45.512  27.474  33.581  1.00  0.00     0.009 A 
ATOM     75  C   UNL A   1      47.879  27.900  32.170  1.00  0.00     0.001 A 
ATOM     76  C   UNL A   1      46.672  26.790  33.943  1.00  0.00     0.001 A 
ATOM     77  C   UNL A   1      47.851  26.993  33.229  1.00  0.00     0.000 A 
ENDBRANCH  59  72
ENDBRANCH  33  34
ENDBRANCH  26  28
ENDBRANCH  25  26
ENDBRANCH  24  25
ENDBRANCH  23  24
ENDBRANCH  22  23
ENDBRANCH   1  22
TORSDOF 17
ENDMDL
