MODEL 1
REMARK VINA RESULT:     -12.9      0.000      0.000
REMARK SMILES Cc1ccc(S(=O)(=O)N(c2ccccc2)[C@H](C)C(=O)OCCOC(=O)c2ccc(-c3c4nc(c(-c5ccccc5)c5ccc([nH]5)c(-c5ccccc5)c5nc(c(-c6ccccc6)c6ccc3[nH]6)C=C5)C=C4)cc2)cc1
REMARK SMILES IDX 21 1 20 2 18 3 19 4 16 5 17 6 9 7 6 8 7 9 8 10 5 11 1 12
REMARK SMILES IDX 2 13 3 14 75 15 4 16 74 17 10 18 11 19 15 20 12 21 14 22
REMARK SMILES IDX 13 23 22 24 23 25 24 26 25 27 26 28 27 29 73 30 28 31 72 32
REMARK SMILES IDX 29 33 30 34 31 35 66 36 32 37 71 38 65 39 67 40 33 41 70 42
REMARK SMILES IDX 64 43 63 44 34 46 56 47 41 48 55 49 42 50 45 51 54 52 68 53
REMARK SMILES IDX 43 54 44 55 53 57 69 58 46 59 35 60 36 61 40 62 37 63 39 64
REMARK SMILES IDX 38 65 57 66 58 67 62 68 59 69 61 70 60 71 47 72 48 73 52 74
REMARK SMILES IDX 49 75 51 76 50 77
REMARK H PARENT 67 45 45 56
REMARK Flexibility Score: inf
ROOT
ATOM      1  C   UNL A   1      34.039  31.110  27.996  1.00  0.00     0.274 C 
ENDROOT
BRANCH   1   2
ATOM      2  O   UNL A   1      34.008  30.266  26.832  1.00  0.00    -0.461 OA
BRANCH   2   3
ATOM      3  C   UNL A   1      32.787  30.020  26.318  1.00  0.00     0.329 C 
ATOM      4  O   UNL A   1      31.758  30.278  26.939  1.00  0.00    -0.250 OA
BRANCH   3   5
ATOM      5  C   UNL A   1      32.772  29.554  24.697  1.00  0.00     0.206 C 
ATOM      6  C   UNL A   1      34.240  28.623  23.314  1.00  0.00     0.045 C 
BRANCH   5   7
ATOM      7  N   UNL A   1      32.021  28.670  24.303  1.00  0.00    -0.252 N 
BRANCH   7   8
ATOM      8  S   UNL A   1      32.279  26.870  25.663  1.00  0.00     0.265 S 
ATOM      9  O   UNL A   1      31.067  26.780  26.469  1.00  0.00    -0.201 OA
ATOM     10  O   UNL A   1      33.553  26.944  26.333  1.00  0.00    -0.201 OA
BRANCH   8  11
ATOM     11  C   UNL A   1      32.279  25.041  24.628  1.00  0.00     0.088 A 
ATOM     12  C   UNL A   1      31.993  21.210  22.464  1.00  0.00     0.044 C 
ATOM     13  C   UNL A   1      32.226  22.517  23.174  1.00  0.00    -0.051 A 
ATOM     14  C   UNL A   1      32.716  23.705  22.596  1.00  0.00     0.005 A 
ATOM     15  C   UNL A   1      31.897  22.573  24.507  1.00  0.00     0.005 A 
ATOM     16  C   UNL A   1      32.756  24.964  23.311  1.00  0.00     0.022 A 
ATOM     17  C   UNL A   1      31.909  23.799  25.180  1.00  0.00     0.022 A 
ENDBRANCH   8  11
ENDBRANCH   7   8
BRANCH   7  18
ATOM     18  C   UNL A   1      30.111  29.284  23.591  1.00  0.00     0.053 A 
ATOM     19  C   UNL A   1      28.976  28.400  23.133  1.00  0.00     0.027 A 
ATOM     20  C   UNL A   1      29.488  30.670  23.641  1.00  0.00     0.027 A 
ATOM     21  C   UNL A   1      27.612  28.760  22.988  1.00  0.00     0.002 A 
ATOM     22  C   UNL A   1      28.125  31.014  23.493  1.00  0.00     0.002 A 
ATOM     23  C   UNL A   1      27.185  30.050  23.217  1.00  0.00     0.000 A 
ENDBRANCH   7  18
ENDBRANCH   5   7
ENDBRANCH   3   5
ENDBRANCH   2   3
ENDBRANCH   1   2
BRANCH   1  24
ATOM     24  C   UNL A   1      34.379  32.656  27.926  1.00  0.00     0.275 C 
BRANCH  24  25
ATOM     25  O   UNL A   1      33.952  33.701  28.906  1.00  0.00    -0.458 OA
BRANCH  25  26
ATOM     26  C   UNL A   1      34.344  34.242  30.110  1.00  0.00     0.338 C 
ATOM     27  O   UNL A   1      33.870  35.268  30.568  1.00  0.00    -0.246 OA
BRANCH  26  28
ATOM     28  C   UNL A   1      35.461  33.586  30.808  1.00  0.00     0.060 A 
ATOM     29  C   UNL A   1      35.780  32.561  32.494  1.00  0.00     0.016 A 
ATOM     30  C   UNL A   1      37.197  33.991  30.026  1.00  0.00     0.016 A 
ATOM     31  C   UNL A   1      37.597  32.222  33.185  1.00  0.00     0.010 A 
ATOM     32  C   UNL A   1      38.941  33.898  30.783  1.00  0.00     0.010 A 
ATOM     33  C   UNL A   1      39.345  33.035  32.487  1.00  0.00    -0.014 A 
BRANCH  33  34
ATOM     34  C   UNL A   1      40.553  33.951  32.752  1.00  0.00     0.031 A 
ATOM     35  C   UNL A   1      40.474  34.486  34.080  1.00  0.00     0.074 A 
ATOM     36  C   UNL A   1      41.808  33.904  32.188  1.00  0.00     0.049 A 
ATOM     37  N   UNL A   1      40.211  35.716  34.355  1.00  0.00    -0.248 NA
ATOM     38  C   UNL A   1      40.366  33.511  35.161  1.00  0.00     0.031 C 
ATOM     39  C   UNL A   1      43.058  34.130  32.930  1.00  0.00     0.029 A 
ATOM     40  N   UNL A   1      42.316  33.505  30.953  1.00  0.00    -0.354 N 
ATOM     41  C   UNL A   1      40.090  35.678  35.716  1.00  0.00     0.074 A 
ATOM     42  C   UNL A   1      39.744  34.293  36.032  1.00  0.00     0.031 C 
ATOM     43  C   UNL A   1      44.113  34.090  32.096  1.00  0.00     0.029 A 
ATOM     44  C   UNL A   1      43.621  33.964  30.740  1.00  0.00     0.049 A 
ATOM     45  H   UNL A   1      41.814  32.962  30.305  1.00  0.00     0.167 HD
ATOM     46  C   UNL A   1      40.979  36.340  36.505  1.00  0.00     0.031 A 
ATOM     47  C   UNL A   1      43.973  34.835  29.742  1.00  0.00     0.031 A 
ATOM     48  C   UNL A   1      42.197  36.711  35.777  1.00  0.00     0.049 A 
ATOM     49  C   UNL A   1      44.055  36.263  30.243  1.00  0.00     0.074 A 
ATOM     50  C   UNL A   1      43.486  36.194  35.782  1.00  0.00     0.029 A 
ATOM     51  N   UNL A   1      42.114  37.478  34.618  1.00  0.00    -0.354 N 
ATOM     52  N   UNL A   1      43.816  36.586  31.486  1.00  0.00    -0.248 NA
ATOM     53  C   UNL A   1      44.404  37.433  29.442  1.00  0.00     0.031 C 
ATOM     54  C   UNL A   1      44.189  36.725  34.661  1.00  0.00     0.029 A 
ATOM     55  C   UNL A   1      43.337  37.575  33.978  1.00  0.00     0.049 A 
ATOM     56  H   UNL A   1      41.285  37.900  34.293  1.00  0.00     0.167 HD
ATOM     57  C   UNL A   1      43.867  37.937  31.655  1.00  0.00     0.074 A 
ATOM     58  C   UNL A   1      44.296  38.421  30.352  1.00  0.00     0.031 C 
ATOM     59  C   UNL A   1      43.503  38.498  32.848  1.00  0.00     0.031 A 
BRANCH  46  60
ATOM     60  C   UNL A   1      40.831  36.152  37.990  1.00  0.00    -0.014 A 
ATOM     61  C   UNL A   1      39.768  36.729  38.683  1.00  0.00     0.009 A 
ATOM     62  C   UNL A   1      41.747  35.381  38.749  1.00  0.00     0.009 A 
ATOM     63  C   UNL A   1      39.669  36.606  40.073  1.00  0.00     0.001 A 
ATOM     64  C   UNL A   1      41.698  35.320  40.140  1.00  0.00     0.001 A 
ATOM     65  C   UNL A   1      40.645  35.929  40.803  1.00  0.00     0.000 A 
ENDBRANCH  46  60
BRANCH  47  66
ATOM     66  C   UNL A   1      43.620  34.382  28.375  1.00  0.00    -0.014 A 
ATOM     67  C   UNL A   1      42.718  35.190  27.655  1.00  0.00     0.009 A 
ATOM     68  C   UNL A   1      44.477  33.535  27.668  1.00  0.00     0.009 A 
ATOM     69  C   UNL A   1      42.834  35.319  26.269  1.00  0.00     0.001 A 
ATOM     70  C   UNL A   1      44.600  33.675  26.285  1.00  0.00     0.001 A 
ATOM     71  C   UNL A   1      43.812  34.598  25.595  1.00  0.00     0.000 A 
ENDBRANCH  47  66
BRANCH  59  72
ATOM     72  C   UNL A   1      43.278  39.973  33.119  1.00  0.00    -0.014 A 
ATOM     73  C   UNL A   1      43.710  40.660  34.256  1.00  0.00     0.009 A 
ATOM     74  C   UNL A   1      42.644  40.762  32.129  1.00  0.00     0.009 A 
ATOM     75  C   UNL A   1      43.503  42.038  34.404  1.00  0.00     0.001 A 
ATOM     76  C   UNL A   1      42.495  42.144  32.237  1.00  0.00     0.001 A 
ATOM     77  C   UNL A   1      42.912  42.783  33.389  1.00  0.00     0.000 A 
ENDBRANCH  59  72
ENDBRANCH  33  34
ENDBRANCH  26  28
ENDBRANCH  25  26
ENDBRANCH  24  25
ENDBRANCH   1  24
TORSDOF 15
ENDMDL
MODEL 2
REMARK VINA RESULT:     -12.8      6.927     10.537
REMARK SMILES Cc1ccc(S(=O)(=O)N(c2ccccc2)[C@H](C)C(=O)OCCOC(=O)c2ccc(-c3c4nc(c(-c5ccccc5)c5ccc([nH]5)c(-c5ccccc5)c5nc(c(-c6ccccc6)c6ccc3[nH]6)C=C5)C=C4)cc2)cc1
REMARK SMILES IDX 21 1 20 2 18 3 19 4 16 5 17 6 9 7 6 8 7 9 8 10 5 11 1 12
REMARK SMILES IDX 2 13 3 14 75 15 4 16 74 17 10 18 11 19 15 20 12 21 14 22
REMARK SMILES IDX 13 23 22 24 23 25 24 26 25 27 26 28 27 29 73 30 28 31 72 32
REMARK SMILES IDX 29 33 30 34 31 35 66 36 32 37 71 38 65 39 67 40 33 41 70 42
REMARK SMILES IDX 64 43 63 44 34 46 56 47 41 48 55 49 42 50 45 51 54 52 68 53
REMARK SMILES IDX 43 54 44 55 53 57 69 58 46 59 35 60 36 61 40 62 37 63 39 64
REMARK SMILES IDX 38 65 57 66 58 67 62 68 59 69 61 70 60 71 47 72 48 73 52 74
REMARK SMILES IDX 49 75 51 76 50 77
REMARK H PARENT 67 45 45 56
REMARK Flexibility Score: inf
ROOT
ATOM      1  C   UNL A   1      37.766  21.737  25.250  1.00  0.00     0.274 C 
ENDROOT
BRANCH   1   2
ATOM      2  O   UNL A   1      36.748  22.247  24.372  1.00  0.00    -0.461 OA
BRANCH   2   3
ATOM      3  C   UNL A   1      36.111  23.357  24.795  1.00  0.00     0.329 C 
ATOM      4  O   UNL A   1      36.500  23.997  25.770  1.00  0.00    -0.250 OA
BRANCH   3   5
ATOM      5  C   UNL A   1      34.899  23.923  23.767  1.00  0.00     0.206 C 
ATOM      6  C   UNL A   1      33.588  23.008  22.226  1.00  0.00     0.045 C 
BRANCH   5   7
ATOM      7  N   UNL A   1      33.853  24.374  24.217  1.00  0.00    -0.252 N 
BRANCH   7   8
ATOM      8  S   UNL A   1      32.918  22.789  25.547  1.00  0.00     0.265 S 
ATOM      9  O   UNL A   1      31.473  22.930  25.410  1.00  0.00    -0.201 OA
ATOM     10  O   UNL A   1      33.499  22.854  26.864  1.00  0.00    -0.201 OA
BRANCH   8  11
ATOM     11  C   UNL A   1      33.254  20.830  24.865  1.00  0.00     0.088 A 
ATOM     12  C   UNL A   1      33.965  16.822  23.171  1.00  0.00     0.044 C 
ATOM     13  C   UNL A   1      33.743  18.134  23.874  1.00  0.00    -0.051 A 
ATOM     14  C   UNL A   1      34.679  18.821  24.674  1.00  0.00     0.005 A 
ATOM     15  C   UNL A   1      32.526  18.744  23.693  1.00  0.00     0.005 A 
ATOM     16  C   UNL A   1      34.444  20.157  25.180  1.00  0.00     0.022 A 
ATOM     17  C   UNL A   1      32.320  20.047  24.159  1.00  0.00     0.022 A 
ENDBRANCH   8  11
ENDBRANCH   7   8
BRANCH   7  18
ATOM     18  C   UNL A   1      33.847  26.437  24.742  1.00  0.00     0.053 A 
ATOM     19  C   UNL A   1      33.704  27.619  23.814  1.00  0.00     0.027 A 
ATOM     20  C   UNL A   1      33.751  27.056  26.128  1.00  0.00     0.027 A 
ATOM     21  C   UNL A   1      33.357  28.949  24.164  1.00  0.00     0.002 A 
ATOM     22  C   UNL A   1      33.405  28.385  26.462  1.00  0.00     0.002 A 
ATOM     23  C   UNL A   1      33.161  29.314  25.479  1.00  0.00     0.000 A 
ENDBRANCH   7  18
ENDBRANCH   5   7
ENDBRANCH   3   5
ENDBRANCH   2   3
ENDBRANCH   1   2
BRANCH   1  24
ATOM     24  C   UNL A   1      38.488  20.346  25.010  1.00  0.00     0.275 C 
BRANCH  24  25
ATOM     25  O   UNL A   1      39.673  19.824  25.756  1.00  0.00    -0.458 OA
BRANCH  25  26
ATOM     26  C   UNL A   1      40.713  20.278  26.535  1.00  0.00     0.338 C 
ATOM     27  O   UNL A   1      41.118  19.685  27.522  1.00  0.00    -0.246 OA
BRANCH  26  28
ATOM     28  C   UNL A   1      41.280  21.594  26.198  1.00  0.00     0.060 A 
ATOM     29  C   UNL A   1      42.852  22.342  25.218  1.00  0.00     0.016 A 
ATOM     30  C   UNL A   1      40.416  23.063  27.141  1.00  0.00     0.016 A 
ATOM     31  C   UNL A   1      43.390  24.233  25.390  1.00  0.00     0.010 A 
ATOM     32  C   UNL A   1      41.044  24.819  27.522  1.00  0.00     0.010 A 
ATOM     33  C   UNL A   1      42.642  25.603  26.719  1.00  0.00    -0.014 A 
BRANCH  33  34
ATOM     34  C   UNL A   1      42.897  26.514  27.934  1.00  0.00     0.031 A 
ATOM     35  C   UNL A   1      44.235  26.318  28.414  1.00  0.00     0.074 A 
ATOM     36  C   UNL A   1      42.310  27.720  28.244  1.00  0.00     0.049 A 
ATOM     37  N   UNL A   1      44.532  25.730  29.519  1.00  0.00    -0.248 NA
ATOM     38  C   UNL A   1      45.303  26.511  27.438  1.00  0.00     0.031 C 
ATOM     39  C   UNL A   1      43.031  28.873  28.804  1.00  0.00     0.029 A 
ATOM     40  N   UNL A   1      41.059  28.291  28.014  1.00  0.00    -0.354 N 
ATOM     41  C   UNL A   1      45.894  25.654  29.437  1.00  0.00     0.074 A 
ATOM     42  C   UNL A   1      46.196  25.715  28.008  1.00  0.00     0.031 C 
ATOM     43  C   UNL A   1      42.176  29.878  29.067  1.00  0.00     0.029 A 
ATOM     44  C   UNL A   1      40.827  29.411  28.820  1.00  0.00     0.049 A 
ATOM     45  H   UNL A   1      40.412  27.945  27.357  1.00  0.00     0.167 HD
ATOM     46  C   UNL A   1      46.676  26.341  30.314  1.00  0.00     0.031 A 
ATOM     47  C   UNL A   1      39.836  29.484  29.763  1.00  0.00     0.031 A 
ATOM     48  C   UNL A   1      45.931  27.391  31.017  1.00  0.00     0.049 A 
ATOM     49  C   UNL A   1      40.357  29.176  31.154  1.00  0.00     0.074 A 
ATOM     50  C   UNL A   1      45.904  28.772  30.880  1.00  0.00     0.029 A 
ATOM     51  N   UNL A   1      44.785  27.072  31.740  1.00  0.00    -0.354 N 
ATOM     52  N   UNL A   1      41.608  28.884  31.386  1.00  0.00    -0.248 NA
ATOM     53  C   UNL A   1      39.565  29.167  32.381  1.00  0.00     0.031 C 
ATOM     54  C   UNL A   1      44.778  29.275  31.595  1.00  0.00     0.029 A 
ATOM     55  C   UNL A   1      44.123  28.204  32.180  1.00  0.00     0.049 A 
ATOM     56  H   UNL A   1      44.482  26.151  31.918  1.00  0.00     0.167 HD
ATOM     57  C   UNL A   1      41.795  28.560  32.696  1.00  0.00     0.074 A 
ATOM     58  C   UNL A   1      40.492  28.808  33.291  1.00  0.00     0.031 C 
ATOM     59  C   UNL A   1      43.004  28.082  33.123  1.00  0.00     0.031 A 
BRANCH  46  60
ATOM     60  C   UNL A   1      48.161  26.285  30.080  1.00  0.00    -0.014 A 
ATOM     61  C   UNL A   1      48.981  25.482  30.871  1.00  0.00     0.009 A 
ATOM     62  C   UNL A   1      48.792  27.027  29.050  1.00  0.00     0.009 A 
ATOM     63  C   UNL A   1      50.369  25.480  30.692  1.00  0.00     0.001 A 
ATOM     64  C   UNL A   1      50.177  27.091  28.919  1.00  0.00     0.001 A 
ATOM     65  C   UNL A   1      50.968  26.303  29.739  1.00  0.00     0.000 A 
ENDBRANCH  46  60
BRANCH  47  66
ATOM     66  C   UNL A   1      38.470  29.241  29.241  1.00  0.00    -0.014 A 
ATOM     67  C   UNL A   1      37.431  29.186  30.192  1.00  0.00     0.009 A 
ATOM     68  C   UNL A   1      38.154  29.551  27.916  1.00  0.00     0.009 A 
ATOM     69  C   UNL A   1      36.155  29.657  29.873  1.00  0.00     0.001 A 
ATOM     70  C   UNL A   1      36.882  30.033  27.603  1.00  0.00     0.001 A 
ATOM     71  C   UNL A   1      35.900  30.128  28.591  1.00  0.00     0.000 A 
ENDBRANCH  47  66
BRANCH  59  72
ATOM     72  C   UNL A   1      43.301  27.460  34.474  1.00  0.00    -0.014 A 
ATOM     73  C   UNL A   1      42.981  26.154  34.849  1.00  0.00     0.009 A 
ATOM     74  C   UNL A   1      44.023  28.215  35.431  1.00  0.00     0.009 A 
ATOM     75  C   UNL A   1      43.338  25.642  36.104  1.00  0.00     0.001 A 
ATOM     76  C   UNL A   1      44.442  27.693  36.653  1.00  0.00     0.001 A 
ATOM     77  C   UNL A   1      44.083  26.403  36.998  1.00  0.00     0.000 A 
ENDBRANCH  59  72
ENDBRANCH  33  34
ENDBRANCH  26  28
ENDBRANCH  25  26
ENDBRANCH  24  25
ENDBRANCH   1  24
TORSDOF 15
ENDMDL
MODEL 3
REMARK VINA RESULT:     -12.6      6.123     10.149
REMARK SMILES Cc1ccc(S(=O)(=O)N(c2ccccc2)[C@H](C)C(=O)OCCOC(=O)c2ccc(-c3c4nc(c(-c5ccccc5)c5ccc([nH]5)c(-c5ccccc5)c5nc(c(-c6ccccc6)c6ccc3[nH]6)C=C5)C=C4)cc2)cc1
REMARK SMILES IDX 21 1 20 2 18 3 19 4 16 5 17 6 9 7 6 8 7 9 8 10 5 11 1 12
REMARK SMILES IDX 2 13 3 14 75 15 4 16 74 17 10 18 11 19 15 20 12 21 14 22
REMARK SMILES IDX 13 23 22 24 23 25 24 26 25 27 26 28 27 29 73 30 28 31 72 32
REMARK SMILES IDX 29 33 30 34 31 35 66 36 32 37 71 38 65 39 67 40 33 41 70 42
REMARK SMILES IDX 64 43 63 44 34 46 56 47 41 48 55 49 42 50 45 51 54 52 68 53
REMARK SMILES IDX 43 54 44 55 53 57 69 58 46 59 35 60 36 61 40 62 37 63 39 64
REMARK SMILES IDX 38 65 57 66 58 67 62 68 59 69 61 70 60 71 47 72 48 73 52 74
REMARK SMILES IDX 49 75 51 76 50 77
REMARK H PARENT 67 45 45 56
REMARK Flexibility Score: inf
ROOT
ATOM      1  C   UNL A   1      34.471  29.963  27.062  1.00  0.00     0.274 C 
ENDROOT
BRANCH   1   2
ATOM      2  O   UNL A   1      33.402  29.020  26.870  1.00  0.00    -0.461 OA
BRANCH   2   3
ATOM      3  C   UNL A   1      32.334  29.475  26.186  1.00  0.00     0.329 C 
ATOM      4  O   UNL A   1      31.411  30.067  26.744  1.00  0.00    -0.250 OA
BRANCH   3   5
ATOM      5  C   UNL A   1      32.462  29.378  24.508  1.00  0.00     0.206 C 
ATOM      6  C   UNL A   1      33.923  28.488  23.090  1.00  0.00     0.045 C 
BRANCH   5   7
ATOM      7  N   UNL A   1      31.631  28.768  23.847  1.00  0.00    -0.252 N 
BRANCH   7   8
ATOM      8  S   UNL A   1      31.378  26.707  24.766  1.00  0.00     0.265 S 
ATOM      9  O   UNL A   1      30.370  26.016  23.970  1.00  0.00    -0.201 OA
ATOM     10  O   UNL A   1      31.173  26.829  26.188  1.00  0.00    -0.201 OA
BRANCH   8  11
ATOM     11  C   UNL A   1      33.067  25.480  24.532  1.00  0.00     0.088 A 
ATOM     12  C   UNL A   1      36.498  22.727  24.229  1.00  0.00     0.044 C 
ATOM     13  C   UNL A   1      35.380  23.735  24.224  1.00  0.00    -0.051 A 
ATOM     14  C   UNL A   1      34.471  23.968  23.172  1.00  0.00     0.005 A 
ATOM     15  C   UNL A   1      35.201  24.476  25.366  1.00  0.00     0.005 A 
ATOM     16  C   UNL A   1      33.323  24.840  23.310  1.00  0.00     0.022 A 
ATOM     17  C   UNL A   1      34.073  25.292  25.501  1.00  0.00     0.022 A 
ENDBRANCH   8  11
ENDBRANCH   7   8
BRANCH   7  18
ATOM     18  C   UNL A   1      29.976  29.890  23.116  1.00  0.00     0.053 A 
ATOM     19  C   UNL A   1      29.160  30.914  23.867  1.00  0.00     0.027 A 
ATOM     20  C   UNL A   1      29.491  30.026  21.681  1.00  0.00     0.027 A 
ATOM     21  C   UNL A   1      28.301  31.899  23.316  1.00  0.00     0.002 A 
ATOM     22  C   UNL A   1      28.632  31.013  21.147  1.00  0.00     0.002 A 
ATOM     23  C   UNL A   1      28.080  31.976  21.958  1.00  0.00     0.000 A 
ENDBRANCH   7  18
ENDBRANCH   5   7
ENDBRANCH   3   5
ENDBRANCH   2   3
ENDBRANCH   1   2
BRANCH   1  24
ATOM     24  C   UNL A   1      34.324  31.251  27.973  1.00  0.00     0.275 C 
BRANCH  24  25
ATOM     25  O   UNL A   1      35.148  31.582  29.176  1.00  0.00    -0.458 OA
BRANCH  25  26
ATOM     26  C   UNL A   1      36.465  31.640  29.570  1.00  0.00     0.338 C 
ATOM     27  O   UNL A   1      37.085  32.684  29.682  1.00  0.00    -0.246 OA
BRANCH  26  28
ATOM     28  C   UNL A   1      37.165  30.359  29.760  1.00  0.00     0.060 A 
ATOM     29  C   UNL A   1      37.835  29.225  31.263  1.00  0.00     0.016 A 
ATOM     30  C   UNL A   1      37.867  29.616  28.102  1.00  0.00     0.016 A 
ATOM     31  C   UNL A   1      39.094  27.734  30.970  1.00  0.00     0.010 A 
ATOM     32  C   UNL A   1      39.261  28.353  27.811  1.00  0.00     0.010 A 
ATOM     33  C   UNL A   1      40.078  27.286  29.228  1.00  0.00    -0.014 A 
BRANCH  33  34
ATOM     34  C   UNL A   1      41.418  27.178  28.478  1.00  0.00     0.031 A 
ATOM     35  C   UNL A   1      41.723  25.799  28.228  1.00  0.00     0.074 A 
ATOM     36  C   UNL A   1      42.012  28.095  27.641  1.00  0.00     0.049 A 
ATOM     37  N   UNL A   1      42.659  25.142  28.819  1.00  0.00    -0.248 NA
ATOM     38  C   UNL A   1      40.709  25.037  27.507  1.00  0.00     0.031 C 
ATOM     39  C   UNL A   1      42.716  27.746  26.398  1.00  0.00     0.029 A 
ATOM     40  N   UNL A   1      42.015  29.486  27.552  1.00  0.00    -0.354 N 
ATOM     41  C   UNL A   1      42.437  23.872  28.366  1.00  0.00     0.074 A 
ATOM     42  C   UNL A   1      41.025  23.841  27.986  1.00  0.00     0.031 C 
ATOM     43  C   UNL A   1      43.250  28.846  25.836  1.00  0.00     0.029 A 
ATOM     44  C   UNL A   1      43.044  29.966  26.732  1.00  0.00     0.049 A 
ATOM     45  H   UNL A   1      41.367  30.065  28.013  1.00  0.00     0.167 HD
ATOM     46  C   UNL A   1      43.354  23.252  27.574  1.00  0.00     0.031 A 
ATOM     47  C   UNL A   1      44.071  30.756  27.176  1.00  0.00     0.031 A 
ATOM     48  C   UNL A   1      44.315  24.198  26.995  1.00  0.00     0.049 A 
ATOM     49  C   UNL A   1      45.319  29.946  27.469  1.00  0.00     0.074 A 
ATOM     50  C   UNL A   1      44.455  24.730  25.721  1.00  0.00     0.029 A 
ATOM     51  N   UNL A   1      45.066  25.028  27.824  1.00  0.00    -0.354 N 
ATOM     52  N   UNL A   1      45.372  28.653  27.302  1.00  0.00    -0.248 NA
ATOM     53  C   UNL A   1      46.590  30.478  27.955  1.00  0.00     0.031 C 
ATOM     54  C   UNL A   1      45.357  25.832  25.789  1.00  0.00     0.029 A 
ATOM     55  C   UNL A   1      45.779  25.967  27.100  1.00  0.00     0.049 A 
ATOM     56  H   UNL A   1      45.087  24.955  28.807  1.00  0.00     0.167 HD
ATOM     57  C   UNL A   1      46.570  28.158  27.722  1.00  0.00     0.074 A 
ATOM     58  C   UNL A   1      47.321  29.352  28.071  1.00  0.00     0.031 C 
ATOM     59  C   UNL A   1      46.780  26.807  27.771  1.00  0.00     0.031 A 
BRANCH  46  60
ATOM     60  C   UNL A   1      42.976  21.901  27.035  1.00  0.00    -0.014 A 
ATOM     61  C   UNL A   1      42.020  21.115  27.676  1.00  0.00     0.009 A 
ATOM     62  C   UNL A   1      43.557  21.367  25.856  1.00  0.00     0.009 A 
ATOM     63  C   UNL A   1      41.717  19.832  27.209  1.00  0.00     0.001 A 
ATOM     64  C   UNL A   1      43.318  20.062  25.432  1.00  0.00     0.001 A 
ATOM     65  C   UNL A   1      42.383  19.295  26.108  1.00  0.00     0.000 A 
ENDBRANCH  46  60
BRANCH  47  66
ATOM     66  C   UNL A   1      43.642  32.013  27.833  1.00  0.00    -0.014 A 
ATOM     67  C   UNL A   1      43.466  31.968  29.231  1.00  0.00     0.009 A 
ATOM     68  C   UNL A   1      43.886  33.247  27.226  1.00  0.00     0.009 A 
ATOM     69  C   UNL A   1      43.760  33.084  30.018  1.00  0.00     0.001 A 
ATOM     70  C   UNL A   1      44.192  34.358  28.014  1.00  0.00     0.001 A 
ATOM     71  C   UNL A   1      44.173  34.262  29.407  1.00  0.00     0.000 A 
ENDBRANCH  47  66
BRANCH  59  72
ATOM     72  C   UNL A   1      47.950  26.099  28.428  1.00  0.00    -0.014 A 
ATOM     73  C   UNL A   1      48.997  25.473  27.752  1.00  0.00     0.009 A 
ATOM     74  C   UNL A   1      48.055  26.119  29.841  1.00  0.00     0.009 A 
ATOM     75  C   UNL A   1      50.068  24.884  28.438  1.00  0.00     0.001 A 
ATOM     76  C   UNL A   1      49.149  25.598  30.530  1.00  0.00     0.001 A 
ATOM     77  C   UNL A   1      50.153  24.962  29.824  1.00  0.00     0.000 A 
ENDBRANCH  59  72
ENDBRANCH  33  34
ENDBRANCH  26  28
ENDBRANCH  25  26
ENDBRANCH  24  25
ENDBRANCH   1  24
TORSDOF 15
ENDMDL
