MODEL 1
REMARK VINA RESULT:      -9.9      0.000      0.000
REMARK SMILES CC(C)[NH2+][C@]1(C(=O)OCCOC(=O)c2ccc(-c3c4nc(c(-c5ccccc5)c5ccc([nH]5)c(-c5ccccc5)c5nc(c(-c6ccccc6)c6ccc3[nH]6)C=C5)C=C4)cc2)CCC[C@@H]([N@@H+](C)C2CC2)C1
REMARK SMILES IDX 9 1 8 2 6 3 7 4 5 5 62 6 71 7 63 8 65 9 64 10 4 11 2 14 1 15
REMARK SMILES IDX 3 16 66 17 67 18 68 20 69 21 70 22 10 23 11 24 12 25 13 26
REMARK SMILES IDX 14 27 15 28 61 29 16 30 60 31 17 32 18 33 19 34 54 35 20 36
REMARK SMILES IDX 59 37 53 38 55 39 21 40 58 41 52 42 51 43 22 45 44 46 29 47
REMARK SMILES IDX 43 48 30 49 33 50 42 51 56 52 31 53 32 54 41 56 57 57 34 58
REMARK SMILES IDX 23 59 24 60 28 61 25 62 27 63 26 64 45 65 46 66 50 67 47 68
REMARK SMILES IDX 49 69 48 70 35 71 36 72 40 73 37 74 39 75 38 76
REMARK H PARENT 4 12 4 13 66 19 55 44 33 55
REMARK Flexibility Score: inf
ROOT
ATOM      1  C   UNL A   1      38.384  20.765  25.084  1.00  0.00     0.274 C 
ENDROOT
BRANCH   1   2
ATOM      2  O   UNL A   1      37.032  20.682  25.580  1.00  0.00    -0.457 OA
BRANCH   2   3
ATOM      3  C   UNL A   1      36.366  21.856  25.739  1.00  0.00     0.368 C 
ATOM      4  O   UNL A   1      36.945  22.926  25.920  1.00  0.00    -0.245 OA
BRANCH   3   5
ATOM      5  C   UNL A   1      34.815  21.716  25.844  1.00  0.00     0.200 C 
ATOM      6  C   UNL A   1      34.496  22.269  27.263  1.00  0.00     0.081 C 
ATOM      7  C   UNL A   1      34.151  22.642  24.785  1.00  0.00     0.146 C 
ATOM      8  C   UNL A   1      33.012  22.513  27.520  1.00  0.00     0.013 C 
ATOM      9  C   UNL A   1      32.703  23.095  25.078  1.00  0.00     0.190 C 
ATOM     10  C   UNL A   1      32.447  23.521  26.529  1.00  0.00     0.065 C 
BRANCH   5  11
ATOM     11  N   UNL A   1      34.256  20.334  25.822  1.00  0.00    -0.330 N 
ATOM     12  H   UNL A   1      34.963  19.733  26.244  1.00  0.00     0.347 HD
ATOM     13  H   UNL A   1      33.362  20.454  26.298  1.00  0.00     0.347 HD
BRANCH  11  14
ATOM     14  C   UNL A   1      33.858  19.683  24.572  1.00  0.00     0.176 C 
ATOM     15  C   UNL A   1      34.598  18.337  24.521  1.00  0.00     0.075 C 
ATOM     16  C   UNL A   1      32.363  19.430  24.424  1.00  0.00     0.075 C 
ENDBRANCH  11  14
ENDBRANCH   5  11
BRANCH   9  17
ATOM     17  N   UNL A   1      32.243  24.081  24.070  1.00  0.00    -0.332 N 
ATOM     18  C   UNL A   1      30.823  23.895  23.746  1.00  0.00     0.333 C 
ATOM     19  H   UNL A   1      32.849  23.847  23.284  1.00  0.00     0.348 HD
BRANCH  17  20
ATOM     20  C   UNL A   1      32.541  25.526  24.272  1.00  0.00     0.184 C 
ATOM     21  C   UNL A   1      33.854  26.152  24.658  1.00  0.00     0.071 C 
ATOM     22  C   UNL A   1      33.420  26.171  23.230  1.00  0.00     0.071 C 
ENDBRANCH  17  20
ENDBRANCH   9  17
ENDBRANCH   3   5
ENDBRANCH   2   3
ENDBRANCH   1   2
BRANCH   1  23
ATOM     23  C   UNL A   1      39.442  20.385  26.126  1.00  0.00     0.275 C 
BRANCH  23  24
ATOM     24  O   UNL A   1      40.232  19.264  25.686  1.00  0.00    -0.458 OA
BRANCH  24  25
ATOM     25  C   UNL A   1      41.528  19.277  26.077  1.00  0.00     0.338 C 
ATOM     26  O   UNL A   1      42.303  18.336  26.062  1.00  0.00    -0.246 OA
BRANCH  25  27
ATOM     27  C   UNL A   1      41.950  20.654  26.415  1.00  0.00     0.060 A 
ATOM     28  C   UNL A   1      41.962  21.004  27.768  1.00  0.00     0.016 A 
ATOM     29  C   UNL A   1      42.292  21.602  25.445  1.00  0.00     0.016 A 
ATOM     30  C   UNL A   1      42.327  22.289  28.157  1.00  0.00     0.010 A 
ATOM     31  C   UNL A   1      42.658  22.898  25.838  1.00  0.00     0.010 A 
ATOM     32  C   UNL A   1      42.685  23.245  27.199  1.00  0.00    -0.014 A 
BRANCH  32  33
ATOM     33  C   UNL A   1      43.002  24.617  27.655  1.00  0.00     0.031 A 
ATOM     34  C   UNL A   1      44.436  25.052  27.730  1.00  0.00     0.074 A 
ATOM     35  C   UNL A   1      42.019  25.503  27.899  1.00  0.00     0.049 A 
ATOM     36  N   UNL A   1      44.933  26.215  28.065  1.00  0.00    -0.248 NA
ATOM     37  C   UNL A   1      45.442  24.045  27.356  1.00  0.00     0.031 C 
ATOM     38  C   UNL A   1      40.587  25.242  27.756  1.00  0.00     0.029 A 
ATOM     39  N   UNL A   1      42.083  26.817  28.297  1.00  0.00    -0.354 N 
ATOM     40  C   UNL A   1      46.309  26.083  27.937  1.00  0.00     0.074 A 
ATOM     41  C   UNL A   1      46.568  24.726  27.504  1.00  0.00     0.031 C 
ATOM     42  C   UNL A   1      39.908  26.364  28.054  1.00  0.00     0.029 A 
ATOM     43  C   UNL A   1      40.853  27.409  28.445  1.00  0.00     0.049 A 
ATOM     44  H   UNL A   1      42.931  27.289  28.461  1.00  0.00     0.167 HD
ATOM     45  C   UNL A   1      47.273  27.006  28.169  1.00  0.00     0.031 A 
ATOM     46  C   UNL A   1      40.527  28.647  28.866  1.00  0.00     0.031 A 
ATOM     47  C   UNL A   1      47.027  28.338  28.649  1.00  0.00     0.049 A 
ATOM     48  C   UNL A   1      41.622  29.610  29.246  1.00  0.00     0.074 A 
ATOM     49  C   UNL A   1      47.944  29.322  28.975  1.00  0.00     0.029 A 
ATOM     50  N   UNL A   1      45.768  28.871  28.881  1.00  0.00    -0.354 N 
ATOM     51  N   UNL A   1      42.922  29.467  29.150  1.00  0.00    -0.248 NA
ATOM     52  C   UNL A   1      41.201  30.907  29.800  1.00  0.00     0.031 C 
ATOM     53  C   UNL A   1      47.241  30.431  29.456  1.00  0.00     0.029 A 
ATOM     54  C   UNL A   1      45.885  30.160  29.372  1.00  0.00     0.049 A 
ATOM     55  H   UNL A   1      44.918  28.401  28.720  1.00  0.00     0.167 HD
ATOM     56  C   UNL A   1      43.470  30.661  29.606  1.00  0.00     0.074 A 
ATOM     57  C   UNL A   1      42.364  31.523  29.962  1.00  0.00     0.031 C 
ATOM     58  C   UNL A   1      44.776  31.009  29.719  1.00  0.00     0.031 A 
BRANCH  45  59
ATOM     59  C   UNL A   1      48.693  26.562  27.975  1.00  0.00    -0.014 A 
ATOM     60  C   UNL A   1      49.324  26.659  26.725  1.00  0.00     0.009 A 
ATOM     61  C   UNL A   1      49.406  26.029  29.061  1.00  0.00     0.009 A 
ATOM     62  C   UNL A   1      50.632  26.200  26.559  1.00  0.00     0.001 A 
ATOM     63  C   UNL A   1      50.721  25.592  28.897  1.00  0.00     0.001 A 
ATOM     64  C   UNL A   1      51.329  25.668  27.645  1.00  0.00     0.000 A 
ENDBRANCH  45  59
BRANCH  46  65
ATOM     65  C   UNL A   1      39.101  29.049  29.001  1.00  0.00    -0.014 A 
ATOM     66  C   UNL A   1      38.396  28.815  30.192  1.00  0.00     0.009 A 
ATOM     67  C   UNL A   1      38.420  29.619  27.913  1.00  0.00     0.009 A 
ATOM     68  C   UNL A   1      37.033  29.114  30.279  1.00  0.00     0.001 A 
ATOM     69  C   UNL A   1      37.066  29.943  28.012  1.00  0.00     0.001 A 
ATOM     70  C   UNL A   1      36.371  29.680  29.191  1.00  0.00     0.000 A 
ENDBRANCH  46  65
BRANCH  58  71
ATOM     71  C   UNL A   1      45.081  32.396  30.215  1.00  0.00    -0.014 A 
ATOM     72  C   UNL A   1      45.284  32.658  31.578  1.00  0.00     0.009 A 
ATOM     73  C   UNL A   1      45.214  33.448  29.293  1.00  0.00     0.009 A 
ATOM     74  C   UNL A   1      45.585  33.951  32.012  1.00  0.00     0.001 A 
ATOM     75  C   UNL A   1      45.543  34.733  29.726  1.00  0.00     0.001 A 
ATOM     76  C   UNL A   1      45.719  34.985  31.086  1.00  0.00     0.000 A 
ENDBRANCH  58  71
ENDBRANCH  32  33
ENDBRANCH  25  27
ENDBRANCH  24  25
ENDBRANCH  23  24
ENDBRANCH   1  23
TORSDOF 15
ENDMDL
MODEL 2
REMARK VINA RESULT:      -9.9      0.953      6.187
REMARK SMILES CC(C)[NH2+][C@]1(C(=O)OCCOC(=O)c2ccc(-c3c4nc(c(-c5ccccc5)c5ccc([nH]5)c(-c5ccccc5)c5nc(c(-c6ccccc6)c6ccc3[nH]6)C=C5)C=C4)cc2)CCC[C@@H]([N@@H+](C)C2CC2)C1
REMARK SMILES IDX 9 1 8 2 6 3 7 4 5 5 62 6 71 7 63 8 65 9 64 10 4 11 2 14 1 15
REMARK SMILES IDX 3 16 66 17 67 18 68 20 69 21 70 22 10 23 11 24 12 25 13 26
REMARK SMILES IDX 14 27 15 28 61 29 16 30 60 31 17 32 18 33 19 34 54 35 20 36
REMARK SMILES IDX 59 37 53 38 55 39 21 40 58 41 52 42 51 43 22 45 44 46 29 47
REMARK SMILES IDX 43 48 30 49 33 50 42 51 56 52 31 53 32 54 41 56 57 57 34 58
REMARK SMILES IDX 23 59 24 60 28 61 25 62 27 63 26 64 45 65 46 66 50 67 47 68
REMARK SMILES IDX 49 69 48 70 35 71 36 72 40 73 37 74 39 75 38 76
REMARK H PARENT 4 12 4 13 66 19 55 44 33 55
REMARK Flexibility Score: inf
ROOT
ATOM      1  C   UNL A   1      38.575  20.933  25.354  1.00  0.00     0.274 C 
ENDROOT
BRANCH   1   2
ATOM      2  O   UNL A   1      37.146  20.769  25.471  1.00  0.00    -0.457 OA
BRANCH   2   3
ATOM      3  C   UNL A   1      36.372  21.611  24.737  1.00  0.00     0.368 C 
ATOM      4  O   UNL A   1      36.841  22.381  23.900  1.00  0.00    -0.245 OA
BRANCH   3   5
ATOM      5  C   UNL A   1      34.869  21.647  25.158  1.00  0.00     0.200 C 
ATOM      6  C   UNL A   1      34.875  22.508  26.452  1.00  0.00     0.081 C 
ATOM      7  C   UNL A   1      34.056  22.393  24.062  1.00  0.00     0.146 C 
ATOM      8  C   UNL A   1      33.489  22.943  26.921  1.00  0.00     0.013 C 
ATOM      9  C   UNL A   1      32.723  23.035  24.512  1.00  0.00     0.190 C 
ATOM     10  C   UNL A   1      32.791  23.774  25.854  1.00  0.00     0.065 C 
BRANCH   5  11
ATOM     11  N   UNL A   1      34.244  20.350  25.546  1.00  0.00    -0.330 N 
ATOM     12  H   UNL A   1      34.931  19.862  26.119  1.00  0.00     0.347 HD
ATOM     13  H   UNL A   1      33.368  20.652  25.975  1.00  0.00     0.347 HD
BRANCH  11  14
ATOM     14  C   UNL A   1      33.783  19.386  24.545  1.00  0.00     0.176 C 
ATOM     15  C   UNL A   1      34.796  18.230  24.547  1.00  0.00     0.075 C 
ATOM     16  C   UNL A   1      32.389  18.819  24.789  1.00  0.00     0.075 C 
ENDBRANCH  11  14
ENDBRANCH   5  11
BRANCH   9  17
ATOM     17  N   UNL A   1      32.123  23.832  23.414  1.00  0.00    -0.332 N 
ATOM     18  C   UNL A   1      30.667  23.651  23.354  1.00  0.00     0.333 C 
ATOM     19  H   UNL A   1      32.592  23.426  22.605  1.00  0.00     0.348 HD
BRANCH  17  20
ATOM     20  C   UNL A   1      32.469  25.274  23.284  1.00  0.00     0.184 C 
ATOM     21  C   UNL A   1      33.720  25.874  22.699  1.00  0.00     0.071 C 
ATOM     22  C   UNL A   1      32.472  25.829  21.881  1.00  0.00     0.071 C 
ENDBRANCH  17  20
ENDBRANCH   9  17
ENDBRANCH   3   5
ENDBRANCH   2   3
ENDBRANCH   1   2
BRANCH   1  23
ATOM     23  C   UNL A   1      39.335  19.608  25.228  1.00  0.00     0.275 C 
BRANCH  23  24
ATOM     24  O   UNL A   1      40.301  19.455  26.285  1.00  0.00    -0.458 OA
BRANCH  24  25
ATOM     25  C   UNL A   1      41.561  19.847  25.981  1.00  0.00     0.338 C 
ATOM     26  O   UNL A   1      42.337  19.285  25.228  1.00  0.00    -0.246 OA
BRANCH  25  27
ATOM     27  C   UNL A   1      41.852  21.164  26.590  1.00  0.00     0.060 A 
ATOM     28  C   UNL A   1      42.257  22.188  25.731  1.00  0.00     0.016 A 
ATOM     29  C   UNL A   1      41.772  21.397  27.968  1.00  0.00     0.016 A 
ATOM     30  C   UNL A   1      42.569  23.447  26.238  1.00  0.00     0.010 A 
ATOM     31  C   UNL A   1      42.089  22.664  28.478  1.00  0.00     0.010 A 
ATOM     32  C   UNL A   1      42.481  23.698  27.612  1.00  0.00    -0.014 A 
BRANCH  32  33
ATOM     33  C   UNL A   1      42.887  25.032  28.112  1.00  0.00     0.031 A 
ATOM     34  C   UNL A   1      41.835  26.077  28.348  1.00  0.00     0.074 A 
ATOM     35  C   UNL A   1      44.165  25.278  28.454  1.00  0.00     0.049 A 
ATOM     36  N   UNL A   1      41.965  27.291  28.817  1.00  0.00    -0.248 NA
ATOM     37  C   UNL A   1      40.451  25.690  28.034  1.00  0.00     0.031 C 
ATOM     38  C   UNL A   1      45.262  24.314  28.378  1.00  0.00     0.029 A 
ATOM     39  N   UNL A   1      44.749  26.413  28.959  1.00  0.00    -0.354 N 
ATOM     40  C   UNL A   1      40.680  27.814  28.859  1.00  0.00     0.074 A 
ATOM     41  C   UNL A   1      39.787  26.788  28.361  1.00  0.00     0.031 C 
ATOM     42  C   UNL A   1      46.386  24.898  28.830  1.00  0.00     0.029 A 
ATOM     43  C   UNL A   1      46.097  26.286  29.189  1.00  0.00     0.049 A 
ATOM     44  H   UNL A   1      44.249  27.242  29.139  1.00  0.00     0.167 HD
ATOM     45  C   UNL A   1      40.278  29.041  29.267  1.00  0.00     0.031 A 
ATOM     46  C   UNL A   1      46.996  27.191  29.622  1.00  0.00     0.031 A 
ATOM     47  C   UNL A   1      41.163  30.081  29.714  1.00  0.00     0.049 A 
ATOM     48  C   UNL A   1      46.540  28.591  29.942  1.00  0.00     0.074 A 
ATOM     49  C   UNL A   1      40.854  31.378  30.085  1.00  0.00     0.029 A 
ATOM     50  N   UNL A   1      42.537  29.945  29.841  1.00  0.00    -0.354 N 
ATOM     51  N   UNL A   1      45.326  29.086  29.951  1.00  0.00    -0.248 NA
ATOM     52  C   UNL A   1      47.585  29.561  30.305  1.00  0.00     0.031 C 
ATOM     53  C   UNL A   1      42.048  32.042  30.385  1.00  0.00     0.029 A 
ATOM     54  C   UNL A   1      43.093  31.142  30.259  1.00  0.00     0.049 A 
ATOM     55  H   UNL A   1      43.042  29.119  29.660  1.00  0.00     0.167 HD
ATOM     56  C   UNL A   1      45.459  30.413  30.344  1.00  0.00     0.074 A 
ATOM     57  C   UNL A   1      46.868  30.642  30.580  1.00  0.00     0.031 C 
ATOM     58  C   UNL A   1      44.497  31.356  30.495  1.00  0.00     0.031 A 
BRANCH  45  59
ATOM     59  C   UNL A   1      38.811  29.338  29.168  1.00  0.00    -0.014 A 
ATOM     60  C   UNL A   1      37.956  29.172  30.270  1.00  0.00     0.009 A 
ATOM     61  C   UNL A   1      38.275  29.782  27.949  1.00  0.00     0.009 A 
ATOM     62  C   UNL A   1      36.587  29.414  30.142  1.00  0.00     0.001 A 
ATOM     63  C   UNL A   1      36.910  30.045  27.831  1.00  0.00     0.001 A 
ATOM     64  C   UNL A   1      36.066  29.851  28.923  1.00  0.00     0.000 A 
ENDBRANCH  45  59
BRANCH  46  65
ATOM     65  C   UNL A   1      48.435  26.830  29.741  1.00  0.00    -0.014 A 
ATOM     66  C   UNL A   1      49.309  26.984  28.654  1.00  0.00     0.009 A 
ATOM     67  C   UNL A   1      48.929  26.273  30.932  1.00  0.00     0.009 A 
ATOM     68  C   UNL A   1      50.638  26.558  28.746  1.00  0.00     0.001 A 
ATOM     69  C   UNL A   1      50.264  25.877  31.031  1.00  0.00     0.001 A 
ATOM     70  C   UNL A   1      51.114  26.008  29.935  1.00  0.00     0.000 A 
ENDBRANCH  46  65
BRANCH  58  71
ATOM     71  C   UNL A   1      44.930  32.715  30.973  1.00  0.00    -0.014 A 
ATOM     72  C   UNL A   1      45.259  33.738  30.071  1.00  0.00     0.009 A 
ATOM     73  C   UNL A   1      44.961  32.987  32.350  1.00  0.00     0.009 A 
ATOM     74  C   UNL A   1      45.640  34.997  30.539  1.00  0.00     0.001 A 
ATOM     75  C   UNL A   1      45.315  34.255  32.814  1.00  0.00     0.001 A 
ATOM     76  C   UNL A   1      45.663  35.256  31.909  1.00  0.00     0.000 A 
ENDBRANCH  58  71
ENDBRANCH  32  33
ENDBRANCH  25  27
ENDBRANCH  24  25
ENDBRANCH  23  24
ENDBRANCH   1  23
TORSDOF 15
ENDMDL
MODEL 3
REMARK VINA RESULT:      -9.9      1.363      6.791
REMARK SMILES CC(C)[NH2+][C@]1(C(=O)OCCOC(=O)c2ccc(-c3c4nc(c(-c5ccccc5)c5ccc([nH]5)c(-c5ccccc5)c5nc(c(-c6ccccc6)c6ccc3[nH]6)C=C5)C=C4)cc2)CCC[C@@H]([N@@H+](C)C2CC2)C1
REMARK SMILES IDX 9 1 8 2 6 3 7 4 5 5 62 6 71 7 63 8 65 9 64 10 4 11 2 14 1 15
REMARK SMILES IDX 3 16 66 17 67 18 68 20 69 21 70 22 10 23 11 24 12 25 13 26
REMARK SMILES IDX 14 27 15 28 61 29 16 30 60 31 17 32 18 33 19 34 54 35 20 36
REMARK SMILES IDX 59 37 53 38 55 39 21 40 58 41 52 42 51 43 22 45 44 46 29 47
REMARK SMILES IDX 43 48 30 49 33 50 42 51 56 52 31 53 32 54 41 56 57 57 34 58
REMARK SMILES IDX 23 59 24 60 28 61 25 62 27 63 26 64 45 65 46 66 50 67 47 68
REMARK SMILES IDX 49 69 48 70 35 71 36 72 40 73 37 74 39 75 38 76
REMARK H PARENT 4 12 4 13 66 19 55 44 33 55
REMARK Flexibility Score: inf
ROOT
ATOM      1  C   UNL A   1      37.565  20.916  25.018  1.00  0.00     0.274 C 
ENDROOT
BRANCH   1   2
ATOM      2  O   UNL A   1      36.187  20.520  24.853  1.00  0.00    -0.457 OA
BRANCH   2   3
ATOM      3  C   UNL A   1      35.257  21.246  25.529  1.00  0.00     0.368 C 
ATOM      4  O   UNL A   1      35.558  22.054  26.406  1.00  0.00    -0.245 OA
BRANCH   3   5
ATOM      5  C   UNL A   1      33.778  20.852  25.225  1.00  0.00     0.200 C 
ATOM      6  C   UNL A   1      33.514  21.482  23.827  1.00  0.00     0.081 C 
ATOM      7  C   UNL A   1      33.682  19.304  25.103  1.00  0.00     0.146 C 
ATOM      8  C   UNL A   1      32.227  21.008  23.160  1.00  0.00     0.013 C 
ATOM      9  C   UNL A   1      32.503  18.751  24.269  1.00  0.00     0.190 C 
ATOM     10  C   UNL A   1      32.244  19.500  22.956  1.00  0.00     0.065 C 
BRANCH   5  11
ATOM     11  N   UNL A   1      32.729  21.418  26.120  1.00  0.00    -0.330 N 
ATOM     12  H   UNL A   1      31.949  20.761  26.098  1.00  0.00     0.347 HD
ATOM     13  H   UNL A   1      33.238  21.551  26.994  1.00  0.00     0.347 HD
BRANCH  11  14
ATOM     14  C   UNL A   1      32.153  22.745  25.892  1.00  0.00     0.176 C 
ATOM     15  C   UNL A   1      30.630  22.595  26.031  1.00  0.00     0.075 C 
ATOM     16  C   UNL A   1      32.632  23.830  26.849  1.00  0.00     0.075 C 
ENDBRANCH  11  14
ENDBRANCH   5  11
BRANCH   9  17
ATOM     17  N   UNL A   1      32.610  17.280  24.114  1.00  0.00    -0.332 N 
ATOM     18  C   UNL A   1      33.666  16.917  23.160  1.00  0.00     0.333 C 
ATOM     19  H   UNL A   1      31.681  17.058  23.758  1.00  0.00     0.348 HD
BRANCH  17  20
ATOM     20  C   UNL A   1      32.693  16.421  25.326  1.00  0.00     0.184 C 
ATOM     21  C   UNL A   1      32.667  14.917  25.395  1.00  0.00     0.071 C 
ATOM     22  C   UNL A   1      33.971  15.637  25.494  1.00  0.00     0.071 C 
ENDBRANCH  17  20
ENDBRANCH   9  17
ENDBRANCH   3   5
ENDBRANCH   2   3
ENDBRANCH   1   2
BRANCH   1  23
ATOM     23  C   UNL A   1      38.551  19.746  24.939  1.00  0.00     0.275 C 
BRANCH  23  24
ATOM     24  O   UNL A   1      39.279  19.589  26.172  1.00  0.00    -0.458 OA
BRANCH  24  25
ATOM     25  C   UNL A   1      40.620  19.743  26.078  1.00  0.00     0.338 C 
ATOM     26  O   UNL A   1      41.400  19.003  25.503  1.00  0.00    -0.246 OA
BRANCH  25  27
ATOM     27  C   UNL A   1      41.032  21.038  26.665  1.00  0.00     0.060 A 
ATOM     28  C   UNL A   1      41.431  22.041  25.778  1.00  0.00     0.016 A 
ATOM     29  C   UNL A   1      41.070  21.268  28.044  1.00  0.00     0.016 A 
ATOM     30  C   UNL A   1      41.853  23.277  26.261  1.00  0.00     0.010 A 
ATOM     31  C   UNL A   1      41.497  22.513  28.530  1.00  0.00     0.010 A 
ATOM     32  C   UNL A   1      41.883  23.526  27.638  1.00  0.00    -0.014 A 
BRANCH  32  33
ATOM     33  C   UNL A   1      42.401  24.832  28.107  1.00  0.00     0.031 A 
ATOM     34  C   UNL A   1      41.437  25.952  28.370  1.00  0.00     0.074 A 
ATOM     35  C   UNL A   1      43.705  24.988  28.397  1.00  0.00     0.049 A 
ATOM     36  N   UNL A   1      41.671  27.158  28.819  1.00  0.00    -0.248 NA
ATOM     37  C   UNL A   1      40.018  25.663  28.112  1.00  0.00     0.031 C 
ATOM     38  C   UNL A   1      44.728  23.947  28.292  1.00  0.00     0.029 A 
ATOM     39  N   UNL A   1      44.389  26.084  28.867  1.00  0.00    -0.354 N 
ATOM     40  C   UNL A   1      40.430  27.772  28.903  1.00  0.00     0.074 A 
ATOM     41  C   UNL A   1      39.447  26.809  28.451  1.00  0.00     0.031 C 
ATOM     42  C   UNL A   1      45.907  24.453  28.694  1.00  0.00     0.029 A 
ATOM     43  C   UNL A   1      45.732  25.861  29.047  1.00  0.00     0.049 A 
ATOM     44  H   UNL A   1      43.956  26.948  29.056  1.00  0.00     0.167 HD
ATOM     45  C   UNL A   1      40.132  29.028  29.312  1.00  0.00     0.031 A 
ATOM     46  C   UNL A   1      46.709  26.703  29.436  1.00  0.00     0.031 A 
ATOM     47  C   UNL A   1      41.106  30.006  29.713  1.00  0.00     0.049 A 
ATOM     48  C   UNL A   1      46.367  28.136  29.756  1.00  0.00     0.074 A 
ATOM     49  C   UNL A   1      40.905  31.325  30.080  1.00  0.00     0.029 A 
ATOM     50  N   UNL A   1      42.470  29.773  29.790  1.00  0.00    -0.354 N 
ATOM     51  N   UNL A   1      45.192  28.716  29.805  1.00  0.00    -0.248 NA
ATOM     52  C   UNL A   1      47.492  29.031  30.069  1.00  0.00     0.031 C 
ATOM     53  C   UNL A   1      42.153  31.905  30.327  1.00  0.00     0.029 A 
ATOM     54  C   UNL A   1      43.126  30.930  30.173  1.00  0.00     0.049 A 
ATOM     55  H   UNL A   1      42.907  28.911  29.600  1.00  0.00     0.167 HD
ATOM     56  C   UNL A   1      45.435  30.034  30.178  1.00  0.00     0.074 A 
ATOM     57  C   UNL A   1      46.865  30.163  30.358  1.00  0.00     0.031 C 
ATOM     58  C   UNL A   1      44.550  31.045  30.353  1.00  0.00     0.031 A 
BRANCH  45  59
ATOM     59  C   UNL A   1      38.687  29.429  29.265  1.00  0.00    -0.014 A 
ATOM     60  C   UNL A   1      37.836  29.225  30.362  1.00  0.00     0.009 A 
ATOM     61  C   UNL A   1      38.168  30.013  28.098  1.00  0.00     0.009 A 
ATOM     62  C   UNL A   1      36.485  29.567  30.280  1.00  0.00     0.001 A 
ATOM     63  C   UNL A   1      36.823  30.374  28.027  1.00  0.00     0.001 A 
ATOM     64  C   UNL A   1      35.980  30.142  29.113  1.00  0.00     0.000 A 
ENDBRANCH  45  59
BRANCH  46  65
ATOM     65  C   UNL A   1      48.122  26.241  29.505  1.00  0.00    -0.014 A 
ATOM     66  C   UNL A   1      48.668  25.773  30.710  1.00  0.00     0.009 A 
ATOM     67  C   UNL A   1      48.950  26.323  28.375  1.00  0.00     0.009 A 
ATOM     68  C   UNL A   1      50.021  25.427  30.788  1.00  0.00     0.001 A 
ATOM     69  C   UNL A   1      50.293  25.948  28.448  1.00  0.00     0.001 A 
ATOM     70  C   UNL A   1      50.830  25.512  29.657  1.00  0.00     0.000 A 
ENDBRANCH  46  65
BRANCH  58  71
ATOM     71  C   UNL A   1      45.097  32.374  30.799  1.00  0.00    -0.014 A 
ATOM     72  C   UNL A   1      45.261  32.679  32.158  1.00  0.00     0.009 A 
ATOM     73  C   UNL A   1      45.499  33.315  29.837  1.00  0.00     0.009 A 
ATOM     74  C   UNL A   1      45.789  33.912  32.546  1.00  0.00     0.001 A 
ATOM     75  C   UNL A   1      46.052  34.535  30.228  1.00  0.00     0.001 A 
ATOM     76  C   UNL A   1      46.188  34.836  31.582  1.00  0.00     0.000 A 
ENDBRANCH  58  71
ENDBRANCH  32  33
ENDBRANCH  25  27
ENDBRANCH  24  25
ENDBRANCH  23  24
ENDBRANCH   1  23
TORSDOF 15
ENDMDL
