MODEL 1
REMARK VINA RESULT:     -10.7      0.000      0.000
REMARK SMILES Cn1c(C(=O)N2CCC[C@@H](C(=O)OCCOC(=O)c3ccc(-c4c5nc(c(-c6ccccc6)c6ccc([nH]6)c(-c6ccccc6)c6nc(c(-c7ccccc7)c7ccc4[nH]7)C=C6)C=C5)cc3)C2)cc2sccc21
REMARK SMILES IDX 14 1 13 2 11 3 12 4 10 5 6 6 7 7 67 8 8 9 9 10 4 11 5 12
REMARK SMILES IDX 3 13 1 14 2 15 73 16 68 17 69 18 72 19 70 20 71 21 15 22
REMARK SMILES IDX 16 23 17 24 18 25 19 26 20 27 66 28 21 29 65 30 22 31 23 32
REMARK SMILES IDX 24 33 59 34 25 35 64 36 58 37 60 38 26 39 63 40 57 41 56 42
REMARK SMILES IDX 27 44 49 45 34 46 48 47 35 48 38 49 47 50 61 51 36 52 37 53
REMARK SMILES IDX 46 55 62 56 39 57 28 58 29 59 33 60 30 61 32 62 31 63 50 64
REMARK SMILES IDX 51 65 55 66 52 67 54 68 53 69 40 70 41 71 45 72 42 73 44 74
REMARK SMILES IDX 43 75
REMARK H PARENT 60 43 38 54
REMARK Flexibility Score: inf
ROOT
ATOM      1  C   UNL A   1      37.548  34.050  35.242  1.00  0.00     0.274 C 
ENDROOT
BRANCH   1   2
ATOM      2  O   UNL A   1      36.963  34.920  34.249  1.00  0.00    -0.462 OA
BRANCH   2   3
ATOM      3  C   UNL A   1      35.628  34.755  34.031  1.00  0.00     0.310 C 
ATOM      4  O   UNL A   1      34.874  34.147  34.780  1.00  0.00    -0.252 OA
BRANCH   3   5
ATOM      5  C   UNL A   1      35.179  35.431  32.746  1.00  0.00     0.119 C 
ATOM      6  N   UNL A   1      34.001  34.911  30.625  1.00  0.00    -0.337 N 
ATOM      7  C   UNL A   1      32.944  35.877  30.878  1.00  0.00     0.120 C 
ATOM      8  C   UNL A   1      34.649  34.339  31.807  1.00  0.00     0.135 C 
ATOM      9  C   UNL A   1      33.448  37.016  31.744  1.00  0.00     0.022 C 
ATOM     10  C   UNL A   1      34.098  36.479  33.017  1.00  0.00     0.019 C 
BRANCH   6  11
ATOM     11  C   UNL A   1      34.341  34.614  29.311  1.00  0.00     0.270 C 
ATOM     12  O   UNL A   1      34.104  35.408  28.402  1.00  0.00    -0.267 OA
BRANCH  11  13
ATOM     13  C   UNL A   1      34.903  33.296  29.046  1.00  0.00     0.108 A 
ATOM     14  C   UNL A   1      37.359  33.873  29.354  1.00  0.00     0.150 C 
ATOM     15  N   UNL A   1      36.254  33.014  29.005  1.00  0.00    -0.339 N 
ATOM     16  C   UNL A   1      36.428  31.739  28.513  1.00  0.00     0.059 A 
ATOM     17  C   UNL A   1      34.220  32.146  28.661  1.00  0.00     0.053 A 
ATOM     18  C   UNL A   1      35.202  31.179  28.326  1.00  0.00     0.053 A 
ATOM     19  C   UNL A   1      37.501  30.883  28.139  1.00  0.00     0.038 A 
ATOM     20  S   UNL A   1      35.290  29.560  27.726  1.00  0.00    -0.142 S 
ATOM     21  C   UNL A   1      37.005  29.682  27.679  1.00  0.00     0.068 A 
ENDBRANCH  11  13
ENDBRANCH   6  11
ENDBRANCH   3   5
ENDBRANCH   2   3
ENDBRANCH   1   2
BRANCH   1  22
ATOM     22  C   UNL A   1      38.325  32.878  34.645  1.00  0.00     0.275 C 
BRANCH  22  23
ATOM     23  O   UNL A   1      38.295  32.871  33.216  1.00  0.00    -0.458 OA
BRANCH  23  24
ATOM     24  C   UNL A   1      37.567  31.864  32.704  1.00  0.00     0.338 C 
ATOM     25  O   UNL A   1      36.431  31.526  33.047  1.00  0.00    -0.246 OA
BRANCH  24  26
ATOM     26  C   UNL A   1      38.347  31.055  31.776  1.00  0.00     0.060 A 
ATOM     27  C   UNL A   1      37.968  29.716  31.601  1.00  0.00     0.016 A 
ATOM     28  C   UNL A   1      39.596  31.528  31.367  1.00  0.00     0.016 A 
ATOM     29  C   UNL A   1      38.895  28.806  31.148  1.00  0.00     0.010 A 
ATOM     30  C   UNL A   1      40.531  30.614  30.941  1.00  0.00     0.010 A 
ATOM     31  C   UNL A   1      40.189  29.256  30.907  1.00  0.00    -0.014 A 
BRANCH  31  32
ATOM     32  C   UNL A   1      41.211  28.271  30.609  1.00  0.00     0.031 A 
ATOM     33  C   UNL A   1      42.022  27.822  31.768  1.00  0.00     0.074 A 
ATOM     34  C   UNL A   1      41.228  27.690  29.393  1.00  0.00     0.049 A 
ATOM     35  N   UNL A   1      43.292  27.578  31.814  1.00  0.00    -0.248 NA
ATOM     36  C   UNL A   1      41.333  27.678  33.064  1.00  0.00     0.031 C 
ATOM     37  C   UNL A   1      40.280  27.919  28.295  1.00  0.00     0.029 A 
ATOM     38  N   UNL A   1      41.973  26.639  28.950  1.00  0.00    -0.354 N 
ATOM     39  C   UNL A   1      43.534  27.097  33.098  1.00  0.00     0.074 A 
ATOM     40  C   UNL A   1      42.325  27.282  33.855  1.00  0.00     0.031 C 
ATOM     41  C   UNL A   1      40.330  26.869  27.450  1.00  0.00     0.029 A 
ATOM     42  C   UNL A   1      41.364  25.954  27.905  1.00  0.00     0.049 A 
ATOM     43  H   UNL A   1      42.847  26.391  29.330  1.00  0.00     0.167 HD
ATOM     44  C   UNL A   1      44.640  26.372  33.406  1.00  0.00     0.031 A 
ATOM     45  C   UNL A   1      41.605  24.679  27.515  1.00  0.00     0.031 A 
ATOM     46  C   UNL A   1      45.717  26.586  32.484  1.00  0.00     0.049 A 
ATOM     47  C   UNL A   1      42.890  24.252  28.114  1.00  0.00     0.074 A 
ATOM     48  C   UNL A   1      46.447  27.692  32.098  1.00  0.00     0.029 A 
ATOM     49  N   UNL A   1      45.971  25.615  31.549  1.00  0.00    -0.354 N 
ATOM     50  N   UNL A   1      44.050  24.707  27.742  1.00  0.00    -0.248 NA
ATOM     51  C   UNL A   1      42.869  23.594  29.412  1.00  0.00     0.031 C 
ATOM     52  C   UNL A   1      46.734  27.484  30.720  1.00  0.00     0.029 A 
ATOM     53  C   UNL A   1      46.185  26.254  30.354  1.00  0.00     0.049 A 
ATOM     54  H   UNL A   1      45.996  24.644  31.706  1.00  0.00     0.167 HD
ATOM     55  C   UNL A   1      44.789  24.789  28.913  1.00  0.00     0.074 A 
ATOM     56  C   UNL A   1      44.064  23.968  29.876  1.00  0.00     0.031 C 
ATOM     57  C   UNL A   1      45.751  25.747  29.073  1.00  0.00     0.031 A 
BRANCH  44  58
ATOM     58  C   UNL A   1      44.586  25.196  34.343  1.00  0.00    -0.014 A 
ATOM     59  C   UNL A   1      45.644  24.984  35.240  1.00  0.00     0.009 A 
ATOM     60  C   UNL A   1      43.663  24.141  34.181  1.00  0.00     0.009 A 
ATOM     61  C   UNL A   1      45.795  23.760  35.902  1.00  0.00     0.001 A 
ATOM     62  C   UNL A   1      43.787  22.936  34.873  1.00  0.00     0.001 A 
ATOM     63  C   UNL A   1      44.869  22.736  35.715  1.00  0.00     0.000 A 
ENDBRANCH  44  58
BRANCH  45  64
ATOM     64  C   UNL A   1      40.676  23.734  26.858  1.00  0.00    -0.014 A 
ATOM     65  C   UNL A   1      41.067  22.414  26.594  1.00  0.00     0.009 A 
ATOM     66  C   UNL A   1      39.320  24.061  26.669  1.00  0.00     0.009 A 
ATOM     67  C   UNL A   1      40.134  21.456  26.171  1.00  0.00     0.001 A 
ATOM     68  C   UNL A   1      38.391  23.113  26.231  1.00  0.00     0.001 A 
ATOM     69  C   UNL A   1      38.797  21.806  25.994  1.00  0.00     0.000 A 
ENDBRANCH  45  64
BRANCH  57  70
ATOM     70  C   UNL A   1      46.145  26.557  27.862  1.00  0.00    -0.014 A 
ATOM     71  C   UNL A   1      47.178  26.160  26.993  1.00  0.00     0.009 A 
ATOM     72  C   UNL A   1      45.354  27.655  27.492  1.00  0.00     0.009 A 
ATOM     73  C   UNL A   1      47.438  26.865  25.815  1.00  0.00     0.001 A 
ATOM     74  C   UNL A   1      45.599  28.344  26.302  1.00  0.00     0.001 A 
ATOM     75  C   UNL A   1      46.644  27.954  25.467  1.00  0.00     0.000 A 
ENDBRANCH  57  70
ENDBRANCH  31  32
ENDBRANCH  24  26
ENDBRANCH  23  24
ENDBRANCH  22  23
ENDBRANCH   1  22
TORSDOF 13
ENDMDL
MODEL 2
REMARK VINA RESULT:     -10.5      4.013      6.307
REMARK SMILES Cn1c(C(=O)N2CCC[C@@H](C(=O)OCCOC(=O)c3ccc(-c4c5nc(c(-c6ccccc6)c6ccc([nH]6)c(-c6ccccc6)c6nc(c(-c7ccccc7)c7ccc4[nH]7)C=C6)C=C5)cc3)C2)cc2sccc21
REMARK SMILES IDX 14 1 13 2 11 3 12 4 10 5 6 6 7 7 67 8 8 9 9 10 4 11 5 12
REMARK SMILES IDX 3 13 1 14 2 15 73 16 68 17 69 18 72 19 70 20 71 21 15 22
REMARK SMILES IDX 16 23 17 24 18 25 19 26 20 27 66 28 21 29 65 30 22 31 23 32
REMARK SMILES IDX 24 33 59 34 25 35 64 36 58 37 60 38 26 39 63 40 57 41 56 42
REMARK SMILES IDX 27 44 49 45 34 46 48 47 35 48 38 49 47 50 61 51 36 52 37 53
REMARK SMILES IDX 46 55 62 56 39 57 28 58 29 59 33 60 30 61 32 62 31 63 50 64
REMARK SMILES IDX 51 65 55 66 52 67 54 68 53 69 40 70 41 71 45 72 42 73 44 74
REMARK SMILES IDX 43 75
REMARK H PARENT 60 43 38 54
REMARK Flexibility Score: inf
ROOT
ATOM      1  C   UNL A   1      33.653  29.762  26.689  1.00  0.00     0.274 C 
ENDROOT
BRANCH   1   2
ATOM      2  O   UNL A   1      33.261  28.518  27.307  1.00  0.00    -0.462 OA
BRANCH   2   3
ATOM      3  C   UNL A   1      32.171  27.905  26.765  1.00  0.00     0.310 C 
ATOM      4  O   UNL A   1      31.213  27.497  27.410  1.00  0.00    -0.252 OA
BRANCH   3   5
ATOM      5  C   UNL A   1      32.280  27.797  25.253  1.00  0.00     0.119 C 
ATOM      6  N   UNL A   1      32.306  26.085  23.457  1.00  0.00    -0.337 N 
ATOM      7  C   UNL A   1      31.128  26.631  22.803  1.00  0.00     0.120 C 
ATOM      8  C   UNL A   1      32.405  26.308  24.900  1.00  0.00     0.135 C 
ATOM      9  C   UNL A   1      31.007  28.121  23.065  1.00  0.00     0.022 C 
ATOM     10  C   UNL A   1      31.060  28.411  24.562  1.00  0.00     0.019 C 
BRANCH   6  11
ATOM     11  C   UNL A   1      33.255  25.421  22.689  1.00  0.00     0.270 C 
ATOM     12  O   UNL A   1      33.653  25.896  21.626  1.00  0.00    -0.267 OA
BRANCH  11  13
ATOM     13  C   UNL A   1      33.688  24.107  23.148  1.00  0.00     0.108 A 
ATOM     14  C   UNL A   1      31.505  22.856  22.798  1.00  0.00     0.150 C 
ATOM     15  N   UNL A   1      32.867  23.003  23.249  1.00  0.00    -0.339 N 
ATOM     16  C   UNL A   1      33.541  22.006  23.921  1.00  0.00     0.059 A 
ATOM     17  C   UNL A   1      34.927  23.763  23.682  1.00  0.00     0.053 A 
ATOM     18  C   UNL A   1      34.809  22.435  24.166  1.00  0.00     0.053 A 
ATOM     19  C   UNL A   1      33.278  20.704  24.428  1.00  0.00     0.038 A 
ATOM     20  S   UNL A   1      35.766  21.256  24.992  1.00  0.00    -0.142 S 
ATOM     21  C   UNL A   1      34.406  20.205  25.048  1.00  0.00     0.068 A 
ENDBRANCH  11  13
ENDBRANCH   6  11
ENDBRANCH   3   5
ENDBRANCH   2   3
ENDBRANCH   1   2
BRANCH   1  22
ATOM     22  C   UNL A   1      34.412  30.698  27.628  1.00  0.00     0.275 C 
BRANCH  22  23
ATOM     23  O   UNL A   1      35.559  30.077  28.211  1.00  0.00    -0.458 OA
BRANCH  23  24
ATOM     24  C   UNL A   1      36.490  30.956  28.619  1.00  0.00     0.338 C 
ATOM     25  O   UNL A   1      36.537  32.159  28.349  1.00  0.00    -0.246 OA
BRANCH  24  26
ATOM     26  C   UNL A   1      37.593  30.292  29.303  1.00  0.00     0.060 A 
ATOM     27  C   UNL A   1      38.871  30.852  29.173  1.00  0.00     0.016 A 
ATOM     28  C   UNL A   1      37.401  28.988  29.766  1.00  0.00     0.016 A 
ATOM     29  C   UNL A   1      39.979  30.059  29.367  1.00  0.00     0.010 A 
ATOM     30  C   UNL A   1      38.507  28.187  29.932  1.00  0.00     0.010 A 
ATOM     31  C   UNL A   1      39.775  28.714  29.660  1.00  0.00    -0.014 A 
BRANCH  31  32
ATOM     32  C   UNL A   1      40.931  27.837  29.682  1.00  0.00     0.031 A 
ATOM     33  C   UNL A   1      41.703  27.828  30.949  1.00  0.00     0.074 A 
ATOM     34  C   UNL A   1      41.109  26.963  28.671  1.00  0.00     0.049 A 
ATOM     35  N   UNL A   1      42.986  27.784  31.108  1.00  0.00    -0.248 NA
ATOM     36  C   UNL A   1      40.943  27.939  32.207  1.00  0.00     0.031 C 
ATOM     37  C   UNL A   1      40.225  26.759  27.517  1.00  0.00     0.029 A 
ATOM     38  N   UNL A   1      42.008  25.946  28.560  1.00  0.00    -0.354 N 
ATOM     39  C   UNL A   1      43.190  27.699  32.482  1.00  0.00     0.074 A 
ATOM     40  C   UNL A   1      41.915  27.908  33.114  1.00  0.00     0.031 C 
ATOM     41  C   UNL A   1      40.465  25.539  26.994  1.00  0.00     0.029 A 
ATOM     42  C   UNL A   1      41.568  24.931  27.719  1.00  0.00     0.049 A 
ATOM     43  H   UNL A   1      42.876  25.931  29.026  1.00  0.00     0.167 HD
ATOM     44  C   UNL A   1      44.351  27.242  33.018  1.00  0.00     0.031 A 
ATOM     45  C   UNL A   1      41.993  23.644  27.701  1.00  0.00     0.031 A 
ATOM     46  C   UNL A   1      45.459  27.352  32.114  1.00  0.00     0.049 A 
ATOM     47  C   UNL A   1      43.272  23.573  28.442  1.00  0.00     0.074 A 
ATOM     48  C   UNL A   1      46.074  28.406  31.469  1.00  0.00     0.029 A 
ATOM     49  N   UNL A   1      45.899  26.213  31.490  1.00  0.00    -0.354 N 
ATOM     50  N   UNL A   1      44.392  24.070  28.004  1.00  0.00    -0.248 NA
ATOM     51  C   UNL A   1      43.237  23.287  29.869  1.00  0.00     0.031 C 
ATOM     52  C   UNL A   1      46.485  27.882  30.212  1.00  0.00     0.029 A 
ATOM     53  C   UNL A   1      46.121  26.535  30.175  1.00  0.00     0.049 A 
ATOM     54  H   UNL A   1      46.032  25.331  31.906  1.00  0.00     0.167 HD
ATOM     55  C   UNL A   1      45.026  24.561  29.136  1.00  0.00     0.074 A 
ATOM     56  C   UNL A   1      44.339  23.933  30.258  1.00  0.00     0.031 C 
ATOM     57  C   UNL A   1      45.848  25.651  29.065  1.00  0.00     0.031 A 
BRANCH  44  58
ATOM     58  C   UNL A   1      44.373  26.362  34.238  1.00  0.00    -0.014 A 
ATOM     59  C   UNL A   1      45.194  26.709  35.320  1.00  0.00     0.009 A 
ATOM     60  C   UNL A   1      43.825  25.061  34.242  1.00  0.00     0.009 A 
ATOM     61  C   UNL A   1      45.489  25.785  36.330  1.00  0.00     0.001 A 
ATOM     62  C   UNL A   1      44.081  24.153  35.269  1.00  0.00     0.001 A 
ATOM     63  C   UNL A   1      44.935  24.507  36.302  1.00  0.00     0.000 A 
ENDBRANCH  44  58
BRANCH  45  64
ATOM     64  C   UNL A   1      41.239  22.439  27.292  1.00  0.00    -0.014 A 
ATOM     65  C   UNL A   1      39.969  22.554  26.709  1.00  0.00     0.009 A 
ATOM     66  C   UNL A   1      41.848  21.170  27.280  1.00  0.00     0.009 A 
ATOM     67  C   UNL A   1      39.340  21.444  26.126  1.00  0.00     0.001 A 
ATOM     68  C   UNL A   1      41.217  20.058  26.715  1.00  0.00     0.001 A 
ATOM     69  C   UNL A   1      39.967  20.199  26.126  1.00  0.00     0.000 A 
ENDBRANCH  45  64
BRANCH  57  70
ATOM     70  C   UNL A   1      46.228  26.158  27.695  1.00  0.00    -0.014 A 
ATOM     71  C   UNL A   1      47.397  25.739  27.034  1.00  0.00     0.009 A 
ATOM     72  C   UNL A   1      45.311  26.945  26.983  1.00  0.00     0.009 A 
ATOM     73  C   UNL A   1      47.659  26.130  25.718  1.00  0.00     0.001 A 
ATOM     74  C   UNL A   1      45.562  27.316  25.660  1.00  0.00     0.001 A 
ATOM     75  C   UNL A   1      46.738  26.914  25.030  1.00  0.00     0.000 A 
ENDBRANCH  57  70
ENDBRANCH  31  32
ENDBRANCH  24  26
ENDBRANCH  23  24
ENDBRANCH  22  23
ENDBRANCH   1  22
TORSDOF 13
ENDMDL
MODEL 3
REMARK VINA RESULT:     -10.3      5.273     10.711
REMARK SMILES Cn1c(C(=O)N2CCC[C@@H](C(=O)OCCOC(=O)c3ccc(-c4c5nc(c(-c6ccccc6)c6ccc([nH]6)c(-c6ccccc6)c6nc(c(-c7ccccc7)c7ccc4[nH]7)C=C6)C=C5)cc3)C2)cc2sccc21
REMARK SMILES IDX 14 1 13 2 11 3 12 4 10 5 6 6 7 7 67 8 8 9 9 10 4 11 5 12
REMARK SMILES IDX 3 13 1 14 2 15 73 16 68 17 69 18 72 19 70 20 71 21 15 22
REMARK SMILES IDX 16 23 17 24 18 25 19 26 20 27 66 28 21 29 65 30 22 31 23 32
REMARK SMILES IDX 24 33 59 34 25 35 64 36 58 37 60 38 26 39 63 40 57 41 56 42
REMARK SMILES IDX 27 44 49 45 34 46 48 47 35 48 38 49 47 50 61 51 36 52 37 53
REMARK SMILES IDX 46 55 62 56 39 57 28 58 29 59 33 60 30 61 32 62 31 63 50 64
REMARK SMILES IDX 51 65 55 66 52 67 54 68 53 69 40 70 41 71 45 72 42 73 44 74
REMARK SMILES IDX 43 75
REMARK H PARENT 60 43 38 54
REMARK Flexibility Score: inf
ROOT
ATOM      1  C   UNL A   1      39.270  21.338  26.042  1.00  0.00     0.274 C 
ENDROOT
BRANCH   1   2
ATOM      2  O   UNL A   1      38.350  21.838  25.049  1.00  0.00    -0.462 OA
BRANCH   2   3
ATOM      3  C   UNL A   1      37.149  21.196  24.978  1.00  0.00     0.310 C 
ATOM      4  O   UNL A   1      37.010  19.981  25.029  1.00  0.00    -0.252 OA
BRANCH   3   5
ATOM      5  C   UNL A   1      35.994  22.175  24.839  1.00  0.00     0.119 C 
ATOM      6  N   UNL A   1      33.590  22.387  25.415  1.00  0.00    -0.337 N 
ATOM      7  C   UNL A   1      33.803  23.573  26.228  1.00  0.00     0.120 C 
ATOM      8  C   UNL A   1      34.721  21.463  25.313  1.00  0.00     0.135 C 
ATOM      9  C   UNL A   1      35.014  24.350  25.745  1.00  0.00     0.022 C 
ATOM     10  C   UNL A   1      36.238  23.443  25.660  1.00  0.00     0.019 C 
BRANCH   6  11
ATOM     11  C   UNL A   1      32.366  22.218  24.779  1.00  0.00     0.270 C 
ATOM     12  O   UNL A   1      31.865  21.101  24.661  1.00  0.00    -0.267 OA
BRANCH  11  13
ATOM     13  C   UNL A   1      31.751  23.398  24.185  1.00  0.00     0.108 A 
ATOM     14  C   UNL A   1      33.195  23.557  22.100  1.00  0.00     0.150 C 
ATOM     15  N   UNL A   1      32.187  24.010  23.027  1.00  0.00    -0.339 N 
ATOM     16  C   UNL A   1      31.526  25.211  22.882  1.00  0.00     0.059 A 
ATOM     17  C   UNL A   1      30.736  24.184  24.722  1.00  0.00     0.053 A 
ATOM     18  C   UNL A   1      30.614  25.323  23.886  1.00  0.00     0.053 A 
ATOM     19  C   UNL A   1      31.550  26.336  22.012  1.00  0.00     0.038 A 
ATOM     20  S   UNL A   1      29.702  26.789  23.799  1.00  0.00    -0.142 S 
ATOM     21  C   UNL A   1      30.617  27.265  22.423  1.00  0.00     0.068 A 
ENDBRANCH  11  13
ENDBRANCH   6  11
ENDBRANCH   3   5
ENDBRANCH   2   3
ENDBRANCH   1   2
BRANCH   1  22
ATOM     22  C   UNL A   1      39.939  22.439  26.862  1.00  0.00     0.275 C 
BRANCH  22  23
ATOM     23  O   UNL A   1      39.564  23.749  26.433  1.00  0.00    -0.458 OA
BRANCH  23  24
ATOM     24  C   UNL A   1      40.539  24.660  26.587  1.00  0.00     0.338 C 
ATOM     25  O   UNL A   1      41.743  24.496  26.371  1.00  0.00    -0.246 OA
BRANCH  24  26
ATOM     26  C   UNL A   1      40.046  25.871  27.231  1.00  0.00     0.060 A 
ATOM     27  C   UNL A   1      40.476  27.103  26.717  1.00  0.00     0.016 A 
ATOM     28  C   UNL A   1      39.456  25.762  28.493  1.00  0.00     0.016 A 
ATOM     29  C   UNL A   1      40.452  28.216  27.525  1.00  0.00     0.010 A 
ATOM     30  C   UNL A   1      39.459  26.869  29.310  1.00  0.00     0.010 A 
ATOM     31  C   UNL A   1      40.023  28.061  28.839  1.00  0.00    -0.014 A 
BRANCH  31  32
ATOM     32  C   UNL A   1      40.171  29.185  29.745  1.00  0.00     0.031 A 
ATOM     33  C   UNL A   1      39.023  30.123  29.791  1.00  0.00     0.074 A 
ATOM     34  C   UNL A   1      41.206  29.200  30.607  1.00  0.00     0.049 A 
ATOM     35  N   UNL A   1      39.042  31.414  29.869  1.00  0.00    -0.248 NA
ATOM     36  C   UNL A   1      37.670  29.546  29.681  1.00  0.00     0.031 C 
ATOM     37  C   UNL A   1      42.231  28.160  30.772  1.00  0.00     0.029 A 
ATOM     38  N   UNL A   1      41.452  30.048  31.644  1.00  0.00    -0.354 N 
ATOM     39  C   UNL A   1      37.710  31.803  29.980  1.00  0.00     0.074 A 
ATOM     40  C   UNL A   1      36.906  30.633  29.750  1.00  0.00     0.031 C 
ATOM     41  C   UNL A   1      42.796  28.295  31.989  1.00  0.00     0.029 A 
ATOM     42  C   UNL A   1      42.237  29.471  32.635  1.00  0.00     0.049 A 
ATOM     43  H   UNL A   1      41.110  30.971  31.687  1.00  0.00     0.167 HD
ATOM     44  C   UNL A   1      37.345  33.014  30.473  1.00  0.00     0.031 A 
ATOM     45  C   UNL A   1      42.328  29.855  33.931  1.00  0.00     0.031 A 
ATOM     46  C   UNL A   1      38.391  33.990  30.376  1.00  0.00     0.049 A 
ATOM     47  C   UNL A   1      41.772  31.222  34.044  1.00  0.00     0.074 A 
ATOM     48  C   UNL A   1      39.102  34.538  29.327  1.00  0.00     0.029 A 
ATOM     49  N   UNL A   1      39.084  34.310  31.516  1.00  0.00    -0.354 N 
ATOM     50  N   UNL A   1      42.353  32.284  33.568  1.00  0.00    -0.248 NA
ATOM     51  C   UNL A   1      40.357  31.375  34.351  1.00  0.00     0.031 C 
ATOM     52  C   UNL A   1      40.410  34.758  29.842  1.00  0.00     0.029 A 
ATOM     53  C   UNL A   1      40.412  34.358  31.179  1.00  0.00     0.049 A 
ATOM     54  H   UNL A   1      38.700  34.476  32.407  1.00  0.00     0.167 HD
ATOM     55  C   UNL A   1      41.314  33.080  33.110  1.00  0.00     0.074 A 
ATOM     56  C   UNL A   1      40.115  32.537  33.739  1.00  0.00     0.031 C 
ATOM     57  C   UNL A   1      41.484  33.912  32.039  1.00  0.00     0.031 A 
BRANCH  44  58
ATOM     58  C   UNL A   1      36.150  33.181  31.372  1.00  0.00    -0.014 A 
ATOM     59  C   UNL A   1      35.115  34.045  30.986  1.00  0.00     0.009 A 
ATOM     60  C   UNL A   1      36.141  32.729  32.709  1.00  0.00     0.009 A 
ATOM     61  C   UNL A   1      34.149  34.471  31.905  1.00  0.00     0.001 A 
ATOM     62  C   UNL A   1      35.154  33.118  33.616  1.00  0.00     0.001 A 
ATOM     63  C   UNL A   1      34.171  34.011  33.220  1.00  0.00     0.000 A 
ENDBRANCH  44  58
BRANCH  45  64
ATOM     64  C   UNL A   1      42.644  29.020  35.111  1.00  0.00    -0.014 A 
ATOM     65  C   UNL A   1      41.710  28.101  35.607  1.00  0.00     0.009 A 
ATOM     66  C   UNL A   1      43.949  28.972  35.638  1.00  0.00     0.009 A 
ATOM     67  C   UNL A   1      42.072  27.161  36.583  1.00  0.00     0.001 A 
ATOM     68  C   UNL A   1      44.308  28.048  36.623  1.00  0.00     0.001 A 
ATOM     69  C   UNL A   1      43.371  27.133  37.087  1.00  0.00     0.000 A 
ENDBRANCH  45  64
BRANCH  57  70
ATOM     70  C   UNL A   1      42.888  34.113  31.521  1.00  0.00    -0.014 A 
ATOM     71  C   UNL A   1      43.492  33.222  30.615  1.00  0.00     0.009 A 
ATOM     72  C   UNL A   1      43.558  35.309  31.819  1.00  0.00     0.009 A 
ATOM     73  C   UNL A   1      44.744  33.499  30.058  1.00  0.00     0.001 A 
ATOM     74  C   UNL A   1      44.798  35.597  31.244  1.00  0.00     0.001 A 
ATOM     75  C   UNL A   1      45.394  34.690  30.370  1.00  0.00     0.000 A 
ENDBRANCH  57  70
ENDBRANCH  31  32
ENDBRANCH  24  26
ENDBRANCH  23  24
ENDBRANCH  22  23
ENDBRANCH   1  22
TORSDOF 13
ENDMDL
