MODEL 1
REMARK VINA RESULT:      -9.7      0.000      0.000
REMARK SMILES C=CC[NH2+][C@]1(C(=O)OCCOC(=O)c2ccc(-c3c4nc(c(-c5ccccc5)c5ccc([nH]5)c(-c5ccccc5)c5nc(c(-c6ccccc6)c6ccc3[nH]6)C=C5)C=C4)cc2)CCCCC1(C)C
REMARK SMILES IDX 9 1 8 2 6 3 7 4 5 5 62 6 66 7 63 8 65 9 67 10 68 11 64 12
REMARK SMILES IDX 4 13 3 16 2 17 1 18 10 19 11 20 12 21 13 22 14 23 15 24
REMARK SMILES IDX 61 25 16 26 60 27 17 28 18 29 19 30 54 31 20 32 59 33 53 34
REMARK SMILES IDX 55 35 21 36 58 37 52 38 51 39 22 41 44 42 29 43 43 44 30 45
REMARK SMILES IDX 33 46 42 47 56 48 31 49 32 50 41 52 57 53 34 54 23 55 24 56
REMARK SMILES IDX 28 57 25 58 27 59 26 60 45 61 46 62 50 63 47 64 49 65 48 66
REMARK SMILES IDX 35 67 36 68 40 69 37 70 39 71 38 72
REMARK H PARENT 4 14 4 15 55 40 33 51
REMARK Flexibility Score: inf
ROOT
ATOM      1  C   UNL A   1      35.547  21.523  25.914  1.00  0.00     0.274 C 
ENDROOT
BRANCH   1   2
ATOM      2  O   UNL A   1      34.521  21.944  24.993  1.00  0.00    -0.457 OA
BRANCH   2   3
ATOM      3  C   UNL A   1      34.479  23.287  24.721  1.00  0.00     0.368 C 
ATOM      4  O   UNL A   1      35.478  23.930  24.427  1.00  0.00    -0.245 OA
BRANCH   3   5
ATOM      5  C   UNL A   1      32.985  23.857  24.759  1.00  0.00     0.199 C 
ATOM      6  C   UNL A   1      33.065  25.349  25.201  1.00  0.00     0.082 C 
ATOM      7  C   UNL A   1      32.339  23.777  23.290  1.00  0.00     0.031 C 
ATOM      8  C   UNL A   1      33.834  26.225  24.207  1.00  0.00     0.007 C 
ATOM      9  C   UNL A   1      33.209  24.638  22.324  1.00  0.00     0.013 C 
ATOM     10  C   UNL A   1      32.253  22.334  22.732  1.00  0.00     0.018 C 
ATOM     11  C   UNL A   1      30.889  24.336  23.185  1.00  0.00     0.018 C 
ATOM     12  C   UNL A   1      33.326  26.094  22.777  1.00  0.00     0.001 C 
BRANCH   5  13
ATOM     13  N   UNL A   1      32.334  23.054  25.831  1.00  0.00    -0.328 N 
ATOM     14  H   UNL A   1      31.678  22.426  25.368  1.00  0.00     0.347 HD
ATOM     15  H   UNL A   1      33.126  22.636  26.318  1.00  0.00     0.347 HD
BRANCH  13  16
ATOM     16  C   UNL A   1      31.603  23.711  26.894  1.00  0.00     0.289 C 
BRANCH  16  17
ATOM     17  C   UNL A   1      30.131  23.523  26.664  1.00  0.00     0.025 C 
ATOM     18  C   UNL A   1      29.339  22.710  27.375  1.00  0.00     0.010 C 
ENDBRANCH  16  17
ENDBRANCH  13  16
ENDBRANCH   5  13
ENDBRANCH   3   5
ENDBRANCH   2   3
ENDBRANCH   1   2
BRANCH   1  19
ATOM     19  C   UNL A   1      36.607  20.654  25.239  1.00  0.00     0.275 C 
BRANCH  19  20
ATOM     20  O   UNL A   1      37.806  21.400  24.971  1.00  0.00    -0.458 OA
BRANCH  20  21
ATOM     21  C   UNL A   1      38.859  21.068  25.750  1.00  0.00     0.338 C 
ATOM     22  O   UNL A   1      39.365  19.966  25.888  1.00  0.00    -0.246 OA
BRANCH  21  23
ATOM     23  C   UNL A   1      39.406  22.273  26.386  1.00  0.00     0.060 A 
ATOM     24  C   UNL A   1      38.846  23.499  26.039  1.00  0.00     0.016 A 
ATOM     25  C   UNL A   1      40.551  22.219  27.179  1.00  0.00     0.016 A 
ATOM     26  C   UNL A   1      39.473  24.683  26.395  1.00  0.00     0.010 A 
ATOM     27  C   UNL A   1      41.150  23.415  27.594  1.00  0.00     0.010 A 
ATOM     28  C   UNL A   1      40.636  24.653  27.171  1.00  0.00    -0.014 A 
BRANCH  28  29
ATOM     29  C   UNL A   1      41.336  25.925  27.466  1.00  0.00     0.031 A 
ATOM     30  C   UNL A   1      40.716  26.921  28.406  1.00  0.00     0.074 A 
ATOM     31  C   UNL A   1      42.561  26.154  26.956  1.00  0.00     0.049 A 
ATOM     32  N   UNL A   1      41.124  28.126  28.716  1.00  0.00    -0.248 NA
ATOM     33  C   UNL A   1      39.479  26.509  29.087  1.00  0.00     0.031 C 
ATOM     34  C   UNL A   1      43.310  25.230  26.103  1.00  0.00     0.029 A 
ATOM     35  N   UNL A   1      43.399  27.229  27.104  1.00  0.00    -0.354 N 
ATOM     36  C   UNL A   1      40.173  28.630  29.594  1.00  0.00     0.074 A 
ATOM     37  C   UNL A   1      39.171  27.602  29.772  1.00  0.00     0.031 C 
ATOM     38  C   UNL A   1      44.513  25.763  25.832  1.00  0.00     0.029 A 
ATOM     39  C   UNL A   1      44.590  27.089  26.434  1.00  0.00     0.049 A 
ATOM     40  H   UNL A   1      43.171  28.023  27.638  1.00  0.00     0.167 HD
ATOM     41  C   UNL A   1      40.137  29.843  30.193  1.00  0.00     0.031 A 
ATOM     42  C   UNL A   1      45.617  27.947  26.296  1.00  0.00     0.031 A 
ATOM     43  C   UNL A   1      41.146  30.856  30.040  1.00  0.00     0.049 A 
ATOM     44  C   UNL A   1      45.529  29.306  26.924  1.00  0.00     0.074 A 
ATOM     45  C   UNL A   1      41.183  32.130  30.581  1.00  0.00     0.029 A 
ATOM     46  N   UNL A   1      42.307  30.700  29.300  1.00  0.00    -0.354 N 
ATOM     47  N   UNL A   1      44.582  29.803  27.682  1.00  0.00    -0.248 NA
ATOM     48  C   UNL A   1      46.638  30.231  26.657  1.00  0.00     0.031 C 
ATOM     49  C   UNL A   1      42.359  32.753  30.147  1.00  0.00     0.029 A 
ATOM     50  C   UNL A   1      43.065  31.856  29.362  1.00  0.00     0.049 A 
ATOM     51  H   UNL A   1      42.555  29.887  28.803  1.00  0.00     0.167 HD
ATOM     52  C   UNL A   1      44.980  31.098  27.982  1.00  0.00     0.074 A 
ATOM     53  C   UNL A   1      46.264  31.302  27.342  1.00  0.00     0.031 C 
ATOM     54  C   UNL A   1      44.335  32.039  28.712  1.00  0.00     0.031 A 
BRANCH  41  55
ATOM     55  C   UNL A   1      38.935  30.155  31.033  1.00  0.00    -0.014 A 
ATOM     56  C   UNL A   1      37.770  30.696  30.468  1.00  0.00     0.009 A 
ATOM     57  C   UNL A   1      38.966  29.889  32.410  1.00  0.00     0.009 A 
ATOM     58  C   UNL A   1      36.667  30.988  31.274  1.00  0.00     0.001 A 
ATOM     59  C   UNL A   1      37.857  30.166  33.211  1.00  0.00     0.001 A 
ATOM     60  C   UNL A   1      36.711  30.721  32.643  1.00  0.00     0.000 A 
ENDBRANCH  41  55
BRANCH  42  61
ATOM     61  C   UNL A   1      46.796  27.560  25.483  1.00  0.00    -0.014 A 
ATOM     62  C   UNL A   1      47.862  26.856  26.061  1.00  0.00     0.009 A 
ATOM     63  C   UNL A   1      46.855  27.889  24.119  1.00  0.00     0.009 A 
ATOM     64  C   UNL A   1      48.970  26.498  25.290  1.00  0.00     0.001 A 
ATOM     65  C   UNL A   1      47.953  27.510  23.347  1.00  0.00     0.001 A 
ATOM     66  C   UNL A   1      49.012  26.820  23.933  1.00  0.00     0.000 A 
ENDBRANCH  42  61
BRANCH  54  67
ATOM     67  C   UNL A   1      45.017  33.365  28.860  1.00  0.00    -0.014 A 
ATOM     68  C   UNL A   1      44.763  34.404  27.953  1.00  0.00     0.009 A 
ATOM     69  C   UNL A   1      45.895  33.584  29.930  1.00  0.00     0.009 A 
ATOM     70  C   UNL A   1      45.401  35.637  28.102  1.00  0.00     0.001 A 
ATOM     71  C   UNL A   1      46.519  34.823  30.085  1.00  0.00     0.001 A 
ATOM     72  C   UNL A   1      46.276  35.846  29.169  1.00  0.00     0.000 A 
ENDBRANCH  54  67
ENDBRANCH  28  29
ENDBRANCH  21  23
ENDBRANCH  20  21
ENDBRANCH  19  20
ENDBRANCH   1  19
TORSDOF 14
ENDMDL
MODEL 2
REMARK VINA RESULT:      -9.7      2.515      3.492
REMARK SMILES C=CC[NH2+][C@]1(C(=O)OCCOC(=O)c2ccc(-c3c4nc(c(-c5ccccc5)c5ccc([nH]5)c(-c5ccccc5)c5nc(c(-c6ccccc6)c6ccc3[nH]6)C=C5)C=C4)cc2)CCCCC1(C)C
REMARK SMILES IDX 9 1 8 2 6 3 7 4 5 5 62 6 66 7 63 8 65 9 67 10 68 11 64 12
REMARK SMILES IDX 4 13 3 16 2 17 1 18 10 19 11 20 12 21 13 22 14 23 15 24
REMARK SMILES IDX 61 25 16 26 60 27 17 28 18 29 19 30 54 31 20 32 59 33 53 34
REMARK SMILES IDX 55 35 21 36 58 37 52 38 51 39 22 41 44 42 29 43 43 44 30 45
REMARK SMILES IDX 33 46 42 47 56 48 31 49 32 50 41 52 57 53 34 54 23 55 24 56
REMARK SMILES IDX 28 57 25 58 27 59 26 60 45 61 46 62 50 63 47 64 49 65 48 66
REMARK SMILES IDX 35 67 36 68 40 69 37 70 39 71 38 72
REMARK H PARENT 4 14 4 15 55 40 33 51
REMARK Flexibility Score: inf
ROOT
ATOM      1  C   UNL A   1      37.654  20.793  24.850  1.00  0.00     0.274 C 
ENDROOT
BRANCH   1   2
ATOM      2  O   UNL A   1      36.326  20.514  25.335  1.00  0.00    -0.457 OA
BRANCH   2   3
ATOM      3  C   UNL A   1      35.329  21.311  24.836  1.00  0.00     0.368 C 
ATOM      4  O   UNL A   1      35.506  22.076  23.897  1.00  0.00    -0.245 OA
BRANCH   3   5
ATOM      5  C   UNL A   1      33.932  21.053  25.571  1.00  0.00     0.199 C 
ATOM      6  C   UNL A   1      34.105  21.468  27.063  1.00  0.00     0.082 C 
ATOM      7  C   UNL A   1      32.792  21.963  24.899  1.00  0.00     0.031 C 
ATOM      8  C   UNL A   1      34.411  22.959  27.235  1.00  0.00     0.007 C 
ATOM      9  C   UNL A   1      33.203  23.459  25.058  1.00  0.00     0.013 C 
ATOM     10  C   UNL A   1      32.569  21.663  23.396  1.00  0.00     0.018 C 
ATOM     11  C   UNL A   1      31.383  21.828  25.550  1.00  0.00     0.018 C 
ATOM     12  C   UNL A   1      33.416  23.861  26.518  1.00  0.00     0.001 C 
BRANCH   5  13
ATOM     13  N   UNL A   1      33.761  19.577  25.481  1.00  0.00    -0.328 N 
ATOM     14  H   UNL A   1      34.604  19.159  25.878  1.00  0.00     0.347 HD
ATOM     15  H   UNL A   1      32.880  19.416  25.969  1.00  0.00     0.347 HD
BRANCH  13  16
ATOM     16  C   UNL A   1      33.547  18.943  24.197  1.00  0.00     0.289 C 
BRANCH  16  17
ATOM     17  C   UNL A   1      34.357  17.681  24.132  1.00  0.00     0.025 C 
ATOM     18  C   UNL A   1      34.071  16.622  23.364  1.00  0.00     0.010 C 
ENDBRANCH  16  17
ENDBRANCH  13  16
ENDBRANCH   5  13
ENDBRANCH   3   5
ENDBRANCH   2   3
ENDBRANCH   1   2
BRANCH   1  19
ATOM     19  C   UNL A   1      38.650  19.698  25.234  1.00  0.00     0.275 C 
BRANCH  19  20
ATOM     20  O   UNL A   1      39.453  20.089  26.361  1.00  0.00    -0.458 OA
BRANCH  20  21
ATOM     21  C   UNL A   1      40.780  19.903  26.195  1.00  0.00     0.338 C 
ATOM     22  O   UNL A   1      41.341  18.944  25.690  1.00  0.00    -0.246 OA
BRANCH  21  23
ATOM     23  C   UNL A   1      41.509  21.095  26.649  1.00  0.00     0.060 A 
ATOM     24  C   UNL A   1      41.597  21.316  28.020  1.00  0.00     0.016 A 
ATOM     25  C   UNL A   1      41.950  22.061  25.747  1.00  0.00     0.016 A 
ATOM     26  C   UNL A   1      42.036  22.538  28.507  1.00  0.00     0.010 A 
ATOM     27  C   UNL A   1      42.455  23.272  26.238  1.00  0.00     0.010 A 
ATOM     28  C   UNL A   1      42.463  23.531  27.620  1.00  0.00    -0.014 A 
BRANCH  28  29
ATOM     29  C   UNL A   1      42.847  24.858  28.158  1.00  0.00     0.031 A 
ATOM     30  C   UNL A   1      41.791  25.893  28.424  1.00  0.00     0.074 A 
ATOM     31  C   UNL A   1      44.130  25.108  28.480  1.00  0.00     0.049 A 
ATOM     32  N   UNL A   1      41.933  27.139  28.801  1.00  0.00    -0.248 NA
ATOM     33  C   UNL A   1      40.392  25.474  28.247  1.00  0.00     0.031 C 
ATOM     34  C   UNL A   1      45.237  24.159  28.354  1.00  0.00     0.029 A 
ATOM     35  N   UNL A   1      44.712  26.234  29.004  1.00  0.00    -0.354 N 
ATOM     36  C   UNL A   1      40.649  27.662  28.864  1.00  0.00     0.074 A 
ATOM     37  C   UNL A   1      39.738  26.601  28.492  1.00  0.00     0.031 C 
ATOM     38  C   UNL A   1      46.359  24.730  28.822  1.00  0.00     0.029 A 
ATOM     39  C   UNL A   1      46.063  26.103  29.216  1.00  0.00     0.049 A 
ATOM     40  H   UNL A   1      44.211  27.056  29.209  1.00  0.00     0.167 HD
ATOM     41  C   UNL A   1      40.264  28.916  29.197  1.00  0.00     0.031 A 
ATOM     42  C   UNL A   1      46.967  26.999  29.650  1.00  0.00     0.031 A 
ATOM     43  C   UNL A   1      41.164  29.965  29.593  1.00  0.00     0.049 A 
ATOM     44  C   UNL A   1      46.524  28.399  29.960  1.00  0.00     0.074 A 
ATOM     45  C   UNL A   1      40.873  31.278  29.920  1.00  0.00     0.029 A 
ATOM     46  N   UNL A   1      42.534  29.810  29.733  1.00  0.00    -0.354 N 
ATOM     47  N   UNL A   1      45.316  28.905  29.933  1.00  0.00    -0.248 NA
ATOM     48  C   UNL A   1      47.573  29.355  30.336  1.00  0.00     0.031 C 
ATOM     49  C   UNL A   1      42.074  31.925  30.235  1.00  0.00     0.029 A 
ATOM     50  C   UNL A   1      43.105  31.005  30.133  1.00  0.00     0.049 A 
ATOM     51  H   UNL A   1      43.027  28.973  29.572  1.00  0.00     0.167 HD
ATOM     52  C   UNL A   1      45.458  30.239  30.286  1.00  0.00     0.074 A 
ATOM     53  C   UNL A   1      46.867  30.458  30.545  1.00  0.00     0.031 C 
ATOM     54  C   UNL A   1      44.509  31.201  30.377  1.00  0.00     0.031 A 
BRANCH  41  55
ATOM     55  C   UNL A   1      38.801  29.232  29.095  1.00  0.00    -0.014 A 
ATOM     56  C   UNL A   1      37.951  29.117  30.205  1.00  0.00     0.009 A 
ATOM     57  C   UNL A   1      38.271  29.664  27.870  1.00  0.00     0.009 A 
ATOM     58  C   UNL A   1      36.590  29.406  30.081  1.00  0.00     0.001 A 
ATOM     59  C   UNL A   1      36.914  29.968  27.753  1.00  0.00     0.001 A 
ATOM     60  C   UNL A   1      36.074  29.833  28.858  1.00  0.00     0.000 A 
ENDBRANCH  41  55
BRANCH  42  61
ATOM     61  C   UNL A   1      48.394  26.610  29.766  1.00  0.00    -0.014 A 
ATOM     62  C   UNL A   1      49.277  26.806  28.694  1.00  0.00     0.009 A 
ATOM     63  C   UNL A   1      48.880  26.047  30.956  1.00  0.00     0.009 A 
ATOM     64  C   UNL A   1      50.618  26.434  28.809  1.00  0.00     0.001 A 
ATOM     65  C   UNL A   1      50.226  25.698  31.076  1.00  0.00     0.001 A 
ATOM     66  C   UNL A   1      51.092  25.886  30.001  1.00  0.00     0.000 A 
ENDBRANCH  42  61
BRANCH  54  67
ATOM     67  C   UNL A   1      44.969  32.568  30.781  1.00  0.00    -0.014 A 
ATOM     68  C   UNL A   1      45.333  33.516  29.813  1.00  0.00     0.009 A 
ATOM     69  C   UNL A   1      45.011  32.920  32.138  1.00  0.00     0.009 A 
ATOM     70  C   UNL A   1      45.756  34.789  30.201  1.00  0.00     0.001 A 
ATOM     71  C   UNL A   1      45.419  34.198  32.521  1.00  0.00     0.001 A 
ATOM     72  C   UNL A   1      45.797  35.129  31.553  1.00  0.00     0.000 A 
ENDBRANCH  54  67
ENDBRANCH  28  29
ENDBRANCH  21  23
ENDBRANCH  20  21
ENDBRANCH  19  20
ENDBRANCH   1  19
TORSDOF 14
ENDMDL
MODEL 3
REMARK VINA RESULT:      -9.6      1.414      6.545
REMARK SMILES C=CC[NH2+][C@]1(C(=O)OCCOC(=O)c2ccc(-c3c4nc(c(-c5ccccc5)c5ccc([nH]5)c(-c5ccccc5)c5nc(c(-c6ccccc6)c6ccc3[nH]6)C=C5)C=C4)cc2)CCCCC1(C)C
REMARK SMILES IDX 9 1 8 2 6 3 7 4 5 5 62 6 66 7 63 8 65 9 67 10 68 11 64 12
REMARK SMILES IDX 4 13 3 16 2 17 1 18 10 19 11 20 12 21 13 22 14 23 15 24
REMARK SMILES IDX 61 25 16 26 60 27 17 28 18 29 19 30 54 31 20 32 59 33 53 34
REMARK SMILES IDX 55 35 21 36 58 37 52 38 51 39 22 41 44 42 29 43 43 44 30 45
REMARK SMILES IDX 33 46 42 47 56 48 31 49 32 50 41 52 57 53 34 54 23 55 24 56
REMARK SMILES IDX 28 57 25 58 27 59 26 60 45 61 46 62 50 63 47 64 49 65 48 66
REMARK SMILES IDX 35 67 36 68 40 69 37 70 39 71 38 72
REMARK H PARENT 4 14 4 15 55 40 33 51
REMARK Flexibility Score: inf
ROOT
ATOM      1  C   UNL A   1      37.557  20.621  24.761  1.00  0.00     0.274 C 
ENDROOT
BRANCH   1   2
ATOM      2  O   UNL A   1      36.209  20.341  25.189  1.00  0.00    -0.457 OA
BRANCH   2   3
ATOM      3  C   UNL A   1      35.260  21.252  24.803  1.00  0.00     0.368 C 
ATOM      4  O   UNL A   1      35.456  22.071  23.915  1.00  0.00    -0.245 OA
BRANCH   3   5
ATOM      5  C   UNL A   1      33.882  21.048  25.591  1.00  0.00     0.199 C 
ATOM      6  C   UNL A   1      34.098  21.553  27.049  1.00  0.00     0.082 C 
ATOM      7  C   UNL A   1      32.729  21.923  24.895  1.00  0.00     0.031 C 
ATOM      8  C   UNL A   1      34.417  23.050  27.120  1.00  0.00     0.007 C 
ATOM      9  C   UNL A   1      33.151  23.423  24.950  1.00  0.00     0.013 C 
ATOM     10  C   UNL A   1      32.463  21.533  23.420  1.00  0.00     0.018 C 
ATOM     11  C   UNL A   1      31.338  21.838  25.591  1.00  0.00     0.018 C 
ATOM     12  C   UNL A   1      33.406  23.913  26.376  1.00  0.00     0.001 C 
BRANCH   5  13
ATOM     13  N   UNL A   1      33.701  19.570  25.597  1.00  0.00    -0.328 N 
ATOM     14  H   UNL A   1      34.608  19.165  25.832  1.00  0.00     0.347 HD
ATOM     15  H   UNL A   1      32.937  19.434  26.259  1.00  0.00     0.347 HD
BRANCH  13  16
ATOM     16  C   UNL A   1      33.235  18.887  24.409  1.00  0.00     0.289 C 
BRANCH  16  17
ATOM     17  C   UNL A   1      34.207  17.800  24.056  1.00  0.00     0.025 C 
ATOM     18  C   UNL A   1      33.906  16.692  23.366  1.00  0.00     0.010 C 
ENDBRANCH  16  17
ENDBRANCH  13  16
ENDBRANCH   5  13
ENDBRANCH   3   5
ENDBRANCH   2   3
ENDBRANCH   1   2
BRANCH   1  19
ATOM     19  C   UNL A   1      38.515  19.475  25.086  1.00  0.00     0.275 C 
BRANCH  19  20
ATOM     20  O   UNL A   1      39.163  19.675  26.354  1.00  0.00    -0.458 OA
BRANCH  20  21
ATOM     21  C   UNL A   1      40.481  19.958  26.271  1.00  0.00     0.338 C 
ATOM     22  O   UNL A   1      41.362  19.271  25.779  1.00  0.00    -0.246 OA
BRANCH  21  23
ATOM     23  C   UNL A   1      40.735  21.303  26.802  1.00  0.00     0.060 A 
ATOM     24  C   UNL A   1      40.025  22.363  26.246  1.00  0.00     0.016 A 
ATOM     25  C   UNL A   1      41.765  21.543  27.710  1.00  0.00     0.016 A 
ATOM     26  C   UNL A   1      40.395  23.673  26.511  1.00  0.00     0.010 A 
ATOM     27  C   UNL A   1      42.099  22.865  28.029  1.00  0.00     0.010 A 
ATOM     28  C   UNL A   1      41.441  23.937  27.400  1.00  0.00    -0.014 A 
BRANCH  28  29
ATOM     29  C   UNL A   1      41.876  25.339  27.603  1.00  0.00     0.031 A 
ATOM     30  C   UNL A   1      43.132  25.837  26.946  1.00  0.00     0.074 A 
ATOM     31  C   UNL A   1      41.105  26.187  28.311  1.00  0.00     0.049 A 
ATOM     32  N   UNL A   1      43.728  26.995  27.077  1.00  0.00    -0.248 NA
ATOM     33  C   UNL A   1      43.806  24.914  26.019  1.00  0.00     0.031 C 
ATOM     34  C   UNL A   1      39.820  25.853  28.925  1.00  0.00     0.029 A 
ATOM     35  N   UNL A   1      41.285  27.513  28.609  1.00  0.00    -0.354 N 
ATOM     36  C   UNL A   1      44.866  26.925  26.284  1.00  0.00     0.074 A 
ATOM     37  C   UNL A   1      44.877  25.614  25.672  1.00  0.00     0.031 C 
ATOM     38  C   UNL A   1      39.309  26.955  29.498  1.00  0.00     0.029 A 
ATOM     39  C   UNL A   1      40.260  28.051  29.349  1.00  0.00     0.049 A 
ATOM     40  H   UNL A   1      42.072  28.030  28.322  1.00  0.00     0.167 HD
ATOM     41  C   UNL A   1      45.818  27.867  26.090  1.00  0.00     0.031 A 
ATOM     42  C   UNL A   1      40.118  29.281  29.875  1.00  0.00     0.031 A 
ATOM     43  C   UNL A   1      45.795  29.180  26.675  1.00  0.00     0.049 A 
ATOM     44  C   UNL A   1      41.213  30.290  29.690  1.00  0.00     0.074 A 
ATOM     45  C   UNL A   1      46.730  30.195  26.563  1.00  0.00     0.029 A 
ATOM     46  N   UNL A   1      44.770  29.664  27.472  1.00  0.00    -0.354 N 
ATOM     47  N   UNL A   1      42.327  30.181  29.009  1.00  0.00    -0.248 NA
ATOM     48  C   UNL A   1      41.042  31.581  30.369  1.00  0.00     0.031 C 
ATOM     49  C   UNL A   1      46.280  31.287  27.314  1.00  0.00     0.029 A 
ATOM     50  C   UNL A   1      45.052  30.960  27.866  1.00  0.00     0.049 A 
ATOM     51  H   UNL A   1      43.961  29.160  27.720  1.00  0.00     0.167 HD
ATOM     52  C   UNL A   1      42.991  31.388  29.177  1.00  0.00     0.074 A 
ATOM     53  C   UNL A   1      42.145  32.222  30.007  1.00  0.00     0.031 C 
ATOM     54  C   UNL A   1      44.199  31.768  28.697  1.00  0.00     0.031 A 
BRANCH  41  55
ATOM     55  C   UNL A   1      46.994  27.484  25.241  1.00  0.00    -0.014 A 
ATOM     56  C   UNL A   1      47.058  27.832  23.884  1.00  0.00     0.009 A 
ATOM     57  C   UNL A   1      48.060  26.776  25.817  1.00  0.00     0.009 A 
ATOM     58  C   UNL A   1      48.160  27.454  23.113  1.00  0.00     0.001 A 
ATOM     59  C   UNL A   1      49.167  26.414  25.048  1.00  0.00     0.001 A 
ATOM     60  C   UNL A   1      49.213  26.748  23.695  1.00  0.00     0.000 A 
ENDBRANCH  41  55
BRANCH  42  61
ATOM     61  C   UNL A   1      38.910  29.607  30.672  1.00  0.00    -0.014 A 
ATOM     62  C   UNL A   1      38.884  29.380  32.055  1.00  0.00     0.009 A 
ATOM     63  C   UNL A   1      37.778  30.155  30.049  1.00  0.00     0.009 A 
ATOM     64  C   UNL A   1      37.742  29.686  32.798  1.00  0.00     0.001 A 
ATOM     65  C   UNL A   1      36.647  30.482  30.798  1.00  0.00     0.001 A 
ATOM     66  C   UNL A   1      36.627  30.242  32.170  1.00  0.00     0.000 A 
ENDBRANCH  42  61
BRANCH  54  67
ATOM     67  C   UNL A   1      44.665  33.146  29.054  1.00  0.00    -0.014 A 
ATOM     68  C   UNL A   1      44.366  34.239  28.227  1.00  0.00     0.009 A 
ATOM     69  C   UNL A   1      45.382  33.357  30.239  1.00  0.00     0.009 A 
ATOM     70  C   UNL A   1      44.802  35.520  28.570  1.00  0.00     0.001 A 
ATOM     71  C   UNL A   1      45.803  34.641  30.588  1.00  0.00     0.001 A 
ATOM     72  C   UNL A   1      45.517  35.720  29.751  1.00  0.00     0.000 A 
ENDBRANCH  54  67
ENDBRANCH  28  29
ENDBRANCH  21  23
ENDBRANCH  20  21
ENDBRANCH  19  20
ENDBRANCH   1  19
TORSDOF 14
ENDMDL
