MODEL 1
REMARK VINA RESULT:     -10.3      0.000      0.000
REMARK SMILES Cc1cc(C(=O)OCCOC(=O)c2ccc(-c3c4nc(c(-c5ccccc5)c5ccc([nH]5)c(-c5ccccc5)c5nc(c(-c6ccccc6)c6ccc3[nH]6)C=C5)C=C4)cc2)c2c(C)nn(-c3ccccc3)c2n1
REMARK SMILES IDX 9 1 8 2 7 3 5 4 6 5 4 6 1 7 2 8 3 9 73 10 72 11 61 12 65 13
REMARK SMILES IDX 62 14 64 15 63 16 66 17 67 18 71 19 68 20 70 21 69 22 10 23
REMARK SMILES IDX 11 24 12 25 13 26 14 27 60 28 15 29 59 30 16 31 17 32 18 33
REMARK SMILES IDX 53 34 19 35 58 36 52 37 54 38 20 39 57 40 51 41 50 42 21 44
REMARK SMILES IDX 43 45 28 46 42 47 29 48 32 49 41 50 55 51 30 52 31 53 40 55
REMARK SMILES IDX 56 56 33 57 22 58 23 59 27 60 24 61 26 62 25 63 44 64 45 65
REMARK SMILES IDX 49 66 46 67 48 68 47 69 34 70 35 71 39 72 36 73 38 74 37 75
REMARK H PARENT 54 43 32 54
REMARK Flexibility Score: inf
ROOT
ATOM      1  C   UNL A   1      42.816  26.451  36.781  1.00  0.00     0.275 C 
ENDROOT
BRANCH   1   2
ATOM      2  C   UNL A   1      41.655  26.563  35.800  1.00  0.00     0.275 C 
BRANCH   2   3
ATOM      3  O   UNL A   1      40.989  27.831  35.932  1.00  0.00    -0.458 OA
BRANCH   3   4
ATOM      4  C   UNL A   1      41.646  28.909  35.410  1.00  0.00     0.339 C 
ATOM      5  O   UNL A   1      42.435  29.606  35.994  1.00  0.00    -0.246 OA
BRANCH   4   6
ATOM      6  C   UNL A   1      41.303  29.057  33.972  1.00  0.00     0.074 A 
ATOM      7  C   UNL A   1      42.819  28.289  30.584  1.00  0.00     0.067 C 
ATOM      8  C   UNL A   1      41.832  28.697  31.641  1.00  0.00     0.041 A 
ATOM      9  C   UNL A   1      42.179  28.585  32.981  1.00  0.00     0.040 A 
ATOM     10  N   UNL A   1      40.668  29.218  31.208  1.00  0.00    -0.233 NA
ATOM     11  C   UNL A   1      39.881  29.728  32.181  1.00  0.00     0.164 A 
ATOM     12  C   UNL A   1      40.131  29.725  33.552  1.00  0.00     0.057 A 
ATOM     13  N   UNL A   1      38.696  30.415  31.995  1.00  0.00    -0.214 N 
ATOM     14  C   UNL A   1      39.052  30.489  34.095  1.00  0.00     0.070 A 
ATOM     15  N   UNL A   1      38.266  31.002  33.136  1.00  0.00    -0.171 NA
ATOM     16  C   UNL A   1      38.714  30.830  35.501  1.00  0.00     0.069 C 
BRANCH  13  17
ATOM     17  C   UNL A   1      37.929  30.514  30.814  1.00  0.00     0.067 A 
ATOM     18  C   UNL A   1      36.932  29.565  30.553  1.00  0.00     0.028 A 
ATOM     19  C   UNL A   1      38.127  31.596  29.950  1.00  0.00     0.028 A 
ATOM     20  C   UNL A   1      36.113  29.722  29.434  1.00  0.00     0.002 A 
ATOM     21  C   UNL A   1      37.346  31.707  28.799  1.00  0.00     0.002 A 
ATOM     22  C   UNL A   1      36.329  30.783  28.551  1.00  0.00     0.000 A 
ENDBRANCH  13  17
ENDBRANCH   4   6
ENDBRANCH   3   4
ENDBRANCH   2   3
ENDBRANCH   1   2
BRANCH   1  23
ATOM     23  O   UNL A   1      44.063  26.312  36.102  1.00  0.00    -0.458 OA
BRANCH  23  24
ATOM     24  C   UNL A   1      44.365  25.046  35.733  1.00  0.00     0.338 C 
ATOM     25  O   UNL A   1      44.343  24.042  36.427  1.00  0.00    -0.246 OA
BRANCH  24  26
ATOM     26  C   UNL A   1      44.914  25.058  34.377  1.00  0.00     0.060 A 
ATOM     27  C   UNL A   1      45.083  26.297  33.750  1.00  0.00     0.016 A 
ATOM     28  C   UNL A   1      44.970  23.851  33.668  1.00  0.00     0.016 A 
ATOM     29  C   UNL A   1      45.158  26.333  32.373  1.00  0.00     0.010 A 
ATOM     30  C   UNL A   1      44.998  23.892  32.297  1.00  0.00     0.010 A 
ATOM     31  C   UNL A   1      45.035  25.135  31.667  1.00  0.00    -0.014 A 
BRANCH  31  32
ATOM     32  C   UNL A   1      44.917  25.194  30.229  1.00  0.00     0.031 A 
ATOM     33  C   UNL A   1      45.930  26.023  29.540  1.00  0.00     0.074 A 
ATOM     34  C   UNL A   1      44.024  24.432  29.574  1.00  0.00     0.049 A 
ATOM     35  N   UNL A   1      45.738  27.106  28.863  1.00  0.00    -0.248 NA
ATOM     36  C   UNL A   1      47.343  25.653  29.709  1.00  0.00     0.031 C 
ATOM     37  C   UNL A   1      43.203  23.330  30.085  1.00  0.00     0.029 A 
ATOM     38  N   UNL A   1      43.751  24.432  28.247  1.00  0.00    -0.354 N 
ATOM     39  C   UNL A   1      46.994  27.495  28.412  1.00  0.00     0.074 A 
ATOM     40  C   UNL A   1      47.955  26.653  29.079  1.00  0.00     0.031 C 
ATOM     41  C   UNL A   1      42.697  22.636  29.037  1.00  0.00     0.029 A 
ATOM     42  C   UNL A   1      43.050  23.322  27.805  1.00  0.00     0.049 A 
ATOM     43  H   UNL A   1      44.028  25.161  27.646  1.00  0.00     0.167 HD
ATOM     44  C   UNL A   1      47.172  28.350  27.371  1.00  0.00     0.031 A 
ATOM     45  C   UNL A   1      42.880  22.974  26.505  1.00  0.00     0.031 A 
ATOM     46  C   UNL A   1      45.978  29.071  27.037  1.00  0.00     0.049 A 
ATOM     47  C   UNL A   1      43.125  24.194  25.693  1.00  0.00     0.074 A 
ATOM     48  C   UNL A   1      45.192  29.996  27.697  1.00  0.00     0.029 A 
ATOM     49  N   UNL A   1      45.199  28.578  26.018  1.00  0.00    -0.354 N 
ATOM     50  N   UNL A   1      42.364  25.251  25.726  1.00  0.00    -0.248 NA
ATOM     51  C   UNL A   1      44.465  24.408  25.164  1.00  0.00     0.031 C 
ATOM     52  C   UNL A   1      43.850  29.652  27.352  1.00  0.00     0.029 A 
ATOM     53  C   UNL A   1      43.902  28.570  26.470  1.00  0.00     0.049 A 
ATOM     54  H   UNL A   1      45.511  28.285  25.132  1.00  0.00     0.167 HD
ATOM     55  C   UNL A   1      43.237  26.325  25.616  1.00  0.00     0.074 A 
ATOM     56  C   UNL A   1      44.503  25.743  25.178  1.00  0.00     0.031 C 
ATOM     57  C   UNL A   1      42.934  27.542  26.156  1.00  0.00     0.031 A 
BRANCH  44  58
ATOM     58  C   UNL A   1      48.372  28.277  26.474  1.00  0.00    -0.014 A 
ATOM     59  C   UNL A   1      48.458  27.276  25.496  1.00  0.00     0.009 A 
ATOM     60  C   UNL A   1      49.531  29.045  26.709  1.00  0.00     0.009 A 
ATOM     61  C   UNL A   1      49.647  27.063  24.786  1.00  0.00     0.001 A 
ATOM     62  C   UNL A   1      50.703  28.865  25.975  1.00  0.00     0.001 A 
ATOM     63  C   UNL A   1      50.765  27.861  25.021  1.00  0.00     0.000 A 
ENDBRANCH  44  58
BRANCH  45  64
ATOM     64  C   UNL A   1      42.953  21.616  25.915  1.00  0.00    -0.014 A 
ATOM     65  C   UNL A   1      44.158  21.162  25.352  1.00  0.00     0.009 A 
ATOM     66  C   UNL A   1      41.956  20.659  26.176  1.00  0.00     0.009 A 
ATOM     67  C   UNL A   1      44.384  19.797  25.132  1.00  0.00     0.001 A 
ATOM     68  C   UNL A   1      42.176  19.297  25.946  1.00  0.00     0.001 A 
ATOM     69  C   UNL A   1      43.400  18.864  25.448  1.00  0.00     0.000 A 
ENDBRANCH  45  64
BRANCH  57  70
ATOM     70  C   UNL A   1      41.549  27.723  26.733  1.00  0.00    -0.014 A 
ATOM     71  C   UNL A   1      41.032  26.880  27.735  1.00  0.00     0.009 A 
ATOM     72  C   UNL A   1      40.812  28.860  26.378  1.00  0.00     0.009 A 
ATOM     73  C   UNL A   1      39.806  27.159  28.348  1.00  0.00     0.001 A 
ATOM     74  C   UNL A   1      39.595  29.147  27.002  1.00  0.00     0.001 A 
ATOM     75  C   UNL A   1      39.091  28.298  27.984  1.00  0.00     0.000 A 
ENDBRANCH  57  70
ENDBRANCH  31  32
ENDBRANCH  24  26
ENDBRANCH  23  24
ENDBRANCH   1  23
TORSDOF 12
ENDMDL
MODEL 2
REMARK VINA RESULT:     -10.3      5.449      9.952
REMARK SMILES Cc1cc(C(=O)OCCOC(=O)c2ccc(-c3c4nc(c(-c5ccccc5)c5ccc([nH]5)c(-c5ccccc5)c5nc(c(-c6ccccc6)c6ccc3[nH]6)C=C5)C=C4)cc2)c2c(C)nn(-c3ccccc3)c2n1
REMARK SMILES IDX 9 1 8 2 7 3 5 4 6 5 4 6 1 7 2 8 3 9 73 10 72 11 61 12 65 13
REMARK SMILES IDX 62 14 64 15 63 16 66 17 67 18 71 19 68 20 70 21 69 22 10 23
REMARK SMILES IDX 11 24 12 25 13 26 14 27 60 28 15 29 59 30 16 31 17 32 18 33
REMARK SMILES IDX 53 34 19 35 58 36 52 37 54 38 20 39 57 40 51 41 50 42 21 44
REMARK SMILES IDX 43 45 28 46 42 47 29 48 32 49 41 50 55 51 30 52 31 53 40 55
REMARK SMILES IDX 56 56 33 57 22 58 23 59 27 60 24 61 26 62 25 63 44 64 45 65
REMARK SMILES IDX 49 66 46 67 48 68 47 69 34 70 35 71 39 72 36 73 38 74 37 75
REMARK H PARENT 54 43 32 54
REMARK Flexibility Score: inf
ROOT
ATOM      1  C   UNL A   1      38.532  21.061  25.770  1.00  0.00     0.275 C 
ENDROOT
BRANCH   1   2
ATOM      2  C   UNL A   1      37.274  21.115  24.912  1.00  0.00     0.275 C 
BRANCH   2   3
ATOM      3  O   UNL A   1      36.113  21.391  25.716  1.00  0.00    -0.458 OA
BRANCH   3   4
ATOM      4  C   UNL A   1      34.926  20.915  25.236  1.00  0.00     0.339 C 
ATOM      5  O   UNL A   1      34.692  19.773  24.934  1.00  0.00    -0.246 OA
BRANCH   4   6
ATOM      6  C   UNL A   1      33.921  22.009  25.211  1.00  0.00     0.074 A 
ATOM      7  C   UNL A   1      30.578  22.849  26.786  1.00  0.00     0.067 C 
ATOM      8  C   UNL A   1      31.857  22.980  26.008  1.00  0.00     0.041 A 
ATOM      9  C   UNL A   1      32.771  21.935  26.013  1.00  0.00     0.040 A 
ATOM     10  N   UNL A   1      32.008  24.108  25.287  1.00  0.00    -0.233 NA
ATOM     11  C   UNL A   1      33.085  24.116  24.471  1.00  0.00     0.164 A 
ATOM     12  C   UNL A   1      34.051  23.117  24.344  1.00  0.00     0.057 A 
ATOM     13  N   UNL A   1      33.404  25.096  23.550  1.00  0.00    -0.214 N 
ATOM     14  C   UNL A   1      34.877  23.581  23.274  1.00  0.00     0.070 A 
ATOM     15  N   UNL A   1      34.404  24.709  22.724  1.00  0.00    -0.171 NA
ATOM     16  C   UNL A   1      36.101  22.994  22.669  1.00  0.00     0.069 C 
BRANCH  13  17
ATOM     17  C   UNL A   1      32.848  26.388  23.434  1.00  0.00     0.067 A 
ATOM     18  C   UNL A   1      31.707  26.583  22.645  1.00  0.00     0.028 A 
ATOM     19  C   UNL A   1      33.402  27.447  24.161  1.00  0.00     0.028 A 
ATOM     20  C   UNL A   1      31.105  27.841  22.611  1.00  0.00     0.002 A 
ATOM     21  C   UNL A   1      32.830  28.717  24.067  1.00  0.00     0.002 A 
ATOM     22  C   UNL A   1      31.674  28.909  23.309  1.00  0.00     0.000 A 
ENDBRANCH  13  17
ENDBRANCH   4   6
ENDBRANCH   3   4
ENDBRANCH   2   3
ENDBRANCH   1   2
BRANCH   1  23
ATOM     23  O   UNL A   1      38.858  22.344  26.301  1.00  0.00    -0.458 OA
BRANCH  23  24
ATOM     24  C   UNL A   1      39.975  22.371  27.064  1.00  0.00     0.338 C 
ATOM     25  O   UNL A   1      40.473  21.448  27.688  1.00  0.00    -0.246 OA
BRANCH  24  26
ATOM     26  C   UNL A   1      40.434  23.753  27.196  1.00  0.00     0.060 A 
ATOM     27  C   UNL A   1      41.521  24.004  28.040  1.00  0.00     0.016 A 
ATOM     28  C   UNL A   1      39.610  24.780  26.721  1.00  0.00     0.016 A 
ATOM     29  C   UNL A   1      41.691  25.280  28.534  1.00  0.00     0.010 A 
ATOM     30  C   UNL A   1      39.751  26.039  27.249  1.00  0.00     0.010 A 
ATOM     31  C   UNL A   1      40.755  26.258  28.190  1.00  0.00    -0.014 A 
BRANCH  31  32
ATOM     32  C   UNL A   1      40.819  27.537  28.859  1.00  0.00     0.031 A 
ATOM     33  C   UNL A   1      41.741  28.524  28.256  1.00  0.00     0.074 A 
ATOM     34  C   UNL A   1      39.990  27.831  29.875  1.00  0.00     0.049 A 
ATOM     35  N   UNL A   1      42.811  29.028  28.776  1.00  0.00    -0.248 NA
ATOM     36  C   UNL A   1      41.493  28.928  26.864  1.00  0.00     0.031 C 
ATOM     37  C   UNL A   1      38.816  27.092  30.349  1.00  0.00     0.029 A 
ATOM     38  N   UNL A   1      39.982  28.950  30.639  1.00  0.00    -0.354 N 
ATOM     39  C   UNL A   1      43.311  29.909  27.825  1.00  0.00     0.074 A 
ATOM     40  C   UNL A   1      42.549  29.700  26.621  1.00  0.00     0.031 C 
ATOM     41  C   UNL A   1      38.093  27.895  31.166  1.00  0.00     0.029 A 
ATOM     42  C   UNL A   1      38.820  29.137  31.370  1.00  0.00     0.049 A 
ATOM     43  H   UNL A   1      40.738  29.579  30.671  1.00  0.00     0.167 HD
ATOM     44  C   UNL A   1      44.191  30.900  28.128  1.00  0.00     0.031 A 
ATOM     45  C   UNL A   1      38.473  30.286  32.001  1.00  0.00     0.031 A 
ATOM     46  C   UNL A   1      44.810  30.719  29.410  1.00  0.00     0.049 A 
ATOM     47  C   UNL A   1      39.718  31.076  32.182  1.00  0.00     0.074 A 
ATOM     48  C   UNL A   1      45.655  29.768  29.947  1.00  0.00     0.029 A 
ATOM     49  N   UNL A   1      44.262  31.381  30.482  1.00  0.00    -0.354 N 
ATOM     50  N   UNL A   1      40.705  30.707  32.949  1.00  0.00    -0.248 NA
ATOM     51  C   UNL A   1      40.054  32.069  31.172  1.00  0.00     0.031 C 
ATOM     52  C   UNL A   1      45.200  29.586  31.288  1.00  0.00     0.029 A 
ATOM     53  C   UNL A   1      44.137  30.466  31.499  1.00  0.00     0.049 A 
ATOM     54  H   UNL A   1      44.006  32.331  30.515  1.00  0.00     0.167 HD
ATOM     55  C   UNL A   1      41.851  31.097  32.271  1.00  0.00     0.074 A 
ATOM     56  C   UNL A   1      41.386  32.012  31.232  1.00  0.00     0.031 C 
ATOM     57  C   UNL A   1      43.032  30.429  32.432  1.00  0.00     0.031 A 
BRANCH  44  58
ATOM     58  C   UNL A   1      44.231  32.192  27.366  1.00  0.00    -0.014 A 
ATOM     59  C   UNL A   1      43.820  33.383  27.980  1.00  0.00     0.009 A 
ATOM     60  C   UNL A   1      44.465  32.234  25.976  1.00  0.00     0.009 A 
ATOM     61  C   UNL A   1      43.658  34.558  27.235  1.00  0.00     0.001 A 
ATOM     62  C   UNL A   1      44.348  33.411  25.239  1.00  0.00     0.001 A 
ATOM     63  C   UNL A   1      43.928  34.573  25.868  1.00  0.00     0.000 A 
ENDBRANCH  44  58
BRANCH  45  64
ATOM     64  C   UNL A   1      37.133  30.917  32.059  1.00  0.00    -0.014 A 
ATOM     65  C   UNL A   1      36.746  31.631  33.207  1.00  0.00     0.009 A 
ATOM     66  C   UNL A   1      36.363  31.089  30.896  1.00  0.00     0.009 A 
ATOM     67  C   UNL A   1      35.678  32.538  33.167  1.00  0.00     0.001 A 
ATOM     68  C   UNL A   1      35.290  31.986  30.858  1.00  0.00     0.001 A 
ATOM     69  C   UNL A   1      34.964  32.729  31.987  1.00  0.00     0.000 A 
ENDBRANCH  45  64
BRANCH  57  70
ATOM     70  C   UNL A   1      43.086  29.358  33.496  1.00  0.00    -0.014 A 
ATOM     71  C   UNL A   1      42.646  28.041  33.265  1.00  0.00     0.009 A 
ATOM     72  C   UNL A   1      43.741  29.635  34.703  1.00  0.00     0.009 A 
ATOM     73  C   UNL A   1      42.841  27.038  34.221  1.00  0.00     0.001 A 
ATOM     74  C   UNL A   1      43.950  28.631  35.651  1.00  0.00     0.001 A 
ATOM     75  C   UNL A   1      43.499  27.334  35.413  1.00  0.00     0.000 A 
ENDBRANCH  57  70
ENDBRANCH  31  32
ENDBRANCH  24  26
ENDBRANCH  23  24
ENDBRANCH   1  23
TORSDOF 12
ENDMDL
MODEL 3
REMARK VINA RESULT:     -10.3      4.094      8.328
REMARK SMILES Cc1cc(C(=O)OCCOC(=O)c2ccc(-c3c4nc(c(-c5ccccc5)c5ccc([nH]5)c(-c5ccccc5)c5nc(c(-c6ccccc6)c6ccc3[nH]6)C=C5)C=C4)cc2)c2c(C)nn(-c3ccccc3)c2n1
REMARK SMILES IDX 9 1 8 2 7 3 5 4 6 5 4 6 1 7 2 8 3 9 73 10 72 11 61 12 65 13
REMARK SMILES IDX 62 14 64 15 63 16 66 17 67 18 71 19 68 20 70 21 69 22 10 23
REMARK SMILES IDX 11 24 12 25 13 26 14 27 60 28 15 29 59 30 16 31 17 32 18 33
REMARK SMILES IDX 53 34 19 35 58 36 52 37 54 38 20 39 57 40 51 41 50 42 21 44
REMARK SMILES IDX 43 45 28 46 42 47 29 48 32 49 41 50 55 51 30 52 31 53 40 55
REMARK SMILES IDX 56 56 33 57 22 58 23 59 27 60 24 61 26 62 25 63 44 64 45 65
REMARK SMILES IDX 49 66 46 67 48 68 47 69 34 70 35 71 39 72 36 73 38 74 37 75
REMARK H PARENT 54 43 32 54
REMARK Flexibility Score: inf
ROOT
ATOM      1  C   UNL A   1      44.185  18.936  24.577  1.00  0.00     0.275 C 
ENDROOT
BRANCH   1   2
ATOM      2  C   UNL A   1      43.192  19.107  25.721  1.00  0.00     0.275 C 
BRANCH   2   3
ATOM      3  O   UNL A   1      42.417  20.307  25.555  1.00  0.00    -0.458 OA
BRANCH   3   4
ATOM      4  C   UNL A   1      41.338  20.441  26.383  1.00  0.00     0.339 C 
ATOM      5  O   UNL A   1      40.433  19.655  26.498  1.00  0.00    -0.246 OA
BRANCH   4   6
ATOM      6  C   UNL A   1      41.479  21.679  27.194  1.00  0.00     0.074 A 
ATOM      7  C   UNL A   1      43.696  23.053  29.943  1.00  0.00     0.067 C 
ATOM      8  C   UNL A   1      42.655  22.972  28.861  1.00  0.00     0.041 A 
ATOM      9  C   UNL A   1      42.513  21.797  28.135  1.00  0.00     0.040 A 
ATOM     10  N   UNL A   1      41.866  24.052  28.706  1.00  0.00    -0.233 NA
ATOM     11  C   UNL A   1      40.838  23.880  27.846  1.00  0.00     0.164 A 
ATOM     12  C   UNL A   1      40.552  22.742  27.093  1.00  0.00     0.057 A 
ATOM     13  N   UNL A   1      39.824  24.786  27.594  1.00  0.00    -0.214 N 
ATOM     14  C   UNL A   1      39.309  23.055  26.463  1.00  0.00     0.070 A 
ATOM     15  N   UNL A   1      38.821  24.237  26.871  1.00  0.00    -0.171 NA
ATOM     16  C   UNL A   1      38.483  22.276  25.505  1.00  0.00     0.069 C 
BRANCH  13  17
ATOM     17  C   UNL A   1      39.770  26.148  27.963  1.00  0.00     0.067 A 
ATOM     18  C   UNL A   1      40.268  27.123  27.090  1.00  0.00     0.028 A 
ATOM     19  C   UNL A   1      39.158  26.514  29.167  1.00  0.00     0.028 A 
ATOM     20  C   UNL A   1      40.124  28.472  27.416  1.00  0.00     0.002 A 
ATOM     21  C   UNL A   1      39.079  27.863  29.514  1.00  0.00     0.002 A 
ATOM     22  C   UNL A   1      39.544  28.840  28.632  1.00  0.00     0.000 A 
ENDBRANCH  13  17
ENDBRANCH   4   6
ENDBRANCH   3   4
ENDBRANCH   2   3
ENDBRANCH   1   2
BRANCH   1  23
ATOM     23  O   UNL A   1      44.524  20.191  23.988  1.00  0.00    -0.458 OA
BRANCH  23  24
ATOM     24  C   UNL A   1      45.731  20.677  24.354  1.00  0.00     0.338 C 
ATOM     25  O   UNL A   1      46.807  20.101  24.325  1.00  0.00    -0.246 OA
BRANCH  24  26
ATOM     26  C   UNL A   1      45.552  21.985  24.985  1.00  0.00     0.060 A 
ATOM     27  C   UNL A   1      45.857  23.123  24.230  1.00  0.00     0.016 A 
ATOM     28  C   UNL A   1      45.373  22.039  26.372  1.00  0.00     0.016 A 
ATOM     29  C   UNL A   1      46.134  24.299  24.895  1.00  0.00     0.010 A 
ATOM     30  C   UNL A   1      45.694  23.197  27.035  1.00  0.00     0.010 A 
ATOM     31  C   UNL A   1      46.124  24.294  26.291  1.00  0.00    -0.014 A 
BRANCH  31  32
ATOM     32  C   UNL A   1      46.602  25.466  26.986  1.00  0.00     0.031 A 
ATOM     33  C   UNL A   1      48.073  25.599  27.074  1.00  0.00     0.074 A 
ATOM     34  C   UNL A   1      45.753  26.424  27.397  1.00  0.00     0.049 A 
ATOM     35  N   UNL A   1      48.807  25.574  28.136  1.00  0.00    -0.248 NA
ATOM     36  C   UNL A   1      48.828  25.670  25.813  1.00  0.00     0.031 C 
ATOM     37  C   UNL A   1      44.331  26.590  27.083  1.00  0.00     0.029 A 
ATOM     38  N   UNL A   1      46.044  27.534  28.118  1.00  0.00    -0.354 N 
ATOM     39  C   UNL A   1      50.113  25.750  27.694  1.00  0.00     0.074 A 
ATOM     40  C   UNL A   1      50.082  25.657  26.256  1.00  0.00     0.031 C 
ATOM     41  C   UNL A   1      43.949  27.843  27.429  1.00  0.00     0.029 A 
ATOM     42  C   UNL A   1      45.056  28.504  28.100  1.00  0.00     0.049 A 
ATOM     43  H   UNL A   1      46.887  27.642  28.612  1.00  0.00     0.167 HD
ATOM     44  C   UNL A   1      51.120  26.157  28.511  1.00  0.00     0.031 A 
ATOM     45  C   UNL A   1      45.211  29.782  28.527  1.00  0.00     0.031 A 
ATOM     46  C   UNL A   1      50.789  26.035  29.901  1.00  0.00     0.049 A 
ATOM     47  C   UNL A   1      46.392  29.800  29.427  1.00  0.00     0.074 A 
ATOM     48  C   UNL A   1      50.506  24.972  30.735  1.00  0.00     0.029 A 
ATOM     49  N   UNL A   1      50.312  27.152  30.544  1.00  0.00    -0.354 N 
ATOM     50  N   UNL A   1      46.435  29.190  30.578  1.00  0.00    -0.248 NA
ATOM     51  C   UNL A   1      47.687  30.137  28.854  1.00  0.00     0.031 C 
ATOM     52  C   UNL A   1      49.457  25.438  31.584  1.00  0.00     0.029 A 
ATOM     53  C   UNL A   1      49.196  26.767  31.245  1.00  0.00     0.049 A 
ATOM     54  H   UNL A   1      50.698  28.057  30.508  1.00  0.00     0.167 HD
ATOM     55  C   UNL A   1      47.731  28.703  30.678  1.00  0.00     0.074 A 
ATOM     56  C   UNL A   1      48.479  29.397  29.633  1.00  0.00     0.031 C 
ATOM     57  C   UNL A   1      48.013  27.584  31.408  1.00  0.00     0.031 A 
BRANCH  44  58
ATOM     58  C   UNL A   1      52.283  26.958  28.005  1.00  0.00    -0.014 A 
ATOM     59  C   UNL A   1      52.115  28.310  27.676  1.00  0.00     0.009 A 
ATOM     60  C   UNL A   1      53.505  26.356  27.638  1.00  0.00     0.009 A 
ATOM     61  C   UNL A   1      53.126  29.022  27.017  1.00  0.00     0.001 A 
ATOM     62  C   UNL A   1      54.530  27.072  27.022  1.00  0.00     0.001 A 
ATOM     63  C   UNL A   1      54.334  28.405  26.697  1.00  0.00     0.000 A 
ENDBRANCH  44  58
BRANCH  45  64
ATOM     64  C   UNL A   1      44.698  31.018  27.888  1.00  0.00    -0.014 A 
ATOM     65  C   UNL A   1      44.087  32.010  28.674  1.00  0.00     0.009 A 
ATOM     66  C   UNL A   1      45.077  31.367  26.580  1.00  0.00     0.009 A 
ATOM     67  C   UNL A   1      43.933  33.318  28.196  1.00  0.00     0.001 A 
ATOM     68  C   UNL A   1      44.914  32.670  26.097  1.00  0.00     0.001 A 
ATOM     69  C   UNL A   1      44.365  33.652  26.915  1.00  0.00     0.000 A 
ENDBRANCH  45  64
BRANCH  57  70
ATOM     70  C   UNL A   1      46.895  26.992  32.235  1.00  0.00    -0.014 A 
ATOM     71  C   UNL A   1      46.627  27.409  33.552  1.00  0.00     0.009 A 
ATOM     72  C   UNL A   1      45.993  26.113  31.621  1.00  0.00     0.009 A 
ATOM     73  C   UNL A   1      45.501  26.946  34.239  1.00  0.00     0.001 A 
ATOM     74  C   UNL A   1      44.858  25.663  32.302  1.00  0.00     0.001 A 
ATOM     75  C   UNL A   1      44.613  26.076  33.610  1.00  0.00     0.000 A 
ENDBRANCH  57  70
ENDBRANCH  31  32
ENDBRANCH  24  26
ENDBRANCH  23  24
ENDBRANCH   1  23
TORSDOF 12
ENDMDL
