MODEL 1
REMARK VINA RESULT:     -11.4      0.000      0.000
REMARK SMILES Cc1cccc(CN(C)c2ccc(C(=O)OCCOC(=O)c3ccc(-c4c5nc(c(-c6ccccc6)c6ccc([nH]6)c(-c6ccccc6)c6nc(c(-c7ccccc7)c7ccc4[nH]7)C=C6)C=C5)cc3)cc2C)n1
REMARK SMILES IDX 17 1 16 2 14 3 15 4 13 5 10 6 11 7 71 8 12 9 70 10 72 11
REMARK SMILES IDX 8 12 9 13 7 14 6 15 1 16 2 17 3 18 73 19 4 20 5 21 18 22
REMARK SMILES IDX 19 23 20 24 21 25 22 26 23 27 69 28 24 29 68 30 25 31 26 32
REMARK SMILES IDX 27 33 62 34 28 35 67 36 61 37 63 38 29 39 66 40 60 41 59 42
REMARK SMILES IDX 30 44 52 45 37 46 51 47 38 48 41 49 50 50 64 51 39 52 40 53
REMARK SMILES IDX 49 55 65 56 42 57 31 58 32 59 36 60 33 61 35 62 34 63 53 64
REMARK SMILES IDX 54 65 58 66 55 67 57 68 56 69 43 70 44 71 48 72 45 73 47 74
REMARK SMILES IDX 46 75
REMARK H PARENT 63 43 41 54
REMARK Flexibility Score: inf
ROOT
ATOM      1  C   UNL A   1      39.053  21.332  26.130  1.00  0.00     0.275 C 
ENDROOT
BRANCH   1   2
ATOM      2  O   UNL A   1      38.289  22.316  25.439  1.00  0.00    -0.458 OA
BRANCH   2   3
ATOM      3  C   UNL A   1      36.834  22.039  25.277  1.00  0.00     0.338 C 
ATOM      4  O   UNL A   1      36.907  20.805  24.988  1.00  0.00    -0.246 OA
BRANCH   3   5
ATOM      5  C   UNL A   1      35.190  23.388  25.543  1.00  0.00     0.060 A 
ATOM      6  C   UNL A   1      32.727  25.458  25.640  1.00  0.00     0.040 A 
ATOM      7  C   UNL A   1      32.879  24.318  26.433  1.00  0.00     0.027 A 
ATOM      8  C   UNL A   1      33.769  25.669  24.777  1.00  0.00    -0.027 A 
ATOM      9  C   UNL A   1      33.994  23.398  26.422  1.00  0.00     0.018 A 
ATOM     10  C   UNL A   1      34.857  24.727  24.768  1.00  0.00     0.021 A 
ATOM     11  C   UNL A   1      33.817  26.786  23.761  1.00  0.00     0.046 C 
BRANCH   6  12
ATOM     12  N   UNL A   1      31.619  26.278  25.727  1.00  0.00    -0.368 N 
ATOM     13  C   UNL A   1      30.584  26.234  24.703  1.00  0.00     0.144 C 
BRANCH  12  14
ATOM     14  C   UNL A   1      31.433  27.201  26.865  1.00  0.00     0.172 C 
BRANCH  14  15
ATOM     15  C   UNL A   1      32.280  28.457  26.742  1.00  0.00     0.060 A 
ATOM     16  C   UNL A   1      31.379  32.007  26.670  1.00  0.00     0.067 C 
ATOM     17  C   UNL A   1      32.244  30.785  26.721  1.00  0.00     0.038 A 
ATOM     18  C   UNL A   1      33.545  30.842  27.207  1.00  0.00     0.023 A 
ATOM     19  N   UNL A   1      31.625  29.614  26.447  1.00  0.00    -0.256 NA
ATOM     20  C   UNL A   1      34.242  29.653  27.409  1.00  0.00     0.004 A 
ATOM     21  C   UNL A   1      33.603  28.440  27.182  1.00  0.00     0.026 A 
ENDBRANCH  14  15
ENDBRANCH  12  14
ENDBRANCH   6  12
ENDBRANCH   3   5
ENDBRANCH   2   3
ENDBRANCH   1   2
BRANCH   1  22
ATOM     22  C   UNL A   1      40.548  21.542  25.862  1.00  0.00     0.275 C 
BRANCH  22  23
ATOM     23  O   UNL A   1      41.406  22.374  26.731  1.00  0.00    -0.458 OA
BRANCH  23  24
ATOM     24  C   UNL A   1      41.800  23.679  26.761  1.00  0.00     0.338 C 
ATOM     25  O   UNL A   1      42.939  24.018  27.054  1.00  0.00    -0.246 OA
BRANCH  24  26
ATOM     26  C   UNL A   1      40.761  24.725  26.730  1.00  0.00     0.060 A 
ATOM     27  C   UNL A   1      41.297  26.209  25.832  1.00  0.00     0.016 A 
ATOM     28  C   UNL A   1      39.759  24.874  28.213  1.00  0.00     0.016 A 
ATOM     29  C   UNL A   1      40.913  27.886  26.541  1.00  0.00     0.010 A 
ATOM     30  C   UNL A   1      39.347  26.533  28.875  1.00  0.00     0.010 A 
ATOM     31  C   UNL A   1      39.997  28.024  28.070  1.00  0.00    -0.014 A 
BRANCH  31  32
ATOM     32  C   UNL A   1      40.314  29.101  29.028  1.00  0.00     0.031 A 
ATOM     33  C   UNL A   1      39.219  30.076  29.167  1.00  0.00     0.074 A 
ATOM     34  C   UNL A   1      41.423  29.102  29.839  1.00  0.00     0.049 A 
ATOM     35  N   UNL A   1      39.342  31.191  29.774  1.00  0.00    -0.248 NA
ATOM     36  C   UNL A   1      37.885  29.916  28.576  1.00  0.00     0.031 C 
ATOM     37  C   UNL A   1      41.700  29.914  31.033  1.00  0.00     0.029 A 
ATOM     38  N   UNL A   1      42.635  28.406  29.687  1.00  0.00    -0.354 N 
ATOM     39  C   UNL A   1      38.099  31.764  29.882  1.00  0.00     0.074 A 
ATOM     40  C   UNL A   1      37.223  30.956  29.085  1.00  0.00     0.031 C 
ATOM     41  C   UNL A   1      43.020  29.894  31.316  1.00  0.00     0.029 A 
ATOM     42  C   UNL A   1      43.704  29.134  30.282  1.00  0.00     0.049 A 
ATOM     43  H   UNL A   1      42.731  27.537  29.233  1.00  0.00     0.167 HD
ATOM     44  C   UNL A   1      37.981  32.817  30.726  1.00  0.00     0.031 A 
ATOM     45  C   UNL A   1      44.746  29.642  29.537  1.00  0.00     0.031 A 
ATOM     46  C   UNL A   1      39.321  33.273  31.115  1.00  0.00     0.049 A 
ATOM     47  C   UNL A   1      44.459  31.092  29.149  1.00  0.00     0.074 A 
ATOM     48  C   UNL A   1      40.121  33.049  32.221  1.00  0.00     0.029 A 
ATOM     49  N   UNL A   1      40.188  33.643  30.091  1.00  0.00    -0.354 N 
ATOM     50  N   UNL A   1      43.445  31.779  29.610  1.00  0.00    -0.248 NA
ATOM     51  C   UNL A   1      45.249  31.868  28.197  1.00  0.00     0.031 C 
ATOM     52  C   UNL A   1      41.486  33.233  31.818  1.00  0.00     0.029 A 
ATOM     53  C   UNL A   1      41.514  33.618  30.487  1.00  0.00     0.049 A 
ATOM     54  H   UNL A   1      39.892  33.894  29.187  1.00  0.00     0.167 HD
ATOM     55  C   UNL A   1      43.439  33.041  29.098  1.00  0.00     0.074 A 
ATOM     56  C   UNL A   1      44.557  33.023  28.158  1.00  0.00     0.031 C 
ATOM     57  C   UNL A   1      42.540  33.993  29.507  1.00  0.00     0.031 A 
BRANCH  44  58
ATOM     58  C   UNL A   1      36.689  33.295  31.331  1.00  0.00    -0.014 A 
ATOM     59  C   UNL A   1      36.420  32.954  32.667  1.00  0.00     0.009 A 
ATOM     60  C   UNL A   1      35.657  33.972  30.650  1.00  0.00     0.009 A 
ATOM     61  C   UNL A   1      35.192  33.239  33.276  1.00  0.00     0.001 A 
ATOM     62  C   UNL A   1      34.427  34.268  31.256  1.00  0.00     0.001 A 
ATOM     63  C   UNL A   1      34.192  33.894  32.570  1.00  0.00     0.000 A 
ENDBRANCH  44  58
BRANCH  45  64
ATOM     64  C   UNL A   1      45.459  28.627  28.660  1.00  0.00    -0.014 A 
ATOM     65  C   UNL A   1      45.007  28.483  27.321  1.00  0.00     0.009 A 
ATOM     66  C   UNL A   1      46.825  28.613  28.855  1.00  0.00     0.009 A 
ATOM     67  C   UNL A   1      45.824  28.861  26.242  1.00  0.00     0.001 A 
ATOM     68  C   UNL A   1      47.580  29.096  27.787  1.00  0.00     0.001 A 
ATOM     69  C   UNL A   1      47.081  29.329  26.518  1.00  0.00     0.000 A 
ENDBRANCH  45  64
BRANCH  57  70
ATOM     70  C   UNL A   1      42.526  35.419  29.004  1.00  0.00    -0.014 A 
ATOM     71  C   UNL A   1      41.750  35.853  27.927  1.00  0.00     0.009 A 
ATOM     72  C   UNL A   1      43.391  36.385  29.568  1.00  0.00     0.009 A 
ATOM     73  C   UNL A   1      41.708  37.201  27.557  1.00  0.00     0.001 A 
ATOM     74  C   UNL A   1      43.377  37.724  29.190  1.00  0.00     0.001 A 
ATOM     75  C   UNL A   1      42.504  38.141  28.204  1.00  0.00     0.000 A 
ENDBRANCH  57  70
ENDBRANCH  31  32
ENDBRANCH  24  26
ENDBRANCH  23  24
ENDBRANCH  22  23
ENDBRANCH   1  22
TORSDOF 14
ENDMDL
MODEL 2
REMARK VINA RESULT:     -11.1      4.047      9.289
REMARK SMILES Cc1cccc(CN(C)c2ccc(C(=O)OCCOC(=O)c3ccc(-c4c5nc(c(-c6ccccc6)c6ccc([nH]6)c(-c6ccccc6)c6nc(c(-c7ccccc7)c7ccc4[nH]7)C=C6)C=C5)cc3)cc2C)n1
REMARK SMILES IDX 17 1 16 2 14 3 15 4 13 5 10 6 11 7 71 8 12 9 70 10 72 11
REMARK SMILES IDX 8 12 9 13 7 14 6 15 1 16 2 17 3 18 73 19 4 20 5 21 18 22
REMARK SMILES IDX 19 23 20 24 21 25 22 26 23 27 69 28 24 29 68 30 25 31 26 32
REMARK SMILES IDX 27 33 62 34 28 35 67 36 61 37 63 38 29 39 66 40 60 41 59 42
REMARK SMILES IDX 30 44 52 45 37 46 51 47 38 48 41 49 50 50 64 51 39 52 40 53
REMARK SMILES IDX 49 55 65 56 42 57 31 58 32 59 36 60 33 61 35 62 34 63 53 64
REMARK SMILES IDX 54 65 58 66 55 67 57 68 56 69 43 70 44 71 48 72 45 73 47 74
REMARK SMILES IDX 46 75
REMARK H PARENT 63 43 41 54
REMARK Flexibility Score: inf
ROOT
ATOM      1  C   UNL A   1      33.967  32.369  27.577  1.00  0.00     0.275 C 
ENDROOT
BRANCH   1   2
ATOM      2  O   UNL A   1      33.375  31.085  27.752  1.00  0.00    -0.458 OA
BRANCH   2   3
ATOM      3  C   UNL A   1      32.369  30.670  26.734  1.00  0.00     0.338 C 
ATOM      4  O   UNL A   1      31.648  31.714  26.744  1.00  0.00    -0.246 OA
BRANCH   3   5
ATOM      5  C   UNL A   1      32.299  28.850  25.604  1.00  0.00     0.060 A 
ATOM      6  C   UNL A   1      32.039  25.994  24.141  1.00  0.00     0.040 A 
ATOM      7  C   UNL A   1      31.987  27.246  23.524  1.00  0.00     0.027 A 
ATOM      8  C   UNL A   1      32.244  26.057  25.494  1.00  0.00    -0.027 A 
ATOM      9  C   UNL A   1      32.134  28.534  24.164  1.00  0.00     0.018 A 
ATOM     10  C   UNL A   1      32.364  27.352  26.111  1.00  0.00     0.021 A 
ATOM     11  C   UNL A   1      32.266  24.855  26.406  1.00  0.00     0.046 C 
BRANCH   6  12
ATOM     12  N   UNL A   1      31.888  24.814  23.439  1.00  0.00    -0.368 N 
ATOM     13  C   UNL A   1      30.592  24.152  23.376  1.00  0.00     0.144 C 
BRANCH  12  14
ATOM     14  C   UNL A   1      33.018  24.204  22.710  1.00  0.00     0.172 C 
BRANCH  14  15
ATOM     15  C   UNL A   1      33.909  23.364  23.611  1.00  0.00     0.060 A 
ATOM     16  C   UNL A   1      33.613  19.911  24.797  1.00  0.00     0.067 C 
ATOM     17  C   UNL A   1      34.219  21.259  24.555  1.00  0.00     0.038 A 
ATOM     18  C   UNL A   1      35.595  21.451  24.611  1.00  0.00     0.023 A 
ATOM     19  N   UNL A   1      33.373  22.213  24.104  1.00  0.00    -0.256 NA
ATOM     20  C   UNL A   1      36.123  22.673  24.198  1.00  0.00     0.004 A 
ATOM     21  C   UNL A   1      35.273  23.644  23.683  1.00  0.00     0.026 A 
ENDBRANCH  14  15
ENDBRANCH  12  14
ENDBRANCH   6  12
ENDBRANCH   3   5
ENDBRANCH   2   3
ENDBRANCH   1   2
BRANCH   1  22
ATOM     22  C   UNL A   1      34.118  33.067  28.933  1.00  0.00     0.275 C 
BRANCH  22  23
ATOM     23  O   UNL A   1      34.821  32.448  30.077  1.00  0.00    -0.458 OA
BRANCH  23  24
ATOM     24  C   UNL A   1      36.055  31.913  30.296  1.00  0.00     0.338 C 
ATOM     25  O   UNL A   1      36.994  32.573  30.722  1.00  0.00    -0.246 OA
BRANCH  24  26
ATOM     26  C   UNL A   1      36.354  30.585  29.728  1.00  0.00     0.060 A 
ATOM     27  C   UNL A   1      36.683  29.341  31.009  1.00  0.00     0.016 A 
ATOM     28  C   UNL A   1      37.295  30.584  28.198  1.00  0.00     0.016 A 
ATOM     29  C   UNL A   1      38.096  28.153  30.777  1.00  0.00     0.010 A 
ATOM     30  C   UNL A   1      38.654  29.376  27.962  1.00  0.00     0.010 A 
ATOM     31  C   UNL A   1      39.090  28.221  29.292  1.00  0.00    -0.014 A 
BRANCH  31  32
ATOM     32  C   UNL A   1      40.537  27.940  29.357  1.00  0.00     0.031 A 
ATOM     33  C   UNL A   1      40.886  26.626  28.791  1.00  0.00     0.074 A 
ATOM     34  C   UNL A   1      41.480  28.866  29.731  1.00  0.00     0.049 A 
ATOM     35  N   UNL A   1      42.033  26.084  28.922  1.00  0.00    -0.248 NA
ATOM     36  C   UNL A   1      39.947  25.757  28.070  1.00  0.00     0.031 C 
ATOM     37  C   UNL A   1      42.938  28.836  29.540  1.00  0.00     0.029 A 
ATOM     38  N   UNL A   1      41.321  30.041  30.487  1.00  0.00    -0.354 N 
ATOM     39  C   UNL A   1      42.077  24.967  28.125  1.00  0.00     0.074 A 
ATOM     40  C   UNL A   1      40.741  24.775  27.642  1.00  0.00     0.031 C 
ATOM     41  C   UNL A   1      43.535  29.725  30.363  1.00  0.00     0.029 A 
ATOM     42  C   UNL A   1      42.517  30.337  31.201  1.00  0.00     0.049 A 
ATOM     43  H   UNL A   1      40.499  30.582  30.518  1.00  0.00     0.167 HD
ATOM     44  C   UNL A   1      43.295  24.409  27.919  1.00  0.00     0.031 A 
ATOM     45  C   UNL A   1      42.566  30.328  32.578  1.00  0.00     0.031 A 
ATOM     46  C   UNL A   1      44.256  24.997  28.860  1.00  0.00     0.049 A 
ATOM     47  C   UNL A   1      43.039  28.963  33.079  1.00  0.00     0.074 A 
ATOM     48  C   UNL A   1      45.197  26.005  28.759  1.00  0.00     0.029 A 
ATOM     49  N   UNL A   1      43.963  24.891  30.217  1.00  0.00    -0.354 N 
ATOM     50  N   UNL A   1      43.484  28.017  32.293  1.00  0.00    -0.248 NA
ATOM     51  C   UNL A   1      43.014  28.538  34.476  1.00  0.00     0.031 C 
ATOM     52  C   UNL A   1      45.411  26.539  30.073  1.00  0.00     0.029 A 
ATOM     53  C   UNL A   1      44.644  25.825  30.979  1.00  0.00     0.049 A 
ATOM     54  H   UNL A   1      43.341  24.227  30.592  1.00  0.00     0.167 HD
ATOM     55  C   UNL A   1      43.837  26.915  33.011  1.00  0.00     0.074 A 
ATOM     56  C   UNL A   1      43.455  27.270  34.375  1.00  0.00     0.031 C 
ATOM     57  C   UNL A   1      44.434  25.824  32.431  1.00  0.00     0.031 A 
BRANCH  44  58
ATOM     58  C   UNL A   1      43.643  23.501  26.772  1.00  0.00    -0.014 A 
ATOM     59  C   UNL A   1      43.158  22.183  26.804  1.00  0.00     0.009 A 
ATOM     60  C   UNL A   1      44.507  23.812  25.704  1.00  0.00     0.009 A 
ATOM     61  C   UNL A   1      43.533  21.227  25.852  1.00  0.00     0.001 A 
ATOM     62  C   UNL A   1      44.881  22.862  24.741  1.00  0.00     0.001 A 
ATOM     63  C   UNL A   1      44.400  21.565  24.820  1.00  0.00     0.000 A 
ENDBRANCH  44  58
BRANCH  45  64
ATOM     64  C   UNL A   1      41.525  31.198  33.262  1.00  0.00    -0.014 A 
ATOM     65  C   UNL A   1      40.315  30.575  33.671  1.00  0.00     0.009 A 
ATOM     66  C   UNL A   1      42.077  32.110  34.137  1.00  0.00     0.009 A 
ATOM     67  C   UNL A   1      40.000  30.444  35.033  1.00  0.00     0.001 A 
ATOM     68  C   UNL A   1      41.814  31.869  35.486  1.00  0.00     0.001 A 
ATOM     69  C   UNL A   1      40.870  30.971  35.951  1.00  0.00     0.000 A 
ENDBRANCH  45  64
BRANCH  57  70
ATOM     70  C   UNL A   1      44.888  24.599  33.194  1.00  0.00    -0.014 A 
ATOM     71  C   UNL A   1      44.055  23.518  33.490  1.00  0.00     0.009 A 
ATOM     72  C   UNL A   1      46.194  24.535  33.731  1.00  0.00     0.009 A 
ATOM     73  C   UNL A   1      44.547  22.372  34.123  1.00  0.00     0.001 A 
ATOM     74  C   UNL A   1      46.687  23.410  34.386  1.00  0.00     0.001 A 
ATOM     75  C   UNL A   1      45.869  22.308  34.549  1.00  0.00     0.000 A 
ENDBRANCH  57  70
ENDBRANCH  31  32
ENDBRANCH  24  26
ENDBRANCH  23  24
ENDBRANCH  22  23
ENDBRANCH   1  22
TORSDOF 14
ENDMDL
MODEL 3
REMARK VINA RESULT:     -10.9      1.449      2.308
REMARK SMILES Cc1cccc(CN(C)c2ccc(C(=O)OCCOC(=O)c3ccc(-c4c5nc(c(-c6ccccc6)c6ccc([nH]6)c(-c6ccccc6)c6nc(c(-c7ccccc7)c7ccc4[nH]7)C=C6)C=C5)cc3)cc2C)n1
REMARK SMILES IDX 17 1 16 2 14 3 15 4 13 5 10 6 11 7 71 8 12 9 70 10 72 11
REMARK SMILES IDX 8 12 9 13 7 14 6 15 1 16 2 17 3 18 73 19 4 20 5 21 18 22
REMARK SMILES IDX 19 23 20 24 21 25 22 26 23 27 69 28 24 29 68 30 25 31 26 32
REMARK SMILES IDX 27 33 62 34 28 35 67 36 61 37 63 38 29 39 66 40 60 41 59 42
REMARK SMILES IDX 30 44 52 45 37 46 51 47 38 48 41 49 50 50 64 51 39 52 40 53
REMARK SMILES IDX 49 55 65 56 42 57 31 58 32 59 36 60 33 61 35 62 34 63 53 64
REMARK SMILES IDX 54 65 58 66 55 67 57 68 56 69 43 70 44 71 48 72 45 73 47 74
REMARK SMILES IDX 46 75
REMARK H PARENT 63 43 41 54
REMARK Flexibility Score: inf
ROOT
ATOM      1  C   UNL A   1      42.146  20.595  26.125  1.00  0.00     0.275 C 
ENDROOT
BRANCH   1   2
ATOM      2  O   UNL A   1      41.005  21.198  25.520  1.00  0.00    -0.458 OA
BRANCH   2   3
ATOM      3  C   UNL A   1      39.823  21.421  26.398  1.00  0.00     0.338 C 
ATOM      4  O   UNL A   1      40.320  21.012  27.492  1.00  0.00    -0.246 OA
BRANCH   3   5
ATOM      5  C   UNL A   1      37.919  22.254  25.873  1.00  0.00     0.060 A 
ATOM      6  C   UNL A   1      34.933  23.260  25.217  1.00  0.00     0.040 A 
ATOM      7  C   UNL A   1      36.018  24.067  25.568  1.00  0.00     0.027 A 
ATOM      8  C   UNL A   1      35.242  21.928  25.141  1.00  0.00    -0.027 A 
ATOM      9  C   UNL A   1      37.370  23.632  25.834  1.00  0.00     0.018 A 
ATOM     10  C   UNL A   1      36.590  21.517  25.432  1.00  0.00     0.021 A 
ATOM     11  C   UNL A   1      34.237  20.838  24.854  1.00  0.00     0.046 C 
BRANCH   6  12
ATOM     12  N   UNL A   1      33.672  23.774  24.980  1.00  0.00    -0.368 N 
ATOM     13  C   UNL A   1      32.681  23.820  26.046  1.00  0.00     0.144 C 
BRANCH  12  14
ATOM     14  C   UNL A   1      33.300  24.315  23.658  1.00  0.00     0.172 C 
BRANCH  14  15
ATOM     15  C   UNL A   1      33.237  25.834  23.644  1.00  0.00     0.060 A 
ATOM     16  C   UNL A   1      34.038  28.329  26.203  1.00  0.00     0.067 C 
ATOM     17  C   UNL A   1      33.667  27.769  24.864  1.00  0.00     0.038 A 
ATOM     18  C   UNL A   1      33.860  28.501  23.698  1.00  0.00     0.023 A 
ATOM     19  N   UNL A   1      33.316  26.463  24.849  1.00  0.00    -0.256 NA
ATOM     20  C   UNL A   1      33.676  27.871  22.469  1.00  0.00     0.004 A 
ATOM     21  C   UNL A   1      33.367  26.516  22.435  1.00  0.00     0.026 A 
ENDBRANCH  14  15
ENDBRANCH  12  14
ENDBRANCH   6  12
ENDBRANCH   3   5
ENDBRANCH   2   3
ENDBRANCH   1   2
BRANCH   1  22
ATOM     22  C   UNL A   1      43.411  21.382  25.763  1.00  0.00     0.275 C 
BRANCH  22  23
ATOM     23  O   UNL A   1      43.384  22.815  25.400  1.00  0.00    -0.458 OA
BRANCH  23  24
ATOM     24  C   UNL A   1      43.432  23.998  26.074  1.00  0.00     0.338 C 
ATOM     25  O   UNL A   1      44.402  24.340  26.739  1.00  0.00    -0.246 OA
BRANCH  24  26
ATOM     26  C   UNL A   1      42.178  24.753  26.255  1.00  0.00     0.060 A 
ATOM     27  C   UNL A   1      42.194  26.343  25.378  1.00  0.00     0.016 A 
ATOM     28  C   UNL A   1      41.410  24.616  27.872  1.00  0.00     0.016 A 
ATOM     29  C   UNL A   1      41.528  27.856  26.232  1.00  0.00     0.010 A 
ATOM     30  C   UNL A   1      40.715  26.106  28.683  1.00  0.00     0.010 A 
ATOM     31  C   UNL A   1      40.852  27.729  27.882  1.00  0.00    -0.014 A 
BRANCH  31  32
ATOM     32  C   UNL A   1      41.041  28.830  28.846  1.00  0.00     0.031 A 
ATOM     33  C   UNL A   1      39.871  29.721  28.926  1.00  0.00     0.074 A 
ATOM     34  C   UNL A   1      42.106  28.918  29.709  1.00  0.00     0.049 A 
ATOM     35  N   UNL A   1      39.881  30.844  29.530  1.00  0.00    -0.248 NA
ATOM     36  C   UNL A   1      38.582  29.459  28.273  1.00  0.00     0.031 C 
ATOM     37  C   UNL A   1      42.264  29.753  30.909  1.00  0.00     0.029 A 
ATOM     38  N   UNL A   1      43.373  28.313  29.620  1.00  0.00    -0.354 N 
ATOM     39  C   UNL A   1      38.594  31.322  29.574  1.00  0.00     0.074 A 
ATOM     40  C   UNL A   1      37.820  30.448  28.742  1.00  0.00     0.031 C 
ATOM     41  C   UNL A   1      43.567  29.832  31.255  1.00  0.00     0.029 A 
ATOM     42  C   UNL A   1      44.355  29.122  30.260  1.00  0.00     0.049 A 
ATOM     43  H   UNL A   1      43.555  27.453  29.177  1.00  0.00     0.167 HD
ATOM     44  C   UNL A   1      38.357  32.367  30.404  1.00  0.00     0.031 A 
ATOM     45  C   UNL A   1      45.390  29.704  29.562  1.00  0.00     0.031 A 
ATOM     46  C   UNL A   1      39.639  32.923  30.854  1.00  0.00     0.049 A 
ATOM     47  C   UNL A   1      45.014  31.127  29.151  1.00  0.00     0.074 A 
ATOM     48  C   UNL A   1      40.400  32.764  31.998  1.00  0.00     0.029 A 
ATOM     49  N   UNL A   1      40.524  33.354  29.869  1.00  0.00    -0.354 N 
ATOM     50  N   UNL A   1      43.932  31.737  29.557  1.00  0.00    -0.248 NA
ATOM     51  C   UNL A   1      45.789  31.957  28.231  1.00  0.00     0.031 C 
ATOM     52  C   UNL A   1      41.765  33.049  31.659  1.00  0.00     0.029 A 
ATOM     53  C   UNL A   1      41.828  33.429  30.328  1.00  0.00     0.049 A 
ATOM     54  H   UNL A   1      40.254  33.578  28.950  1.00  0.00     0.167 HD
ATOM     55  C   UNL A   1      43.856  32.994  29.036  1.00  0.00     0.074 A 
ATOM     56  C   UNL A   1      45.016  33.056  28.151  1.00  0.00     0.031 C 
ATOM     57  C   UNL A   1      42.869  33.877  29.396  1.00  0.00     0.031 A 
BRANCH  44  58
ATOM     58  C   UNL A   1      37.006  32.749  30.943  1.00  0.00    -0.014 A 
ATOM     59  C   UNL A   1      36.677  32.343  32.248  1.00  0.00     0.009 A 
ATOM     60  C   UNL A   1      35.979  33.391  30.222  1.00  0.00     0.009 A 
ATOM     61  C   UNL A   1      35.400  32.536  32.789  1.00  0.00     0.001 A 
ATOM     62  C   UNL A   1      34.700  33.595  30.761  1.00  0.00     0.001 A 
ATOM     63  C   UNL A   1      34.408  33.160  32.043  1.00  0.00     0.000 A 
ENDBRANCH  44  58
BRANCH  45  64
ATOM     64  C   UNL A   1      46.219  28.742  28.727  1.00  0.00    -0.014 A 
ATOM     65  C   UNL A   1      45.905  28.633  27.346  1.00  0.00     0.009 A 
ATOM     66  C   UNL A   1      47.559  28.761  29.056  1.00  0.00     0.009 A 
ATOM     67  C   UNL A   1      46.811  29.073  26.366  1.00  0.00     0.001 A 
ATOM     68  C   UNL A   1      48.398  29.304  28.084  1.00  0.00     0.001 A 
ATOM     69  C   UNL A   1      48.019  29.568  26.780  1.00  0.00     0.000 A 
ENDBRANCH  45  64
BRANCH  57  70
ATOM     70  C   UNL A   1      42.773  35.297  28.883  1.00  0.00    -0.014 A 
ATOM     71  C   UNL A   1      42.197  35.640  27.657  1.00  0.00     0.009 A 
ATOM     72  C   UNL A   1      43.358  36.360  29.607  1.00  0.00     0.009 A 
ATOM     73  C   UNL A   1      42.056  36.976  27.269  1.00  0.00     0.001 A 
ATOM     74  C   UNL A   1      43.246  37.692  29.217  1.00  0.00     0.001 A 
ATOM     75  C   UNL A   1      42.559  38.003  28.060  1.00  0.00     0.000 A 
ENDBRANCH  57  70
ENDBRANCH  31  32
ENDBRANCH  24  26
ENDBRANCH  23  24
ENDBRANCH  22  23
ENDBRANCH   1  22
TORSDOF 14
ENDMDL
