MODEL 1
REMARK VINA RESULT:     -10.7      0.000      0.000
REMARK SMILES O=C(NC[C@@H]1CC[C@H](C(=O)OCCOC(=O)c2ccc(-c3c4nc(c(-c5ccccc5)c5ccc([nH]5)c(-c5ccccc5)c5nc(c(-c6ccccc6)c6ccc3[nH]6)C=C5)C=C4)cc2)O1)Nc1ncccn1
REMARK SMILES IDX 12 1 11 2 9 3 10 4 8 5 5 6 6 7 65 8 7 9 4 10 3 11 1 12 2 13
REMARK SMILES IDX 66 14 67 17 68 18 72 19 69 20 71 21 70 22 13 23 14 24 15 25
REMARK SMILES IDX 16 26 17 27 18 28 64 29 19 30 63 31 20 32 21 33 22 34 57 35
REMARK SMILES IDX 23 36 62 37 56 38 58 39 24 40 61 41 55 42 54 43 25 45 47 46
REMARK SMILES IDX 32 47 46 48 33 49 36 50 45 51 59 52 34 53 35 54 44 56 60 57
REMARK SMILES IDX 37 58 26 59 27 60 31 61 28 62 30 63 29 64 48 65 49 66 53 67
REMARK SMILES IDX 50 68 52 69 51 70 38 71 39 72 43 73 40 74 42 75 41 76
REMARK H PARENT 3 15 66 16 58 44 36 55
REMARK Flexibility Score: inf
ROOT
ATOM      1  C   UNL A   1      38.630  19.662  25.189  1.00  0.00     0.274 C 
ENDROOT
BRANCH   1   2
ATOM      2  O   UNL A   1      38.288  21.050  25.014  1.00  0.00    -0.460 OA
BRANCH   2   3
ATOM      3  C   UNL A   1      36.964  21.345  25.090  1.00  0.00     0.335 C 
ATOM      4  O   UNL A   1      36.086  20.554  25.420  1.00  0.00    -0.249 OA
BRANCH   3   5
ATOM      5  C   UNL A   1      36.653  22.796  24.705  1.00  0.00     0.228 C 
ATOM      6  C   UNL A   1      34.451  23.544  24.509  1.00  0.00     0.138 C 
ATOM      7  C   UNL A   1      34.904  23.102  23.123  1.00  0.00     0.037 C 
ATOM      8  O   UNL A   1      35.514  23.265  25.430  1.00  0.00    -0.361 OA
ATOM      9  C   UNL A   1      36.408  23.079  23.233  1.00  0.00     0.047 C 
BRANCH   6  10
ATOM     10  C   UNL A   1      33.152  22.902  25.025  1.00  0.00     0.149 C 
BRANCH  10  11
ATOM     11  N   UNL A   1      32.545  21.993  24.060  1.00  0.00    -0.335 N 
ATOM     12  O   UNL A   1      32.090  20.204  22.875  1.00  0.00    -0.248 OA
ATOM     13  C   UNL A   1      32.590  20.644  23.907  1.00  0.00     0.321 C 
ATOM     14  N   UNL A   1      33.117  19.922  24.921  1.00  0.00    -0.276 N 
ATOM     15  H   UNL A   1      31.992  22.447  23.385  1.00  0.00     0.165 HD
ATOM     16  H   UNL A   1      33.445  20.412  25.709  1.00  0.00     0.175 HD
BRANCH  14  17
ATOM     17  C   UNL A   1      33.226  18.538  24.928  1.00  0.00     0.230 A 
ATOM     18  N   UNL A   1      34.393  18.068  24.453  1.00  0.00    -0.221 NA
ATOM     19  N   UNL A   1      32.244  17.761  25.406  1.00  0.00    -0.221 NA
ATOM     20  C   UNL A   1      34.582  16.736  24.533  1.00  0.00     0.117 A 
ATOM     21  C   UNL A   1      32.469  16.436  25.436  1.00  0.00     0.117 A 
ATOM     22  C   UNL A   1      33.643  15.861  25.024  1.00  0.00     0.040 A 
ENDBRANCH  14  17
ENDBRANCH  10  11
ENDBRANCH   6  10
ENDBRANCH   3   5
ENDBRANCH   2   3
ENDBRANCH   1   2
BRANCH   1  23
ATOM     23  C   UNL A   1      39.807  19.488  26.153  1.00  0.00     0.275 C 
BRANCH  23  24
ATOM     24  O   UNL A   1      40.965  18.938  25.498  1.00  0.00    -0.458 OA
BRANCH  24  25
ATOM     25  C   UNL A   1      42.117  19.013  26.205  1.00  0.00     0.338 C 
ATOM     26  O   UNL A   1      42.902  18.117  26.458  1.00  0.00    -0.246 OA
BRANCH  25  27
ATOM     27  C   UNL A   1      42.387  20.417  26.539  1.00  0.00     0.060 A 
ATOM     28  C   UNL A   1      42.767  21.274  25.504  1.00  0.00     0.016 A 
ATOM     29  C   UNL A   1      42.341  20.870  27.858  1.00  0.00     0.016 A 
ATOM     30  C   UNL A   1      43.093  22.597  25.777  1.00  0.00     0.010 A 
ATOM     31  C   UNL A   1      42.665  22.203  28.132  1.00  0.00     0.010 A 
ATOM     32  C   UNL A   1      43.042  23.072  27.092  1.00  0.00    -0.014 A 
BRANCH  32  33
ATOM     33  C   UNL A   1      43.389  24.484  27.373  1.00  0.00     0.031 A 
ATOM     34  C   UNL A   1      44.817  24.937  27.314  1.00  0.00     0.074 A 
ATOM     35  C   UNL A   1      42.409  25.362  27.661  1.00  0.00     0.049 A 
ATOM     36  N   UNL A   1      45.325  26.104  27.621  1.00  0.00    -0.248 NA
ATOM     37  C   UNL A   1      45.804  23.951  26.848  1.00  0.00     0.031 C 
ATOM     38  C   UNL A   1      40.978  25.052  27.692  1.00  0.00     0.029 A 
ATOM     39  N   UNL A   1      42.472  26.693  27.983  1.00  0.00    -0.354 N 
ATOM     40  C   UNL A   1      46.691  25.988  27.402  1.00  0.00     0.074 A 
ATOM     41  C   UNL A   1      46.936  24.635  26.947  1.00  0.00     0.031 C 
ATOM     42  C   UNL A   1      40.299  26.164  28.016  1.00  0.00     0.029 A 
ATOM     43  C   UNL A   1      41.247  27.244  28.267  1.00  0.00     0.049 A 
ATOM     44  H   UNL A   1      43.313  27.203  28.010  1.00  0.00     0.167 HD
ATOM     45  C   UNL A   1      47.654  26.926  27.567  1.00  0.00     0.031 A 
ATOM     46  C   UNL A   1      40.927  28.472  28.716  1.00  0.00     0.031 A 
ATOM     47  C   UNL A   1      47.408  28.268  28.025  1.00  0.00     0.049 A 
ATOM     48  C   UNL A   1      42.022  29.467  28.969  1.00  0.00     0.074 A 
ATOM     49  C   UNL A   1      48.319  29.290  28.229  1.00  0.00     0.029 A 
ATOM     50  N   UNL A   1      46.159  28.773  28.348  1.00  0.00    -0.354 N 
ATOM     51  N   UNL A   1      43.312  29.340  28.780  1.00  0.00    -0.248 NA
ATOM     52  C   UNL A   1      41.616  30.772  29.510  1.00  0.00     0.031 C 
ATOM     53  C   UNL A   1      47.623  30.403  28.718  1.00  0.00     0.029 A 
ATOM     54  C   UNL A   1      46.276  30.085  28.774  1.00  0.00     0.049 A 
ATOM     55  H   UNL A   1      45.313  28.273  28.285  1.00  0.00     0.167 HD
ATOM     56  C   UNL A   1      43.872  30.547  29.173  1.00  0.00     0.074 A 
ATOM     57  C   UNL A   1      42.779  31.404  29.587  1.00  0.00     0.031 C 
ATOM     58  C   UNL A   1      45.176  30.914  29.194  1.00  0.00     0.031 A 
BRANCH  45  59
ATOM     59  C   UNL A   1      49.070  26.519  27.285  1.00  0.00    -0.014 A 
ATOM     60  C   UNL A   1      49.882  25.966  28.288  1.00  0.00     0.009 A 
ATOM     61  C   UNL A   1      49.587  26.654  25.987  1.00  0.00     0.009 A 
ATOM     62  C   UNL A   1      51.194  25.580  28.000  1.00  0.00     0.001 A 
ATOM     63  C   UNL A   1      50.890  26.247  25.698  1.00  0.00     0.001 A 
ATOM     64  C   UNL A   1      51.694  25.716  26.706  1.00  0.00     0.000 A 
ENDBRANCH  45  59
BRANCH  46  65
ATOM     65  C   UNL A   1      39.510  28.807  29.009  1.00  0.00    -0.014 A 
ATOM     66  C   UNL A   1      38.684  29.362  28.023  1.00  0.00     0.009 A 
ATOM     67  C   UNL A   1      38.981  28.576  30.290  1.00  0.00     0.009 A 
ATOM     68  C   UNL A   1      37.359  29.694  28.317  1.00  0.00     0.001 A 
ATOM     69  C   UNL A   1      37.649  28.885  30.573  1.00  0.00     0.001 A 
ATOM     70  C   UNL A   1      36.842  29.451  29.588  1.00  0.00     0.000 A 
ENDBRANCH  46  65
BRANCH  58  71
ATOM     71  C   UNL A   1      45.483  32.302  29.672  1.00  0.00    -0.014 A 
ATOM     72  C   UNL A   1      45.514  33.383  28.777  1.00  0.00     0.009 A 
ATOM     73  C   UNL A   1      45.716  32.538  31.036  1.00  0.00     0.009 A 
ATOM     74  C   UNL A   1      45.802  34.669  29.235  1.00  0.00     0.001 A 
ATOM     75  C   UNL A   1      45.980  33.829  31.494  1.00  0.00     0.001 A 
ATOM     76  C   UNL A   1      46.031  34.891  30.594  1.00  0.00     0.000 A 
ENDBRANCH  58  71
ENDBRANCH  32  33
ENDBRANCH  25  27
ENDBRANCH  24  25
ENDBRANCH  23  24
ENDBRANCH   1  23
TORSDOF 14
ENDMDL
MODEL 2
REMARK VINA RESULT:     -10.6      6.162     11.031
REMARK SMILES O=C(NC[C@@H]1CC[C@H](C(=O)OCCOC(=O)c2ccc(-c3c4nc(c(-c5ccccc5)c5ccc([nH]5)c(-c5ccccc5)c5nc(c(-c6ccccc6)c6ccc3[nH]6)C=C5)C=C4)cc2)O1)Nc1ncccn1
REMARK SMILES IDX 12 1 11 2 9 3 10 4 8 5 5 6 6 7 65 8 7 9 4 10 3 11 1 12 2 13
REMARK SMILES IDX 66 14 67 17 68 18 72 19 69 20 71 21 70 22 13 23 14 24 15 25
REMARK SMILES IDX 16 26 17 27 18 28 64 29 19 30 63 31 20 32 21 33 22 34 57 35
REMARK SMILES IDX 23 36 62 37 56 38 58 39 24 40 61 41 55 42 54 43 25 45 47 46
REMARK SMILES IDX 32 47 46 48 33 49 36 50 45 51 59 52 34 53 35 54 44 56 60 57
REMARK SMILES IDX 37 58 26 59 27 60 31 61 28 62 30 63 29 64 48 65 49 66 53 67
REMARK SMILES IDX 50 68 52 69 51 70 38 71 39 72 43 73 40 74 42 75 41 76
REMARK H PARENT 3 15 66 16 58 44 36 55
REMARK Flexibility Score: inf
ROOT
ATOM      1  C   UNL A   1      31.707  31.840  26.891  1.00  0.00     0.274 C 
ENDROOT
BRANCH   1   2
ATOM      2  O   UNL A   1      32.545  30.668  26.879  1.00  0.00    -0.460 OA
BRANCH   2   3
ATOM      3  C   UNL A   1      32.248  29.741  25.932  1.00  0.00     0.335 C 
ATOM      4  O   UNL A   1      31.688  29.980  24.866  1.00  0.00    -0.249 OA
BRANCH   3   5
ATOM      5  C   UNL A   1      32.680  28.324  26.328  1.00  0.00     0.228 C 
ATOM      6  C   UNL A   1      32.035  26.472  25.064  1.00  0.00     0.138 C 
ATOM      7  C   UNL A   1      31.004  26.644  26.173  1.00  0.00     0.037 C 
ATOM      8  O   UNL A   1      32.972  27.553  25.161  1.00  0.00    -0.361 OA
ATOM      9  C   UNL A   1      31.708  27.522  27.176  1.00  0.00     0.047 C 
BRANCH   6  10
ATOM     10  C   UNL A   1      31.475  26.413  23.632  1.00  0.00     0.149 C 
BRANCH  10  11
ATOM     11  N   UNL A   1      30.030  26.596  23.579  1.00  0.00    -0.335 N 
ATOM     12  O   UNL A   1      28.043  27.523  23.510  1.00  0.00    -0.248 OA
ATOM     13  C   UNL A   1      29.245  27.670  23.304  1.00  0.00     0.321 C 
ATOM     14  N   UNL A   1      29.846  28.759  22.777  1.00  0.00    -0.276 N 
ATOM     15  H   UNL A   1      29.521  25.779  23.783  1.00  0.00     0.165 HD
ATOM     16  H   UNL A   1      30.818  28.719  22.629  1.00  0.00     0.175 HD
BRANCH  14  17
ATOM     17  C   UNL A   1      29.188  29.931  22.428  1.00  0.00     0.230 A 
ATOM     18  N   UNL A   1      28.863  30.719  23.469  1.00  0.00    -0.221 NA
ATOM     19  N   UNL A   1      28.938  30.240  21.148  1.00  0.00    -0.221 NA
ATOM     20  C   UNL A   1      28.312  31.912  23.171  1.00  0.00     0.117 A 
ATOM     21  C   UNL A   1      28.358  31.428  20.905  1.00  0.00     0.117 A 
ATOM     22  C   UNL A   1      28.035  32.325  21.890  1.00  0.00     0.040 A 
ENDBRANCH  14  17
ENDBRANCH  10  11
ENDBRANCH   6  10
ENDBRANCH   3   5
ENDBRANCH   2   3
ENDBRANCH   1   2
BRANCH   1  23
ATOM     23  C   UNL A   1      32.536  33.126  26.952  1.00  0.00     0.275 C 
BRANCH  23  24
ATOM     24  O   UNL A   1      32.216  33.921  28.109  1.00  0.00    -0.458 OA
BRANCH  24  25
ATOM     25  C   UNL A   1      33.180  34.787  28.498  1.00  0.00     0.338 C 
ATOM     26  O   UNL A   1      33.125  36.003  28.539  1.00  0.00    -0.246 OA
BRANCH  25  27
ATOM     27  C   UNL A   1      34.325  34.030  29.021  1.00  0.00     0.060 A 
ATOM     28  C   UNL A   1      34.077  33.051  29.983  1.00  0.00     0.016 A 
ATOM     29  C   UNL A   1      35.630  34.328  28.627  1.00  0.00     0.016 A 
ATOM     30  C   UNL A   1      35.132  32.349  30.554  1.00  0.00     0.010 A 
ATOM     31  C   UNL A   1      36.692  33.619  29.198  1.00  0.00     0.010 A 
ATOM     32  C   UNL A   1      36.448  32.626  30.164  1.00  0.00    -0.014 A 
BRANCH  32  33
ATOM     33  C   UNL A   1      37.566  31.872  30.776  1.00  0.00     0.031 A 
ATOM     34  C   UNL A   1      38.031  32.204  32.162  1.00  0.00     0.074 A 
ATOM     35  C   UNL A   1      38.146  30.873  30.085  1.00  0.00     0.049 A 
ATOM     36  N   UNL A   1      39.051  31.723  32.826  1.00  0.00    -0.248 NA
ATOM     37  C   UNL A   1      37.247  33.206  32.900  1.00  0.00     0.031 C 
ATOM     38  C   UNL A   1      37.744  30.421  28.752  1.00  0.00     0.029 A 
ATOM     39  N   UNL A   1      39.201  30.059  30.412  1.00  0.00    -0.354 N 
ATOM     40  C   UNL A   1      39.042  32.374  34.052  1.00  0.00     0.074 A 
ATOM     41  C   UNL A   1      37.924  33.293  34.037  1.00  0.00     0.031 C 
ATOM     42  C   UNL A   1      38.543  29.409  28.374  1.00  0.00     0.029 A 
ATOM     43  C   UNL A   1      39.543  29.182  29.413  1.00  0.00     0.049 A 
ATOM     44  H   UNL A   1      39.667  30.101  31.277  1.00  0.00     0.167 HD
ATOM     45  C   UNL A   1      39.893  32.220  35.095  1.00  0.00     0.031 A 
ATOM     46  C   UNL A   1      40.570  28.316  29.327  1.00  0.00     0.031 A 
ATOM     47  C   UNL A   1      41.008  31.310  35.104  1.00  0.00     0.049 A 
ATOM     48  C   UNL A   1      41.546  28.224  30.464  1.00  0.00     0.074 A 
ATOM     49  C   UNL A   1      41.931  31.086  36.111  1.00  0.00     0.029 A 
ATOM     50  N   UNL A   1      41.350  30.473  34.054  1.00  0.00    -0.354 N 
ATOM     51  N   UNL A   1      41.541  28.862  31.609  1.00  0.00    -0.248 NA
ATOM     52  C   UNL A   1      42.677  27.301  30.290  1.00  0.00     0.031 C 
ATOM     53  C   UNL A   1      42.856  30.142  35.652  1.00  0.00     0.029 A 
ATOM     54  C   UNL A   1      42.483  29.748  34.378  1.00  0.00     0.049 A 
ATOM     55  H   UNL A   1      40.859  30.404  33.203  1.00  0.00     0.167 HD
ATOM     56  C   UNL A   1      42.662  28.414  32.294  1.00  0.00     0.074 A 
ATOM     57  C   UNL A   1      43.310  27.433  31.447  1.00  0.00     0.031 C 
ATOM     58  C   UNL A   1      43.118  28.787  33.515  1.00  0.00     0.031 A 
BRANCH  45  59
ATOM     59  C   UNL A   1      39.671  33.085  36.301  1.00  0.00    -0.014 A 
ATOM     60  C   UNL A   1      40.277  34.345  36.414  1.00  0.00     0.009 A 
ATOM     61  C   UNL A   1      38.811  32.648  37.320  1.00  0.00     0.009 A 
ATOM     62  C   UNL A   1      40.045  35.141  37.539  1.00  0.00     0.001 A 
ATOM     63  C   UNL A   1      38.563  33.454  38.432  1.00  0.00     0.001 A 
ATOM     64  C   UNL A   1      39.185  34.697  38.544  1.00  0.00     0.000 A 
ENDBRANCH  45  59
BRANCH  46  65
ATOM     65  C   UNL A   1      40.759  27.511  28.094  1.00  0.00    -0.014 A 
ATOM     66  C   UNL A   1      41.506  28.009  27.018  1.00  0.00     0.009 A 
ATOM     67  C   UNL A   1      40.182  26.234  27.989  1.00  0.00     0.009 A 
ATOM     68  C   UNL A   1      41.658  27.251  25.854  1.00  0.00     0.001 A 
ATOM     69  C   UNL A   1      40.358  25.468  26.835  1.00  0.00     0.001 A 
ATOM     70  C   UNL A   1      41.089  25.981  25.766  1.00  0.00     0.000 A 
ENDBRANCH  46  65
BRANCH  58  71
ATOM     71  C   UNL A   1      44.370  28.120  34.003  1.00  0.00    -0.014 A 
ATOM     72  C   UNL A   1      45.631  28.689  33.763  1.00  0.00     0.009 A 
ATOM     73  C   UNL A   1      44.288  26.926  34.734  1.00  0.00     0.009 A 
ATOM     74  C   UNL A   1      46.788  28.058  34.221  1.00  0.00     0.001 A 
ATOM     75  C   UNL A   1      45.445  26.309  35.211  1.00  0.00     0.001 A 
ATOM     76  C   UNL A   1      46.693  26.870  34.948  1.00  0.00     0.000 A 
ENDBRANCH  58  71
ENDBRANCH  32  33
ENDBRANCH  25  27
ENDBRANCH  24  25
ENDBRANCH  23  24
ENDBRANCH   1  23
TORSDOF 14
ENDMDL
MODEL 3
REMARK VINA RESULT:     -10.6      0.669      6.090
REMARK SMILES O=C(NC[C@@H]1CC[C@H](C(=O)OCCOC(=O)c2ccc(-c3c4nc(c(-c5ccccc5)c5ccc([nH]5)c(-c5ccccc5)c5nc(c(-c6ccccc6)c6ccc3[nH]6)C=C5)C=C4)cc2)O1)Nc1ncccn1
REMARK SMILES IDX 12 1 11 2 9 3 10 4 8 5 5 6 6 7 65 8 7 9 4 10 3 11 1 12 2 13
REMARK SMILES IDX 66 14 67 17 68 18 72 19 69 20 71 21 70 22 13 23 14 24 15 25
REMARK SMILES IDX 16 26 17 27 18 28 64 29 19 30 63 31 20 32 21 33 22 34 57 35
REMARK SMILES IDX 23 36 62 37 56 38 58 39 24 40 61 41 55 42 54 43 25 45 47 46
REMARK SMILES IDX 32 47 46 48 33 49 36 50 45 51 59 52 34 53 35 54 44 56 60 57
REMARK SMILES IDX 37 58 26 59 27 60 31 61 28 62 30 63 29 64 48 65 49 66 53 67
REMARK SMILES IDX 50 68 52 69 51 70 38 71 39 72 43 73 40 74 42 75 41 76
REMARK H PARENT 3 15 66 16 58 44 36 55
REMARK Flexibility Score: inf
ROOT
ATOM      1  C   UNL A   1      38.498  20.316  25.103  1.00  0.00     0.274 C 
ENDROOT
BRANCH   1   2
ATOM      2  O   UNL A   1      37.990  21.631  25.402  1.00  0.00    -0.460 OA
BRANCH   2   3
ATOM      3  C   UNL A   1      36.640  21.727  25.525  1.00  0.00     0.335 C 
ATOM      4  O   UNL A   1      35.848  20.816  25.302  1.00  0.00    -0.249 OA
BRANCH   3   5
ATOM      5  C   UNL A   1      36.180  23.119  25.970  1.00  0.00     0.228 C 
ATOM      6  C   UNL A   1      33.921  23.581  26.336  1.00  0.00     0.138 C 
ATOM      7  C   UNL A   1      34.234  23.966  24.895  1.00  0.00     0.037 C 
ATOM      8  O   UNL A   1      35.105  23.008  26.906  1.00  0.00    -0.361 OA
ATOM      9  C   UNL A   1      35.738  24.079  24.879  1.00  0.00     0.047 C 
BRANCH   6  10
ATOM     10  C   UNL A   1      32.744  22.608  26.529  1.00  0.00     0.149 C 
BRANCH  10  11
ATOM     11  N   UNL A   1      32.323  21.973  25.286  1.00  0.00    -0.335 N 
ATOM     12  O   UNL A   1      32.131  20.550  23.628  1.00  0.00    -0.248 OA
ATOM     13  C   UNL A   1      32.464  20.713  24.799  1.00  0.00     0.321 C 
ATOM     14  N   UNL A   1      32.891  19.761  25.657  1.00  0.00    -0.276 N 
ATOM     15  H   UNL A   1      31.840  22.578  24.679  1.00  0.00     0.165 HD
ATOM     16  H   UNL A   1      33.084  20.032  26.583  1.00  0.00     0.175 HD
BRANCH  14  17
ATOM     17  C   UNL A   1      33.076  18.425  25.323  1.00  0.00     0.230 A 
ATOM     18  N   UNL A   1      34.160  18.185  24.567  1.00  0.00    -0.221 NA
ATOM     19  N   UNL A   1      32.241  17.473  25.762  1.00  0.00    -0.221 NA
ATOM     20  C   UNL A   1      34.434  16.891  24.302  1.00  0.00     0.117 A 
ATOM     21  C   UNL A   1      32.541  16.201  25.445  1.00  0.00     0.117 A 
ATOM     22  C   UNL A   1      33.650  15.845  24.722  1.00  0.00     0.040 A 
ENDBRANCH  14  17
ENDBRANCH  10  11
ENDBRANCH   6  10
ENDBRANCH   3   5
ENDBRANCH   2   3
ENDBRANCH   1   2
BRANCH   1  23
ATOM     23  C   UNL A   1      39.590  19.896  26.090  1.00  0.00     0.275 C 
BRANCH  23  24
ATOM     24  O   UNL A   1      40.662  19.186  25.442  1.00  0.00    -0.458 OA
BRANCH  24  25
ATOM     25  C   UNL A   1      41.823  19.136  26.135  1.00  0.00     0.338 C 
ATOM     26  O   UNL A   1      42.548  18.174  26.315  1.00  0.00    -0.246 OA
BRANCH  25  27
ATOM     27  C   UNL A   1      42.191  20.493  26.557  1.00  0.00     0.060 A 
ATOM     28  C   UNL A   1      42.571  21.405  25.571  1.00  0.00     0.016 A 
ATOM     29  C   UNL A   1      42.235  20.844  27.907  1.00  0.00     0.016 A 
ATOM     30  C   UNL A   1      42.987  22.683  25.924  1.00  0.00     0.010 A 
ATOM     31  C   UNL A   1      42.649  22.132  28.262  1.00  0.00     0.010 A 
ATOM     32  C   UNL A   1      43.027  23.057  27.272  1.00  0.00    -0.014 A 
BRANCH  32  33
ATOM     33  C   UNL A   1      43.470  24.422  27.639  1.00  0.00     0.031 A 
ATOM     34  C   UNL A   1      42.466  25.454  28.057  1.00  0.00     0.074 A 
ATOM     35  C   UNL A   1      44.782  24.721  27.614  1.00  0.00     0.049 A 
ATOM     36  N   UNL A   1      42.651  26.724  28.321  1.00  0.00    -0.248 NA
ATOM     37  C   UNL A   1      41.074  25.003  28.200  1.00  0.00     0.031 C 
ATOM     38  C   UNL A   1      45.857  23.784  27.279  1.00  0.00     0.029 A 
ATOM     39  N   UNL A   1      45.432  25.899  27.874  1.00  0.00    -0.354 N 
ATOM     40  C   UNL A   1      41.397  27.226  28.644  1.00  0.00     0.074 A 
ATOM     41  C   UNL A   1      40.458  26.129  28.534  1.00  0.00     0.031 C 
ATOM     42  C   UNL A   1      47.034  24.426  27.354  1.00  0.00     0.029 A 
ATOM     43  C   UNL A   1      46.791  25.826  27.688  1.00  0.00     0.049 A 
ATOM     44  H   UNL A   1      44.971  26.718  28.165  1.00  0.00     0.167 HD
ATOM     45  C   UNL A   1      41.062  28.489  29.000  1.00  0.00     0.031 A 
ATOM     46  C   UNL A   1      47.732  26.786  27.744  1.00  0.00     0.031 A 
ATOM     47  C   UNL A   1      41.996  29.578  29.103  1.00  0.00     0.049 A 
ATOM     48  C   UNL A   1      47.321  28.196  28.060  1.00  0.00     0.074 A 
ATOM     49  C   UNL A   1      41.752  30.895  29.451  1.00  0.00     0.029 A 
ATOM     50  N   UNL A   1      43.357  29.474  28.859  1.00  0.00    -0.354 N 
ATOM     51  N   UNL A   1      46.130  28.664  28.341  1.00  0.00    -0.248 NA
ATOM     52  C   UNL A   1      48.383  29.211  28.053  1.00  0.00     0.031 C 
ATOM     53  C   UNL A   1      42.960  31.598  29.376  1.00  0.00     0.029 A 
ATOM     54  C   UNL A   1      43.962  30.707  29.025  1.00  0.00     0.049 A 
ATOM     55  H   UNL A   1      43.824  28.645  28.606  1.00  0.00     0.167 HD
ATOM     56  C   UNL A   1      46.299  30.025  28.550  1.00  0.00     0.074 A 
ATOM     57  C   UNL A   1      47.712  30.304  28.388  1.00  0.00     0.031 C 
ATOM     58  C   UNL A   1      45.367  30.964  28.845  1.00  0.00     0.031 A 
BRANCH  45  59
ATOM     59  C   UNL A   1      39.612  28.769  29.266  1.00  0.00    -0.014 A 
ATOM     60  C   UNL A   1      39.066  28.620  30.551  1.00  0.00     0.009 A 
ATOM     61  C   UNL A   1      38.789  29.225  28.225  1.00  0.00     0.009 A 
ATOM     62  C   UNL A   1      37.716  28.900  30.780  1.00  0.00     0.001 A 
ATOM     63  C   UNL A   1      37.447  29.524  28.461  1.00  0.00     0.001 A 
ATOM     64  C   UNL A   1      36.910  29.356  29.737  1.00  0.00     0.000 A 
ENDBRANCH  45  59
BRANCH  46  65
ATOM     65  C   UNL A   1      49.146  26.457  27.437  1.00  0.00    -0.014 A 
ATOM     66  C   UNL A   1      50.031  26.069  28.453  1.00  0.00     0.009 A 
ATOM     67  C   UNL A   1      49.620  26.536  26.117  1.00  0.00     0.009 A 
ATOM     68  C   UNL A   1      51.366  25.783  28.156  1.00  0.00     0.001 A 
ATOM     69  C   UNL A   1      50.947  26.224  25.819  1.00  0.00     0.001 A 
ATOM     70  C   UNL A   1      51.821  25.855  26.840  1.00  0.00     0.000 A 
ENDBRANCH  46  65
BRANCH  58  71
ATOM     71  C   UNL A   1      45.854  32.372  29.019  1.00  0.00    -0.014 A 
ATOM     72  C   UNL A   1      46.298  32.833  30.269  1.00  0.00     0.009 A 
ATOM     73  C   UNL A   1      45.897  33.239  27.917  1.00  0.00     0.009 A 
ATOM     74  C   UNL A   1      46.747  34.145  30.416  1.00  0.00     0.001 A 
ATOM     75  C   UNL A   1      46.369  34.544  28.063  1.00  0.00     0.001 A 
ATOM     76  C   UNL A   1      46.786  34.998  29.312  1.00  0.00     0.000 A 
ENDBRANCH  58  71
ENDBRANCH  32  33
ENDBRANCH  25  27
ENDBRANCH  24  25
ENDBRANCH  23  24
ENDBRANCH   1  23
TORSDOF 14
ENDMDL
