MODEL 1
REMARK VINA RESULT:     -10.9      0.000      0.000
REMARK SMILES Cc1ccccc1NC(=O)C[NH+]1CCC(CC(=O)OCCOC(=O)c2ccc(-c3c4nc(c(-c5ccccc5)c5ccc([nH]5)c(-c5ccccc5)c5nc(c(-c6ccccc6)c6ccc3[nH]6)C=C5)C=C4)cc2)CC1
REMARK SMILES IDX 20 1 19 2 17 3 18 4 16 5 15 6 12 7 13 8 74 9 14 11 73 12
REMARK SMILES IDX 11 13 9 14 8 15 10 17 7 18 1 19 2 20 3 21 4 22 6 23 5 24
REMARK SMILES IDX 21 25 22 26 23 27 24 28 25 29 26 30 72 31 27 32 71 33 28 34
REMARK SMILES IDX 29 35 30 36 65 37 31 38 70 39 64 40 66 41 32 42 69 43 63 44
REMARK SMILES IDX 62 45 33 47 55 48 40 49 54 50 41 51 44 52 53 53 67 54 42 55
REMARK SMILES IDX 43 56 52 58 68 59 45 60 34 61 35 62 39 63 36 64 38 65 37 66
REMARK SMILES IDX 56 67 57 68 61 69 58 70 60 71 59 72 46 73 47 74 51 75 48 76
REMARK SMILES IDX 50 77 49 78
REMARK H PARENT 12 10 8 16 66 46 44 57
REMARK Flexibility Score: inf
ROOT
ATOM      1  C   UNL A   1      34.159  35.206  28.695  1.00  0.00     0.274 C 
ENDROOT
BRANCH   1   2
ATOM      2  O   UNL A   1      34.028  33.963  27.971  1.00  0.00    -0.462 OA
BRANCH   2   3
ATOM      3  C   UNL A   1      35.046  33.087  28.046  1.00  0.00     0.306 C 
ATOM      4  O   UNL A   1      36.185  33.344  27.683  1.00  0.00    -0.252 OA
BRANCH   3   5
ATOM      5  C   UNL A   1      34.613  31.747  28.609  1.00  0.00     0.126 C 
BRANCH   5   6
ATOM      6  C   UNL A   1      34.050  30.954  27.446  1.00  0.00     0.011 C 
ATOM      7  N   UNL A   1      32.793  28.828  25.972  1.00  0.00    -0.327 N 
ATOM      8  C   UNL A   1      34.222  28.780  26.292  1.00  0.00     0.262 C 
ATOM      9  C   UNL A   1      32.232  30.185  25.974  1.00  0.00     0.262 C 
ATOM     10  H   UNL A   1      32.293  28.368  26.732  1.00  0.00     0.348 HD
ATOM     11  C   UNL A   1      34.486  29.497  27.597  1.00  0.00     0.066 C 
ATOM     12  C   UNL A   1      32.543  30.997  27.243  1.00  0.00     0.066 C 
BRANCH   7  13
ATOM     13  C   UNL A   1      32.514  28.058  24.737  1.00  0.00     0.363 C 
BRANCH  13  14
ATOM     14  C   UNL A   1      32.575  28.853  23.421  1.00  0.00     0.279 C 
ATOM     15  N   UNL A   1      31.495  29.391  22.780  1.00  0.00    -0.321 N 
ATOM     16  H   UNL A   1      31.731  29.876  21.955  1.00  0.00     0.170 HD
ATOM     17  O   UNL A   1      33.681  29.095  22.912  1.00  0.00    -0.268 OA
BRANCH  15  18
ATOM     18  C   UNL A   1      30.117  29.395  23.056  1.00  0.00     0.044 A 
ATOM     19  C   UNL A   1      30.030  26.818  22.884  1.00  0.00     0.046 C 
ATOM     20  C   UNL A   1      29.398  28.181  22.997  1.00  0.00    -0.027 A 
ATOM     21  C   UNL A   1      27.991  28.219  23.054  1.00  0.00     0.005 A 
ATOM     22  C   UNL A   1      27.307  29.425  23.193  1.00  0.00     0.000 A 
ATOM     23  C   UNL A   1      29.417  30.574  23.329  1.00  0.00     0.026 A 
ATOM     24  C   UNL A   1      28.022  30.599  23.362  1.00  0.00     0.002 A 
ENDBRANCH  15  18
ENDBRANCH  13  14
ENDBRANCH   7  13
ENDBRANCH   5   6
ENDBRANCH   3   5
ENDBRANCH   2   3
ENDBRANCH   1   2
BRANCH   1  25
ATOM     25  C   UNL A   1      33.244  35.499  29.930  1.00  0.00     0.275 C 
BRANCH  25  26
ATOM     26  O   UNL A   1      33.431  34.816  31.208  1.00  0.00    -0.458 OA
BRANCH  26  27
ATOM     27  C   UNL A   1      34.277  35.279  32.186  1.00  0.00     0.338 C 
ATOM     28  O   UNL A   1      34.277  36.385  32.651  1.00  0.00    -0.246 OA
BRANCH  27  29
ATOM     29  C   UNL A   1      35.350  34.286  32.442  1.00  0.00     0.060 A 
ATOM     30  C   UNL A   1      35.343  33.379  33.517  1.00  0.00     0.016 A 
ATOM     31  C   UNL A   1      36.308  34.184  31.454  1.00  0.00     0.016 A 
ATOM     32  C   UNL A   1      36.265  32.320  33.522  1.00  0.00     0.010 A 
ATOM     33  C   UNL A   1      36.922  32.988  31.283  1.00  0.00     0.010 A 
ATOM     34  C   UNL A   1      37.021  32.117  32.368  1.00  0.00    -0.014 A 
BRANCH  34  35
ATOM     35  C   UNL A   1      38.187  31.273  32.189  1.00  0.00     0.031 A 
ATOM     36  C   UNL A   1      38.183  30.038  31.396  1.00  0.00     0.074 A 
ATOM     37  C   UNL A   1      39.320  31.969  32.472  1.00  0.00     0.049 A 
ATOM     38  N   UNL A   1      39.136  29.178  31.451  1.00  0.00    -0.248 NA
ATOM     39  C   UNL A   1      37.131  29.648  30.459  1.00  0.00     0.031 C 
ATOM     40  C   UNL A   1      40.683  31.818  31.997  1.00  0.00     0.029 A 
ATOM     41  N   UNL A   1      39.433  33.124  33.246  1.00  0.00    -0.354 N 
ATOM     42  C   UNL A   1      39.023  28.376  30.337  1.00  0.00     0.074 A 
ATOM     43  C   UNL A   1      37.685  28.590  29.846  1.00  0.00     0.031 C 
ATOM     44  C   UNL A   1      41.488  32.590  32.764  1.00  0.00     0.029 A 
ATOM     45  C   UNL A   1      40.674  33.131  33.845  1.00  0.00     0.049 A 
ATOM     46  H   UNL A   1      38.741  33.817  33.348  1.00  0.00     0.167 HD
ATOM     47  C   UNL A   1      40.146  27.777  29.849  1.00  0.00     0.031 A 
ATOM     48  C   UNL A   1      40.754  32.813  35.175  1.00  0.00     0.031 A 
ATOM     49  C   UNL A   1      41.323  28.212  30.606  1.00  0.00     0.049 A 
ATOM     50  C   UNL A   1      41.437  31.468  35.353  1.00  0.00     0.074 A 
ATOM     51  C   UNL A   1      42.323  29.132  30.339  1.00  0.00     0.029 A 
ATOM     52  N   UNL A   1      41.379  27.962  31.969  1.00  0.00    -0.354 N 
ATOM     53  N   UNL A   1      41.568  30.579  34.406  1.00  0.00    -0.248 NA
ATOM     54  C   UNL A   1      42.032  31.024  36.602  1.00  0.00     0.031 C 
ATOM     55  C   UNL A   1      42.977  29.439  31.569  1.00  0.00     0.029 A 
ATOM     56  C   UNL A   1      42.384  28.693  32.573  1.00  0.00     0.049 A 
ATOM     57  H   UNL A   1      40.780  27.343  32.446  1.00  0.00     0.167 HD
ATOM     58  C   UNL A   1      42.307  29.514  34.842  1.00  0.00     0.074 A 
ATOM     59  C   UNL A   1      42.536  29.828  36.243  1.00  0.00     0.031 C 
ATOM     60  C   UNL A   1      42.652  28.490  33.997  1.00  0.00     0.031 A 
BRANCH  47  61
ATOM     61  C   UNL A   1      40.262  27.016  28.549  1.00  0.00    -0.014 A 
ATOM     62  C   UNL A   1      39.612  25.770  28.427  1.00  0.00     0.009 A 
ATOM     63  C   UNL A   1      40.946  27.465  27.408  1.00  0.00     0.009 A 
ATOM     64  C   UNL A   1      39.674  24.998  27.259  1.00  0.00     0.001 A 
ATOM     65  C   UNL A   1      41.025  26.690  26.237  1.00  0.00     0.001 A 
ATOM     66  C   UNL A   1      40.391  25.454  26.165  1.00  0.00     0.000 A 
ENDBRANCH  47  61
BRANCH  48  67
ATOM     67  C   UNL A   1      39.576  33.320  35.972  1.00  0.00    -0.014 A 
ATOM     68  C   UNL A   1      38.586  32.382  36.351  1.00  0.00     0.009 A 
ATOM     69  C   UNL A   1      39.638  34.524  36.693  1.00  0.00     0.009 A 
ATOM     70  C   UNL A   1      37.793  32.576  37.491  1.00  0.00     0.001 A 
ATOM     71  C   UNL A   1      38.820  34.726  37.821  1.00  0.00     0.001 A 
ATOM     72  C   UNL A   1      37.931  33.737  38.243  1.00  0.00     0.000 A 
ENDBRANCH  48  67
BRANCH  60  73
ATOM     73  C   UNL A   1      43.275  27.159  34.377  1.00  0.00    -0.014 A 
ATOM     74  C   UNL A   1      42.574  26.026  34.786  1.00  0.00     0.009 A 
ATOM     75  C   UNL A   1      44.684  27.007  34.290  1.00  0.00     0.009 A 
ATOM     76  C   UNL A   1      43.220  24.803  35.017  1.00  0.00     0.001 A 
ATOM     77  C   UNL A   1      45.335  25.792  34.500  1.00  0.00     0.001 A 
ATOM     78  C   UNL A   1      44.595  24.681  34.855  1.00  0.00     0.000 A 
ENDBRANCH  60  73
ENDBRANCH  34  35
ENDBRANCH  27  29
ENDBRANCH  26  27
ENDBRANCH  25  26
ENDBRANCH   1  25
TORSDOF 15
ENDMDL
MODEL 2
REMARK VINA RESULT:     -10.9      1.722      2.730
REMARK SMILES Cc1ccccc1NC(=O)C[NH+]1CCC(CC(=O)OCCOC(=O)c2ccc(-c3c4nc(c(-c5ccccc5)c5ccc([nH]5)c(-c5ccccc5)c5nc(c(-c6ccccc6)c6ccc3[nH]6)C=C5)C=C4)cc2)CC1
REMARK SMILES IDX 20 1 19 2 17 3 18 4 16 5 15 6 12 7 13 8 74 9 14 11 73 12
REMARK SMILES IDX 11 13 9 14 8 15 10 17 7 18 1 19 2 20 3 21 4 22 6 23 5 24
REMARK SMILES IDX 21 25 22 26 23 27 24 28 25 29 26 30 72 31 27 32 71 33 28 34
REMARK SMILES IDX 29 35 30 36 65 37 31 38 70 39 64 40 66 41 32 42 69 43 63 44
REMARK SMILES IDX 62 45 33 47 55 48 40 49 54 50 41 51 44 52 53 53 67 54 42 55
REMARK SMILES IDX 43 56 52 58 68 59 45 60 34 61 35 62 39 63 36 64 38 65 37 66
REMARK SMILES IDX 56 67 57 68 61 69 58 70 60 71 59 72 46 73 47 74 51 75 48 76
REMARK SMILES IDX 50 77 49 78
REMARK H PARENT 12 10 8 16 66 46 44 57
REMARK Flexibility Score: inf
ROOT
ATOM      1  C   UNL A   1      33.134  35.090  29.496  1.00  0.00     0.274 C 
ENDROOT
BRANCH   1   2
ATOM      2  O   UNL A   1      34.399  34.514  29.105  1.00  0.00    -0.462 OA
BRANCH   2   3
ATOM      3  C   UNL A   1      34.584  33.202  29.333  1.00  0.00     0.306 C 
ATOM      4  O   UNL A   1      34.170  32.625  30.328  1.00  0.00    -0.252 OA
BRANCH   3   5
ATOM      5  C   UNL A   1      35.380  32.532  28.229  1.00  0.00     0.126 C 
BRANCH   5   6
ATOM      6  C   UNL A   1      34.760  31.164  28.019  1.00  0.00     0.011 C 
ATOM      7  N   UNL A   1      33.453  28.950  26.730  1.00  0.00    -0.327 N 
ATOM      8  C   UNL A   1      32.677  30.045  27.317  1.00  0.00     0.262 C 
ATOM      9  C   UNL A   1      34.801  28.811  27.297  1.00  0.00     0.262 C 
ATOM     10  H   UNL A   1      33.635  29.191  25.756  1.00  0.00     0.348 HD
ATOM     11  C   UNL A   1      33.459  31.338  27.238  1.00  0.00     0.066 C 
ATOM     12  C   UNL A   1      35.615  30.116  27.324  1.00  0.00     0.066 C 
BRANCH   7  13
ATOM     13  C   UNL A   1      32.663  27.697  26.730  1.00  0.00     0.363 C 
BRANCH  13  14
ATOM     14  C   UNL A   1      32.262  27.155  25.347  1.00  0.00     0.279 C 
ATOM     15  N   UNL A   1      32.543  25.899  24.887  1.00  0.00    -0.321 N 
ATOM     16  H   UNL A   1      32.197  25.727  23.981  1.00  0.00     0.170 HD
ATOM     17  O   UNL A   1      31.578  27.865  24.594  1.00  0.00    -0.268 OA
BRANCH  15  18
ATOM     18  C   UNL A   1      33.224  24.801  25.443  1.00  0.00     0.044 A 
ATOM     19  C   UNL A   1      31.028  23.899  26.464  1.00  0.00     0.046 C 
ATOM     20  C   UNL A   1      32.524  23.910  26.285  1.00  0.00    -0.027 A 
ATOM     21  C   UNL A   1      33.252  22.948  27.013  1.00  0.00     0.005 A 
ATOM     22  C   UNL A   1      34.636  22.849  26.895  1.00  0.00     0.000 A 
ATOM     23  C   UNL A   1      34.592  24.596  25.240  1.00  0.00     0.026 A 
ATOM     24  C   UNL A   1      35.302  23.652  25.984  1.00  0.00     0.002 A 
ENDBRANCH  15  18
ENDBRANCH  13  14
ENDBRANCH   7  13
ENDBRANCH   5   6
ENDBRANCH   3   5
ENDBRANCH   2   3
ENDBRANCH   1   2
BRANCH   1  25
ATOM     25  C   UNL A   1      32.993  35.825  30.870  1.00  0.00     0.275 C 
BRANCH  25  26
ATOM     26  O   UNL A   1      33.455  35.223  32.118  1.00  0.00    -0.458 OA
BRANCH  26  27
ATOM     27  C   UNL A   1      34.540  35.694  32.817  1.00  0.00     0.338 C 
ATOM     28  O   UNL A   1      34.756  36.842  33.092  1.00  0.00    -0.246 OA
BRANCH  27  29
ATOM     29  C   UNL A   1      35.536  34.609  33.003  1.00  0.00     0.060 A 
ATOM     30  C   UNL A   1      35.382  33.548  33.914  1.00  0.00     0.016 A 
ATOM     31  C   UNL A   1      36.579  34.605  32.100  1.00  0.00     0.016 A 
ATOM     32  C   UNL A   1      36.249  32.446  33.829  1.00  0.00     0.010 A 
ATOM     33  C   UNL A   1      37.149  33.415  31.793  1.00  0.00     0.010 A 
ATOM     34  C   UNL A   1      37.102  32.380  32.728  1.00  0.00    -0.014 A 
BRANCH  34  35
ATOM     35  C   UNL A   1      38.240  31.505  32.519  1.00  0.00     0.031 A 
ATOM     36  C   UNL A   1      38.182  30.274  31.722  1.00  0.00     0.074 A 
ATOM     37  C   UNL A   1      39.398  32.167  32.777  1.00  0.00     0.049 A 
ATOM     38  N   UNL A   1      39.111  29.387  31.751  1.00  0.00    -0.248 NA
ATOM     39  C   UNL A   1      37.098  29.917  30.808  1.00  0.00     0.031 C 
ATOM     40  C   UNL A   1      40.745  31.979  32.270  1.00  0.00     0.029 A 
ATOM     41  N   UNL A   1      39.562  33.315  33.553  1.00  0.00    -0.354 N 
ATOM     42  C   UNL A   1      38.950  28.593  30.638  1.00  0.00     0.074 A 
ATOM     43  C   UNL A   1      37.607  28.846  30.179  1.00  0.00     0.031 C 
ATOM     44  C   UNL A   1      41.589  32.725  33.021  1.00  0.00     0.029 A 
ATOM     45  C   UNL A   1      40.816  33.285  34.123  1.00  0.00     0.049 A 
ATOM     46  H   UNL A   1      38.893  34.027  33.674  1.00  0.00     0.167 HD
ATOM     47  C   UNL A   1      40.043  27.964  30.121  1.00  0.00     0.031 A 
ATOM     48  C   UNL A   1      40.919  32.959  35.449  1.00  0.00     0.031 A 
ATOM     49  C   UNL A   1      41.249  28.362  30.852  1.00  0.00     0.049 A 
ATOM     50  C   UNL A   1      41.567  31.594  35.606  1.00  0.00     0.074 A 
ATOM     51  C   UNL A   1      42.269  29.255  30.565  1.00  0.00     0.029 A 
ATOM     52  N   UNL A   1      41.330  28.105  32.212  1.00  0.00    -0.354 N 
ATOM     53  N   UNL A   1      41.651  30.706  34.654  1.00  0.00    -0.248 NA
ATOM     54  C   UNL A   1      42.178  31.128  36.840  1.00  0.00     0.031 C 
ATOM     55  C   UNL A   1      42.959  29.538  31.780  1.00  0.00     0.029 A 
ATOM     56  C   UNL A   1      42.369  28.805  32.795  1.00  0.00     0.049 A 
ATOM     57  H   UNL A   1      40.726  27.501  32.701  1.00  0.00     0.167 HD
ATOM     58  C   UNL A   1      42.369  29.618  35.068  1.00  0.00     0.074 A 
ATOM     59  C   UNL A   1      42.639  29.920  36.465  1.00  0.00     0.031 C 
ATOM     60  C   UNL A   1      42.665  28.589  34.211  1.00  0.00     0.031 A 
BRANCH  47  61
ATOM     61  C   UNL A   1      40.107  27.205  28.817  1.00  0.00    -0.014 A 
ATOM     62  C   UNL A   1      39.489  25.940  28.731  1.00  0.00     0.009 A 
ATOM     63  C   UNL A   1      40.710  27.674  27.638  1.00  0.00     0.009 A 
ATOM     64  C   UNL A   1      39.508  25.170  27.561  1.00  0.00     0.001 A 
ATOM     65  C   UNL A   1      40.745  26.900  26.464  1.00  0.00     0.001 A 
ATOM     66  C   UNL A   1      40.146  25.646  26.428  1.00  0.00     0.000 A 
ENDBRANCH  47  61
BRANCH  48  67
ATOM     67  C   UNL A   1      39.775  33.495  36.276  1.00  0.00    -0.014 A 
ATOM     68  C   UNL A   1      38.742  32.595  36.634  1.00  0.00     0.009 A 
ATOM     69  C   UNL A   1      39.902  34.670  37.036  1.00  0.00     0.009 A 
ATOM     70  C   UNL A   1      37.970  32.789  37.788  1.00  0.00     0.001 A 
ATOM     71  C   UNL A   1      39.106  34.873  38.179  1.00  0.00     0.001 A 
ATOM     72  C   UNL A   1      38.172  33.916  38.577  1.00  0.00     0.000 A 
ENDBRANCH  48  67
BRANCH  60  73
ATOM     73  C   UNL A   1      43.258  27.239  34.572  1.00  0.00    -0.014 A 
ATOM     74  C   UNL A   1      42.553  26.162  35.105  1.00  0.00     0.009 A 
ATOM     75  C   UNL A   1      44.638  27.006  34.332  1.00  0.00     0.009 A 
ATOM     76  C   UNL A   1      43.158  24.913  35.310  1.00  0.00     0.001 A 
ATOM     77  C   UNL A   1      45.246  25.764  34.515  1.00  0.00     0.001 A 
ATOM     78  C   UNL A   1      44.496  24.709  34.997  1.00  0.00     0.000 A 
ENDBRANCH  60  73
ENDBRANCH  34  35
ENDBRANCH  27  29
ENDBRANCH  26  27
ENDBRANCH  25  26
ENDBRANCH   1  25
TORSDOF 15
ENDMDL
MODEL 3
REMARK VINA RESULT:     -10.6      3.466      5.859
REMARK SMILES Cc1ccccc1NC(=O)C[NH+]1CCC(CC(=O)OCCOC(=O)c2ccc(-c3c4nc(c(-c5ccccc5)c5ccc([nH]5)c(-c5ccccc5)c5nc(c(-c6ccccc6)c6ccc3[nH]6)C=C5)C=C4)cc2)CC1
REMARK SMILES IDX 20 1 19 2 17 3 18 4 16 5 15 6 12 7 13 8 74 9 14 11 73 12
REMARK SMILES IDX 11 13 9 14 8 15 10 17 7 18 1 19 2 20 3 21 4 22 6 23 5 24
REMARK SMILES IDX 21 25 22 26 23 27 24 28 25 29 26 30 72 31 27 32 71 33 28 34
REMARK SMILES IDX 29 35 30 36 65 37 31 38 70 39 64 40 66 41 32 42 69 43 63 44
REMARK SMILES IDX 62 45 33 47 55 48 40 49 54 50 41 51 44 52 53 53 67 54 42 55
REMARK SMILES IDX 43 56 52 58 68 59 45 60 34 61 35 62 39 63 36 64 38 65 37 66
REMARK SMILES IDX 56 67 57 68 61 69 58 70 60 71 59 72 46 73 47 74 51 75 48 76
REMARK SMILES IDX 50 77 49 78
REMARK H PARENT 12 10 8 16 66 46 44 57
REMARK Flexibility Score: inf
ROOT
ATOM      1  C   UNL A   1      31.802  29.592  26.538  1.00  0.00     0.274 C 
ENDROOT
BRANCH   1   2
ATOM      2  O   UNL A   1      31.684  28.187  26.228  1.00  0.00    -0.462 OA
BRANCH   2   3
ATOM      3  C   UNL A   1      31.583  27.840  24.933  1.00  0.00     0.306 C 
ATOM      4  O   UNL A   1      30.588  28.048  24.255  1.00  0.00    -0.252 OA
BRANCH   3   5
ATOM      5  C   UNL A   1      32.832  27.145  24.424  1.00  0.00     0.126 C 
BRANCH   5   6
ATOM      6  C   UNL A   1      32.475  25.679  24.268  1.00  0.00     0.011 C 
ATOM      7  N   UNL A   1      32.690  22.812  24.362  1.00  0.00    -0.327 N 
ATOM      8  C   UNL A   1      33.248  23.573  23.241  1.00  0.00     0.262 C 
ATOM      9  C   UNL A   1      31.621  23.517  25.081  1.00  0.00     0.262 C 
ATOM     10  H   UNL A   1      33.423  22.721  25.066  1.00  0.00     0.348 HD
ATOM     11  C   UNL A   1      33.691  24.941  23.711  1.00  0.00     0.066 C 
ATOM     12  C   UNL A   1      31.983  24.950  25.509  1.00  0.00     0.066 C 
BRANCH   7  13
ATOM     13  C   UNL A   1      32.328  21.443  23.929  1.00  0.00     0.363 C 
BRANCH  13  14
ATOM     14  C   UNL A   1      32.868  20.296  24.801  1.00  0.00     0.279 C 
ATOM     15  N   UNL A   1      34.072  20.304  25.448  1.00  0.00    -0.321 N 
ATOM     16  H   UNL A   1      34.242  19.486  25.968  1.00  0.00     0.170 HD
ATOM     17  O   UNL A   1      32.153  19.302  25.003  1.00  0.00    -0.268 OA
BRANCH  15  18
ATOM     18  C   UNL A   1      35.116  21.243  25.523  1.00  0.00     0.044 A 
ATOM     19  C   UNL A   1      34.062  22.314  27.625  1.00  0.00     0.046 C 
ATOM     20  C   UNL A   1      35.054  22.268  26.492  1.00  0.00    -0.027 A 
ATOM     21  C   UNL A   1      35.979  23.328  26.422  1.00  0.00     0.005 A 
ATOM     22  C   UNL A   1      36.961  23.365  25.434  1.00  0.00     0.000 A 
ATOM     23  C   UNL A   1      36.189  21.233  24.626  1.00  0.00     0.026 A 
ATOM     24  C   UNL A   1      37.085  22.301  24.556  1.00  0.00     0.002 A 
ENDBRANCH  15  18
ENDBRANCH  13  14
ENDBRANCH   7  13
ENDBRANCH   5   6
ENDBRANCH   3   5
ENDBRANCH   2   3
ENDBRANCH   1   2
BRANCH   1  25
ATOM     25  C   UNL A   1      33.206  30.284  26.545  1.00  0.00     0.275 C 
BRANCH  25  26
ATOM     26  O   UNL A   1      34.109  30.183  27.689  1.00  0.00    -0.458 OA
BRANCH  26  27
ATOM     27  C   UNL A   1      35.080  31.118  27.958  1.00  0.00     0.338 C 
ATOM     28  O   UNL A   1      35.058  32.270  27.625  1.00  0.00    -0.246 OA
BRANCH  27  29
ATOM     29  C   UNL A   1      36.277  30.456  28.534  1.00  0.00     0.060 A 
ATOM     30  C   UNL A   1      36.278  29.752  29.751  1.00  0.00     0.016 A 
ATOM     31  C   UNL A   1      37.387  30.429  27.715  1.00  0.00     0.016 A 
ATOM     32  C   UNL A   1      37.386  28.953  30.076  1.00  0.00     0.010 A 
ATOM     33  C   UNL A   1      38.256  29.399  27.854  1.00  0.00     0.010 A 
ATOM     34  C   UNL A   1      38.350  28.755  29.088  1.00  0.00    -0.014 A 
BRANCH  34  35
ATOM     35  C   UNL A   1      39.680  28.191  29.224  1.00  0.00     0.031 A 
ATOM     36  C   UNL A   1      40.060  26.872  28.705  1.00  0.00     0.074 A 
ATOM     37  C   UNL A   1      40.583  29.172  29.491  1.00  0.00     0.049 A 
ATOM     38  N   UNL A   1      41.150  26.283  29.046  1.00  0.00    -0.248 NA
ATOM     39  C   UNL A   1      39.277  26.091  27.749  1.00  0.00     0.031 C 
ATOM     40  C   UNL A   1      42.006  29.265  29.222  1.00  0.00     0.029 A 
ATOM     41  N   UNL A   1      40.327  30.436  30.022  1.00  0.00    -0.354 N 
ATOM     42  C   UNL A   1      41.387  25.297  28.114  1.00  0.00     0.074 A 
ATOM     43  C   UNL A   1      40.131  25.103  27.435  1.00  0.00     0.031 C 
ATOM     44  C   UNL A   1      42.498  30.324  29.905  1.00  0.00     0.029 A 
ATOM     45  C   UNL A   1      41.426  30.837  30.749  1.00  0.00     0.049 A 
ATOM     46  H   UNL A   1      39.499  30.954  29.898  1.00  0.00     0.167 HD
ATOM     47  C   UNL A   1      42.673  24.904  27.895  1.00  0.00     0.031 A 
ATOM     48  C   UNL A   1      41.356  30.781  32.116  1.00  0.00     0.031 A 
ATOM     49  C   UNL A   1      43.596  25.726  28.681  1.00  0.00     0.049 A 
ATOM     50  C   UNL A   1      42.265  29.685  32.644  1.00  0.00     0.074 A 
ATOM     51  C   UNL A   1      44.413  26.796  28.352  1.00  0.00     0.029 A 
ATOM     52  N   UNL A   1      43.483  25.735  30.063  1.00  0.00    -0.354 N 
ATOM     53  N   UNL A   1      42.729  28.703  31.921  1.00  0.00    -0.248 NA
ATOM     54  C   UNL A   1      42.730  29.614  34.019  1.00  0.00     0.031 C 
ATOM     55  C   UNL A   1      44.782  27.453  29.562  1.00  0.00     0.029 A 
ATOM     56  C   UNL A   1      44.203  26.774  30.620  1.00  0.00     0.049 A 
ATOM     57  H   UNL A   1      42.957  25.084  30.582  1.00  0.00     0.167 HD
ATOM     58  C   UNL A   1      43.593  27.931  32.648  1.00  0.00     0.074 A 
ATOM     59  C   UNL A   1      43.523  28.527  33.974  1.00  0.00     0.031 C 
ATOM     60  C   UNL A   1      44.275  26.888  32.077  1.00  0.00     0.031 A 
BRANCH  47  61
ATOM     61  C   UNL A   1      43.153  23.979  26.801  1.00  0.00    -0.014 A 
ATOM     62  C   UNL A   1      42.981  22.587  26.958  1.00  0.00     0.009 A 
ATOM     63  C   UNL A   1      43.735  24.392  25.591  1.00  0.00     0.009 A 
ATOM     64  C   UNL A   1      43.403  21.662  25.994  1.00  0.00     0.001 A 
ATOM     65  C   UNL A   1      44.174  23.468  24.625  1.00  0.00     0.001 A 
ATOM     66  C   UNL A   1      44.010  22.103  24.830  1.00  0.00     0.000 A 
ENDBRANCH  47  61
BRANCH  48  67
ATOM     67  C   UNL A   1      39.986  31.126  32.648  1.00  0.00    -0.014 A 
ATOM     68  C   UNL A   1      39.188  30.069  33.149  1.00  0.00     0.009 A 
ATOM     69  C   UNL A   1      39.660  32.431  33.055  1.00  0.00     0.009 A 
ATOM     70  C   UNL A   1      38.207  30.292  34.125  1.00  0.00     0.001 A 
ATOM     71  C   UNL A   1      38.655  32.653  34.015  1.00  0.00     0.001 A 
ATOM     72  C   UNL A   1      37.960  31.583  34.579  1.00  0.00     0.000 A 
ENDBRANCH  48  67
BRANCH  60  73
ATOM     73  C   UNL A   1      45.091  25.826  32.791  1.00  0.00    -0.014 A 
ATOM     74  C   UNL A   1      46.483  25.785  32.858  1.00  0.00     0.009 A 
ATOM     75  C   UNL A   1      44.416  24.789  33.487  1.00  0.00     0.009 A 
ATOM     76  C   UNL A   1      47.155  24.826  33.629  1.00  0.00     0.001 A 
ATOM     77  C   UNL A   1      45.073  23.842  34.271  1.00  0.00     0.001 A 
ATOM     78  C   UNL A   1      46.452  23.869  34.351  1.00  0.00     0.000 A 
ENDBRANCH  60  73
ENDBRANCH  34  35
ENDBRANCH  27  29
ENDBRANCH  26  27
ENDBRANCH  25  26
ENDBRANCH   1  25
TORSDOF 15
ENDMDL
