MODEL 1
REMARK VINA RESULT:     -11.6      0.000      0.000
REMARK SMILES CC(=O)Nc1ccc(/C(=C\c2ccc(S(C)(=O)=O)cc2)C(=O)OCCOC(=O)c2ccc(-c3c4nc(c(-c5ccccc5)c5ccc([nH]5)c(-c5ccccc5)c5nc(c(-c6ccccc6)c6ccc3[nH]6)C=C5)C=C4)cc2)cc1
REMARK SMILES IDX 24 1 23 2 21 3 22 4 9 5 10 6 8 7 5 8 6 9 78 10 7 11 77 12
REMARK SMILES IDX 4 13 1 14 2 15 3 16 11 18 12 19 20 20 13 21 19 22 14 23
REMARK SMILES IDX 15 24 16 25 17 26 18 27 25 28 26 29 27 30 28 31 29 32 30 33
REMARK SMILES IDX 76 34 31 35 75 36 32 37 33 38 34 39 69 40 35 41 74 42 68 43
REMARK SMILES IDX 70 44 36 45 73 46 67 47 66 48 37 50 59 51 44 52 58 53 45 54
REMARK SMILES IDX 48 55 57 56 71 57 46 58 47 59 56 61 72 62 49 63 38 64 39 65
REMARK SMILES IDX 43 66 40 67 42 68 41 69 60 70 61 71 65 72 62 73 64 74 63 75
REMARK SMILES IDX 50 76 51 77 55 78 52 79 54 80 53 81
REMARK H PARENT 4 17 70 49 48 60
REMARK Flexibility Score: inf
ROOT
ATOM      1  C   UNL A   1      34.525  23.414  25.211  1.00  0.00     0.275 C 
ENDROOT
BRANCH   1   2
ATOM      2  O   UNL A   1      33.111  23.120  25.202  1.00  0.00    -0.458 OA
BRANCH   2   3
ATOM      3  C   UNL A   1      32.313  23.824  26.057  1.00  0.00     0.338 C 
ATOM      4  O   UNL A   1      31.986  23.439  27.169  1.00  0.00    -0.246 OA
BRANCH   3   5
ATOM      5  C   UNL A   1      31.879  25.154  25.459  1.00  0.00     0.067 C 
ATOM      6  C   UNL A   1      31.028  25.007  24.404  1.00  0.00     0.024 C 
BRANCH   5   7
ATOM      7  C   UNL A   1      32.397  26.462  26.044  1.00  0.00    -0.011 A 
ATOM      8  C   UNL A   1      33.145  29.148  26.722  1.00  0.00     0.041 A 
ATOM      9  C   UNL A   1      31.998  28.592  27.245  1.00  0.00     0.027 A 
ATOM     10  C   UNL A   1      34.010  28.330  26.014  1.00  0.00     0.027 A 
ATOM     11  C   UNL A   1      31.662  27.266  26.932  1.00  0.00     0.011 A 
ATOM     12  C   UNL A   1      33.639  27.009  25.673  1.00  0.00     0.011 A 
BRANCH   8  13
ATOM     13  N   UNL A   1      33.464  30.474  27.027  1.00  0.00    -0.326 N 
ATOM     14  C   UNL A   1      35.523  29.952  28.325  1.00  0.00     0.114 C 
ATOM     15  C   UNL A   1      34.598  30.927  27.653  1.00  0.00     0.221 C 
ATOM     16  O   UNL A   1      34.850  32.133  27.636  1.00  0.00    -0.275 OA
ATOM     17  H   UNL A   1      32.804  31.156  26.766  1.00  0.00     0.169 HD
ENDBRANCH   8  13
ENDBRANCH   5   7
BRANCH   6  18
ATOM     18  C   UNL A   1      30.347  26.053  23.633  1.00  0.00    -0.025 A 
ATOM     19  C   UNL A   1      28.992  26.291  23.911  1.00  0.00     0.009 A 
ATOM     20  C   UNL A   1      31.060  26.934  22.806  1.00  0.00     0.009 A 
ATOM     21  C   UNL A   1      28.399  27.486  23.506  1.00  0.00     0.021 A 
ATOM     22  C   UNL A   1      30.471  28.137  22.406  1.00  0.00     0.021 A 
ATOM     23  C   UNL A   1      29.158  28.425  22.802  1.00  0.00     0.067 A 
BRANCH  23  24
ATOM     24  S   UNL A   1      28.533  30.086  22.662  1.00  0.00     0.175 S 
ATOM     25  C   UNL A   1      29.485  31.012  23.827  1.00  0.00     0.163 C 
ATOM     26  O   UNL A   1      28.869  30.550  21.329  1.00  0.00    -0.224 OA
ATOM     27  O   UNL A   1      27.153  30.073  23.111  1.00  0.00    -0.224 OA
ENDBRANCH  23  24
ENDBRANCH   6  18
ENDBRANCH   3   5
ENDBRANCH   2   3
ENDBRANCH   1   2
BRANCH   1  28
ATOM     28  C   UNL A   1      35.352  22.139  25.033  1.00  0.00     0.275 C 
BRANCH  28  29
ATOM     29  O   UNL A   1      36.311  22.012  26.099  1.00  0.00    -0.458 OA
BRANCH  29  30
ATOM     30  C   UNL A   1      37.578  21.755  25.685  1.00  0.00     0.338 C 
ATOM     31  O   UNL A   1      37.928  20.980  24.822  1.00  0.00    -0.246 OA
BRANCH  30  32
ATOM     32  C   UNL A   1      38.489  22.751  26.283  1.00  0.00     0.060 A 
ATOM     33  C   UNL A   1      38.112  24.078  26.126  1.00  0.00     0.016 A 
ATOM     34  C   UNL A   1      39.671  22.432  26.961  1.00  0.00     0.016 A 
ATOM     35  C   UNL A   1      38.896  25.083  26.677  1.00  0.00     0.010 A 
ATOM     36  C   UNL A   1      40.469  23.460  27.501  1.00  0.00     0.010 A 
ATOM     37  C   UNL A   1      40.076  24.800  27.375  1.00  0.00    -0.014 A 
BRANCH  37  38
ATOM     38  C   UNL A   1      40.866  25.957  27.883  1.00  0.00     0.031 A 
ATOM     39  C   UNL A   1      42.244  26.212  27.336  1.00  0.00     0.074 A 
ATOM     40  C   UNL A   1      40.279  26.916  28.629  1.00  0.00     0.049 A 
ATOM     41  N   UNL A   1      43.008  27.267  27.479  1.00  0.00    -0.248 NA
ATOM     42  C   UNL A   1      42.812  25.162  26.481  1.00  0.00     0.031 C 
ATOM     43  C   UNL A   1      38.905  26.879  29.123  1.00  0.00     0.029 A 
ATOM     44  N   UNL A   1      40.748  28.146  29.035  1.00  0.00    -0.354 N 
ATOM     45  C   UNL A   1      44.137  27.021  26.710  1.00  0.00     0.074 A 
ATOM     46  C   UNL A   1      43.965  25.708  26.121  1.00  0.00     0.031 C 
ATOM     47  C   UNL A   1      38.621  28.055  29.711  1.00  0.00     0.029 A 
ATOM     48  C   UNL A   1      39.810  28.907  29.693  1.00  0.00     0.049 A 
ATOM     49  H   UNL A   1      41.669  28.451  28.869  1.00  0.00     0.167 HD
ATOM     50  C   UNL A   1      45.221  27.809  26.507  1.00  0.00     0.031 A 
ATOM     51  C   UNL A   1      39.894  30.143  30.228  1.00  0.00     0.031 A 
ATOM     52  C   UNL A   1      45.444  29.092  27.118  1.00  0.00     0.049 A 
ATOM     53  C   UNL A   1      41.190  30.912  30.148  1.00  0.00     0.074 A 
ATOM     54  C   UNL A   1      46.562  29.906  27.029  1.00  0.00     0.029 A 
ATOM     55  N   UNL A   1      44.541  29.751  27.935  1.00  0.00    -0.354 N 
ATOM     56  N   UNL A   1      42.279  30.636  29.473  1.00  0.00    -0.248 NA
ATOM     57  C   UNL A   1      41.269  32.160  30.925  1.00  0.00     0.031 C 
ATOM     58  C   UNL A   1      46.364  31.022  27.851  1.00  0.00     0.029 A 
ATOM     59  C   UNL A   1      45.096  30.934  28.399  1.00  0.00     0.049 A 
ATOM     60  H   UNL A   1      43.637  29.426  28.156  1.00  0.00     0.167 HD
ATOM     61  C   UNL A   1      43.158  31.683  29.728  1.00  0.00     0.074 A 
ATOM     62  C   UNL A   1      42.469  32.612  30.596  1.00  0.00     0.031 C 
ATOM     63  C   UNL A   1      44.428  31.853  29.283  1.00  0.00     0.031 A 
BRANCH  50  64
ATOM     64  C   UNL A   1      46.301  27.260  25.621  1.00  0.00    -0.014 A 
ATOM     65  C   UNL A   1      47.096  26.178  26.027  1.00  0.00     0.009 A 
ATOM     66  C   UNL A   1      46.501  27.818  24.349  1.00  0.00     0.009 A 
ATOM     67  C   UNL A   1      48.089  25.680  25.181  1.00  0.00     0.001 A 
ATOM     68  C   UNL A   1      47.479  27.304  23.498  1.00  0.00     0.001 A 
ATOM     69  C   UNL A   1      48.278  26.241  23.917  1.00  0.00     0.000 A 
ENDBRANCH  50  64
BRANCH  51  70
ATOM     70  C   UNL A   1      38.743  30.729  30.973  1.00  0.00    -0.014 A 
ATOM     71  C   UNL A   1      38.413  30.291  32.265  1.00  0.00     0.009 A 
ATOM     72  C   UNL A   1      37.909  31.671  30.348  1.00  0.00     0.009 A 
ATOM     73  C   UNL A   1      37.257  30.757  32.899  1.00  0.00     0.001 A 
ATOM     74  C   UNL A   1      36.776  32.163  30.997  1.00  0.00     0.001 A 
ATOM     75  C   UNL A   1      36.443  31.695  32.266  1.00  0.00     0.000 A 
ENDBRANCH  51  70
BRANCH  63  76
ATOM     76  C   UNL A   1      45.163  33.089  29.732  1.00  0.00    -0.014 A 
ATOM     77  C   UNL A   1      45.086  34.287  29.002  1.00  0.00     0.009 A 
ATOM     78  C   UNL A   1      45.928  33.066  30.909  1.00  0.00     0.009 A 
ATOM     79  C   UNL A   1      45.792  35.420  29.417  1.00  0.00     0.001 A 
ATOM     80  C   UNL A   1      46.606  34.210  31.339  1.00  0.00     0.001 A 
ATOM     81  C   UNL A   1      46.548  35.381  30.588  1.00  0.00     0.000 A 
ENDBRANCH  63  76
ENDBRANCH  37  38
ENDBRANCH  30  32
ENDBRANCH  29  30
ENDBRANCH  28  29
ENDBRANCH   1  28
TORSDOF 15
ENDMDL
MODEL 2
REMARK VINA RESULT:     -11.5      0.774      5.817
REMARK SMILES CC(=O)Nc1ccc(/C(=C\c2ccc(S(C)(=O)=O)cc2)C(=O)OCCOC(=O)c2ccc(-c3c4nc(c(-c5ccccc5)c5ccc([nH]5)c(-c5ccccc5)c5nc(c(-c6ccccc6)c6ccc3[nH]6)C=C5)C=C4)cc2)cc1
REMARK SMILES IDX 24 1 23 2 21 3 22 4 9 5 10 6 8 7 5 8 6 9 78 10 7 11 77 12
REMARK SMILES IDX 4 13 1 14 2 15 3 16 11 18 12 19 20 20 13 21 19 22 14 23
REMARK SMILES IDX 15 24 16 25 17 26 18 27 25 28 26 29 27 30 28 31 29 32 30 33
REMARK SMILES IDX 76 34 31 35 75 36 32 37 33 38 34 39 69 40 35 41 74 42 68 43
REMARK SMILES IDX 70 44 36 45 73 46 67 47 66 48 37 50 59 51 44 52 58 53 45 54
REMARK SMILES IDX 48 55 57 56 71 57 46 58 47 59 56 61 72 62 49 63 38 64 39 65
REMARK SMILES IDX 43 66 40 67 42 68 41 69 60 70 61 71 65 72 62 73 64 74 63 75
REMARK SMILES IDX 50 76 51 77 55 78 52 79 54 80 53 81
REMARK H PARENT 4 17 70 49 48 60
REMARK Flexibility Score: inf
ROOT
ATOM      1  C   UNL A   1      33.796  22.055  25.853  1.00  0.00     0.275 C 
ENDROOT
BRANCH   1   2
ATOM      2  O   UNL A   1      33.044  23.172  25.329  1.00  0.00    -0.458 OA
BRANCH   2   3
ATOM      3  C   UNL A   1      32.222  23.839  26.190  1.00  0.00     0.338 C 
ATOM      4  O   UNL A   1      31.866  23.408  27.277  1.00  0.00    -0.246 OA
BRANCH   3   5
ATOM      5  C   UNL A   1      31.799  25.191  25.636  1.00  0.00     0.067 C 
ATOM      6  C   UNL A   1      30.980  25.084  24.550  1.00  0.00     0.024 C 
BRANCH   5   7
ATOM      7  C   UNL A   1      32.292  26.475  26.290  1.00  0.00    -0.011 A 
ATOM      8  C   UNL A   1      33.080  29.124  27.065  1.00  0.00     0.041 A 
ATOM      9  C   UNL A   1      31.830  28.645  27.394  1.00  0.00     0.027 A 
ATOM     10  C   UNL A   1      33.999  28.244  26.516  1.00  0.00     0.027 A 
ATOM     11  C   UNL A   1      31.471  27.337  27.038  1.00  0.00     0.011 A 
ATOM     12  C   UNL A   1      33.609  26.942  26.127  1.00  0.00     0.011 A 
BRANCH   8  13
ATOM     13  N   UNL A   1      33.425  30.433  27.410  1.00  0.00    -0.326 N 
ATOM     14  C   UNL A   1      35.823  29.956  27.874  1.00  0.00     0.114 C 
ATOM     15  C   UNL A   1      34.683  30.913  27.675  1.00  0.00     0.221 C 
ATOM     16  O   UNL A   1      34.860  32.131  27.727  1.00  0.00    -0.275 OA
ATOM     17  H   UNL A   1      32.686  31.080  27.471  1.00  0.00     0.169 HD
ENDBRANCH   8  13
ENDBRANCH   5   7
BRANCH   6  18
ATOM     18  C   UNL A   1      30.317  26.160  23.803  1.00  0.00    -0.025 A 
ATOM     19  C   UNL A   1      28.926  26.282  23.933  1.00  0.00     0.009 A 
ATOM     20  C   UNL A   1      31.054  27.163  23.157  1.00  0.00     0.009 A 
ATOM     21  C   UNL A   1      28.295  27.471  23.572  1.00  0.00     0.021 A 
ATOM     22  C   UNL A   1      30.427  28.362  22.803  1.00  0.00     0.021 A 
ATOM     23  C   UNL A   1      29.059  28.524  23.059  1.00  0.00     0.067 A 
BRANCH  23  24
ATOM     24  S   UNL A   1      28.331  30.148  23.000  1.00  0.00     0.175 S 
ATOM     25  C   UNL A   1      28.378  30.587  21.289  1.00  0.00     0.163 C 
ATOM     26  O   UNL A   1      26.942  29.999  23.394  1.00  0.00    -0.224 OA
ATOM     27  O   UNL A   1      29.209  31.048  23.724  1.00  0.00    -0.224 OA
ENDBRANCH  23  24
ENDBRANCH   6  18
ENDBRANCH   3   5
ENDBRANCH   2   3
ENDBRANCH   1   2
BRANCH   1  28
ATOM     28  C   UNL A   1      35.186  21.983  25.216  1.00  0.00     0.275 C 
BRANCH  28  29
ATOM     29  O   UNL A   1      36.178  21.686  26.216  1.00  0.00    -0.458 OA
BRANCH  29  30
ATOM     30  C   UNL A   1      37.411  21.409  25.716  1.00  0.00     0.338 C 
ATOM     31  O   UNL A   1      37.714  20.512  24.960  1.00  0.00    -0.246 OA
BRANCH  30  32
ATOM     32  C   UNL A   1      38.322  22.524  26.043  1.00  0.00     0.060 A 
ATOM     33  C   UNL A   1      37.888  23.785  25.656  1.00  0.00     0.016 A 
ATOM     34  C   UNL A   1      39.555  22.372  26.685  1.00  0.00     0.016 A 
ATOM     35  C   UNL A   1      38.670  24.896  25.943  1.00  0.00     0.010 A 
ATOM     36  C   UNL A   1      40.349  23.505  26.957  1.00  0.00     0.010 A 
ATOM     37  C   UNL A   1      39.901  24.784  26.599  1.00  0.00    -0.014 A 
BRANCH  37  38
ATOM     38  C   UNL A   1      40.679  26.036  26.814  1.00  0.00     0.031 A 
ATOM     39  C   UNL A   1      40.211  27.034  27.838  1.00  0.00     0.074 A 
ATOM     40  C   UNL A   1      41.917  26.174  26.296  1.00  0.00     0.049 A 
ATOM     41  N   UNL A   1      40.842  28.072  28.330  1.00  0.00    -0.248 NA
ATOM     42  C   UNL A   1      38.880  26.803  28.414  1.00  0.00     0.031 C 
ATOM     43  C   UNL A   1      42.566  25.225  25.395  1.00  0.00     0.029 A 
ATOM     44  N   UNL A   1      42.879  27.134  26.520  1.00  0.00    -0.354 N 
ATOM     45  C   UNL A   1      39.996  28.604  29.294  1.00  0.00     0.074 A 
ATOM     46  C   UNL A   1      38.800  27.786  29.300  1.00  0.00     0.031 C 
ATOM     47  C   UNL A   1      43.837  25.617  25.192  1.00  0.00     0.029 A 
ATOM     48  C   UNL A   1      44.076  26.876  25.895  1.00  0.00     0.049 A 
ATOM     49  H   UNL A   1      42.723  27.932  27.075  1.00  0.00     0.167 HD
ATOM     50  C   UNL A   1      40.190  29.674  30.103  1.00  0.00     0.031 A 
ATOM     51  C   UNL A   1      45.232  27.573  25.880  1.00  0.00     0.031 A 
ATOM     52  C   UNL A   1      41.343  30.536  30.083  1.00  0.00     0.049 A 
ATOM     53  C   UNL A   1      45.341  28.869  26.644  1.00  0.00     0.074 A 
ATOM     54  C   UNL A   1      41.565  31.692  30.812  1.00  0.00     0.029 A 
ATOM     55  N   UNL A   1      42.464  30.344  29.295  1.00  0.00    -0.354 N 
ATOM     56  N   UNL A   1      44.504  29.400  27.502  1.00  0.00    -0.248 NA
ATOM     57  C   UNL A   1      46.555  29.671  26.420  1.00  0.00     0.031 C 
ATOM     58  C   UNL A   1      42.790  32.240  30.411  1.00  0.00     0.029 A 
ATOM     59  C   UNL A   1      43.358  31.389  29.480  1.00  0.00     0.049 A 
ATOM     60  H   UNL A   1      42.606  29.580  28.690  1.00  0.00     0.167 HD
ATOM     61  C   UNL A   1      45.100  30.581  27.931  1.00  0.00     0.074 A 
ATOM     62  C   UNL A   1      46.378  30.678  27.262  1.00  0.00     0.031 C 
ATOM     63  C   UNL A   1      44.621  31.506  28.800  1.00  0.00     0.031 A 
BRANCH  50  64
ATOM     64  C   UNL A   1      39.076  30.019  31.048  1.00  0.00    -0.014 A 
ATOM     65  C   UNL A   1      38.063  30.917  30.683  1.00  0.00     0.009 A 
ATOM     66  C   UNL A   1      39.029  29.408  32.311  1.00  0.00     0.009 A 
ATOM     67  C   UNL A   1      37.033  31.215  31.578  1.00  0.00     0.001 A 
ATOM     68  C   UNL A   1      37.987  29.691  33.193  1.00  0.00     0.001 A 
ATOM     69  C   UNL A   1      36.994  30.600  32.830  1.00  0.00     0.000 A 
ENDBRANCH  50  64
BRANCH  51  70
ATOM     70  C   UNL A   1      46.383  27.117  25.048  1.00  0.00    -0.014 A 
ATOM     71  C   UNL A   1      47.150  26.001  25.416  1.00  0.00     0.009 A 
ATOM     72  C   UNL A   1      46.774  27.862  23.923  1.00  0.00     0.009 A 
ATOM     73  C   UNL A   1      48.300  25.662  24.697  1.00  0.00     0.001 A 
ATOM     74  C   UNL A   1      47.901  27.500  23.185  1.00  0.00     0.001 A 
ATOM     75  C   UNL A   1      48.673  26.410  23.580  1.00  0.00     0.000 A 
ENDBRANCH  51  70
BRANCH  63  76
ATOM     76  C   UNL A   1      45.483  32.711  29.076  1.00  0.00    -0.014 A 
ATOM     77  C   UNL A   1      46.455  32.694  30.090  1.00  0.00     0.009 A 
ATOM     78  C   UNL A   1      45.336  33.874  28.304  1.00  0.00     0.009 A 
ATOM     79  C   UNL A   1      47.231  33.828  30.351  1.00  0.00     0.001 A 
ATOM     80  C   UNL A   1      46.136  34.995  28.545  1.00  0.00     0.001 A 
ATOM     81  C   UNL A   1      47.073  34.975  29.576  1.00  0.00     0.000 A 
ENDBRANCH  63  76
ENDBRANCH  37  38
ENDBRANCH  30  32
ENDBRANCH  29  30
ENDBRANCH  28  29
ENDBRANCH   1  28
TORSDOF 15
ENDMDL
MODEL 3
REMARK VINA RESULT:     -11.5      2.961      6.220
REMARK SMILES CC(=O)Nc1ccc(/C(=C\c2ccc(S(C)(=O)=O)cc2)C(=O)OCCOC(=O)c2ccc(-c3c4nc(c(-c5ccccc5)c5ccc([nH]5)c(-c5ccccc5)c5nc(c(-c6ccccc6)c6ccc3[nH]6)C=C5)C=C4)cc2)cc1
REMARK SMILES IDX 24 1 23 2 21 3 22 4 9 5 10 6 8 7 5 8 6 9 78 10 7 11 77 12
REMARK SMILES IDX 4 13 1 14 2 15 3 16 11 18 12 19 20 20 13 21 19 22 14 23
REMARK SMILES IDX 15 24 16 25 17 26 18 27 25 28 26 29 27 30 28 31 29 32 30 33
REMARK SMILES IDX 76 34 31 35 75 36 32 37 33 38 34 39 69 40 35 41 74 42 68 43
REMARK SMILES IDX 70 44 36 45 73 46 67 47 66 48 37 50 59 51 44 52 58 53 45 54
REMARK SMILES IDX 48 55 57 56 71 57 46 58 47 59 56 61 72 62 49 63 38 64 39 65
REMARK SMILES IDX 43 66 40 67 42 68 41 69 60 70 61 71 65 72 62 73 64 74 63 75
REMARK SMILES IDX 50 76 51 77 55 78 52 79 54 80 53 81
REMARK H PARENT 4 17 70 49 48 60
REMARK Flexibility Score: inf
ROOT
ATOM      1  C   UNL A   1      35.458  23.278  25.063  1.00  0.00     0.275 C 
ENDROOT
BRANCH   1   2
ATOM      2  O   UNL A   1      34.932  24.396  25.812  1.00  0.00    -0.458 OA
BRANCH   2   3
ATOM      3  C   UNL A   1      33.615  24.354  26.167  1.00  0.00     0.338 C 
ATOM      4  O   UNL A   1      33.119  23.492  26.876  1.00  0.00    -0.246 OA
BRANCH   3   5
ATOM      5  C   UNL A   1      32.832  25.517  25.575  1.00  0.00     0.067 C 
ATOM      6  C   UNL A   1      32.099  25.158  24.482  1.00  0.00     0.024 C 
BRANCH   5   7
ATOM      7  C   UNL A   1      32.924  26.902  26.203  1.00  0.00    -0.011 A 
ATOM      8  C   UNL A   1      32.845  29.672  26.949  1.00  0.00     0.041 A 
ATOM      9  C   UNL A   1      31.866  28.805  27.385  1.00  0.00     0.027 A 
ATOM     10  C   UNL A   1      33.951  29.144  26.301  1.00  0.00     0.027 A 
ATOM     11  C   UNL A   1      31.935  27.447  27.041  1.00  0.00     0.011 A 
ATOM     12  C   UNL A   1      33.986  27.782  25.927  1.00  0.00     0.011 A 
BRANCH   8  13
ATOM     13  N   UNL A   1      32.761  31.025  27.285  1.00  0.00    -0.326 N 
ATOM     14  C   UNL A   1      30.945  31.579  25.675  1.00  0.00     0.114 C 
ATOM     15  C   UNL A   1      31.836  31.932  26.832  1.00  0.00     0.221 C 
ATOM     16  O   UNL A   1      31.739  33.022  27.398  1.00  0.00    -0.275 OA
ATOM     17  H   UNL A   1      33.438  31.364  27.914  1.00  0.00     0.169 HD
ENDBRANCH   8  13
ENDBRANCH   5   7
BRANCH   6  18
ATOM     18  C   UNL A   1      31.170  25.983  23.701  1.00  0.00    -0.025 A 
ATOM     19  C   UNL A   1      29.817  25.970  24.072  1.00  0.00     0.009 A 
ATOM     20  C   UNL A   1      31.632  26.916  22.761  1.00  0.00     0.009 A 
ATOM     21  C   UNL A   1      28.967  26.986  23.638  1.00  0.00     0.021 A 
ATOM     22  C   UNL A   1      30.785  27.942  22.332  1.00  0.00     0.021 A 
ATOM     23  C   UNL A   1      29.471  27.997  22.813  1.00  0.00     0.067 A 
BRANCH  23  24
ATOM     24  S   UNL A   1      28.512  29.484  22.614  1.00  0.00     0.175 S 
ATOM     25  C   UNL A   1      26.879  29.020  23.103  1.00  0.00     0.163 C 
ATOM     26  O   UNL A   1      29.020  30.442  23.579  1.00  0.00    -0.224 OA
ATOM     27  O   UNL A   1      28.490  29.804  21.199  1.00  0.00    -0.224 OA
ENDBRANCH  23  24
ENDBRANCH   6  18
ENDBRANCH   3   5
ENDBRANCH   2   3
ENDBRANCH   1   2
BRANCH   1  28
ATOM     28  C   UNL A   1      36.730  22.731  25.716  1.00  0.00     0.275 C 
BRANCH  28  29
ATOM     29  O   UNL A   1      37.812  23.668  25.564  1.00  0.00    -0.458 OA
BRANCH  29  30
ATOM     30  C   UNL A   1      38.917  23.371  26.295  1.00  0.00     0.338 C 
ATOM     31  O   UNL A   1      39.510  22.315  26.336  1.00  0.00    -0.246 OA
BRANCH  30  32
ATOM     32  C   UNL A   1      39.458  24.616  26.875  1.00  0.00     0.060 A 
ATOM     33  C   UNL A   1      39.071  24.886  28.181  1.00  0.00     0.016 A 
ATOM     34  C   UNL A   1      40.296  25.504  26.193  1.00  0.00     0.016 A 
ATOM     35  C   UNL A   1      39.550  26.024  28.816  1.00  0.00     0.010 A 
ATOM     36  C   UNL A   1      40.764  26.665  26.841  1.00  0.00     0.010 A 
ATOM     37  C   UNL A   1      40.404  26.926  28.171  1.00  0.00    -0.014 A 
BRANCH  37  38
ATOM     38  C   UNL A   1      40.819  28.139  28.930  1.00  0.00     0.031 A 
ATOM     39  C   UNL A   1      39.841  29.267  29.120  1.00  0.00     0.074 A 
ATOM     40  C   UNL A   1      41.955  28.139  29.657  1.00  0.00     0.049 A 
ATOM     41  N   UNL A   1      39.921  30.305  29.915  1.00  0.00    -0.248 NA
ATOM     42  C   UNL A   1      38.594  29.186  28.349  1.00  0.00     0.031 C 
ATOM     43  C   UNL A   1      42.940  27.060  29.687  1.00  0.00     0.029 A 
ATOM     44  N   UNL A   1      42.430  29.051  30.574  1.00  0.00    -0.354 N 
ATOM     45  C   UNL A   1      38.723  30.990  29.761  1.00  0.00     0.074 A 
ATOM     46  C   UNL A   1      37.945  30.259  28.781  1.00  0.00     0.031 C 
ATOM     47  C   UNL A   1      43.868  27.343  30.618  1.00  0.00     0.029 A 
ATOM     48  C   UNL A   1      43.582  28.650  31.209  1.00  0.00     0.049 A 
ATOM     49  H   UNL A   1      41.987  29.911  30.757  1.00  0.00     0.167 HD
ATOM     50  C   UNL A   1      38.302  32.123  30.375  1.00  0.00     0.031 A 
ATOM     51  C   UNL A   1      44.330  29.262  32.151  1.00  0.00     0.031 A 
ATOM     52  C   UNL A   1      39.072  32.898  31.312  1.00  0.00     0.049 A 
ATOM     53  C   UNL A   1      43.925  30.620  32.669  1.00  0.00     0.074 A 
ATOM     54  C   UNL A   1      38.743  34.107  31.904  1.00  0.00     0.029 A 
ATOM     55  N   UNL A   1      40.323  32.551  31.791  1.00  0.00    -0.354 N 
ATOM     56  N   UNL A   1      42.819  31.292  32.463  1.00  0.00    -0.248 NA
ATOM     57  C   UNL A   1      44.889  31.311  33.540  1.00  0.00     0.031 C 
ATOM     58  C   UNL A   1      39.826  34.526  32.685  1.00  0.00     0.029 A 
ATOM     59  C   UNL A   1      40.802  33.547  32.630  1.00  0.00     0.049 A 
ATOM     60  H   UNL A   1      40.803  31.720  31.569  1.00  0.00     0.167 HD
ATOM     61  C   UNL A   1      42.948  32.469  33.193  1.00  0.00     0.074 A 
ATOM     62  C   UNL A   1      44.226  32.409  33.868  1.00  0.00     0.031 C 
ATOM     63  C   UNL A   1      42.083  33.509  33.286  1.00  0.00     0.031 A 
BRANCH  50  64
ATOM     64  C   UNL A   1      36.945  32.637  29.990  1.00  0.00    -0.014 A 
ATOM     65  C   UNL A   1      35.814  32.365  30.774  1.00  0.00     0.009 A 
ATOM     66  C   UNL A   1      36.808  33.431  28.842  1.00  0.00     0.009 A 
ATOM     67  C   UNL A   1      34.564  32.861  30.399  1.00  0.00     0.001 A 
ATOM     68  C   UNL A   1      35.562  33.944  28.482  1.00  0.00     0.001 A 
ATOM     69  C   UNL A   1      34.439  33.653  29.257  1.00  0.00     0.000 A 
ENDBRANCH  50  64
BRANCH  51  70
ATOM     70  C   UNL A   1      45.601  28.647  32.631  1.00  0.00    -0.014 A 
ATOM     71  C   UNL A   1      46.797  28.794  31.912  1.00  0.00     0.009 A 
ATOM     72  C   UNL A   1      45.597  27.827  33.772  1.00  0.00     0.009 A 
ATOM     73  C   UNL A   1      47.950  28.107  32.304  1.00  0.00     0.001 A 
ATOM     74  C   UNL A   1      46.759  27.173  34.184  1.00  0.00     0.001 A 
ATOM     75  C   UNL A   1      47.930  27.301  33.442  1.00  0.00     0.000 A 
ENDBRANCH  51  70
BRANCH  63  76
ATOM     76  C   UNL A   1      42.489  34.675  34.148  1.00  0.00    -0.014 A 
ATOM     77  C   UNL A   1      43.130  35.799  33.598  1.00  0.00     0.009 A 
ATOM     78  C   UNL A   1      42.215  34.664  35.525  1.00  0.00     0.009 A 
ATOM     79  C   UNL A   1      43.523  36.864  34.414  1.00  0.00     0.001 A 
ATOM     80  C   UNL A   1      42.579  35.745  36.333  1.00  0.00     0.001 A 
ATOM     81  C   UNL A   1      43.244  36.838  35.779  1.00  0.00     0.000 A 
ENDBRANCH  63  76
ENDBRANCH  37  38
ENDBRANCH  30  32
ENDBRANCH  29  30
ENDBRANCH  28  29
ENDBRANCH   1  28
TORSDOF 15
ENDMDL
