MODEL 1
REMARK VINA RESULT:     -10.7      0.000      0.000
REMARK SMILES CC(C)(C)OC(=O)N1CCC[C@@H](CC2CCCCC2)[C@@H]1C(=O)OCCOC(=O)c1ccc(-c2c3nc(c(-c4ccccc4)c4ccc([nH]4)c(-c4ccccc4)c4nc(c(-c5ccccc5)c5ccc2[nH]5)C=C4)C=C3)cc1
REMARK SMILES IDX 24 1 23 2 21 3 22 4 20 5 8 6 9 7 10 8 12 9 11 10 6 11 7 12
REMARK SMILES IDX 5 13 2 14 1 15 3 16 4 17 13 18 14 19 15 20 19 21 16 22 18 23
REMARK SMILES IDX 17 24 25 25 26 26 27 27 28 28 29 29 30 30 76 31 31 32 75 33
REMARK SMILES IDX 32 34 33 35 34 36 69 37 35 38 74 39 68 40 70 41 36 42 73 43
REMARK SMILES IDX 67 44 66 45 37 47 59 48 44 49 58 50 45 51 48 52 57 53 71 54
REMARK SMILES IDX 46 55 47 56 56 58 72 59 49 60 38 61 39 62 43 63 40 64 42 65
REMARK SMILES IDX 41 66 60 67 61 68 65 69 62 70 64 71 63 72 50 73 51 74 55 75
REMARK SMILES IDX 52 76 54 77 53 78
REMARK H PARENT 70 46 48 57
REMARK Flexibility Score: inf
ROOT
ATOM      1  C   UNL A   1      35.961  21.984  25.299  1.00  0.00     0.274 C 
ENDROOT
BRANCH   1   2
ATOM      2  O   UNL A   1      35.956  22.693  24.040  1.00  0.00    -0.461 OA
BRANCH   2   3
ATOM      3  C   UNL A   1      34.718  23.033  23.589  1.00  0.00     0.329 C 
ATOM      4  O   UNL A   1      34.500  23.442  22.450  1.00  0.00    -0.250 OA
BRANCH   3   5
ATOM      5  C   UNL A   1      33.612  22.997  24.667  1.00  0.00     0.201 C 
ATOM      6  N   UNL A   1      32.733  21.794  24.664  1.00  0.00    -0.294 N 
ATOM      7  C   UNL A   1      31.747  21.738  25.728  1.00  0.00     0.124 C 
ATOM      8  C   UNL A   1      30.791  22.901  25.593  1.00  0.00     0.022 C 
ATOM      9  C   UNL A   1      32.775  24.324  24.811  1.00  0.00     0.024 C 
ATOM     10  C   UNL A   1      31.571  24.194  25.768  1.00  0.00     0.008 C 
BRANCH   6  11
ATOM     11  C   UNL A   1      32.790  20.707  23.810  1.00  0.00     0.411 C 
ATOM     12  O   UNL A   1      32.079  20.616  22.811  1.00  0.00    -0.224 OA
BRANCH  11  13
ATOM     13  O   UNL A   1      33.639  19.743  24.217  1.00  0.00    -0.444 OA
BRANCH  13  14
ATOM     14  C   UNL A   1      33.276  18.338  24.204  1.00  0.00     0.106 C 
ATOM     15  C   UNL A   1      34.603  17.567  24.313  1.00  0.00     0.056 C 
ATOM     16  C   UNL A   1      32.610  18.018  22.865  1.00  0.00     0.056 C 
ATOM     17  C   UNL A   1      32.405  17.921  25.398  1.00  0.00     0.056 C 
ENDBRANCH  13  14
ENDBRANCH  11  13
ENDBRANCH   6  11
BRANCH   9  18
ATOM     18  C   UNL A   1      33.573  25.624  25.155  1.00  0.00     0.010 C 
BRANCH  18  19
ATOM     19  C   UNL A   1      32.875  26.923  25.670  1.00  0.00    -0.011 C 
ATOM     20  C   UNL A   1      33.777  27.879  26.481  1.00  0.00     0.003 C 
ATOM     21  C   UNL A   1      32.128  27.693  24.585  1.00  0.00     0.003 C 
ATOM     22  C   UNL A   1      33.030  29.133  26.961  1.00  0.00     0.000 C 
ATOM     23  C   UNL A   1      31.342  28.870  25.138  1.00  0.00     0.000 C 
ATOM     24  C   UNL A   1      32.277  29.839  25.837  1.00  0.00     0.000 C 
ENDBRANCH  18  19
ENDBRANCH   9  18
ENDBRANCH   3   5
ENDBRANCH   2   3
ENDBRANCH   1   2
BRANCH   1  25
ATOM     25  C   UNL A   1      37.044  20.907  25.391  1.00  0.00     0.275 C 
BRANCH  25  26
ATOM     26  O   UNL A   1      38.345  21.434  25.066  1.00  0.00    -0.458 OA
BRANCH  26  27
ATOM     27  C   UNL A   1      39.279  21.311  26.034  1.00  0.00     0.338 C 
ATOM     28  O   UNL A   1      39.853  20.286  26.370  1.00  0.00    -0.246 OA
BRANCH  27  29
ATOM     29  C   UNL A   1      39.595  22.608  26.667  1.00  0.00     0.060 A 
ATOM     30  C   UNL A   1      38.967  23.769  26.240  1.00  0.00     0.016 A 
ATOM     31  C   UNL A   1      40.697  22.702  27.517  1.00  0.00     0.016 A 
ATOM     32  C   UNL A   1      39.545  25.009  26.509  1.00  0.00     0.010 A 
ATOM     33  C   UNL A   1      41.191  23.961  27.896  1.00  0.00     0.010 A 
ATOM     34  C   UNL A   1      40.671  25.140  27.336  1.00  0.00    -0.014 A 
BRANCH  34  35
ATOM     35  C   UNL A   1      41.333  26.472  27.541  1.00  0.00     0.031 A 
ATOM     36  C   UNL A   1      42.649  26.804  26.862  1.00  0.00     0.074 A 
ATOM     37  C   UNL A   1      40.755  27.436  28.291  1.00  0.00     0.049 A 
ATOM     38  N   UNL A   1      43.479  27.794  27.099  1.00  0.00    -0.248 NA
ATOM     39  C   UNL A   1      43.101  25.905  25.787  1.00  0.00     0.031 C 
ATOM     40  C   UNL A   1      39.457  27.338  28.961  1.00  0.00     0.029 A 
ATOM     41  N   UNL A   1      41.182  28.709  28.602  1.00  0.00    -0.354 N 
ATOM     42  C   UNL A   1      44.579  27.584  26.274  1.00  0.00     0.074 A 
ATOM     43  C   UNL A   1      44.306  26.385  25.511  1.00  0.00     0.031 C 
ATOM     44  C   UNL A   1      39.156  28.515  29.523  1.00  0.00     0.029 A 
ATOM     45  C   UNL A   1      40.305  29.402  29.400  1.00  0.00     0.049 A 
ATOM     46  H   UNL A   1      42.034  29.085  28.282  1.00  0.00     0.167 HD
ATOM     47  C   UNL A   1      45.720  28.312  26.171  1.00  0.00     0.031 A 
ATOM     48  C   UNL A   1      40.419  30.581  30.042  1.00  0.00     0.031 A 
ATOM     49  C   UNL A   1      45.969  29.544  26.875  1.00  0.00     0.049 A 
ATOM     50  C   UNL A   1      41.708  31.342  29.964  1.00  0.00     0.074 A 
ATOM     51  C   UNL A   1      47.093  30.353  26.824  1.00  0.00     0.029 A 
ATOM     52  N   UNL A   1      45.076  30.160  27.736  1.00  0.00    -0.354 N 
ATOM     53  N   UNL A   1      42.788  31.065  29.276  1.00  0.00    -0.248 NA
ATOM     54  C   UNL A   1      41.803  32.558  30.781  1.00  0.00     0.031 C 
ATOM     55  C   UNL A   1      46.901  31.431  27.696  1.00  0.00     0.029 A 
ATOM     56  C   UNL A   1      45.632  31.326  28.240  1.00  0.00     0.049 A 
ATOM     57  H   UNL A   1      44.181  29.820  27.959  1.00  0.00     0.167 HD
ATOM     58  C   UNL A   1      43.694  32.071  29.581  1.00  0.00     0.074 A 
ATOM     59  C   UNL A   1      43.025  32.982  30.486  1.00  0.00     0.031 C 
ATOM     60  C   UNL A   1      44.972  32.219  29.155  1.00  0.00     0.031 A 
BRANCH  47  61
ATOM     61  C   UNL A   1      46.830  27.766  25.311  1.00  0.00    -0.014 A 
ATOM     62  C   UNL A   1      47.796  26.879  25.807  1.00  0.00     0.009 A 
ATOM     63  C   UNL A   1      46.860  28.103  23.946  1.00  0.00     0.009 A 
ATOM     64  C   UNL A   1      48.784  26.363  24.961  1.00  0.00     0.001 A 
ATOM     65  C   UNL A   1      47.829  27.563  23.097  1.00  0.00     0.001 A 
ATOM     66  C   UNL A   1      48.795  26.699  23.608  1.00  0.00     0.000 A 
ENDBRANCH  47  61
BRANCH  48  67
ATOM     67  C   UNL A   1      39.308  31.052  30.914  1.00  0.00    -0.014 A 
ATOM     68  C   UNL A   1      38.297  31.880  30.409  1.00  0.00     0.009 A 
ATOM     69  C   UNL A   1      39.245  30.646  32.258  1.00  0.00     0.009 A 
ATOM     70  C   UNL A   1      37.246  32.292  31.233  1.00  0.00     0.001 A 
ATOM     71  C   UNL A   1      38.174  31.023  33.066  1.00  0.00     0.001 A 
ATOM     72  C   UNL A   1      37.179  31.852  32.555  1.00  0.00     0.000 A 
ENDBRANCH  48  67
BRANCH  60  73
ATOM     73  C   UNL A   1      45.715  33.428  29.647  1.00  0.00    -0.014 A 
ATOM     74  C   UNL A   1      46.429  33.402  30.855  1.00  0.00     0.009 A 
ATOM     75  C   UNL A   1      45.695  34.612  28.894  1.00  0.00     0.009 A 
ATOM     76  C   UNL A   1      47.070  34.552  31.321  1.00  0.00     0.001 A 
ATOM     77  C   UNL A   1      46.362  35.751  29.347  1.00  0.00     0.001 A 
ATOM     78  C   UNL A   1      47.037  35.723  30.567  1.00  0.00     0.000 A 
ENDBRANCH  60  73
ENDBRANCH  34  35
ENDBRANCH  27  29
ENDBRANCH  26  27
ENDBRANCH  25  26
ENDBRANCH   1  25
TORSDOF 16
ENDMDL
MODEL 2
REMARK VINA RESULT:     -10.7      1.477      7.236
REMARK SMILES CC(C)(C)OC(=O)N1CCC[C@@H](CC2CCCCC2)[C@@H]1C(=O)OCCOC(=O)c1ccc(-c2c3nc(c(-c4ccccc4)c4ccc([nH]4)c(-c4ccccc4)c4nc(c(-c5ccccc5)c5ccc2[nH]5)C=C4)C=C3)cc1
REMARK SMILES IDX 24 1 23 2 21 3 22 4 20 5 8 6 9 7 10 8 12 9 11 10 6 11 7 12
REMARK SMILES IDX 5 13 2 14 1 15 3 16 4 17 13 18 14 19 15 20 19 21 16 22 18 23
REMARK SMILES IDX 17 24 25 25 26 26 27 27 28 28 29 29 30 30 76 31 31 32 75 33
REMARK SMILES IDX 32 34 33 35 34 36 69 37 35 38 74 39 68 40 70 41 36 42 73 43
REMARK SMILES IDX 67 44 66 45 37 47 59 48 44 49 58 50 45 51 48 52 57 53 71 54
REMARK SMILES IDX 46 55 47 56 56 58 72 59 49 60 38 61 39 62 43 63 40 64 42 65
REMARK SMILES IDX 41 66 60 67 61 68 65 69 62 70 64 71 63 72 50 73 51 74 55 75
REMARK SMILES IDX 52 76 54 77 53 78
REMARK H PARENT 70 46 48 57
REMARK Flexibility Score: inf
ROOT
ATOM      1  C   UNL A   1      35.658  22.445  24.651  1.00  0.00     0.274 C 
ENDROOT
BRANCH   1   2
ATOM      2  O   UNL A   1      35.168  23.619  25.337  1.00  0.00    -0.461 OA
BRANCH   2   3
ATOM      3  C   UNL A   1      33.859  23.554  25.703  1.00  0.00     0.329 C 
ATOM      4  O   UNL A   1      33.466  22.973  26.713  1.00  0.00    -0.250 OA
BRANCH   3   5
ATOM      5  C   UNL A   1      32.876  24.154  24.674  1.00  0.00     0.201 C 
ATOM      6  N   UNL A   1      32.179  25.405  25.084  1.00  0.00    -0.294 N 
ATOM      7  C   UNL A   1      31.316  25.998  24.080  1.00  0.00     0.124 C 
ATOM      8  C   UNL A   1      30.197  25.039  23.744  1.00  0.00     0.022 C 
ATOM      9  C   UNL A   1      31.877  23.123  24.023  1.00  0.00     0.024 C 
ATOM     10  C   UNL A   1      30.799  23.782  23.136  1.00  0.00     0.008 C 
BRANCH   6  11
ATOM     11  C   UNL A   1      32.308  26.091  26.279  1.00  0.00     0.411 C 
ATOM     12  O   UNL A   1      31.457  26.038  27.164  1.00  0.00    -0.224 OA
BRANCH  11  13
ATOM     13  O   UNL A   1      33.408  26.867  26.341  1.00  0.00    -0.444 OA
BRANCH  13  14
ATOM     14  C   UNL A   1      33.332  28.316  26.363  1.00  0.00     0.106 C 
ATOM     15  C   UNL A   1      33.458  28.760  24.896  1.00  0.00     0.056 C 
ATOM     16  C   UNL A   1      34.519  28.856  27.162  1.00  0.00     0.056 C 
ATOM     17  C   UNL A   1      31.991  28.849  26.888  1.00  0.00     0.056 C 
ENDBRANCH  13  14
ENDBRANCH  11  13
ENDBRANCH   6  11
BRANCH   9  18
ATOM     18  C   UNL A   1      32.513  21.917  23.256  1.00  0.00     0.010 C 
BRANCH  18  19
ATOM     19  C   UNL A   1      32.274  20.435  23.683  1.00  0.00    -0.011 C 
ATOM     20  C   UNL A   1      32.437  19.390  22.557  1.00  0.00     0.003 C 
ATOM     21  C   UNL A   1      33.068  20.012  24.915  1.00  0.00     0.003 C 
ATOM     22  C   UNL A   1      32.184  17.953  23.041  1.00  0.00     0.000 C 
ATOM     23  C   UNL A   1      32.710  18.614  25.393  1.00  0.00     0.000 C 
ATOM     24  C   UNL A   1      32.982  17.603  24.294  1.00  0.00     0.000 C 
ENDBRANCH  18  19
ENDBRANCH   9  18
ENDBRANCH   3   5
ENDBRANCH   2   3
ENDBRANCH   1   2
BRANCH   1  25
ATOM     25  C   UNL A   1      36.568  21.567  25.513  1.00  0.00     0.275 C 
BRANCH  25  26
ATOM     26  O   UNL A   1      37.856  21.374  24.896  1.00  0.00    -0.458 OA
BRANCH  26  27
ATOM     27  C   UNL A   1      38.876  21.129  25.749  1.00  0.00     0.338 C 
ATOM     28  O   UNL A   1      39.467  20.070  25.898  1.00  0.00    -0.246 OA
BRANCH  27  29
ATOM     29  C   UNL A   1      39.264  22.335  26.508  1.00  0.00     0.060 A 
ATOM     30  C   UNL A   1      38.747  23.577  26.167  1.00  0.00     0.016 A 
ATOM     31  C   UNL A   1      40.333  22.265  27.401  1.00  0.00     0.016 A 
ATOM     32  C   UNL A   1      39.408  24.738  26.567  1.00  0.00     0.010 A 
ATOM     33  C   UNL A   1      40.907  23.441  27.911  1.00  0.00     0.010 A 
ATOM     34  C   UNL A   1      40.505  24.703  27.443  1.00  0.00    -0.014 A 
BRANCH  34  35
ATOM     35  C   UNL A   1      41.259  25.954  27.791  1.00  0.00     0.031 A 
ATOM     36  C   UNL A   1      40.660  26.994  28.719  1.00  0.00     0.074 A 
ATOM     37  C   UNL A   1      42.512  26.170  27.333  1.00  0.00     0.049 A 
ATOM     38  N   UNL A   1      41.051  28.227  28.946  1.00  0.00    -0.248 NA
ATOM     39  C   UNL A   1      39.462  26.610  29.483  1.00  0.00     0.031 C 
ATOM     40  C   UNL A   1      43.288  25.255  26.494  1.00  0.00     0.029 A 
ATOM     41  N   UNL A   1      43.369  27.231  27.530  1.00  0.00    -0.354 N 
ATOM     42  C   UNL A   1      40.103  28.785  29.799  1.00  0.00     0.074 A 
ATOM     43  C   UNL A   1      39.128  27.751  30.070  1.00  0.00     0.031 C 
ATOM     44  C   UNL A   1      44.521  25.746  26.323  1.00  0.00     0.029 A 
ATOM     45  C   UNL A   1      44.579  27.084  26.895  1.00  0.00     0.049 A 
ATOM     46  H   UNL A   1      43.136  28.019  28.073  1.00  0.00     0.167 HD
ATOM     47  C   UNL A   1      40.041  30.044  30.298  1.00  0.00     0.031 A 
ATOM     48  C   UNL A   1      45.601  27.940  26.708  1.00  0.00     0.031 A 
ATOM     49  C   UNL A   1      41.045  31.058  30.090  1.00  0.00     0.049 A 
ATOM     50  C   UNL A   1      45.488  29.346  27.216  1.00  0.00     0.074 A 
ATOM     51  C   UNL A   1      41.068  32.359  30.565  1.00  0.00     0.029 A 
ATOM     52  N   UNL A   1      42.213  30.879  29.369  1.00  0.00    -0.354 N 
ATOM     53  N   UNL A   1      44.526  29.895  27.915  1.00  0.00    -0.248 NA
ATOM     54  C   UNL A   1      46.588  30.258  26.876  1.00  0.00     0.031 C 
ATOM     55  C   UNL A   1      42.225  32.983  30.087  1.00  0.00     0.029 A 
ATOM     56  C   UNL A   1      42.953  32.052  29.367  1.00  0.00     0.049 A 
ATOM     57  H   UNL A   1      42.479  30.044  28.921  1.00  0.00     0.167 HD
ATOM     58  C   UNL A   1      44.903  31.219  28.095  1.00  0.00     0.074 A 
ATOM     59  C   UNL A   1      46.195  31.380  27.464  1.00  0.00     0.031 C 
ATOM     60  C   UNL A   1      44.228  32.214  28.721  1.00  0.00     0.031 A 
BRANCH  47  61
ATOM     61  C   UNL A   1      38.809  30.437  31.072  1.00  0.00    -0.014 A 
ATOM     62  C   UNL A   1      38.720  30.294  32.464  1.00  0.00     0.009 A 
ATOM     63  C   UNL A   1      37.736  31.030  30.384  1.00  0.00     0.009 A 
ATOM     64  C   UNL A   1      37.572  30.713  33.146  1.00  0.00     0.001 A 
ATOM     65  C   UNL A   1      36.604  31.475  31.071  1.00  0.00     0.001 A 
ATOM     66  C   UNL A   1      36.520  31.308  32.450  1.00  0.00     0.000 A 
ENDBRANCH  47  61
BRANCH  48  67
ATOM     67  C   UNL A   1      46.775  27.515  25.897  1.00  0.00    -0.014 A 
ATOM     68  C   UNL A   1      47.807  26.757  26.466  1.00  0.00     0.009 A 
ATOM     69  C   UNL A   1      46.850  27.849  24.535  1.00  0.00     0.009 A 
ATOM     70  C   UNL A   1      48.889  26.342  25.685  1.00  0.00     0.001 A 
ATOM     71  C   UNL A   1      47.909  27.398  23.748  1.00  0.00     0.001 A 
ATOM     72  C   UNL A   1      48.932  26.651  24.326  1.00  0.00     0.000 A 
ENDBRANCH  48  67
BRANCH  60  73
ATOM     73  C   UNL A   1      44.897  33.558  28.771  1.00  0.00    -0.014 A 
ATOM     74  C   UNL A   1      44.664  34.525  27.781  1.00  0.00     0.009 A 
ATOM     75  C   UNL A   1      45.778  33.859  29.822  1.00  0.00     0.009 A 
ATOM     76  C   UNL A   1      45.335  35.749  27.817  1.00  0.00     0.001 A 
ATOM     77  C   UNL A   1      46.424  35.094  29.872  1.00  0.00     0.001 A 
ATOM     78  C   UNL A   1      46.213  36.033  28.862  1.00  0.00     0.000 A 
ENDBRANCH  60  73
ENDBRANCH  34  35
ENDBRANCH  27  29
ENDBRANCH  26  27
ENDBRANCH  25  26
ENDBRANCH   1  25
TORSDOF 16
ENDMDL
MODEL 3
REMARK VINA RESULT:     -10.7      2.433      7.105
REMARK SMILES CC(C)(C)OC(=O)N1CCC[C@@H](CC2CCCCC2)[C@@H]1C(=O)OCCOC(=O)c1ccc(-c2c3nc(c(-c4ccccc4)c4ccc([nH]4)c(-c4ccccc4)c4nc(c(-c5ccccc5)c5ccc2[nH]5)C=C4)C=C3)cc1
REMARK SMILES IDX 24 1 23 2 21 3 22 4 20 5 8 6 9 7 10 8 12 9 11 10 6 11 7 12
REMARK SMILES IDX 5 13 2 14 1 15 3 16 4 17 13 18 14 19 15 20 19 21 16 22 18 23
REMARK SMILES IDX 17 24 25 25 26 26 27 27 28 28 29 29 30 30 76 31 31 32 75 33
REMARK SMILES IDX 32 34 33 35 34 36 69 37 35 38 74 39 68 40 70 41 36 42 73 43
REMARK SMILES IDX 67 44 66 45 37 47 59 48 44 49 58 50 45 51 48 52 57 53 71 54
REMARK SMILES IDX 46 55 47 56 56 58 72 59 49 60 38 61 39 62 43 63 40 64 42 65
REMARK SMILES IDX 41 66 60 67 61 68 65 69 62 70 64 71 63 72 50 73 51 74 55 75
REMARK SMILES IDX 52 76 54 77 53 78
REMARK H PARENT 70 46 48 57
REMARK Flexibility Score: inf
ROOT
ATOM      1  C   UNL A   1      37.706  22.664  25.838  1.00  0.00     0.274 C 
ENDROOT
BRANCH   1   2
ATOM      2  O   UNL A   1      36.678  23.316  25.059  1.00  0.00    -0.461 OA
BRANCH   2   3
ATOM      3  C   UNL A   1      35.410  23.086  25.494  1.00  0.00     0.329 C 
ATOM      4  O   UNL A   1      35.098  23.039  26.682  1.00  0.00    -0.250 OA
BRANCH   3   5
ATOM      5  C   UNL A   1      34.401  22.749  24.374  1.00  0.00     0.201 C 
ATOM      6  N   UNL A   1      33.514  23.862  23.933  1.00  0.00    -0.294 N 
ATOM      7  C   UNL A   1      32.623  23.552  22.829  1.00  0.00     0.124 C 
ATOM      8  C   UNL A   1      31.669  22.454  23.242  1.00  0.00     0.022 C 
ATOM      9  C   UNL A   1      33.590  21.413  24.584  1.00  0.00     0.024 C 
ATOM     10  C   UNL A   1      32.473  21.199  23.541  1.00  0.00     0.008 C 
BRANCH   6  11
ATOM     11  C   UNL A   1      33.487  25.161  24.409  1.00  0.00     0.411 C 
ATOM     12  O   UNL A   1      34.505  25.761  24.742  1.00  0.00    -0.224 OA
BRANCH  11  13
ATOM     13  O   UNL A   1      32.243  25.665  24.532  1.00  0.00    -0.444 OA
BRANCH  13  14
ATOM     14  C   UNL A   1      31.546  25.698  25.805  1.00  0.00     0.106 C 
ATOM     15  C   UNL A   1      32.107  26.918  26.553  1.00  0.00     0.056 C 
ATOM     16  C   UNL A   1      31.885  24.425  26.580  1.00  0.00     0.056 C 
ATOM     17  C   UNL A   1      30.030  25.904  25.666  1.00  0.00     0.056 C 
ENDBRANCH  13  14
ENDBRANCH  11  13
ENDBRANCH   6  11
BRANCH   9  18
ATOM     18  C   UNL A   1      34.426  20.099  24.725  1.00  0.00     0.010 C 
BRANCH  18  19
ATOM     19  C   UNL A   1      33.803  18.684  24.511  1.00  0.00    -0.011 C 
ATOM     20  C   UNL A   1      34.802  17.579  24.103  1.00  0.00     0.003 C 
ATOM     21  C   UNL A   1      32.935  18.209  25.672  1.00  0.00     0.003 C 
ATOM     22  C   UNL A   1      34.125  16.213  23.903  1.00  0.00     0.000 C 
ATOM     23  C   UNL A   1      32.227  16.897  25.377  1.00  0.00     0.000 C 
ATOM     24  C   UNL A   1      33.246  15.811  25.084  1.00  0.00     0.000 C 
ENDBRANCH  18  19
ENDBRANCH   9  18
ENDBRANCH   3   5
ENDBRANCH   2   3
ENDBRANCH   1   2
BRANCH   1  25
ATOM     25  C   UNL A   1      38.170  21.331  25.246  1.00  0.00     0.275 C 
BRANCH  25  26
ATOM     26  O   UNL A   1      38.779  20.491  26.246  1.00  0.00    -0.458 OA
BRANCH  26  27
ATOM     27  C   UNL A   1      40.081  20.194  26.038  1.00  0.00     0.338 C 
ATOM     28  O   UNL A   1      40.524  19.232  25.429  1.00  0.00    -0.246 OA
BRANCH  27  29
ATOM     29  C   UNL A   1      40.980  21.215  26.615  1.00  0.00     0.060 A 
ATOM     30  C   UNL A   1      41.121  21.332  27.991  1.00  0.00     0.016 A 
ATOM     31  C   UNL A   1      41.491  22.218  25.791  1.00  0.00     0.016 A 
ATOM     32  C   UNL A   1      41.599  22.520  28.541  1.00  0.00     0.010 A 
ATOM     33  C   UNL A   1      42.099  23.353  26.352  1.00  0.00     0.010 A 
ATOM     34  C   UNL A   1      42.095  23.562  27.741  1.00  0.00    -0.014 A 
BRANCH  34  35
ATOM     35  C   UNL A   1      42.522  24.868  28.346  1.00  0.00     0.031 A 
ATOM     36  C   UNL A   1      41.510  25.956  28.651  1.00  0.00     0.074 A 
ATOM     37  C   UNL A   1      43.809  25.098  28.687  1.00  0.00     0.049 A 
ATOM     38  N   UNL A   1      41.712  27.219  28.949  1.00  0.00    -0.248 NA
ATOM     39  C   UNL A   1      40.085  25.587  28.606  1.00  0.00     0.031 C 
ATOM     40  C   UNL A   1      44.916  24.149  28.545  1.00  0.00     0.029 A 
ATOM     41  N   UNL A   1      44.406  26.206  29.247  1.00  0.00    -0.354 N 
ATOM     42  C   UNL A   1      40.453  27.805  29.034  1.00  0.00     0.074 A 
ATOM     43  C   UNL A   1      39.488  26.758  28.780  1.00  0.00     0.031 C 
ATOM     44  C   UNL A   1      46.024  24.675  29.080  1.00  0.00     0.029 A 
ATOM     45  C   UNL A   1      45.756  26.057  29.453  1.00  0.00     0.049 A 
ATOM     46  H   UNL A   1      43.912  27.026  29.478  1.00  0.00     0.167 HD
ATOM     47  C   UNL A   1      40.129  29.098  29.285  1.00  0.00     0.031 A 
ATOM     48  C   UNL A   1      46.707  26.938  29.819  1.00  0.00     0.031 A 
ATOM     49  C   UNL A   1      41.080  30.132  29.609  1.00  0.00     0.049 A 
ATOM     50  C   UNL A   1      46.340  28.374  30.034  1.00  0.00     0.074 A 
ATOM     51  C   UNL A   1      40.841  31.468  29.886  1.00  0.00     0.029 A 
ATOM     52  N   UNL A   1      42.448  29.943  29.724  1.00  0.00    -0.354 N 
ATOM     53  N   UNL A   1      45.159  28.939  29.988  1.00  0.00    -0.248 NA
ATOM     54  C   UNL A   1      47.445  29.300  30.316  1.00  0.00     0.031 C 
ATOM     55  C   UNL A   1      42.068  32.098  30.117  1.00  0.00     0.029 A 
ATOM     56  C   UNL A   1      43.066  31.141  30.046  1.00  0.00     0.049 A 
ATOM     57  H   UNL A   1      42.913  29.085  29.594  1.00  0.00     0.167 HD
ATOM     58  C   UNL A   1      45.379  30.288  30.231  1.00  0.00     0.074 A 
ATOM     59  C   UNL A   1      46.799  30.450  30.459  1.00  0.00     0.031 C 
ATOM     60  C   UNL A   1      44.481  31.303  30.251  1.00  0.00     0.031 A 
BRANCH  47  61
ATOM     61  C   UNL A   1      38.683  29.502  29.156  1.00  0.00    -0.014 A 
ATOM     62  C   UNL A   1      38.116  29.880  27.931  1.00  0.00     0.009 A 
ATOM     63  C   UNL A   1      37.855  29.431  30.291  1.00  0.00     0.009 A 
ATOM     64  C   UNL A   1      36.757  30.205  27.850  1.00  0.00     0.001 A 
ATOM     65  C   UNL A   1      36.493  29.726  30.201  1.00  0.00     0.001 A 
ATOM     66  C   UNL A   1      35.947  30.120  28.983  1.00  0.00     0.000 A 
ENDBRANCH  47  61
BRANCH  48  67
ATOM     67  C   UNL A   1      48.128  26.496  29.887  1.00  0.00    -0.014 A 
ATOM     68  C   UNL A   1      48.659  25.955  31.066  1.00  0.00     0.009 A 
ATOM     69  C   UNL A   1      48.952  26.592  28.754  1.00  0.00     0.009 A 
ATOM     70  C   UNL A   1      49.986  25.520  31.106  1.00  0.00     0.001 A 
ATOM     71  C   UNL A   1      50.263  26.118  28.784  1.00  0.00     0.001 A 
ATOM     72  C   UNL A   1      50.781  25.589  29.963  1.00  0.00     0.000 A 
ENDBRANCH  48  67
BRANCH  60  73
ATOM     73  C   UNL A   1      45.014  32.673  30.558  1.00  0.00    -0.014 A 
ATOM     74  C   UNL A   1      45.429  33.539  29.534  1.00  0.00     0.009 A 
ATOM     75  C   UNL A   1      45.108  33.101  31.892  1.00  0.00     0.009 A 
ATOM     76  C   UNL A   1      45.970  34.789  29.843  1.00  0.00     0.001 A 
ATOM     77  C   UNL A   1      45.622  34.363  32.195  1.00  0.00     0.001 A 
ATOM     78  C   UNL A   1      46.065  35.200  31.172  1.00  0.00     0.000 A 
ENDBRANCH  60  73
ENDBRANCH  34  35
ENDBRANCH  27  29
ENDBRANCH  26  27
ENDBRANCH  25  26
ENDBRANCH   1  25
TORSDOF 16
ENDMDL
