MODEL 1
REMARK VINA RESULT:      -9.9      0.000      0.000
REMARK SMILES COc1ccc([C@@H]2CC(c3ccc(Cl)cc3)=NN2C2=[NH+]C(=O)[C@@H](CC(=O)OCCOC(=O)c3ccc(-c4c5nc(c(-c6ccccc6)c6ccc([nH]6)c(-c6ccccc6)c6nc(c(-c7ccccc7)c7ccc4[nH]7)C=C6)C=C5)cc3)S2)cc1OC
REMARK SMILES IDX 28 1 27 2 25 3 26 4 24 5 23 6 19 7 20 8 81 9 21 10 22 12
REMARK SMILES IDX 18 13 7 14 8 15 9 16 17 17 6 18 3 19 4 20 83 21 5 22 82 23
REMARK SMILES IDX 2 24 1 25 84 26 85 27 10 28 11 29 16 30 12 31 15 32 13 33
REMARK SMILES IDX 14 34 29 35 30 36 31 37 32 38 33 39 34 40 80 41 35 42 79 43
REMARK SMILES IDX 36 44 37 45 38 46 73 47 39 48 78 49 72 50 74 51 40 52 77 53
REMARK SMILES IDX 71 54 70 55 41 57 63 58 48 59 62 60 49 61 52 62 61 63 75 64
REMARK SMILES IDX 50 65 51 66 60 68 76 69 53 70 42 71 43 72 47 73 44 74 46 75
REMARK SMILES IDX 45 76 64 77 65 78 69 79 66 80 68 81 67 82 54 83 55 84 59 85
REMARK SMILES IDX 56 86 58 87 57 88
REMARK H PARENT 20 11 74 56 52 67
REMARK Flexibility Score: inf
ROOT
ATOM      1  C   UNL A   1      32.586  37.053  30.221  1.00  0.00     0.274 C 
ENDROOT
BRANCH   1   2
ATOM      2  O   UNL A   1      33.320  37.588  31.336  1.00  0.00    -0.462 OA
BRANCH   2   3
ATOM      3  C   UNL A   1      33.012  37.115  32.566  1.00  0.00     0.307 C 
ATOM      4  O   UNL A   1      31.914  37.202  33.099  1.00  0.00    -0.252 OA
BRANCH   3   5
ATOM      5  C   UNL A   1      34.210  36.518  33.254  1.00  0.00     0.150 C 
BRANCH   5   6
ATOM      6  C   UNL A   1      34.721  35.228  32.621  1.00  0.00     0.184 C 
ATOM      7  C   UNL A   1      35.921  33.684  34.206  1.00  0.00     0.340 C 
ATOM      8  N   UNL A   1      34.661  33.392  34.212  1.00  0.00    -0.202 N 
ATOM      9  S   UNL A   1      36.453  34.856  33.032  1.00  0.00    -0.020 SA
ATOM     10  C   UNL A   1      33.961  34.069  33.242  1.00  0.00     0.322 C 
ATOM     11  H   UNL A   1      34.249  32.756  34.841  1.00  0.00     0.316 HD
ATOM     12  O   UNL A   1      32.791  33.838  32.963  1.00  0.00    -0.246 OA
BRANCH   7  13
ATOM     13  N   UNL A   1      36.869  33.204  35.075  1.00  0.00    -0.120 N 
ATOM     14  C   UNL A   1      38.274  33.214  34.666  1.00  0.00     0.243 C 
ATOM     15  C   UNL A   1      39.021  33.672  35.914  1.00  0.00     0.118 C 
ATOM     16  C   UNL A   1      37.911  33.602  36.921  1.00  0.00     0.096 C 
ATOM     17  N   UNL A   1      36.735  33.354  36.439  1.00  0.00    -0.086 NA
BRANCH  14  18
ATOM     18  C   UNL A   1      38.724  31.850  34.169  1.00  0.00     0.003 A 
ATOM     19  C   UNL A   1      39.589  29.268  33.428  1.00  0.00     0.160 A 
ATOM     20  C   UNL A   1      38.323  29.732  33.047  1.00  0.00     0.051 A 
ATOM     21  C   UNL A   1      40.458  30.108  34.131  1.00  0.00     0.161 A 
ATOM     22  C   UNL A   1      37.893  31.009  33.418  1.00  0.00     0.012 A 
ATOM     23  C   UNL A   1      40.013  31.389  34.492  1.00  0.00     0.058 A 
BRANCH  19  24
ATOM     24  O   UNL A   1      39.968  28.016  33.026  1.00  0.00    -0.493 OA
ATOM     25  C   UNL A   1      39.030  27.461  32.100  1.00  0.00     0.278 C 
ENDBRANCH  19  24
BRANCH  21  26
ATOM     26  O   UNL A   1      41.743  29.865  34.535  1.00  0.00    -0.493 OA
ATOM     27  C   UNL A   1      42.297  30.682  35.555  1.00  0.00     0.278 C 
ENDBRANCH  21  26
ENDBRANCH  14  18
BRANCH  16  28
ATOM     28  C   UNL A   1      38.155  33.834  38.357  1.00  0.00     0.000 A 
ATOM     29  C   UNL A   1      37.450  33.069  39.295  1.00  0.00     0.011 A 
ATOM     30  C   UNL A   1      39.055  34.815  38.787  1.00  0.00     0.011 A 
ATOM     31  C   UNL A   1      37.660  33.274  40.661  1.00  0.00     0.021 A 
ATOM     32  C   UNL A   1      39.251  35.026  40.153  1.00  0.00     0.021 A 
ATOM     33  C   UNL A   1      38.558  34.253  41.084  1.00  0.00     0.041 A 
ATOM     34  Cl  UNL A   1      38.812  34.510  42.765  1.00  0.00    -0.084 Cl
ENDBRANCH  16  28
ENDBRANCH   7  13
ENDBRANCH   5   6
ENDBRANCH   3   5
ENDBRANCH   2   3
ENDBRANCH   1   2
BRANCH   1  35
ATOM     35  C   UNL A   1      33.400  35.987  29.485  1.00  0.00     0.275 C 
BRANCH  35  36
ATOM     36  O   UNL A   1      32.724  34.715  29.491  1.00  0.00    -0.458 OA
BRANCH  36  37
ATOM     37  C   UNL A   1      33.139  33.828  28.562  1.00  0.00     0.338 C 
ATOM     38  O   UNL A   1      32.572  33.519  27.522  1.00  0.00    -0.246 OA
BRANCH  37  39
ATOM     39  C   UNL A   1      34.483  33.348  28.905  1.00  0.00     0.060 A 
ATOM     40  C   UNL A   1      35.539  33.637  28.036  1.00  0.00     0.016 A 
ATOM     41  C   UNL A   1      34.691  32.569  30.044  1.00  0.00     0.016 A 
ATOM     42  C   UNL A   1      36.818  33.161  28.312  1.00  0.00     0.010 A 
ATOM     43  C   UNL A   1      35.975  32.095  30.322  1.00  0.00     0.010 A 
ATOM     44  C   UNL A   1      37.046  32.388  29.459  1.00  0.00    -0.014 A 
BRANCH  44  45
ATOM     45  C   UNL A   1      38.411  31.896  29.761  1.00  0.00     0.031 A 
ATOM     46  C   UNL A   1      38.853  30.545  29.281  1.00  0.00     0.074 A 
ATOM     47  C   UNL A   1      39.247  32.666  30.482  1.00  0.00     0.049 A 
ATOM     48  N   UNL A   1      39.974  29.913  29.516  1.00  0.00    -0.248 NA
ATOM     49  C   UNL A   1      37.910  29.805  28.428  1.00  0.00     0.031 C 
ATOM     50  C   UNL A   1      38.943  34.008  30.981  1.00  0.00     0.029 A 
ATOM     51  N   UNL A   1      40.522  32.424  30.927  1.00  0.00    -0.354 N 
ATOM     52  C   UNL A   1      39.867  28.695  28.858  1.00  0.00     0.074 A 
ATOM     53  C   UNL A   1      38.565  28.669  28.226  1.00  0.00     0.031 C 
ATOM     54  C   UNL A   1      40.001  34.469  31.667  1.00  0.00     0.029 A 
ATOM     55  C   UNL A   1      41.035  33.440  31.695  1.00  0.00     0.049 A 
ATOM     56  H   UNL A   1      41.021  31.601  30.717  1.00  0.00     0.167 HD
ATOM     57  C   UNL A   1      40.774  27.691  28.788  1.00  0.00     0.031 A 
ATOM     58  C   UNL A   1      42.197  33.522  32.371  1.00  0.00     0.031 A 
ATOM     59  C   UNL A   1      42.069  27.719  29.415  1.00  0.00     0.049 A 
ATOM     60  C   UNL A   1      43.157  32.367  32.325  1.00  0.00     0.074 A 
ATOM     61  C   UNL A   1      43.069  26.763  29.370  1.00  0.00     0.029 A 
ATOM     62  N   UNL A   1      42.541  28.755  30.205  1.00  0.00    -0.354 N 
ATOM     63  N   UNL A   1      43.055  31.233  31.677  1.00  0.00    -0.248 NA
ATOM     64  C   UNL A   1      44.394  32.506  33.107  1.00  0.00     0.031 C 
ATOM     65  C   UNL A   1      44.124  27.195  30.180  1.00  0.00     0.029 A 
ATOM     66  C   UNL A   1      43.803  28.446  30.684  1.00  0.00     0.049 A 
ATOM     67  H   UNL A   1      42.051  29.587  30.398  1.00  0.00     0.167 HD
ATOM     68  C   UNL A   1      44.218  30.529  31.959  1.00  0.00     0.074 A 
ATOM     69  C   UNL A   1      45.022  31.373  32.819  1.00  0.00     0.031 C 
ATOM     70  C   UNL A   1      44.585  29.292  31.546  1.00  0.00     0.031 A 
BRANCH  57  71
ATOM     71  C   UNL A   1      40.383  26.452  28.033  1.00  0.00    -0.014 A 
ATOM     72  C   UNL A   1      39.532  25.490  28.596  1.00  0.00     0.009 A 
ATOM     73  C   UNL A   1      40.828  26.277  26.712  1.00  0.00     0.009 A 
ATOM     74  C   UNL A   1      39.155  24.363  27.860  1.00  0.00     0.001 A 
ATOM     75  C   UNL A   1      40.430  25.163  25.972  1.00  0.00     0.001 A 
ATOM     76  C   UNL A   1      39.600  24.204  26.548  1.00  0.00     0.000 A 
ENDBRANCH  57  71
BRANCH  58  77
ATOM     77  C   UNL A   1      42.497  34.726  33.189  1.00  0.00    -0.014 A 
ATOM     78  C   UNL A   1      42.109  34.795  34.535  1.00  0.00     0.009 A 
ATOM     79  C   UNL A   1      43.164  35.821  32.617  1.00  0.00     0.009 A 
ATOM     80  C   UNL A   1      42.361  35.947  35.284  1.00  0.00     0.001 A 
ATOM     81  C   UNL A   1      43.440  36.959  33.377  1.00  0.00     0.001 A 
ATOM     82  C   UNL A   1      43.030  37.025  34.707  1.00  0.00     0.000 A 
ENDBRANCH  58  77
BRANCH  70  83
ATOM     83  C   UNL A   1      45.924  28.788  32.006  1.00  0.00    -0.014 A 
ATOM     84  C   UNL A   1      46.051  28.044  33.190  1.00  0.00     0.009 A 
ATOM     85  C   UNL A   1      47.067  29.035  31.231  1.00  0.00     0.009 A 
ATOM     86  C   UNL A   1      47.302  27.584  33.603  1.00  0.00     0.001 A 
ATOM     87  C   UNL A   1      48.313  28.550  31.632  1.00  0.00     0.001 A 
ATOM     88  C   UNL A   1      48.431  27.833  32.822  1.00  0.00     0.000 A 
ENDBRANCH  70  83
ENDBRANCH  44  45
ENDBRANCH  37  39
ENDBRANCH  36  37
ENDBRANCH  35  36
ENDBRANCH   1  35
TORSDOF 17
ENDMDL
MODEL 2
REMARK VINA RESULT:      -9.7      5.773     11.141
REMARK SMILES COc1ccc([C@@H]2CC(c3ccc(Cl)cc3)=NN2C2=[NH+]C(=O)[C@@H](CC(=O)OCCOC(=O)c3ccc(-c4c5nc(c(-c6ccccc6)c6ccc([nH]6)c(-c6ccccc6)c6nc(c(-c7ccccc7)c7ccc4[nH]7)C=C6)C=C5)cc3)S2)cc1OC
REMARK SMILES IDX 28 1 27 2 25 3 26 4 24 5 23 6 19 7 20 8 81 9 21 10 22 12
REMARK SMILES IDX 18 13 7 14 8 15 9 16 17 17 6 18 3 19 4 20 83 21 5 22 82 23
REMARK SMILES IDX 2 24 1 25 84 26 85 27 10 28 11 29 16 30 12 31 15 32 13 33
REMARK SMILES IDX 14 34 29 35 30 36 31 37 32 38 33 39 34 40 80 41 35 42 79 43
REMARK SMILES IDX 36 44 37 45 38 46 73 47 39 48 78 49 72 50 74 51 40 52 77 53
REMARK SMILES IDX 71 54 70 55 41 57 63 58 48 59 62 60 49 61 52 62 61 63 75 64
REMARK SMILES IDX 50 65 51 66 60 68 76 69 53 70 42 71 43 72 47 73 44 74 46 75
REMARK SMILES IDX 45 76 64 77 65 78 69 79 66 80 68 81 67 82 54 83 55 84 59 85
REMARK SMILES IDX 56 86 58 87 57 88
REMARK H PARENT 20 11 74 56 52 67
REMARK Flexibility Score: inf
ROOT
ATOM      1  C   UNL A   1      34.635  20.537  25.018  1.00  0.00     0.274 C 
ENDROOT
BRANCH   1   2
ATOM      2  O   UNL A   1      33.417  21.240  25.319  1.00  0.00    -0.462 OA
BRANCH   2   3
ATOM      3  C   UNL A   1      32.767  21.826  24.288  1.00  0.00     0.307 C 
ATOM      4  O   UNL A   1      32.500  21.283  23.224  1.00  0.00    -0.252 OA
BRANCH   3   5
ATOM      5  C   UNL A   1      32.458  23.272  24.567  1.00  0.00     0.150 C 
BRANCH   5   6
ATOM      6  C   UNL A   1      33.009  23.789  25.890  1.00  0.00     0.184 C 
ATOM      7  C   UNL A   1      32.739  26.267  26.246  1.00  0.00     0.340 C 
ATOM      8  N   UNL A   1      31.695  25.662  26.712  1.00  0.00    -0.202 N 
ATOM      9  S   UNL A   1      34.060  25.263  25.712  1.00  0.00    -0.020 SA
ATOM     10  C   UNL A   1      31.841  24.295  26.719  1.00  0.00     0.322 C 
ATOM     11  H   UNL A   1      30.887  26.128  27.026  1.00  0.00     0.316 HD
ATOM     12  O   UNL A   1      31.048  23.530  27.255  1.00  0.00    -0.246 OA
BRANCH   7  13
ATOM     13  N   UNL A   1      32.883  27.621  26.075  1.00  0.00    -0.120 N 
ATOM     14  C   UNL A   1      31.710  28.483  26.229  1.00  0.00     0.243 C 
ATOM     15  C   UNL A   1      32.234  29.687  27.005  1.00  0.00     0.118 C 
ATOM     16  C   UNL A   1      33.708  29.416  26.940  1.00  0.00     0.096 C 
ATOM     17  N   UNL A   1      34.044  28.271  26.436  1.00  0.00    -0.086 NA
BRANCH  14  18
ATOM     18  C   UNL A   1      31.106  28.857  24.885  1.00  0.00     0.003 A 
ATOM     19  C   UNL A   1      29.874  29.397  22.404  1.00  0.00     0.160 A 
ATOM     20  C   UNL A   1      29.849  30.347  23.434  1.00  0.00     0.051 A 
ATOM     21  C   UNL A   1      30.564  28.193  22.581  1.00  0.00     0.161 A 
ATOM     22  C   UNL A   1      30.455  30.078  24.664  1.00  0.00     0.012 A 
ATOM     23  C   UNL A   1      31.171  27.939  23.821  1.00  0.00     0.058 A 
BRANCH  19  24
ATOM     24  O   UNL A   1      29.279  29.717  21.214  1.00  0.00    -0.493 OA
ATOM     25  C   UNL A   1      28.316  30.761  21.378  1.00  0.00     0.278 C 
ENDBRANCH  19  24
BRANCH  21  26
ATOM     26  O   UNL A   1      30.754  27.177  21.684  1.00  0.00    -0.493 OA
ATOM     27  C   UNL A   1      31.742  26.199  21.970  1.00  0.00     0.278 C 
ENDBRANCH  21  26
ENDBRANCH  14  18
BRANCH  16  28
ATOM     28  C   UNL A   1      34.695  30.385  27.452  1.00  0.00     0.000 A 
ATOM     29  C   UNL A   1      34.282  31.698  27.715  1.00  0.00     0.011 A 
ATOM     30  C   UNL A   1      36.029  30.017  27.655  1.00  0.00     0.011 A 
ATOM     31  C   UNL A   1      35.198  32.635  28.195  1.00  0.00     0.021 A 
ATOM     32  C   UNL A   1      36.946  30.961  28.123  1.00  0.00     0.021 A 
ATOM     33  C   UNL A   1      36.527  32.263  28.396  1.00  0.00     0.041 A 
ATOM     34  Cl  UNL A   1      37.658  33.418  28.982  1.00  0.00    -0.084 Cl
ENDBRANCH  16  28
ENDBRANCH   7  13
ENDBRANCH   5   6
ENDBRANCH   3   5
ENDBRANCH   2   3
ENDBRANCH   1   2
BRANCH   1  35
ATOM     35  C   UNL A   1      35.761  21.510  24.667  1.00  0.00     0.275 C 
BRANCH  35  36
ATOM     36  O   UNL A   1      36.567  21.817  25.822  1.00  0.00    -0.458 OA
BRANCH  36  37
ATOM     37  C   UNL A   1      37.867  21.465  25.738  1.00  0.00     0.338 C 
ATOM     38  O   UNL A   1      38.329  20.429  25.277  1.00  0.00    -0.246 OA
BRANCH  37  39
ATOM     39  C   UNL A   1      38.710  22.584  26.171  1.00  0.00     0.060 A 
ATOM     40  C   UNL A   1      39.880  22.305  26.884  1.00  0.00     0.016 A 
ATOM     41  C   UNL A   1      38.324  23.903  25.927  1.00  0.00     0.016 A 
ATOM     42  C   UNL A   1      40.680  23.347  27.344  1.00  0.00     0.010 A 
ATOM     43  C   UNL A   1      39.130  24.948  26.385  1.00  0.00     0.010 A 
ATOM     44  C   UNL A   1      40.313  24.676  27.095  1.00  0.00    -0.014 A 
BRANCH  44  45
ATOM     45  C   UNL A   1      41.175  25.785  27.571  1.00  0.00     0.031 A 
ATOM     46  C   UNL A   1      40.672  26.745  28.608  1.00  0.00     0.074 A 
ATOM     47  C   UNL A   1      42.409  25.931  27.054  1.00  0.00     0.049 A 
ATOM     48  N   UNL A   1      41.247  27.819  29.084  1.00  0.00    -0.248 NA
ATOM     49  C   UNL A   1      39.347  26.464  29.181  1.00  0.00     0.031 C 
ATOM     50  C   UNL A   1      43.020  25.046  26.061  1.00  0.00     0.029 A 
ATOM     51  N   UNL A   1      43.367  26.885  27.288  1.00  0.00    -0.354 N 
ATOM     52  C   UNL A   1      40.350  28.354  30.000  1.00  0.00     0.074 A 
ATOM     53  C   UNL A   1      39.184  27.495  30.001  1.00  0.00     0.031 C 
ATOM     54  C   UNL A   1      44.249  25.501  25.768  1.00  0.00     0.029 A 
ATOM     55  C   UNL A   1      44.492  26.731  26.516  1.00  0.00     0.049 A 
ATOM     56  H   UNL A   1      43.258  27.610  27.945  1.00  0.00     0.167 HD
ATOM     57  C   UNL A   1      40.487  29.461  30.768  1.00  0.00     0.031 A 
ATOM     58  C   UNL A   1      45.584  27.510  26.400  1.00  0.00     0.031 A 
ATOM     59  C   UNL A   1      41.647  30.312  30.767  1.00  0.00     0.049 A 
ATOM     60  C   UNL A   1      45.682  28.764  27.220  1.00  0.00     0.074 A 
ATOM     61  C   UNL A   1      41.891  31.437  31.538  1.00  0.00     0.029 A 
ATOM     62  N   UNL A   1      42.755  30.138  29.952  1.00  0.00    -0.354 N 
ATOM     63  N   UNL A   1      44.839  29.243  28.101  1.00  0.00    -0.248 NA
ATOM     64  C   UNL A   1      46.886  29.587  27.028  1.00  0.00     0.031 C 
ATOM     65  C   UNL A   1      43.123  31.974  31.149  1.00  0.00     0.029 A 
ATOM     66  C   UNL A   1      43.670  31.154  30.175  1.00  0.00     0.049 A 
ATOM     67  H   UNL A   1      42.873  29.401  29.310  1.00  0.00     0.167 HD
ATOM     68  C   UNL A   1      45.414  30.413  28.579  1.00  0.00     0.074 A 
ATOM     69  C   UNL A   1      46.689  30.560  27.907  1.00  0.00     0.031 C 
ATOM     70  C   UNL A   1      44.928  31.290  29.491  1.00  0.00     0.031 A 
BRANCH  57  71
ATOM     71  C   UNL A   1      39.335  29.840  31.654  1.00  0.00    -0.014 A 
ATOM     72  C   UNL A   1      39.317  29.504  33.016  1.00  0.00     0.009 A 
ATOM     73  C   UNL A   1      38.277  30.599  31.127  1.00  0.00     0.009 A 
ATOM     74  C   UNL A   1      38.250  29.898  33.827  1.00  0.00     0.001 A 
ATOM     75  C   UNL A   1      37.224  31.011  31.945  1.00  0.00     0.001 A 
ATOM     76  C   UNL A   1      37.208  30.656  33.291  1.00  0.00     0.000 A 
ENDBRANCH  57  71
BRANCH  58  77
ATOM     77  C   UNL A   1      46.655  27.149  25.435  1.00  0.00    -0.014 A 
ATOM     78  C   UNL A   1      46.727  27.767  24.177  1.00  0.00     0.009 A 
ATOM     79  C   UNL A   1      47.605  26.169  25.765  1.00  0.00     0.009 A 
ATOM     80  C   UNL A   1      47.713  27.393  23.262  1.00  0.00     0.001 A 
ATOM     81  C   UNL A   1      48.607  25.819  24.859  1.00  0.00     0.001 A 
ATOM     82  C   UNL A   1      48.654  26.423  23.605  1.00  0.00     0.000 A 
ENDBRANCH  58  77
BRANCH  70  83
ATOM     83  C   UNL A   1      45.789  32.475  29.826  1.00  0.00    -0.014 A 
ATOM     84  C   UNL A   1      45.704  33.666  29.086  1.00  0.00     0.009 A 
ATOM     85  C   UNL A   1      46.674  32.411  30.912  1.00  0.00     0.009 A 
ATOM     86  C   UNL A   1      46.511  34.756  29.409  1.00  0.00     0.001 A 
ATOM     87  C   UNL A   1      47.461  33.513  31.251  1.00  0.00     0.001 A 
ATOM     88  C   UNL A   1      47.385  34.682  30.494  1.00  0.00     0.000 A 
ENDBRANCH  70  83
ENDBRANCH  44  45
ENDBRANCH  37  39
ENDBRANCH  36  37
ENDBRANCH  35  36
ENDBRANCH   1  35
TORSDOF 17
ENDMDL
MODEL 3
REMARK VINA RESULT:      -9.2      5.650     10.490
REMARK SMILES COc1ccc([C@@H]2CC(c3ccc(Cl)cc3)=NN2C2=[NH+]C(=O)[C@@H](CC(=O)OCCOC(=O)c3ccc(-c4c5nc(c(-c6ccccc6)c6ccc([nH]6)c(-c6ccccc6)c6nc(c(-c7ccccc7)c7ccc4[nH]7)C=C6)C=C5)cc3)S2)cc1OC
REMARK SMILES IDX 28 1 27 2 25 3 26 4 24 5 23 6 19 7 20 8 81 9 21 10 22 12
REMARK SMILES IDX 18 13 7 14 8 15 9 16 17 17 6 18 3 19 4 20 83 21 5 22 82 23
REMARK SMILES IDX 2 24 1 25 84 26 85 27 10 28 11 29 16 30 12 31 15 32 13 33
REMARK SMILES IDX 14 34 29 35 30 36 31 37 32 38 33 39 34 40 80 41 35 42 79 43
REMARK SMILES IDX 36 44 37 45 38 46 73 47 39 48 78 49 72 50 74 51 40 52 77 53
REMARK SMILES IDX 71 54 70 55 41 57 63 58 48 59 62 60 49 61 52 62 61 63 75 64
REMARK SMILES IDX 50 65 51 66 60 68 76 69 53 70 42 71 43 72 47 73 44 74 46 75
REMARK SMILES IDX 45 76 64 77 65 78 69 79 66 80 68 81 67 82 54 83 55 84 59 85
REMARK SMILES IDX 56 86 58 87 57 88
REMARK H PARENT 20 11 74 56 52 67
REMARK Flexibility Score: inf
ROOT
ATOM      1  C   UNL A   1      35.117  20.574  24.956  1.00  0.00     0.274 C 
ENDROOT
BRANCH   1   2
ATOM      2  O   UNL A   1      34.026  21.417  25.366  1.00  0.00    -0.462 OA
BRANCH   2   3
ATOM      3  C   UNL A   1      33.203  21.882  24.398  1.00  0.00     0.307 C 
ATOM      4  O   UNL A   1      32.933  21.293  23.360  1.00  0.00    -0.252 OA
BRANCH   3   5
ATOM      5  C   UNL A   1      32.695  23.264  24.709  1.00  0.00     0.150 C 
BRANCH   5   6
ATOM      6  C   UNL A   1      33.150  23.814  26.055  1.00  0.00     0.184 C 
ATOM      7  C   UNL A   1      32.807  26.291  26.350  1.00  0.00     0.340 C 
ATOM      8  N   UNL A   1      31.749  25.671  26.759  1.00  0.00    -0.202 N 
ATOM      9  S   UNL A   1      34.179  25.307  25.918  1.00  0.00    -0.020 SA
ATOM     10  C   UNL A   1      31.922  24.308  26.800  1.00  0.00     0.322 C 
ATOM     11  H   UNL A   1      30.913  26.124  27.014  1.00  0.00     0.316 HD
ATOM     12  O   UNL A   1      31.112  23.535  27.298  1.00  0.00    -0.246 OA
BRANCH   7  13
ATOM     13  N   UNL A   1      32.934  27.644  26.164  1.00  0.00    -0.120 N 
ATOM     14  C   UNL A   1      31.748  28.492  26.301  1.00  0.00     0.243 C 
ATOM     15  C   UNL A   1      32.250  29.712  27.067  1.00  0.00     0.118 C 
ATOM     16  C   UNL A   1      33.728  29.461  27.015  1.00  0.00     0.096 C 
ATOM     17  N   UNL A   1      34.083  28.315  26.525  1.00  0.00    -0.086 NA
BRANCH  14  18
ATOM     18  C   UNL A   1      31.148  28.843  24.949  1.00  0.00     0.003 A 
ATOM     19  C   UNL A   1      29.912  29.348  22.463  1.00  0.00     0.160 A 
ATOM     20  C   UNL A   1      29.971  30.346  23.446  1.00  0.00     0.051 A 
ATOM     21  C   UNL A   1      30.521  28.109  22.689  1.00  0.00     0.161 A 
ATOM     22  C   UNL A   1      30.579  30.094  24.679  1.00  0.00     0.012 A 
ATOM     23  C   UNL A   1      31.131  27.873  23.930  1.00  0.00     0.058 A 
BRANCH  19  24
ATOM     24  O   UNL A   1      29.320  29.652  21.268  1.00  0.00    -0.493 OA
ATOM     25  C   UNL A   1      28.636  30.906  21.330  1.00  0.00     0.278 C 
ENDBRANCH  19  24
BRANCH  21  26
ATOM     26  O   UNL A   1      30.624  27.041  21.840  1.00  0.00    -0.493 OA
ATOM     27  C   UNL A   1      31.893  26.425  21.681  1.00  0.00     0.278 C 
ENDBRANCH  21  26
ENDBRANCH  14  18
BRANCH  16  28
ATOM     28  C   UNL A   1      34.699  30.449  27.522  1.00  0.00     0.000 A 
ATOM     29  C   UNL A   1      34.301  31.786  27.645  1.00  0.00     0.011 A 
ATOM     30  C   UNL A   1      36.004  30.073  27.856  1.00  0.00     0.011 A 
ATOM     31  C   UNL A   1      35.203  32.742  28.119  1.00  0.00     0.021 A 
ATOM     32  C   UNL A   1      36.907  31.034  28.316  1.00  0.00     0.021 A 
ATOM     33  C   UNL A   1      36.502  32.361  28.450  1.00  0.00     0.041 A 
ATOM     34  Cl  UNL A   1      37.615  33.538  29.028  1.00  0.00    -0.084 Cl
ENDBRANCH  16  28
ENDBRANCH   7  13
ENDBRANCH   5   6
ENDBRANCH   3   5
ENDBRANCH   2   3
ENDBRANCH   1   2
BRANCH   1  35
ATOM     35  C   UNL A   1      36.362  21.401  24.631  1.00  0.00     0.275 C 
BRANCH  35  36
ATOM     36  O   UNL A   1      36.995  21.887  25.831  1.00  0.00    -0.458 OA
BRANCH  36  37
ATOM     37  C   UNL A   1      38.301  21.576  25.969  1.00  0.00     0.338 C 
ATOM     38  O   UNL A   1      38.843  20.509  25.713  1.00  0.00    -0.246 OA
BRANCH  37  39
ATOM     39  C   UNL A   1      39.054  22.772  26.364  1.00  0.00     0.060 A 
ATOM     40  C   UNL A   1      40.245  22.608  27.077  1.00  0.00     0.016 A 
ATOM     41  C   UNL A   1      38.562  24.048  26.083  1.00  0.00     0.016 A 
ATOM     42  C   UNL A   1      40.961  23.725  27.501  1.00  0.00     0.010 A 
ATOM     43  C   UNL A   1      39.284  25.167  26.505  1.00  0.00     0.010 A 
ATOM     44  C   UNL A   1      40.488  25.012  27.215  1.00  0.00    -0.014 A 
BRANCH  44  45
ATOM     45  C   UNL A   1      41.260  26.200  27.652  1.00  0.00     0.031 A 
ATOM     46  C   UNL A   1      42.640  26.446  27.119  1.00  0.00     0.074 A 
ATOM     47  C   UNL A   1      40.716  27.050  28.543  1.00  0.00     0.049 A 
ATOM     48  N   UNL A   1      43.495  27.380  27.445  1.00  0.00    -0.248 NA
ATOM     49  C   UNL A   1      43.124  25.517  26.086  1.00  0.00     0.031 C 
ATOM     50  C   UNL A   1      39.373  26.933  29.113  1.00  0.00     0.029 A 
ATOM     51  N   UNL A   1      41.233  28.176  29.132  1.00  0.00    -0.354 N 
ATOM     52  C   UNL A   1      44.626  27.144  26.674  1.00  0.00     0.074 A 
ATOM     53  C   UNL A   1      44.354  25.969  25.874  1.00  0.00     0.031 C 
ATOM     54  C   UNL A   1      39.174  27.945  29.973  1.00  0.00     0.029 A 
ATOM     55  C   UNL A   1      40.388  28.751  30.048  1.00  0.00     0.049 A 
ATOM     56  H   UNL A   1      42.125  28.536  28.919  1.00  0.00     0.167 HD
ATOM     57  C   UNL A   1      45.784  27.846  26.638  1.00  0.00     0.031 A 
ATOM     58  C   UNL A   1      40.580  29.794  30.878  1.00  0.00     0.031 A 
ATOM     59  C   UNL A   1      46.052  29.015  27.432  1.00  0.00     0.049 A 
ATOM     60  C   UNL A   1      41.897  30.516  30.859  1.00  0.00     0.074 A 
ATOM     61  C   UNL A   1      47.184  29.812  27.438  1.00  0.00     0.029 A 
ATOM     62  N   UNL A   1      45.181  29.551  28.367  1.00  0.00    -0.354 N 
ATOM     63  N   UNL A   1      42.947  30.299  30.106  1.00  0.00    -0.248 NA
ATOM     64  C   UNL A   1      42.055  31.627  31.809  1.00  0.00     0.031 C 
ATOM     65  C   UNL A   1      47.019  30.798  28.416  1.00  0.00     0.029 A 
ATOM     66  C   UNL A   1      45.763  30.648  28.981  1.00  0.00     0.049 A 
ATOM     67  H   UNL A   1      44.281  29.204  28.565  1.00  0.00     0.167 HD
ATOM     68  C   UNL A   1      43.884  31.253  30.478  1.00  0.00     0.074 A 
ATOM     69  C   UNL A   1      43.271  32.065  31.509  1.00  0.00     0.031 C 
ATOM     70  C   UNL A   1      45.143  31.439  30.011  1.00  0.00     0.031 A 
BRANCH  57  71
ATOM     71  C   UNL A   1      46.872  27.345  25.731  1.00  0.00    -0.014 A 
ATOM     72  C   UNL A   1      47.814  26.402  26.169  1.00  0.00     0.009 A 
ATOM     73  C   UNL A   1      46.917  27.781  24.397  1.00  0.00     0.009 A 
ATOM     74  C   UNL A   1      48.796  25.926  25.296  1.00  0.00     0.001 A 
ATOM     75  C   UNL A   1      47.883  27.285  23.520  1.00  0.00     0.001 A 
ATOM     76  C   UNL A   1      48.825  26.364  23.972  1.00  0.00     0.000 A 
ENDBRANCH  57  71
BRANCH  58  77
ATOM     77  C   UNL A   1      39.511  30.191  31.832  1.00  0.00    -0.014 A 
ATOM     78  C   UNL A   1      39.445  29.625  33.113  1.00  0.00     0.009 A 
ATOM     79  C   UNL A   1      38.540  31.133  31.454  1.00  0.00     0.009 A 
ATOM     80  C   UNL A   1      38.414  29.976  33.988  1.00  0.00     0.001 A 
ATOM     81  C   UNL A   1      37.528  31.502  32.341  1.00  0.00     0.001 A 
ATOM     82  C   UNL A   1      37.460  30.916  33.604  1.00  0.00     0.000 A 
ENDBRANCH  58  77
BRANCH  70  83
ATOM     83  C   UNL A   1      45.930  32.575  30.600  1.00  0.00    -0.014 A 
ATOM     84  C   UNL A   1      45.857  33.867  30.055  1.00  0.00     0.009 A 
ATOM     85  C   UNL A   1      46.731  32.357  31.731  1.00  0.00     0.009 A 
ATOM     86  C   UNL A   1      46.595  34.910  30.614  1.00  0.00     0.001 A 
ATOM     87  C   UNL A   1      47.447  33.409  32.305  1.00  0.00     0.001 A 
ATOM     88  C   UNL A   1      47.386  34.682  31.740  1.00  0.00     0.000 A 
ENDBRANCH  70  83
ENDBRANCH  44  45
ENDBRANCH  37  39
ENDBRANCH  36  37
ENDBRANCH  35  36
ENDBRANCH   1  35
TORSDOF 17
ENDMDL
