MODEL 1
REMARK VINA RESULT:     -14.1      0.000      0.000
REMARK SMILES Cc1ccc(S(=O)(=O)n2cc(C(=O)C(=O)N[C@@H](Cc3cnc[nH]3)C(=O)OCCOC(=O)c3ccc(-c4c5nc(c(-c6ccccc6)c6ccc([nH]6)c(-c6ccccc6)c6nc(c(-c7ccccc7)c7ccc4[nH]7)C=C6)C=C5)cc3)c3ccccc32)cc1
REMARK SMILES IDX 26 1 24 2 25 3 17 4 16 5 14 6 15 7 12 9 13 10 11 11 9 12
REMARK SMILES IDX 10 13 85 14 80 15 84 16 81 17 83 18 82 19 6 20 7 21 8 22
REMARK SMILES IDX 5 23 1 24 2 25 3 26 87 27 4 28 86 29 18 30 19 31 20 32 23 33
REMARK SMILES IDX 21 34 22 35 27 37 28 38 29 39 30 40 31 41 32 42 33 43 79 44
REMARK SMILES IDX 34 45 78 46 35 47 36 48 37 49 72 50 38 51 77 52 71 53 73 54
REMARK SMILES IDX 39 55 76 56 70 57 69 58 40 60 62 61 47 62 61 63 48 64 51 65
REMARK SMILES IDX 60 66 74 67 49 68 50 69 59 71 75 72 52 73 41 74 42 75 46 76
REMARK SMILES IDX 43 77 45 78 44 79 63 80 64 81 68 82 65 83 67 84 66 85 53 86
REMARK SMILES IDX 54 87 58 88 55 89 57 90 56 91
REMARK H PARENT 16 8 23 36 73 59 51 70
REMARK Flexibility Score: inf
ROOT
ATOM      1  O   UNL A   1      36.442  21.840  25.818  1.00  0.00    -0.461 OA
ENDROOT
BRANCH   1   2
ATOM      2  C   UNL A   1      35.223  21.660  25.037  1.00  0.00     0.329 C 
ATOM      3  O   UNL A   1      35.545  22.082  23.894  1.00  0.00    -0.250 OA
BRANCH   2   4
ATOM      4  C   UNL A   1      33.426  20.640  25.799  1.00  0.00     0.198 C 
BRANCH   4   5
ATOM      5  N   UNL A   1      31.819  21.164  25.783  1.00  0.00    -0.335 N 
ATOM      6  C   UNL A   1      31.114  22.295  26.144  1.00  0.00     0.293 C 
ATOM      7  O   UNL A   1      29.888  22.206  26.129  1.00  0.00    -0.265 OA
ATOM      8  H   UNL A   1      31.221  20.473  25.414  1.00  0.00     0.164 HD
BRANCH   6   9
ATOM      9  C   UNL A   1      31.777  23.635  26.560  1.00  0.00     0.252 C 
ATOM     10  O   UNL A   1      32.006  23.819  27.753  1.00  0.00    -0.283 OA
BRANCH   9  11
ATOM     11  C   UNL A   1      32.067  24.696  25.561  1.00  0.00     0.054 A 
ATOM     12  N   UNL A   1      32.524  26.690  24.629  1.00  0.00    -0.240 N 
ATOM     13  C   UNL A   1      32.106  26.066  25.779  1.00  0.00     0.117 A 
ATOM     14  C   UNL A   1      32.753  25.775  23.626  1.00  0.00     0.065 A 
ATOM     15  C   UNL A   1      32.411  24.521  24.163  1.00  0.00     0.012 A 
ATOM     16  C   UNL A   1      33.211  25.923  22.302  1.00  0.00     0.028 A 
ATOM     17  C   UNL A   1      32.484  23.397  23.310  1.00  0.00     0.011 A 
ATOM     18  C   UNL A   1      33.257  24.793  21.485  1.00  0.00     0.002 A 
ATOM     19  C   UNL A   1      32.887  23.547  21.977  1.00  0.00     0.001 A 
BRANCH  12  20
ATOM     20  S   UNL A   1      32.828  28.367  24.515  1.00  0.00     0.268 S 
ATOM     21  O   UNL A   1      33.894  28.487  23.538  1.00  0.00    -0.201 OA
ATOM     22  O   UNL A   1      32.982  28.835  25.880  1.00  0.00    -0.201 OA
BRANCH  20  23
ATOM     23  C   UNL A   1      31.400  29.182  23.847  1.00  0.00     0.088 A 
ATOM     24  C   UNL A   1      27.831  30.836  22.092  1.00  0.00     0.044 C 
ATOM     25  C   UNL A   1      29.082  30.274  22.701  1.00  0.00    -0.051 A 
ATOM     26  C   UNL A   1      29.824  29.311  22.007  1.00  0.00     0.005 A 
ATOM     27  C   UNL A   1      29.527  30.701  23.958  1.00  0.00     0.005 A 
ATOM     28  C   UNL A   1      30.974  28.761  22.579  1.00  0.00     0.022 A 
ATOM     29  C   UNL A   1      30.690  30.172  24.527  1.00  0.00     0.022 A 
ENDBRANCH  20  23
ENDBRANCH  12  20
ENDBRANCH   9  11
ENDBRANCH   6   9
ENDBRANCH   4   5
BRANCH   4  30
ATOM     30  C   UNL A   1      32.905  18.926  25.797  1.00  0.00     0.092 C 
BRANCH  30  31
ATOM     31  C   UNL A   1      33.091  18.114  24.533  1.00  0.00     0.037 A 
ATOM     32  C   UNL A   1      32.528  18.181  23.276  1.00  0.00     0.134 A 
ATOM     33  N   UNL A   1      33.959  17.044  24.435  1.00  0.00    -0.348 N 
ATOM     34  N   UNL A   1      33.186  17.354  22.398  1.00  0.00    -0.245 NA
ATOM     35  C   UNL A   1      34.085  16.727  23.116  1.00  0.00     0.196 A 
ATOM     36  H   UNL A   1      34.408  16.591  25.186  1.00  0.00     0.167 HD
ENDBRANCH  30  31
ENDBRANCH   4  30
ENDBRANCH   2   4
ENDBRANCH   1   2
BRANCH   1  37
ATOM     37  C   UNL A   1      37.687  21.969  25.111  1.00  0.00     0.274 C 
BRANCH  37  38
ATOM     38  C   UNL A   1      38.728  20.987  25.671  1.00  0.00     0.275 C 
BRANCH  38  39
ATOM     39  O   UNL A   1      40.068  21.518  25.885  1.00  0.00    -0.458 OA
BRANCH  39  40
ATOM     40  C   UNL A   1      41.225  20.799  25.814  1.00  0.00     0.338 C 
ATOM     41  O   UNL A   1      41.274  19.603  25.579  1.00  0.00    -0.246 OA
BRANCH  40  42
ATOM     42  C   UNL A   1      42.386  21.459  26.431  1.00  0.00     0.060 A 
ATOM     43  C   UNL A   1      42.370  21.504  28.238  1.00  0.00     0.016 A 
ATOM     44  C   UNL A   1      43.236  22.746  25.508  1.00  0.00     0.016 A 
ATOM     45  C   UNL A   1      42.983  22.979  29.112  1.00  0.00     0.010 A 
ATOM     46  C   UNL A   1      43.851  24.194  26.391  1.00  0.00     0.010 A 
ATOM     47  C   UNL A   1      43.659  24.334  28.178  1.00  0.00    -0.014 A 
BRANCH  47  48
ATOM     48  C   UNL A   1      43.611  25.754  28.556  1.00  0.00     0.031 A 
ATOM     49  C   UNL A   1      42.348  26.451  28.289  1.00  0.00     0.074 A 
ATOM     50  C   UNL A   1      44.442  26.164  29.537  1.00  0.00     0.049 A 
ATOM     51  N   UNL A   1      41.514  26.839  29.198  1.00  0.00    -0.248 NA
ATOM     52  C   UNL A   1      41.850  26.576  26.914  1.00  0.00     0.031 C 
ATOM     53  C   UNL A   1      44.282  27.267  30.476  1.00  0.00     0.029 A 
ATOM     54  N   UNL A   1      45.754  25.764  29.728  1.00  0.00    -0.354 N 
ATOM     55  C   UNL A   1      40.466  27.443  28.540  1.00  0.00     0.074 A 
ATOM     56  C   UNL A   1      40.632  27.081  27.133  1.00  0.00     0.031 C 
ATOM     57  C   UNL A   1      45.493  27.642  30.926  1.00  0.00     0.029 A 
ATOM     58  C   UNL A   1      46.490  26.859  30.212  1.00  0.00     0.049 A 
ATOM     59  H   UNL A   1      46.111  24.863  29.553  1.00  0.00     0.167 HD
ATOM     60  C   UNL A   1      40.121  28.726  28.817  1.00  0.00     0.031 A 
ATOM     61  C   UNL A   1      47.445  27.380  29.382  1.00  0.00     0.031 A 
ATOM     62  C   UNL A   1      41.232  29.543  29.241  1.00  0.00     0.049 A 
ATOM     63  C   UNL A   1      46.938  28.621  28.667  1.00  0.00     0.074 A 
ATOM     64  C   UNL A   1      41.765  29.916  30.457  1.00  0.00     0.029 A 
ATOM     65  N   UNL A   1      42.166  29.891  28.279  1.00  0.00    -0.354 N 
ATOM     66  N   UNL A   1      45.698  29.037  28.716  1.00  0.00    -0.248 NA
ATOM     67  C   UNL A   1      47.763  29.479  27.822  1.00  0.00     0.031 C 
ATOM     68  C   UNL A   1      43.067  30.450  30.209  1.00  0.00     0.029 A 
ATOM     69  C   UNL A   1      43.294  30.452  28.842  1.00  0.00     0.049 A 
ATOM     70  H   UNL A   1      42.041  29.754  27.312  1.00  0.00     0.167 HD
ATOM     71  C   UNL A   1      45.556  30.191  28.006  1.00  0.00     0.074 A 
ATOM     72  C   UNL A   1      46.864  30.385  27.397  1.00  0.00     0.031 C 
ATOM     73  C   UNL A   1      44.387  30.902  27.985  1.00  0.00     0.031 A 
BRANCH  60  74
ATOM     74  C   UNL A   1      38.658  29.009  28.967  1.00  0.00    -0.014 A 
ATOM     75  C   UNL A   1      37.924  29.491  27.874  1.00  0.00     0.009 A 
ATOM     76  C   UNL A   1      37.981  28.898  30.203  1.00  0.00     0.009 A 
ATOM     77  C   UNL A   1      36.590  29.894  28.019  1.00  0.00     0.001 A 
ATOM     78  C   UNL A   1      36.647  29.295  30.347  1.00  0.00     0.001 A 
ATOM     79  C   UNL A   1      35.955  29.806  29.256  1.00  0.00     0.000 A 
ENDBRANCH  60  74
BRANCH  61  80
ATOM     80  C   UNL A   1      48.285  26.275  28.806  1.00  0.00    -0.014 A 
ATOM     81  C   UNL A   1      48.155  26.067  27.410  1.00  0.00     0.009 A 
ATOM     82  C   UNL A   1      49.458  25.835  29.432  1.00  0.00     0.009 A 
ATOM     83  C   UNL A   1      49.250  25.667  26.639  1.00  0.00     0.001 A 
ATOM     84  C   UNL A   1      50.530  25.364  28.655  1.00  0.00     0.001 A 
ATOM     85  C   UNL A   1      50.451  25.354  27.262  1.00  0.00     0.000 A 
ENDBRANCH  61  80
BRANCH  73  86
ATOM     86  C   UNL A   1      44.195  32.125  27.132  1.00  0.00    -0.014 A 
ATOM     87  C   UNL A   1      43.935  33.389  27.673  1.00  0.00     0.009 A 
ATOM     88  C   UNL A   1      44.226  32.030  25.726  1.00  0.00     0.009 A 
ATOM     89  C   UNL A   1      43.863  34.525  26.860  1.00  0.00     0.001 A 
ATOM     90  C   UNL A   1      44.114  33.154  24.906  1.00  0.00     0.001 A 
ATOM     91  C   UNL A   1      43.968  34.409  25.477  1.00  0.00     0.000 A 
ENDBRANCH  73  86
ENDBRANCH  47  48
ENDBRANCH  40  42
ENDBRANCH  39  40
ENDBRANCH  38  39
ENDBRANCH  37  38
ENDBRANCH   1  37
TORSDOF 18
ENDMDL
MODEL 2
REMARK VINA RESULT:     -13.7      1.787      3.185
REMARK SMILES Cc1ccc(S(=O)(=O)n2cc(C(=O)C(=O)N[C@@H](Cc3cnc[nH]3)C(=O)OCCOC(=O)c3ccc(-c4c5nc(c(-c6ccccc6)c6ccc([nH]6)c(-c6ccccc6)c6nc(c(-c7ccccc7)c7ccc4[nH]7)C=C6)C=C5)cc3)c3ccccc32)cc1
REMARK SMILES IDX 26 1 24 2 25 3 17 4 16 5 14 6 15 7 12 9 13 10 11 11 9 12
REMARK SMILES IDX 10 13 85 14 80 15 84 16 81 17 83 18 82 19 6 20 7 21 8 22
REMARK SMILES IDX 5 23 1 24 2 25 3 26 87 27 4 28 86 29 18 30 19 31 20 32 23 33
REMARK SMILES IDX 21 34 22 35 27 37 28 38 29 39 30 40 31 41 32 42 33 43 79 44
REMARK SMILES IDX 34 45 78 46 35 47 36 48 37 49 72 50 38 51 77 52 71 53 73 54
REMARK SMILES IDX 39 55 76 56 70 57 69 58 40 60 62 61 47 62 61 63 48 64 51 65
REMARK SMILES IDX 60 66 74 67 49 68 50 69 59 71 75 72 52 73 41 74 42 75 46 76
REMARK SMILES IDX 43 77 45 78 44 79 63 80 64 81 68 82 65 83 67 84 66 85 53 86
REMARK SMILES IDX 54 87 58 88 55 89 57 90 56 91
REMARK H PARENT 16 8 23 36 73 59 51 70
REMARK Flexibility Score: inf
ROOT
ATOM      1  O   UNL A   1      36.714  22.554  24.859  1.00  0.00    -0.461 OA
ENDROOT
BRANCH   1   2
ATOM      2  C   UNL A   1      35.415  23.187  25.059  1.00  0.00     0.329 C 
ATOM      3  O   UNL A   1      35.686  24.184  25.781  1.00  0.00    -0.250 OA
BRANCH   2   4
ATOM      4  C   UNL A   1      33.572  22.535  24.045  1.00  0.00     0.198 C 
BRANCH   4   5
ATOM      5  N   UNL A   1      32.067  22.157  24.715  1.00  0.00    -0.335 N 
ATOM      6  C   UNL A   1      31.267  22.616  25.743  1.00  0.00     0.293 C 
ATOM      7  O   UNL A   1      30.284  21.932  26.021  1.00  0.00    -0.265 OA
ATOM      8  H   UNL A   1      31.644  21.404  24.242  1.00  0.00     0.164 HD
BRANCH   6   9
ATOM      9  C   UNL A   1      31.544  23.916  26.544  1.00  0.00     0.252 C 
ATOM     10  O   UNL A   1      31.692  23.823  27.760  1.00  0.00    -0.283 OA
BRANCH   9  11
ATOM     11  C   UNL A   1      31.561  25.245  25.878  1.00  0.00     0.054 A 
ATOM     12  N   UNL A   1      32.269  27.191  25.006  1.00  0.00    -0.240 N 
ATOM     13  C   UNL A   1      32.624  26.134  25.808  1.00  0.00     0.117 A 
ATOM     14  C   UNL A   1      30.979  27.051  24.545  1.00  0.00     0.065 A 
ATOM     15  C   UNL A   1      30.488  25.870  25.131  1.00  0.00     0.012 A 
ATOM     16  C   UNL A   1      30.193  27.845  23.687  1.00  0.00     0.028 A 
ATOM     17  C   UNL A   1      29.141  25.522  24.879  1.00  0.00     0.011 A 
ATOM     18  C   UNL A   1      28.864  27.477  23.474  1.00  0.00     0.002 A 
ATOM     19  C   UNL A   1      28.340  26.338  24.071  1.00  0.00     0.001 A 
BRANCH  12  20
ATOM     20  S   UNL A   1      33.340  28.444  24.557  1.00  0.00     0.268 S 
ATOM     21  O   UNL A   1      32.665  29.144  23.479  1.00  0.00    -0.201 OA
ATOM     22  O   UNL A   1      34.632  27.812  24.369  1.00  0.00    -0.201 OA
BRANCH  20  23
ATOM     23  C   UNL A   1      33.513  29.585  25.906  1.00  0.00     0.088 A 
ATOM     24  C   UNL A   1      34.277  32.404  29.072  1.00  0.00     0.044 C 
ATOM     25  C   UNL A   1      34.000  31.414  27.978  1.00  0.00    -0.051 A 
ATOM     26  C   UNL A   1      34.979  30.479  27.619  1.00  0.00     0.005 A 
ATOM     27  C   UNL A   1      32.771  31.405  27.308  1.00  0.00     0.005 A 
ATOM     28  C   UNL A   1      34.740  29.573  26.583  1.00  0.00     0.022 A 
ATOM     29  C   UNL A   1      32.517  30.485  26.285  1.00  0.00     0.022 A 
ENDBRANCH  20  23
ENDBRANCH  12  20
ENDBRANCH   9  11
ENDBRANCH   6   9
ENDBRANCH   4   5
BRANCH   4  30
ATOM     30  C   UNL A   1      32.806  22.998  22.495  1.00  0.00     0.092 C 
BRANCH  30  31
ATOM     31  C   UNL A   1      32.850  24.451  22.070  1.00  0.00     0.037 A 
ATOM     32  C   UNL A   1      33.825  25.425  22.135  1.00  0.00     0.134 A 
ATOM     33  N   UNL A   1      31.785  25.106  21.484  1.00  0.00    -0.348 N 
ATOM     34  N   UNL A   1      33.457  26.537  21.417  1.00  0.00    -0.245 NA
ATOM     35  C   UNL A   1      32.245  26.288  20.985  1.00  0.00     0.196 A 
ATOM     36  H   UNL A   1      30.858  24.778  21.435  1.00  0.00     0.167 HD
ENDBRANCH  30  31
ENDBRANCH   4  30
ENDBRANCH   2   4
ENDBRANCH   1   2
BRANCH   1  37
ATOM     37  C   UNL A   1      37.762  22.844  25.800  1.00  0.00     0.274 C 
BRANCH  37  38
ATOM     38  C   UNL A   1      38.743  21.664  25.893  1.00  0.00     0.275 C 
BRANCH  38  39
ATOM     39  O   UNL A   1      40.086  21.977  26.364  1.00  0.00    -0.458 OA
BRANCH  39  40
ATOM     40  C   UNL A   1      41.214  21.274  26.061  1.00  0.00     0.338 C 
ATOM     41  O   UNL A   1      41.220  20.100  25.729  1.00  0.00    -0.246 OA
BRANCH  40  42
ATOM     42  C   UNL A   1      42.461  21.892  26.540  1.00  0.00     0.060 A 
ATOM     43  C   UNL A   1      42.672  21.895  28.336  1.00  0.00     0.016 A 
ATOM     44  C   UNL A   1      43.221  23.181  25.544  1.00  0.00     0.016 A 
ATOM     45  C   UNL A   1      43.427  23.336  29.155  1.00  0.00     0.010 A 
ATOM     46  C   UNL A   1      43.979  24.594  26.372  1.00  0.00     0.010 A 
ATOM     47  C   UNL A   1      44.015  24.696  28.172  1.00  0.00    -0.014 A 
BRANCH  47  48
ATOM     48  C   UNL A   1      44.051  26.107  28.581  1.00  0.00     0.031 A 
ATOM     49  C   UNL A   1      42.760  26.802  28.620  1.00  0.00     0.074 A 
ATOM     50  C   UNL A   1      45.081  26.502  29.359  1.00  0.00     0.049 A 
ATOM     51  N   UNL A   1      42.151  27.165  29.702  1.00  0.00    -0.248 NA
ATOM     52  C   UNL A   1      41.965  26.953  27.396  1.00  0.00     0.031 C 
ATOM     53  C   UNL A   1      45.134  27.585  30.334  1.00  0.00     0.029 A 
ATOM     54  N   UNL A   1      46.403  26.106  29.241  1.00  0.00    -0.354 N 
ATOM     55  C   UNL A   1      40.981  27.776  29.310  1.00  0.00     0.074 A 
ATOM     56  C   UNL A   1      40.826  27.444  27.894  1.00  0.00     0.031 C 
ATOM     57  C   UNL A   1      46.415  27.958  30.508  1.00  0.00     0.029 A 
ATOM     58  C   UNL A   1      47.228  27.196  29.571  1.00  0.00     0.049 A 
ATOM     59  H   UNL A   1      46.713  25.212  28.971  1.00  0.00     0.167 HD
ATOM     60  C   UNL A   1      40.704  29.051  29.685  1.00  0.00     0.031 A 
ATOM     61  C   UNL A   1      47.971  27.740  28.559  1.00  0.00     0.031 A 
ATOM     62  C   UNL A   1      41.881  29.866  29.865  1.00  0.00     0.049 A 
ATOM     63  C   UNL A   1      47.313  28.993  28.003  1.00  0.00     0.074 A 
ATOM     64  C   UNL A   1      42.674  30.218  30.938  1.00  0.00     0.029 A 
ATOM     65  N   UNL A   1      42.575  30.240  28.726  1.00  0.00    -0.354 N 
ATOM     66  N   UNL A   1      46.115  29.400  28.339  1.00  0.00    -0.248 NA
ATOM     67  C   UNL A   1      47.926  29.873  27.013  1.00  0.00     0.031 C 
ATOM     68  C   UNL A   1      43.886  30.765  30.416  1.00  0.00     0.029 A 
ATOM     69  C   UNL A   1      43.799  30.796  29.033  1.00  0.00     0.049 A 
ATOM     70  H   UNL A   1      42.236  30.122  27.809  1.00  0.00     0.167 HD
ATOM     71  C   UNL A   1      45.816  30.567  27.704  1.00  0.00     0.074 A 
ATOM     72  C   UNL A   1      46.953  30.782  26.821  1.00  0.00     0.031 C 
ATOM     73  C   UNL A   1      44.671  31.271  27.963  1.00  0.00     0.031 A 
BRANCH  60  74
ATOM     74  C   UNL A   1      39.313  29.321  30.166  1.00  0.00    -0.014 A 
ATOM     75  C   UNL A   1      38.538  30.310  29.544  1.00  0.00     0.009 A 
ATOM     76  C   UNL A   1      38.757  28.681  31.297  1.00  0.00     0.009 A 
ATOM     77  C   UNL A   1      37.288  30.680  30.057  1.00  0.00     0.001 A 
ATOM     78  C   UNL A   1      37.506  29.045  31.807  1.00  0.00     0.001 A 
ATOM     79  C   UNL A   1      36.777  30.056  31.192  1.00  0.00     0.000 A 
ENDBRANCH  60  74
BRANCH  61  80
ATOM     80  C   UNL A   1      48.660  26.653  27.785  1.00  0.00    -0.014 A 
ATOM     81  C   UNL A   1      48.273  26.523  26.427  1.00  0.00     0.009 A 
ATOM     82  C   UNL A   1      49.915  26.159  28.163  1.00  0.00     0.009 A 
ATOM     83  C   UNL A   1      49.198  26.145  25.451  1.00  0.00     0.001 A 
ATOM     84  C   UNL A   1      50.815  25.711  27.181  1.00  0.00     0.001 A 
ATOM     85  C   UNL A   1      50.484  25.777  25.827  1.00  0.00     0.000 A 
ENDBRANCH  61  80
BRANCH  73  86
ATOM     86  C   UNL A   1      44.291  32.511  27.201  1.00  0.00    -0.014 A 
ATOM     87  C   UNL A   1      44.136  32.524  25.811  1.00  0.00     0.009 A 
ATOM     88  C   UNL A   1      44.119  33.739  27.871  1.00  0.00     0.009 A 
ATOM     89  C   UNL A   1      43.682  33.666  25.143  1.00  0.00     0.001 A 
ATOM     90  C   UNL A   1      43.707  34.894  27.205  1.00  0.00     0.001 A 
ATOM     91  C   UNL A   1      43.453  34.847  25.842  1.00  0.00     0.000 A 
ENDBRANCH  73  86
ENDBRANCH  47  48
ENDBRANCH  40  42
ENDBRANCH  39  40
ENDBRANCH  38  39
ENDBRANCH  37  38
ENDBRANCH   1  37
TORSDOF 18
ENDMDL
MODEL 3
REMARK VINA RESULT:     -13.1      3.787      9.466
REMARK SMILES Cc1ccc(S(=O)(=O)n2cc(C(=O)C(=O)N[C@@H](Cc3cnc[nH]3)C(=O)OCCOC(=O)c3ccc(-c4c5nc(c(-c6ccccc6)c6ccc([nH]6)c(-c6ccccc6)c6nc(c(-c7ccccc7)c7ccc4[nH]7)C=C6)C=C5)cc3)c3ccccc32)cc1
REMARK SMILES IDX 26 1 24 2 25 3 17 4 16 5 14 6 15 7 12 9 13 10 11 11 9 12
REMARK SMILES IDX 10 13 85 14 80 15 84 16 81 17 83 18 82 19 6 20 7 21 8 22
REMARK SMILES IDX 5 23 1 24 2 25 3 26 87 27 4 28 86 29 18 30 19 31 20 32 23 33
REMARK SMILES IDX 21 34 22 35 27 37 28 38 29 39 30 40 31 41 32 42 33 43 79 44
REMARK SMILES IDX 34 45 78 46 35 47 36 48 37 49 72 50 38 51 77 52 71 53 73 54
REMARK SMILES IDX 39 55 76 56 70 57 69 58 40 60 62 61 47 62 61 63 48 64 51 65
REMARK SMILES IDX 60 66 74 67 49 68 50 69 59 71 75 72 52 73 41 74 42 75 46 76
REMARK SMILES IDX 43 77 45 78 44 79 63 80 64 81 68 82 65 83 67 84 66 85 53 86
REMARK SMILES IDX 54 87 58 88 55 89 57 90 56 91
REMARK H PARENT 16 8 23 36 73 59 51 70
REMARK Flexibility Score: inf
ROOT
ATOM      1  O   UNL A   1      39.414  33.727  31.021  1.00  0.00    -0.461 OA
ENDROOT
BRANCH   1   2
ATOM      2  C   UNL A   1      38.244  34.050  30.211  1.00  0.00     0.329 C 
ATOM      3  O   UNL A   1      38.647  34.996  29.483  1.00  0.00    -0.250 OA
BRANCH   2   4
ATOM      4  C   UNL A   1      36.383  32.873  30.235  1.00  0.00     0.198 C 
BRANCH   4   5
ATOM      5  N   UNL A   1      36.171  31.225  30.545  1.00  0.00    -0.335 N 
ATOM      6  C   UNL A   1      35.936  30.075  29.817  1.00  0.00     0.293 C 
ATOM      7  O   UNL A   1      35.666  29.063  30.461  1.00  0.00    -0.265 OA
ATOM      8  H   UNL A   1      36.232  31.032  31.508  1.00  0.00     0.164 HD
BRANCH   6   9
ATOM      9  C   UNL A   1      35.994  30.002  28.268  1.00  0.00     0.252 C 
ATOM     10  O   UNL A   1      37.089  30.131  27.725  1.00  0.00    -0.283 OA
BRANCH   9  11
ATOM     11  C   UNL A   1      34.759  29.849  27.454  1.00  0.00     0.054 A 
ATOM     12  N   UNL A   1      33.095  28.952  26.241  1.00  0.00    -0.240 N 
ATOM     13  C   UNL A   1      34.341  28.718  26.767  1.00  0.00     0.117 A 
ATOM     14  C   UNL A   1      32.662  30.225  26.539  1.00  0.00     0.065 A 
ATOM     15  C   UNL A   1      33.716  30.833  27.244  1.00  0.00     0.012 A 
ATOM     16  C   UNL A   1      31.463  30.905  26.249  1.00  0.00     0.028 A 
ATOM     17  C   UNL A   1      33.564  32.189  27.614  1.00  0.00     0.011 A 
ATOM     18  C   UNL A   1      31.354  32.246  26.618  1.00  0.00     0.002 A 
ATOM     19  C   UNL A   1      32.395  32.885  27.280  1.00  0.00     0.001 A 
BRANCH  12  20
ATOM     20  S   UNL A   1      32.169  27.767  25.430  1.00  0.00     0.268 S 
ATOM     21  O   UNL A   1      31.987  28.290  24.088  1.00  0.00    -0.201 OA
ATOM     22  O   UNL A   1      31.044  27.479  26.300  1.00  0.00    -0.201 OA
BRANCH  20  23
ATOM     23  C   UNL A   1      33.115  26.271  25.294  1.00  0.00     0.088 A 
ATOM     24  C   UNL A   1      35.671  22.838  24.809  1.00  0.00     0.044 C 
ATOM     25  C   UNL A   1      34.767  24.024  24.976  1.00  0.00    -0.051 A 
ATOM     26  C   UNL A   1      34.682  24.985  23.961  1.00  0.00     0.005 A 
ATOM     27  C   UNL A   1      33.998  24.187  26.135  1.00  0.00     0.005 A 
ATOM     28  C   UNL A   1      33.866  26.108  24.122  1.00  0.00     0.022 A 
ATOM     29  C   UNL A   1      33.161  25.297  26.292  1.00  0.00     0.022 A 
ENDBRANCH  20  23
ENDBRANCH  12  20
ENDBRANCH   9  11
ENDBRANCH   6   9
ENDBRANCH   4   5
BRANCH   4  30
ATOM     30  C   UNL A   1      34.723  33.230  30.806  1.00  0.00     0.092 C 
BRANCH  30  31
ATOM     31  C   UNL A   1      34.191  34.639  30.649  1.00  0.00     0.037 A 
ATOM     32  C   UNL A   1      33.656  35.334  29.585  1.00  0.00     0.134 A 
ATOM     33  N   UNL A   1      34.162  35.561  31.677  1.00  0.00    -0.348 N 
ATOM     34  N   UNL A   1      33.116  36.528  29.999  1.00  0.00    -0.245 NA
ATOM     35  C   UNL A   1      33.383  36.607  31.279  1.00  0.00     0.196 A 
ATOM     36  H   UNL A   1      34.621  35.479  32.544  1.00  0.00     0.167 HD
ENDBRANCH  30  31
ENDBRANCH   4  30
ENDBRANCH   2   4
ENDBRANCH   1   2
BRANCH   1  37
ATOM     37  C   UNL A   1      39.473  34.240  32.362  1.00  0.00     0.274 C 
BRANCH  37  38
ATOM     38  C   UNL A   1      39.199  33.121  33.379  1.00  0.00     0.275 C 
BRANCH  38  39
ATOM     39  O   UNL A   1      39.618  31.780  32.992  1.00  0.00    -0.458 OA
BRANCH  39  40
ATOM     40  C   UNL A   1      38.788  30.715  32.802  1.00  0.00     0.338 C 
ATOM     41  O   UNL A   1      37.613  30.695  33.135  1.00  0.00    -0.246 OA
BRANCH  40  42
ATOM     42  C   UNL A   1      39.481  29.445  32.536  1.00  0.00     0.060 A 
ATOM     43  C   UNL A   1      41.180  29.359  33.148  1.00  0.00     0.016 A 
ATOM     44  C   UNL A   1      38.994  28.483  31.097  1.00  0.00     0.016 A 
ATOM     45  C   UNL A   1      42.454  28.511  32.162  1.00  0.00     0.010 A 
ATOM     46  C   UNL A   1      40.268  27.636  30.141  1.00  0.00     0.010 A 
ATOM     47  C   UNL A   1      41.999  27.713  30.639  1.00  0.00    -0.014 A 
BRANCH  47  48
ATOM     48  C   UNL A   1      42.856  27.553  29.456  1.00  0.00     0.031 A 
ATOM     49  C   UNL A   1      43.140  26.174  29.045  1.00  0.00     0.074 A 
ATOM     50  C   UNL A   1      42.882  28.567  28.565  1.00  0.00     0.049 A 
ATOM     51  N   UNL A   1      42.662  25.607  27.986  1.00  0.00    -0.248 NA
ATOM     52  C   UNL A   1      43.851  25.264  29.952  1.00  0.00     0.031 C 
ATOM     53  C   UNL A   1      43.146  28.525  27.133  1.00  0.00     0.029 A 
ATOM     54  N   UNL A   1      42.883  29.921  28.857  1.00  0.00    -0.354 N 
ATOM     55  C   UNL A   1      43.162  24.325  27.964  1.00  0.00     0.074 A 
ATOM     56  C   UNL A   1      43.728  24.107  29.295  1.00  0.00     0.031 C 
ATOM     57  C   UNL A   1      43.563  29.739  26.727  1.00  0.00     0.029 A 
ATOM     58  C   UNL A   1      43.681  30.582  27.906  1.00  0.00     0.049 A 
ATOM     59  H   UNL A   1      42.406  30.349  29.604  1.00  0.00     0.167 HD
ATOM     60  C   UNL A   1      43.878  23.877  26.901  1.00  0.00     0.031 A 
ATOM     61  C   UNL A   1      44.848  31.139  28.356  1.00  0.00     0.031 A 
ATOM     62  C   UNL A   1      44.616  24.917  26.226  1.00  0.00     0.049 A 
ATOM     63  C   UNL A   1      46.038  30.241  28.058  1.00  0.00     0.074 A 
ATOM     64  C   UNL A   1      44.387  25.729  25.134  1.00  0.00     0.029 A 
ATOM     65  N   UNL A   1      45.717  25.441  26.881  1.00  0.00    -0.354 N 
ATOM     66  N   UNL A   1      45.936  29.026  27.584  1.00  0.00    -0.248 NA
ATOM     67  C   UNL A   1      47.429  30.617  28.290  1.00  0.00     0.031 C 
ATOM     68  C   UNL A   1      45.346  26.788  25.178  1.00  0.00     0.029 A 
ATOM     69  C   UNL A   1      46.187  26.580  26.260  1.00  0.00     0.049 A 
ATOM     70  H   UNL A   1      46.117  25.050  27.691  1.00  0.00     0.167 HD
ATOM     71  C   UNL A   1      47.172  28.488  27.389  1.00  0.00     0.074 A 
ATOM     72  C   UNL A   1      48.077  29.496  27.923  1.00  0.00     0.031 C 
ATOM     73  C   UNL A   1      47.358  27.269  26.793  1.00  0.00     0.031 A 
BRANCH  60  74
ATOM     74  C   UNL A   1      43.547  22.505  26.400  1.00  0.00    -0.014 A 
ATOM     75  C   UNL A   1      42.312  21.925  26.718  1.00  0.00     0.009 A 
ATOM     76  C   UNL A   1      44.470  21.710  25.685  1.00  0.00     0.009 A 
ATOM     77  C   UNL A   1      42.028  20.595  26.382  1.00  0.00     0.001 A 
ATOM     78  C   UNL A   1      44.187  20.383  25.343  1.00  0.00     0.001 A 
ATOM     79  C   UNL A   1      42.968  19.822  25.704  1.00  0.00     0.000 A 
ENDBRANCH  60  74
BRANCH  61  80
ATOM     80  C   UNL A   1      44.592  31.928  29.609  1.00  0.00    -0.014 A 
ATOM     81  C   UNL A   1      43.660  32.989  29.489  1.00  0.00     0.009 A 
ATOM     82  C   UNL A   1      44.816  31.387  30.881  1.00  0.00     0.009 A 
ATOM     83  C   UNL A   1      42.810  33.320  30.547  1.00  0.00     0.001 A 
ATOM     84  C   UNL A   1      44.005  31.780  31.960  1.00  0.00     0.001 A 
ATOM     85  C   UNL A   1      42.959  32.685  31.773  1.00  0.00     0.000 A 
ENDBRANCH  61  80
BRANCH  73  86
ATOM     86  C   UNL A   1      48.712  26.630  26.658  1.00  0.00    -0.014 A 
ATOM     87  C   UNL A   1      49.262  25.812  27.651  1.00  0.00     0.009 A 
ATOM     88  C   UNL A   1      49.510  26.875  25.522  1.00  0.00     0.009 A 
ATOM     89  C   UNL A   1      50.478  25.149  27.453  1.00  0.00     0.001 A 
ATOM     90  C   UNL A   1      50.743  26.249  25.336  1.00  0.00     0.001 A 
ATOM     91  C   UNL A   1      51.211  25.356  26.289  1.00  0.00     0.000 A 
ENDBRANCH  73  86
ENDBRANCH  47  48
ENDBRANCH  40  42
ENDBRANCH  39  40
ENDBRANCH  38  39
ENDBRANCH  37  38
ENDBRANCH   1  37
TORSDOF 18
ENDMDL
