MODEL 1
REMARK VINA RESULT:     -10.8      0.000      0.000
REMARK SMILES O=C(CCCNC(=O)[C@@H]1CCCN(S(=O)(=O)c2ccc(F)cc2)C1)OCCOC(=O)c1ccc(-c2c3nc(c(-c4ccccc4)c4ccc([nH]4)c(-c4ccccc4)c4nc(c(-c5ccccc5)c5ccc2[nH]5)C=C4)C=C3)cc1
REMARK SMILES IDX 1 1 2 2 3 3 4 4 5 5 6 6 7 7 8 9 9 10 10 11 24 12 11 13 13 14
REMARK SMILES IDX 12 15 14 16 15 17 16 18 17 19 18 20 23 21 19 22 22 23 20 24
REMARK SMILES IDX 21 25 25 26 26 27 27 28 28 29 29 30 30 31 31 32 32 33 78 34
REMARK SMILES IDX 33 35 77 36 34 37 35 38 36 39 71 40 37 41 76 42 70 43 72 44
REMARK SMILES IDX 38 45 75 46 69 47 68 48 39 50 61 51 46 52 60 53 47 54 50 55
REMARK SMILES IDX 59 56 73 57 48 58 49 59 58 61 74 62 51 63 40 64 41 65 45 66
REMARK SMILES IDX 42 67 44 68 43 69 62 70 63 71 67 72 64 73 66 74 65 75 52 76
REMARK SMILES IDX 53 77 57 78 54 79 56 80 55 81
REMARK H PARENT 6 8 72 49 50 60
REMARK Flexibility Score: inf
ROOT
ATOM      1  O   UNL A   1      40.833  20.283  27.726  1.00  0.00    -0.252 OA
ATOM      2  C   UNL A   1      41.344  20.762  26.720  1.00  0.00     0.305 C 
ENDROOT
BRANCH   2   3
ATOM      3  C   UNL A   1      41.261  22.241  26.420  1.00  0.00     0.124 C 
BRANCH   3   4
ATOM      4  C   UNL A   1      40.170  22.938  27.207  1.00  0.00     0.033 C 
BRANCH   4   5
ATOM      5  C   UNL A   1      38.935  23.223  26.372  1.00  0.00     0.116 C 
BRANCH   5   6
ATOM      6  N   UNL A   1      38.368  22.024  25.785  1.00  0.00    -0.356 N 
ATOM      7  C   UNL A   1      37.212  21.792  25.121  1.00  0.00     0.224 C 
ATOM      8  H   UNL A   1      38.932  21.224  25.890  1.00  0.00     0.163 HD
ATOM      9  O   UNL A   1      37.077  20.648  24.669  1.00  0.00    -0.275 OA
BRANCH   7  10
ATOM     10  C   UNL A   1      36.136  22.840  24.834  1.00  0.00     0.093 C 
ATOM     11  C   UNL A   1      35.896  23.766  26.026  1.00  0.00     0.016 C 
ATOM     12  C   UNL A   1      34.868  22.355  24.125  1.00  0.00     0.116 C 
ATOM     13  C   UNL A   1      34.733  23.326  26.900  1.00  0.00     0.018 C 
ATOM     14  N   UNL A   1      33.762  22.012  25.068  1.00  0.00    -0.197 NA
ATOM     15  C   UNL A   1      33.483  23.069  26.065  1.00  0.00     0.102 C 
BRANCH  14  16
ATOM     16  S   UNL A   1      32.414  21.231  24.360  1.00  0.00     0.243 S 
ATOM     17  O   UNL A   1      31.399  21.078  25.371  1.00  0.00    -0.207 OA
ATOM     18  O   UNL A   1      32.136  21.897  23.098  1.00  0.00    -0.207 OA
BRANCH  16  19
ATOM     19  C   UNL A   1      33.034  19.603  23.942  1.00  0.00     0.082 A 
ATOM     20  C   UNL A   1      34.074  19.037  24.689  1.00  0.00     0.025 A 
ATOM     21  C   UNL A   1      32.421  18.862  22.922  1.00  0.00     0.025 A 
ATOM     22  C   UNL A   1      34.550  17.765  24.362  1.00  0.00     0.040 A 
ATOM     23  C   UNL A   1      32.893  17.584  22.608  1.00  0.00     0.040 A 
ATOM     24  C   UNL A   1      33.960  17.052  23.324  1.00  0.00     0.123 A 
ATOM     25  F   UNL A   1      34.412  15.828  23.025  1.00  0.00    -0.207 F 
ENDBRANCH  16  19
ENDBRANCH  14  16
ENDBRANCH   7  10
ENDBRANCH   5   6
ENDBRANCH   4   5
ENDBRANCH   3   4
ENDBRANCH   2   3
BRANCH   2  26
ATOM     26  O   UNL A   1      41.905  19.975  25.768  1.00  0.00    -0.462 OA
BRANCH  26  27
ATOM     27  C   UNL A   1      42.430  18.678  26.111  1.00  0.00     0.274 C 
BRANCH  27  28
ATOM     28  C   UNL A   1      43.739  18.348  25.394  1.00  0.00     0.275 C 
BRANCH  28  29
ATOM     29  O   UNL A   1      43.946  19.231  24.280  1.00  0.00    -0.458 OA
BRANCH  29  30
ATOM     30  C   UNL A   1      45.175  19.808  24.255  1.00  0.00     0.338 C 
ATOM     31  O   UNL A   1      46.181  19.353  23.740  1.00  0.00    -0.246 OA
BRANCH  30  32
ATOM     32  C   UNL A   1      45.091  21.192  24.773  1.00  0.00     0.060 A 
ATOM     33  C   UNL A   1      44.828  22.205  23.842  1.00  0.00     0.016 A 
ATOM     34  C   UNL A   1      45.243  21.505  26.129  1.00  0.00     0.016 A 
ATOM     35  C   UNL A   1      44.785  23.536  24.251  1.00  0.00     0.010 A 
ATOM     36  C   UNL A   1      45.204  22.844  26.538  1.00  0.00     0.010 A 
ATOM     37  C   UNL A   1      45.024  23.866  25.592  1.00  0.00    -0.014 A 
BRANCH  37  38
ATOM     38  C   UNL A   1      45.298  25.283  25.925  1.00  0.00     0.031 A 
ATOM     39  C   UNL A   1      44.160  26.125  26.437  1.00  0.00     0.074 A 
ATOM     40  C   UNL A   1      46.540  25.794  25.869  1.00  0.00     0.049 A 
ATOM     41  N   UNL A   1      44.185  27.324  26.958  1.00  0.00    -0.248 NA
ATOM     42  C   UNL A   1      42.817  25.526  26.363  1.00  0.00     0.031 C 
ATOM     43  C   UNL A   1      47.731  25.090  25.401  1.00  0.00     0.029 A 
ATOM     44  N   UNL A   1      47.000  27.036  26.232  1.00  0.00    -0.354 N 
ATOM     45  C   UNL A   1      42.870  27.607  27.306  1.00  0.00     0.074 A 
ATOM     46  C   UNL A   1      42.065  26.483  26.884  1.00  0.00     0.031 C 
ATOM     47  C   UNL A   1      48.792  25.912  25.508  1.00  0.00     0.029 A 
ATOM     48  C   UNL A   1      48.352  27.194  26.056  1.00  0.00     0.049 A 
ATOM     49  H   UNL A   1      46.417  27.745  26.584  1.00  0.00     0.167 HD
ATOM     50  C   UNL A   1      42.376  28.694  27.943  1.00  0.00     0.031 A 
ATOM     51  C   UNL A   1      49.145  28.251  26.320  1.00  0.00     0.031 A 
ATOM     52  C   UNL A   1      43.157  29.835  28.328  1.00  0.00     0.049 A 
ATOM     53  C   UNL A   1      48.558  29.480  26.965  1.00  0.00     0.074 A 
ATOM     54  C   UNL A   1      42.743  30.988  28.972  1.00  0.00     0.029 A 
ATOM     55  N   UNL A   1      44.515  29.973  28.092  1.00  0.00    -0.354 N 
ATOM     56  N   UNL A   1      47.327  29.706  27.352  1.00  0.00    -0.248 NA
ATOM     57  C   UNL A   1      49.486  30.591  27.232  1.00  0.00     0.031 C 
ATOM     58  C   UNL A   1      43.844  31.845  29.084  1.00  0.00     0.029 A 
ATOM     59  C   UNL A   1      44.951  31.201  28.555  1.00  0.00     0.049 A 
ATOM     60  H   UNL A   1      45.084  29.297  27.658  1.00  0.00     0.167 HD
ATOM     61  C   UNL A   1      47.336  30.970  27.930  1.00  0.00     0.074 A 
ATOM     62  C   UNL A   1      48.700  31.453  27.861  1.00  0.00     0.031 C 
ATOM     63  C   UNL A   1      46.310  31.670  28.474  1.00  0.00     0.031 A 
BRANCH  50  64
ATOM     64  C   UNL A   1      40.908  28.689  28.253  1.00  0.00    -0.014 A 
ATOM     65  C   UNL A   1      40.426  28.101  29.434  1.00  0.00     0.009 A 
ATOM     66  C   UNL A   1      39.998  29.285  27.366  1.00  0.00     0.009 A 
ATOM     67  C   UNL A   1      39.057  28.086  29.707  1.00  0.00     0.001 A 
ATOM     68  C   UNL A   1      38.633  29.288  27.654  1.00  0.00     0.001 A 
ATOM     69  C   UNL A   1      38.162  28.681  28.818  1.00  0.00     0.000 A 
ENDBRANCH  50  64
BRANCH  51  70
ATOM     70  C   UNL A   1      50.592  28.202  25.989  1.00  0.00    -0.014 A 
ATOM     71  C   UNL A   1      51.540  27.821  26.952  1.00  0.00     0.009 A 
ATOM     72  C   UNL A   1      51.035  28.581  24.713  1.00  0.00     0.009 A 
ATOM     73  C   UNL A   1      52.904  27.855  26.653  1.00  0.00     0.001 A 
ATOM     74  C   UNL A   1      52.398  28.591  24.409  1.00  0.00     0.001 A 
ATOM     75  C   UNL A   1      53.332  28.238  25.383  1.00  0.00     0.000 A 
ENDBRANCH  51  70
BRANCH  63  76
ATOM     76  C   UNL A   1      46.627  33.018  29.056  1.00  0.00    -0.014 A 
ATOM     77  C   UNL A   1      47.081  33.152  30.377  1.00  0.00     0.009 A 
ATOM     78  C   UNL A   1      46.502  34.168  28.259  1.00  0.00     0.009 A 
ATOM     79  C   UNL A   1      47.365  34.414  30.901  1.00  0.00     0.001 A 
ATOM     80  C   UNL A   1      46.814  35.425  28.778  1.00  0.00     0.001 A 
ATOM     81  C   UNL A   1      47.235  35.549  30.101  1.00  0.00     0.000 A 
ENDBRANCH  63  76
ENDBRANCH  37  38
ENDBRANCH  30  32
ENDBRANCH  29  30
ENDBRANCH  28  29
ENDBRANCH  27  28
ENDBRANCH  26  27
ENDBRANCH   2  26
TORSDOF 17
ENDMDL
MODEL 2
REMARK VINA RESULT:     -10.8      4.815      9.937
REMARK SMILES O=C(CCCNC(=O)[C@@H]1CCCN(S(=O)(=O)c2ccc(F)cc2)C1)OCCOC(=O)c1ccc(-c2c3nc(c(-c4ccccc4)c4ccc([nH]4)c(-c4ccccc4)c4nc(c(-c5ccccc5)c5ccc2[nH]5)C=C4)C=C3)cc1
REMARK SMILES IDX 1 1 2 2 3 3 4 4 5 5 6 6 7 7 8 9 9 10 10 11 24 12 11 13 13 14
REMARK SMILES IDX 12 15 14 16 15 17 16 18 17 19 18 20 23 21 19 22 22 23 20 24
REMARK SMILES IDX 21 25 25 26 26 27 27 28 28 29 29 30 30 31 31 32 32 33 78 34
REMARK SMILES IDX 33 35 77 36 34 37 35 38 36 39 71 40 37 41 76 42 70 43 72 44
REMARK SMILES IDX 38 45 75 46 69 47 68 48 39 50 61 51 46 52 60 53 47 54 50 55
REMARK SMILES IDX 59 56 73 57 48 58 49 59 58 61 74 62 51 63 40 64 41 65 45 66
REMARK SMILES IDX 42 67 44 68 43 69 62 70 63 71 67 72 64 73 66 74 65 75 52 76
REMARK SMILES IDX 53 77 57 78 54 79 56 80 55 81
REMARK H PARENT 6 8 72 49 50 60
REMARK Flexibility Score: inf
ROOT
ATOM      1  O   UNL A   1      33.478  35.235  28.906  1.00  0.00    -0.252 OA
ATOM      2  C   UNL A   1      34.165  34.545  29.652  1.00  0.00     0.305 C 
ENDROOT
BRANCH   2   3
ATOM      3  C   UNL A   1      35.493  33.979  29.203  1.00  0.00     0.124 C 
BRANCH   3   4
ATOM      4  C   UNL A   1      35.361  33.041  28.021  1.00  0.00     0.033 C 
BRANCH   4   5
ATOM      5  C   UNL A   1      34.300  31.977  28.233  1.00  0.00     0.116 C 
BRANCH   5   6
ATOM      6  N   UNL A   1      34.795  30.636  27.989  1.00  0.00    -0.356 N 
ATOM      7  C   UNL A   1      34.320  29.608  27.248  1.00  0.00     0.224 C 
ATOM      8  H   UNL A   1      35.641  30.434  28.452  1.00  0.00     0.163 HD
ATOM      9  O   UNL A   1      35.052  28.612  27.187  1.00  0.00    -0.275 OA
BRANCH   7  10
ATOM     10  C   UNL A   1      33.019  29.629  26.446  1.00  0.00     0.093 C 
ATOM     11  C   UNL A   1      31.810  29.224  27.289  1.00  0.00     0.016 C 
ATOM     12  C   UNL A   1      33.061  29.021  25.041  1.00  0.00     0.116 C 
ATOM     13  C   UNL A   1      31.454  27.752  27.155  1.00  0.00     0.018 C 
ATOM     14  N   UNL A   1      32.629  27.592  25.006  1.00  0.00    -0.197 NA
ATOM     15  C   UNL A   1      31.340  27.345  25.690  1.00  0.00     0.102 C 
BRANCH  14  16
ATOM     16  S   UNL A   1      32.891  26.786  23.519  1.00  0.00     0.243 S 
ATOM     17  O   UNL A   1      31.623  26.296  23.042  1.00  0.00    -0.207 OA
ATOM     18  O   UNL A   1      33.732  27.644  22.699  1.00  0.00    -0.207 OA
BRANCH  16  19
ATOM     19  C   UNL A   1      33.900  25.376  23.969  1.00  0.00     0.082 A 
ATOM     20  C   UNL A   1      34.147  24.365  23.033  1.00  0.00     0.025 A 
ATOM     21  C   UNL A   1      34.510  25.327  25.230  1.00  0.00     0.025 A 
ATOM     22  C   UNL A   1      34.938  23.269  23.388  1.00  0.00     0.040 A 
ATOM     23  C   UNL A   1      35.312  24.236  25.575  1.00  0.00     0.040 A 
ATOM     24  C   UNL A   1      35.510  23.212  24.655  1.00  0.00     0.123 A 
ATOM     25  F   UNL A   1      36.279  22.166  24.984  1.00  0.00    -0.207 F 
ENDBRANCH  16  19
ENDBRANCH  14  16
ENDBRANCH   7  10
ENDBRANCH   5   6
ENDBRANCH   4   5
ENDBRANCH   3   4
ENDBRANCH   2   3
BRANCH   2  26
ATOM     26  O   UNL A   1      33.715  34.158  30.871  1.00  0.00    -0.462 OA
BRANCH  26  27
ATOM     27  C   UNL A   1      34.370  34.618  32.069  1.00  0.00     0.274 C 
BRANCH  27  28
ATOM     28  C   UNL A   1      34.436  33.555  33.167  1.00  0.00     0.275 C 
BRANCH  28  29
ATOM     29  O   UNL A   1      35.118  32.381  32.697  1.00  0.00    -0.458 OA
BRANCH  29  30
ATOM     30  C   UNL A   1      36.318  32.165  33.294  1.00  0.00     0.338 C 
ATOM     31  O   UNL A   1      36.604  32.392  34.456  1.00  0.00    -0.246 OA
BRANCH  30  32
ATOM     32  C   UNL A   1      37.206  31.411  32.379  1.00  0.00     0.060 A 
ATOM     33  C   UNL A   1      38.288  30.734  32.956  1.00  0.00     0.016 A 
ATOM     34  C   UNL A   1      36.986  31.340  30.998  1.00  0.00     0.016 A 
ATOM     35  C   UNL A   1      39.191  30.046  32.150  1.00  0.00     0.010 A 
ATOM     36  C   UNL A   1      37.898  30.651  30.189  1.00  0.00     0.010 A 
ATOM     37  C   UNL A   1      39.029  30.044  30.758  1.00  0.00    -0.014 A 
BRANCH  37  38
ATOM     38  C   UNL A   1      40.168  29.596  29.922  1.00  0.00     0.031 A 
ATOM     39  C   UNL A   1      41.317  30.546  29.719  1.00  0.00     0.074 A 
ATOM     40  C   UNL A   1      40.233  28.347  29.430  1.00  0.00     0.049 A 
ATOM     41  N   UNL A   1      42.491  30.326  29.186  1.00  0.00    -0.248 NA
ATOM     42  C   UNL A   1      41.118  31.926  30.195  1.00  0.00     0.031 C 
ATOM     43  C   UNL A   1      39.197  27.325  29.558  1.00  0.00     0.029 A 
ATOM     44  N   UNL A   1      41.239  27.726  28.732  1.00  0.00    -0.354 N 
ATOM     45  C   UNL A   1      43.181  31.526  29.295  1.00  0.00     0.074 A 
ATOM     46  C   UNL A   1      42.278  32.487  29.889  1.00  0.00     0.031 C 
ATOM     47  C   UNL A   1      39.623  26.197  28.959  1.00  0.00     0.029 A 
ATOM     48  C   UNL A   1      40.960  26.421  28.411  1.00  0.00     0.049 A 
ATOM     49  H   UNL A   1      42.079  28.174  28.483  1.00  0.00     0.167 HD
ATOM     50  C   UNL A   1      44.461  31.803  28.955  1.00  0.00     0.031 A 
ATOM     51  C   UNL A   1      41.708  25.507  27.761  1.00  0.00     0.031 A 
ATOM     52  C   UNL A   1      45.354  30.872  28.325  1.00  0.00     0.049 A 
ATOM     53  C   UNL A   1      43.107  25.861  27.328  1.00  0.00     0.074 A 
ATOM     54  C   UNL A   1      46.668  31.063  27.936  1.00  0.00     0.029 A 
ATOM     55  N   UNL A   1      45.018  29.574  27.979  1.00  0.00    -0.354 N 
ATOM     56  N   UNL A   1      43.771  26.978  27.499  1.00  0.00    -0.248 NA
ATOM     57  C   UNL A   1      43.867  24.810  26.632  1.00  0.00     0.031 C 
ATOM     58  C   UNL A   1      47.113  29.893  27.312  1.00  0.00     0.029 A 
ATOM     59  C   UNL A   1      46.090  28.959  27.359  1.00  0.00     0.049 A 
ATOM     60  H   UNL A   1      44.144  29.152  28.148  1.00  0.00     0.167 HD
ATOM     61  C   UNL A   1      45.032  26.756  26.958  1.00  0.00     0.074 A 
ATOM     62  C   UNL A   1      45.046  25.393  26.470  1.00  0.00     0.031 C 
ATOM     63  C   UNL A   1      46.087  27.604  26.874  1.00  0.00     0.031 A 
BRANCH  50  64
ATOM     64  C   UNL A   1      44.961  33.185  29.260  1.00  0.00    -0.014 A 
ATOM     65  C   UNL A   1      44.705  34.250  28.380  1.00  0.00     0.009 A 
ATOM     66  C   UNL A   1      45.681  33.430  30.438  1.00  0.00     0.009 A 
ATOM     67  C   UNL A   1      45.187  35.530  28.662  1.00  0.00     0.001 A 
ATOM     68  C   UNL A   1      46.141  34.716  30.728  1.00  0.00     0.001 A 
ATOM     69  C   UNL A   1      45.902  35.762  29.837  1.00  0.00     0.000 A 
ENDBRANCH  50  64
BRANCH  51  70
ATOM     70  C   UNL A   1      41.161  24.154  27.483  1.00  0.00    -0.014 A 
ATOM     71  C   UNL A   1      40.134  23.971  26.544  1.00  0.00     0.009 A 
ATOM     72  C   UNL A   1      41.637  23.042  28.195  1.00  0.00     0.009 A 
ATOM     73  C   UNL A   1      39.572  22.707  26.349  1.00  0.00     0.001 A 
ATOM     74  C   UNL A   1      41.090  21.776  27.980  1.00  0.00     0.001 A 
ATOM     75  C   UNL A   1      40.050  21.611  27.064  1.00  0.00     0.000 A 
ENDBRANCH  51  70
BRANCH  63  76
ATOM     76  C   UNL A   1      47.349  27.073  26.254  1.00  0.00    -0.014 A 
ATOM     77  C   UNL A   1      48.323  26.423  27.028  1.00  0.00     0.009 A 
ATOM     78  C   UNL A   1      47.550  27.197  24.869  1.00  0.00     0.009 A 
ATOM     79  C   UNL A   1      49.491  25.942  26.433  1.00  0.00     0.001 A 
ATOM     80  C   UNL A   1      48.706  26.689  24.275  1.00  0.00     0.001 A 
ATOM     81  C   UNL A   1      49.680  26.072  25.057  1.00  0.00     0.000 A 
ENDBRANCH  63  76
ENDBRANCH  37  38
ENDBRANCH  30  32
ENDBRANCH  29  30
ENDBRANCH  28  29
ENDBRANCH  27  28
ENDBRANCH  26  27
ENDBRANCH   2  26
TORSDOF 17
ENDMDL
MODEL 3
REMARK VINA RESULT:     -10.6      4.477      8.022
REMARK SMILES O=C(CCCNC(=O)[C@@H]1CCCN(S(=O)(=O)c2ccc(F)cc2)C1)OCCOC(=O)c1ccc(-c2c3nc(c(-c4ccccc4)c4ccc([nH]4)c(-c4ccccc4)c4nc(c(-c5ccccc5)c5ccc2[nH]5)C=C4)C=C3)cc1
REMARK SMILES IDX 1 1 2 2 3 3 4 4 5 5 6 6 7 7 8 9 9 10 10 11 24 12 11 13 13 14
REMARK SMILES IDX 12 15 14 16 15 17 16 18 17 19 18 20 23 21 19 22 22 23 20 24
REMARK SMILES IDX 21 25 25 26 26 27 27 28 28 29 29 30 30 31 31 32 32 33 78 34
REMARK SMILES IDX 33 35 77 36 34 37 35 38 36 39 71 40 37 41 76 42 70 43 72 44
REMARK SMILES IDX 38 45 75 46 69 47 68 48 39 50 61 51 46 52 60 53 47 54 50 55
REMARK SMILES IDX 59 56 73 57 48 58 49 59 58 61 74 62 51 63 40 64 41 65 45 66
REMARK SMILES IDX 42 67 44 68 43 69 62 70 63 71 67 72 64 73 66 74 65 75 52 76
REMARK SMILES IDX 53 77 57 78 54 79 56 80 55 81
REMARK H PARENT 6 8 72 49 50 60
REMARK Flexibility Score: inf
ROOT
ATOM      1  O   UNL A   1      43.094  18.073  25.946  1.00  0.00    -0.252 OA
ATOM      2  C   UNL A   1      42.720  19.238  25.868  1.00  0.00     0.305 C 
ENDROOT
BRANCH   2   3
ATOM      3  C   UNL A   1      41.595  19.765  26.728  1.00  0.00     0.124 C 
BRANCH   3   4
ATOM      4  C   UNL A   1      41.036  21.080  26.222  1.00  0.00     0.033 C 
BRANCH   4   5
ATOM      5  C   UNL A   1      39.581  20.975  25.802  1.00  0.00     0.116 C 
BRANCH   5   6
ATOM      6  N   UNL A   1      38.828  22.182  26.084  1.00  0.00    -0.356 N 
ATOM      7  C   UNL A   1      37.658  22.662  25.602  1.00  0.00     0.224 C 
ATOM      8  H   UNL A   1      39.251  22.766  26.755  1.00  0.00     0.163 HD
ATOM      9  O   UNL A   1      37.250  23.702  26.134  1.00  0.00    -0.275 OA
BRANCH   7  10
ATOM     10  C   UNL A   1      36.800  21.980  24.537  1.00  0.00     0.093 C 
ATOM     11  C   UNL A   1      36.602  22.859  23.302  1.00  0.00     0.016 C 
ATOM     12  C   UNL A   1      35.543  21.252  25.020  1.00  0.00     0.116 C 
ATOM     13  C   UNL A   1      35.305  23.651  23.333  1.00  0.00     0.018 C 
ATOM     14  N   UNL A   1      34.312  22.093  24.948  1.00  0.00    -0.197 NA
ATOM     15  C   UNL A   1      34.115  22.747  23.636  1.00  0.00     0.102 C 
BRANCH  14  16
ATOM     16  S   UNL A   1      32.927  21.428  25.705  1.00  0.00     0.243 S 
ATOM     17  O   UNL A   1      33.133  21.462  27.130  1.00  0.00    -0.207 OA
ATOM     18  O   UNL A   1      31.759  22.036  25.090  1.00  0.00    -0.207 OA
BRANCH  16  19
ATOM     19  C   UNL A   1      32.937  19.714  25.182  1.00  0.00     0.082 A 
ATOM     20  C   UNL A   1      32.895  18.691  26.137  1.00  0.00     0.025 A 
ATOM     21  C   UNL A   1      32.899  19.400  23.816  1.00  0.00     0.025 A 
ATOM     22  C   UNL A   1      32.898  17.357  25.723  1.00  0.00     0.040 A 
ATOM     23  C   UNL A   1      32.888  18.063  23.408  1.00  0.00     0.040 A 
ATOM     24  C   UNL A   1      32.898  17.054  24.365  1.00  0.00     0.123 A 
ATOM     25  F   UNL A   1      32.886  15.773  23.975  1.00  0.00    -0.207 F 
ENDBRANCH  16  19
ENDBRANCH  14  16
ENDBRANCH   7  10
ENDBRANCH   5   6
ENDBRANCH   4   5
ENDBRANCH   3   4
ENDBRANCH   2   3
BRANCH   2  26
ATOM     26  O   UNL A   1      43.216  20.078  24.925  1.00  0.00    -0.462 OA
BRANCH  26  27
ATOM     27  C   UNL A   1      44.466  20.760  25.142  1.00  0.00     0.274 C 
BRANCH  27  28
ATOM     28  C   UNL A   1      44.427  22.235  24.738  1.00  0.00     0.275 C 
BRANCH  28  29
ATOM     29  O   UNL A   1      44.645  23.080  25.879  1.00  0.00    -0.458 OA
BRANCH  29  30
ATOM     30  C   UNL A   1      44.767  24.398  25.572  1.00  0.00     0.338 C 
ATOM     31  O   UNL A   1      45.376  24.872  24.630  1.00  0.00    -0.246 OA
BRANCH  30  32
ATOM     32  C   UNL A   1      43.873  25.200  26.439  1.00  0.00     0.060 A 
ATOM     33  C   UNL A   1      44.274  26.511  26.726  1.00  0.00     0.016 A 
ATOM     34  C   UNL A   1      42.665  24.706  26.945  1.00  0.00     0.016 A 
ATOM     35  C   UNL A   1      43.506  27.305  27.575  1.00  0.00     0.010 A 
ATOM     36  C   UNL A   1      41.897  25.504  27.801  1.00  0.00     0.010 A 
ATOM     37  C   UNL A   1      42.341  26.788  28.157  1.00  0.00    -0.014 A 
BRANCH  37  38
ATOM     38  C   UNL A   1      41.740  27.525  29.293  1.00  0.00     0.031 A 
ATOM     39  C   UNL A   1      42.414  27.432  30.636  1.00  0.00     0.074 A 
ATOM     40  C   UNL A   1      40.680  28.335  29.128  1.00  0.00     0.049 A 
ATOM     41  N   UNL A   1      42.188  28.117  31.727  1.00  0.00    -0.248 NA
ATOM     42  C   UNL A   1      43.498  26.442  30.758  1.00  0.00     0.031 C 
ATOM     43  C   UNL A   1      39.938  28.524  27.883  1.00  0.00     0.029 A 
ATOM     44  N   UNL A   1      40.057  29.166  30.025  1.00  0.00    -0.354 N 
ATOM     45  C   UNL A   1      43.122  27.668  32.651  1.00  0.00     0.074 A 
ATOM     46  C   UNL A   1      43.878  26.612  32.015  1.00  0.00     0.031 C 
ATOM     47  C   UNL A   1      38.957  29.421  28.095  1.00  0.00     0.029 A 
ATOM     48  C   UNL A   1      39.008  29.869  29.486  1.00  0.00     0.049 A 
ATOM     49  H   UNL A   1      40.334  29.250  30.965  1.00  0.00     0.167 HD
ATOM     50  C   UNL A   1      43.351  28.108  33.909  1.00  0.00     0.031 A 
ATOM     51  C   UNL A   1      38.193  30.782  30.051  1.00  0.00     0.031 A 
ATOM     52  C   UNL A   1      42.581  29.125  34.567  1.00  0.00     0.049 A 
ATOM     53  C   UNL A   1      38.423  31.205  31.478  1.00  0.00     0.074 A 
ATOM     54  C   UNL A   1      42.733  29.634  35.845  1.00  0.00     0.029 A 
ATOM     55  N   UNL A   1      41.500  29.781  34.000  1.00  0.00    -0.354 N 
ATOM     56  N   UNL A   1      39.353  30.822  32.318  1.00  0.00    -0.248 NA
ATOM     57  C   UNL A   1      37.498  32.211  32.024  1.00  0.00     0.031 C 
ATOM     58  C   UNL A   1      41.714  30.567  36.068  1.00  0.00     0.029 A 
ATOM     59  C   UNL A   1      40.960  30.672  34.909  1.00  0.00     0.049 A 
ATOM     60  H   UNL A   1      41.166  29.633  33.086  1.00  0.00     0.167 HD
ATOM     61  C   UNL A   1      39.143  31.557  33.479  1.00  0.00     0.074 A 
ATOM     62  C   UNL A   1      38.009  32.422  33.229  1.00  0.00     0.031 C 
ATOM     63  C   UNL A   1      39.828  31.522  34.648  1.00  0.00     0.031 A 
BRANCH  50  64
ATOM     64  C   UNL A   1      44.489  27.473  34.654  1.00  0.00    -0.014 A 
ATOM     65  C   UNL A   1      45.785  28.012  34.579  1.00  0.00     0.009 A 
ATOM     66  C   UNL A   1      44.267  26.336  35.445  1.00  0.00     0.009 A 
ATOM     67  C   UNL A   1      46.841  27.405  35.261  1.00  0.00     0.001 A 
ATOM     68  C   UNL A   1      45.321  25.747  36.143  1.00  0.00     0.001 A 
ATOM     69  C   UNL A   1      46.608  26.275  36.044  1.00  0.00     0.000 A 
ENDBRANCH  50  64
BRANCH  51  70
ATOM     70  C   UNL A   1      37.079  31.375  29.266  1.00  0.00    -0.014 A 
ATOM     71  C   UNL A   1      37.205  32.645  28.684  1.00  0.00     0.009 A 
ATOM     72  C   UNL A   1      35.864  30.685  29.137  1.00  0.00     0.009 A 
ATOM     73  C   UNL A   1      36.124  33.227  28.018  1.00  0.00     0.001 A 
ATOM     74  C   UNL A   1      34.793  31.259  28.449  1.00  0.00     0.001 A 
ATOM     75  C   UNL A   1      34.921  32.535  27.899  1.00  0.00     0.000 A 
ENDBRANCH  51  70
BRANCH  63  76
ATOM     76  C   UNL A   1      39.386  32.462  35.733  1.00  0.00    -0.014 A 
ATOM     77  C   UNL A   1      39.960  33.735  35.873  1.00  0.00     0.009 A 
ATOM     78  C   UNL A   1      38.356  32.080  36.608  1.00  0.00     0.009 A 
ATOM     79  C   UNL A   1      39.538  34.592  36.892  1.00  0.00     0.001 A 
ATOM     80  C   UNL A   1      37.918  32.950  37.608  1.00  0.00     0.001 A 
ATOM     81  C   UNL A   1      38.516  34.200  37.756  1.00  0.00     0.000 A 
ENDBRANCH  63  76
ENDBRANCH  37  38
ENDBRANCH  30  32
ENDBRANCH  29  30
ENDBRANCH  28  29
ENDBRANCH  27  28
ENDBRANCH  26  27
ENDBRANCH   2  26
TORSDOF 17
ENDMDL
