MODEL 1
REMARK VINA RESULT:     -10.8      0.000      0.000
REMARK SMILES CN(c1ccc(C(N)=O)nn1)[C@H]1COC[C@@H]1C(=O)OCCOC(=O)c1ccc(-c2c3nc(c(-c4ccccc4)c4ccc([nH]4)c(-c4ccccc4)c4nc(c(-c5ccccc5)c5ccc2[nH]5)C=C4)C=C3)cc1
REMARK SMILES IDX 20 1 19 2 17 3 18 4 16 5 12 6 13 7 14 8 15 9 2 10 1 11 3 12
REMARK SMILES IDX 4 13 11 14 5 15 10 16 6 17 7 18 8 19 9 20 21 23 22 24 23 25
REMARK SMILES IDX 24 26 25 27 26 28 72 29 27 30 71 31 28 32 29 33 30 34 65 35
REMARK SMILES IDX 31 36 70 37 64 38 66 39 32 40 69 41 63 42 62 43 33 45 55 46
REMARK SMILES IDX 40 47 54 48 41 49 44 50 53 51 67 52 42 53 43 54 52 56 68 57
REMARK SMILES IDX 45 58 34 59 35 60 39 61 36 62 38 63 37 64 56 65 57 66 61 67
REMARK SMILES IDX 58 68 60 69 59 70 46 71 47 72 51 73 48 74 50 75 49 76
REMARK H PARENT 8 21 8 22 66 44 44 55
REMARK Flexibility Score: inf
ROOT
ATOM      1  C   UNL A   1      38.182  21.090  25.327  1.00  0.00     0.274 C 
ENDROOT
BRANCH   1   2
ATOM      2  O   UNL A   1      36.795  21.128  25.721  1.00  0.00    -0.462 OA
BRANCH   2   3
ATOM      3  C   UNL A   1      36.261  22.361  25.928  1.00  0.00     0.313 C 
ATOM      4  O   UNL A   1      36.910  23.341  26.276  1.00  0.00    -0.252 OA
BRANCH   3   5
ATOM      5  C   UNL A   1      34.761  22.405  25.717  1.00  0.00     0.150 C 
ATOM      6  C   UNL A   1      34.415  21.784  24.379  1.00  0.00     0.125 C 
ATOM      7  C   UNL A   1      34.354  23.019  23.474  1.00  0.00     0.186 C 
ATOM      8  O   UNL A   1      33.895  24.114  24.280  1.00  0.00    -0.378 OA
ATOM      9  C   UNL A   1      34.195  23.810  25.652  1.00  0.00     0.177 C 
BRANCH   6  10
ATOM     10  N   UNL A   1      33.147  21.016  24.405  1.00  0.00    -0.352 N 
ATOM     11  C   UNL A   1      31.850  21.675  24.482  1.00  0.00     0.145 C 
BRANCH  10  12
ATOM     12  C   UNL A   1      33.222  19.656  24.679  1.00  0.00     0.151 A 
ATOM     13  C   UNL A   1      34.373  18.924  24.394  1.00  0.00     0.051 A 
ATOM     14  N   UNL A   1      32.165  19.015  25.229  1.00  0.00    -0.132 NA
ATOM     15  C   UNL A   1      34.413  17.550  24.631  1.00  0.00     0.040 A 
ATOM     16  N   UNL A   1      32.170  17.651  25.435  1.00  0.00    -0.143 NA
ATOM     17  C   UNL A   1      33.279  16.945  25.133  1.00  0.00     0.150 A 
BRANCH  17  18
ATOM     18  C   UNL A   1      33.220  15.470  25.334  1.00  0.00     0.269 C 
ATOM     19  N   UNL A   1      31.977  14.937  25.545  1.00  0.00    -0.364 N 
ATOM     20  O   UNL A   1      34.222  14.766  25.293  1.00  0.00    -0.268 OA
ATOM     21  H   UNL A   1      31.188  15.525  25.575  1.00  0.00     0.160 HD
ATOM     22  H   UNL A   1      31.872  13.965  25.669  1.00  0.00     0.160 HD
ENDBRANCH  17  18
ENDBRANCH  10  12
ENDBRANCH   6  10
ENDBRANCH   3   5
ENDBRANCH   2   3
ENDBRANCH   1   2
BRANCH   1  23
ATOM     23  C   UNL A   1      38.825  19.739  25.652  1.00  0.00     0.275 C 
BRANCH  23  24
ATOM     24  O   UNL A   1      40.137  19.630  25.072  1.00  0.00    -0.458 OA
BRANCH  24  25
ATOM     25  C   UNL A   1      41.156  19.573  25.958  1.00  0.00     0.338 C 
ATOM     26  O   UNL A   1      41.877  18.624  26.209  1.00  0.00    -0.246 OA
BRANCH  25  27
ATOM     27  C   UNL A   1      41.379  20.905  26.532  1.00  0.00     0.060 A 
ATOM     28  C   UNL A   1      41.871  21.912  25.698  1.00  0.00     0.016 A 
ATOM     29  C   UNL A   1      41.207  21.131  27.897  1.00  0.00     0.016 A 
ATOM     30  C   UNL A   1      42.202  23.156  26.225  1.00  0.00     0.010 A 
ATOM     31  C   UNL A   1      41.533  22.383  28.425  1.00  0.00     0.010 A 
ATOM     32  C   UNL A   1      42.045  23.395  27.594  1.00  0.00    -0.014 A 
BRANCH  32  33
ATOM     33  C   UNL A   1      42.470  24.692  28.166  1.00  0.00     0.031 A 
ATOM     34  C   UNL A   1      41.457  25.776  28.385  1.00  0.00     0.074 A 
ATOM     35  C   UNL A   1      43.759  24.889  28.494  1.00  0.00     0.049 A 
ATOM     36  N   UNL A   1      41.641  27.011  28.779  1.00  0.00    -0.248 NA
ATOM     37  C   UNL A   1      40.053  25.426  28.124  1.00  0.00     0.031 C 
ATOM     38  C   UNL A   1      44.825  23.894  28.372  1.00  0.00     0.029 A 
ATOM     39  N   UNL A   1      44.389  26.002  28.987  1.00  0.00    -0.354 N 
ATOM     40  C   UNL A   1      40.381  27.593  28.790  1.00  0.00     0.074 A 
ATOM     41  C   UNL A   1      39.443  26.581  28.353  1.00  0.00     0.031 C 
ATOM     42  C   UNL A   1      45.982  24.446  28.770  1.00  0.00     0.029 A 
ATOM     43  C   UNL A   1      45.744  25.842  29.131  1.00  0.00     0.049 A 
ATOM     44  H   UNL A   1      43.916  26.835  29.216  1.00  0.00     0.167 HD
ATOM     45  C   UNL A   1      40.038  28.858  29.131  1.00  0.00     0.031 A 
ATOM     46  C   UNL A   1      46.693  26.729  29.481  1.00  0.00     0.031 A 
ATOM     47  C   UNL A   1      40.973  29.862  29.562  1.00  0.00     0.049 A 
ATOM     48  C   UNL A   1      46.298  28.143  29.797  1.00  0.00     0.074 A 
ATOM     49  C   UNL A   1      40.723  31.171  29.937  1.00  0.00     0.029 A 
ATOM     50  N   UNL A   1      42.341  29.667  29.673  1.00  0.00    -0.354 N 
ATOM     51  N   UNL A   1      45.104  28.685  29.798  1.00  0.00    -0.248 NA
ATOM     52  C   UNL A   1      47.381  29.067  30.158  1.00  0.00     0.031 C 
ATOM     53  C   UNL A   1      41.948  31.781  30.235  1.00  0.00     0.029 A 
ATOM     54  C   UNL A   1      42.953  30.838  30.089  1.00  0.00     0.049 A 
ATOM     55  H   UNL A   1      42.808  28.822  29.483  1.00  0.00     0.167 HD
ATOM     56  C   UNL A   1      45.289  30.009  30.170  1.00  0.00     0.074 A 
ATOM     57  C   UNL A   1      46.708  30.184  30.404  1.00  0.00     0.031 C 
ATOM     58  C   UNL A   1      44.367  30.993  30.306  1.00  0.00     0.031 A 
BRANCH  45  59
ATOM     59  C   UNL A   1      38.590  29.230  29.006  1.00  0.00    -0.014 A 
ATOM     60  C   UNL A   1      37.714  29.136  30.098  1.00  0.00     0.009 A 
ATOM     61  C   UNL A   1      38.096  29.692  27.775  1.00  0.00     0.009 A 
ATOM     62  C   UNL A   1      36.364  29.463  29.951  1.00  0.00     0.001 A 
ATOM     63  C   UNL A   1      36.751  30.039  27.637  1.00  0.00     0.001 A 
ATOM     64  C   UNL A   1      35.885  29.916  28.721  1.00  0.00     0.000 A 
ENDBRANCH  45  59
BRANCH  46  65
ATOM     65  C   UNL A   1      48.116  26.310  29.507  1.00  0.00    -0.014 A 
ATOM     66  C   UNL A   1      48.680  25.761  30.667  1.00  0.00     0.009 A 
ATOM     67  C   UNL A   1      48.913  26.444  28.359  1.00  0.00     0.009 A 
ATOM     68  C   UNL A   1      50.020  25.367  30.682  1.00  0.00     0.001 A 
ATOM     69  C   UNL A   1      50.246  26.026  28.369  1.00  0.00     0.001 A 
ATOM     70  C   UNL A   1      50.799  25.494  29.532  1.00  0.00     0.000 A 
ENDBRANCH  46  65
BRANCH  58  71
ATOM     71  C   UNL A   1      44.867  32.339  30.745  1.00  0.00    -0.014 A 
ATOM     72  C   UNL A   1      44.986  32.657  32.106  1.00  0.00     0.009 A 
ATOM     73  C   UNL A   1      45.255  33.286  29.785  1.00  0.00     0.009 A 
ATOM     74  C   UNL A   1      45.460  33.910  32.497  1.00  0.00     0.001 A 
ATOM     75  C   UNL A   1      45.750  34.529  30.179  1.00  0.00     0.001 A 
ATOM     76  C   UNL A   1      45.845  34.843  31.534  1.00  0.00     0.000 A 
ENDBRANCH  58  71
ENDBRANCH  32  33
ENDBRANCH  25  27
ENDBRANCH  24  25
ENDBRANCH  23  24
ENDBRANCH   1  23
TORSDOF 14
ENDMDL
MODEL 2
REMARK VINA RESULT:     -10.8      5.816     10.596
REMARK SMILES CN(c1ccc(C(N)=O)nn1)[C@H]1COC[C@@H]1C(=O)OCCOC(=O)c1ccc(-c2c3nc(c(-c4ccccc4)c4ccc([nH]4)c(-c4ccccc4)c4nc(c(-c5ccccc5)c5ccc2[nH]5)C=C4)C=C3)cc1
REMARK SMILES IDX 20 1 19 2 17 3 18 4 16 5 12 6 13 7 14 8 15 9 2 10 1 11 3 12
REMARK SMILES IDX 4 13 11 14 5 15 10 16 6 17 7 18 8 19 9 20 21 23 22 24 23 25
REMARK SMILES IDX 24 26 25 27 26 28 72 29 27 30 71 31 28 32 29 33 30 34 65 35
REMARK SMILES IDX 31 36 70 37 64 38 66 39 32 40 69 41 63 42 62 43 33 45 55 46
REMARK SMILES IDX 40 47 54 48 41 49 44 50 53 51 67 52 42 53 43 54 52 56 68 57
REMARK SMILES IDX 45 58 34 59 35 60 39 61 36 62 38 63 37 64 56 65 57 66 61 67
REMARK SMILES IDX 58 68 60 69 59 70 46 71 47 72 51 73 48 74 50 75 49 76
REMARK H PARENT 8 21 8 22 66 44 44 55
REMARK Flexibility Score: inf
ROOT
ATOM      1  C   UNL A   1      32.060  31.587  27.242  1.00  0.00     0.274 C 
ENDROOT
BRANCH   1   2
ATOM      2  O   UNL A   1      32.001  30.886  25.983  1.00  0.00    -0.462 OA
BRANCH   2   3
ATOM      3  C   UNL A   1      32.935  29.917  25.789  1.00  0.00     0.313 C 
ATOM      4  O   UNL A   1      33.963  29.812  26.447  1.00  0.00    -0.252 OA
BRANCH   3   5
ATOM      5  C   UNL A   1      32.597  28.985  24.643  1.00  0.00     0.150 C 
ATOM      6  C   UNL A   1      31.277  28.293  24.918  1.00  0.00     0.125 C 
ATOM      7  C   UNL A   1      31.746  26.980  25.555  1.00  0.00     0.186 C 
ATOM      8  O   UNL A   1      33.009  26.647  24.960  1.00  0.00    -0.378 OA
ATOM      9  C   UNL A   1      33.596  27.859  24.459  1.00  0.00     0.177 C 
BRANCH   6  10
ATOM     10  N   UNL A   1      30.461  28.091  23.698  1.00  0.00    -0.352 N 
ATOM     11  C   UNL A   1      30.486  26.838  22.953  1.00  0.00     0.145 C 
BRANCH  10  12
ATOM     12  C   UNL A   1      29.918  29.217  23.092  1.00  0.00     0.151 A 
ATOM     13  C   UNL A   1      29.429  30.279  23.847  1.00  0.00     0.051 A 
ATOM     14  N   UNL A   1      29.852  29.295  21.742  1.00  0.00    -0.132 NA
ATOM     15  C   UNL A   1      28.843  31.381  23.223  1.00  0.00     0.040 A 
ATOM     16  N   UNL A   1      29.242  30.357  21.106  1.00  0.00    -0.143 NA
ATOM     17  C   UNL A   1      28.748  31.371  21.847  1.00  0.00     0.150 A 
BRANCH  17  18
ATOM     18  C   UNL A   1      28.062  32.473  21.116  1.00  0.00     0.269 C 
ATOM     19  N   UNL A   1      27.699  32.208  19.823  1.00  0.00    -0.364 N 
ATOM     20  O   UNL A   1      27.815  33.550  21.644  1.00  0.00    -0.268 OA
ATOM     21  H   UNL A   1      27.910  31.334  19.421  1.00  0.00     0.160 HD
ATOM     22  H   UNL A   1      27.228  32.892  19.293  1.00  0.00     0.160 HD
ENDBRANCH  17  18
ENDBRANCH  10  12
ENDBRANCH   6  10
ENDBRANCH   3   5
ENDBRANCH   2   3
ENDBRANCH   1   2
BRANCH   1  23
ATOM     23  C   UNL A   1      32.589  33.013  27.070  1.00  0.00     0.275 C 
BRANCH  23  24
ATOM     24  O   UNL A   1      32.100  33.883  28.107  1.00  0.00    -0.458 OA
BRANCH  24  25
ATOM     25  C   UNL A   1      32.982  34.808  28.547  1.00  0.00     0.338 C 
ATOM     26  O   UNL A   1      32.805  36.006  28.681  1.00  0.00    -0.246 OA
BRANCH  25  27
ATOM     27  C   UNL A   1      34.216  34.141  28.979  1.00  0.00     0.060 A 
ATOM     28  C   UNL A   1      34.135  33.203  30.011  1.00  0.00     0.016 A 
ATOM     29  C   UNL A   1      35.451  34.512  28.448  1.00  0.00     0.016 A 
ATOM     30  C   UNL A   1      35.292  32.630  30.527  1.00  0.00     0.010 A 
ATOM     31  C   UNL A   1      36.613  33.932  28.962  1.00  0.00     0.010 A 
ATOM     32  C   UNL A   1      36.540  32.999  30.013  1.00  0.00    -0.014 A 
BRANCH  32  33
ATOM     33  C   UNL A   1      37.774  32.449  30.613  1.00  0.00     0.031 A 
ATOM     34  C   UNL A   1      38.430  31.248  29.999  1.00  0.00     0.074 A 
ATOM     35  C   UNL A   1      38.307  33.031  31.702  1.00  0.00     0.049 A 
ATOM     36  N   UNL A   1      39.454  30.555  30.428  1.00  0.00    -0.248 NA
ATOM     37  C   UNL A   1      37.855  30.759  28.736  1.00  0.00     0.031 C 
ATOM     38  C   UNL A   1      37.787  34.230  32.360  1.00  0.00     0.029 A 
ATOM     39  N   UNL A   1      39.399  32.680  32.452  1.00  0.00    -0.354 N 
ATOM     40  C   UNL A   1      39.632  29.536  29.504  1.00  0.00     0.074 A 
ATOM     41  C   UNL A   1      38.604  29.693  28.496  1.00  0.00     0.031 C 
ATOM     42  C   UNL A   1      38.556  34.510  33.424  1.00  0.00     0.029 A 
ATOM     43  C   UNL A   1      39.591  33.486  33.545  1.00  0.00     0.049 A 
ATOM     44  H   UNL A   1      39.989  31.924  32.228  1.00  0.00     0.167 HD
ATOM     45  C   UNL A   1      40.567  28.556  29.496  1.00  0.00     0.031 A 
ATOM     46  C   UNL A   1      40.480  33.391  34.551  1.00  0.00     0.031 A 
ATOM     47  C   UNL A   1      41.584  28.400  30.501  1.00  0.00     0.049 A 
ATOM     48  C   UNL A   1      41.469  32.262  34.555  1.00  0.00     0.074 A 
ATOM     49  C   UNL A   1      42.582  27.444  30.579  1.00  0.00     0.029 A 
ATOM     50  N   UNL A   1      41.732  29.225  31.605  1.00  0.00    -0.354 N 
ATOM     51  N   UNL A   1      41.625  31.298  33.679  1.00  0.00    -0.248 NA
ATOM     52  C   UNL A   1      42.403  32.205  35.688  1.00  0.00     0.031 C 
ATOM     53  C   UNL A   1      43.309  27.666  31.755  1.00  0.00     0.029 A 
ATOM     54  C   UNL A   1      42.790  28.787  32.384  1.00  0.00     0.049 A 
ATOM     55  H   UNL A   1      41.167  30.005  31.807  1.00  0.00     0.167 HD
ATOM     56  C   UNL A   1      42.681  30.528  34.146  1.00  0.00     0.074 A 
ATOM     57  C   UNL A   1      43.138  31.146  35.374  1.00  0.00     0.031 C 
ATOM     58  C   UNL A   1      43.223  29.409  33.607  1.00  0.00     0.031 A 
BRANCH  45  59
ATOM     59  C   UNL A   1      40.495  27.552  28.383  1.00  0.00    -0.014 A 
ATOM     60  C   UNL A   1      39.751  26.369  28.513  1.00  0.00     0.009 A 
ATOM     61  C   UNL A   1      41.175  27.800  27.180  1.00  0.00     0.009 A 
ATOM     62  C   UNL A   1      39.720  25.437  27.474  1.00  0.00     0.001 A 
ATOM     63  C   UNL A   1      41.124  26.877  26.135  1.00  0.00     0.001 A 
ATOM     64  C   UNL A   1      40.405  25.693  26.285  1.00  0.00     0.000 A 
ENDBRANCH  45  59
BRANCH  46  65
ATOM     65  C   UNL A   1      40.440  34.376  35.661  1.00  0.00    -0.014 A 
ATOM     66  C   UNL A   1      39.672  34.133  36.808  1.00  0.00     0.009 A 
ATOM     67  C   UNL A   1      41.190  35.561  35.580  1.00  0.00     0.009 A 
ATOM     68  C   UNL A   1      39.644  35.064  37.848  1.00  0.00     0.001 A 
ATOM     69  C   UNL A   1      41.179  36.478  36.633  1.00  0.00     0.001 A 
ATOM     70  C   UNL A   1      40.401  36.233  37.762  1.00  0.00     0.000 A 
ENDBRANCH  46  65
BRANCH  58  71
ATOM     71  C   UNL A   1      44.384  28.795  34.336  1.00  0.00    -0.014 A 
ATOM     72  C   UNL A   1      45.699  29.207  34.077  1.00  0.00     0.009 A 
ATOM     73  C   UNL A   1      44.152  27.819  35.316  1.00  0.00     0.009 A 
ATOM     74  C   UNL A   1      46.765  28.632  34.770  1.00  0.00     0.001 A 
ATOM     75  C   UNL A   1      45.218  27.261  36.023  1.00  0.00     0.001 A 
ATOM     76  C   UNL A   1      46.524  27.663  35.744  1.00  0.00     0.000 A 
ENDBRANCH  58  71
ENDBRANCH  32  33
ENDBRANCH  25  27
ENDBRANCH  24  25
ENDBRANCH  23  24
ENDBRANCH   1  23
TORSDOF 14
ENDMDL
MODEL 3
REMARK VINA RESULT:     -10.7      0.480      6.091
REMARK SMILES CN(c1ccc(C(N)=O)nn1)[C@H]1COC[C@@H]1C(=O)OCCOC(=O)c1ccc(-c2c3nc(c(-c4ccccc4)c4ccc([nH]4)c(-c4ccccc4)c4nc(c(-c5ccccc5)c5ccc2[nH]5)C=C4)C=C3)cc1
REMARK SMILES IDX 20 1 19 2 17 3 18 4 16 5 12 6 13 7 14 8 15 9 2 10 1 11 3 12
REMARK SMILES IDX 4 13 11 14 5 15 10 16 6 17 7 18 8 19 9 20 21 23 22 24 23 25
REMARK SMILES IDX 24 26 25 27 26 28 72 29 27 30 71 31 28 32 29 33 30 34 65 35
REMARK SMILES IDX 31 36 70 37 64 38 66 39 32 40 69 41 63 42 62 43 33 45 55 46
REMARK SMILES IDX 40 47 54 48 41 49 44 50 53 51 67 52 42 53 43 54 52 56 68 57
REMARK SMILES IDX 45 58 34 59 35 60 39 61 36 62 38 63 37 64 56 65 57 66 61 67
REMARK SMILES IDX 58 68 60 69 59 70 46 71 47 72 51 73 48 74 50 75 49 76
REMARK H PARENT 8 21 8 22 66 44 44 55
REMARK Flexibility Score: inf
ROOT
ATOM      1  C   UNL A   1      38.090  20.974  25.017  1.00  0.00     0.274 C 
ENDROOT
BRANCH   1   2
ATOM      2  O   UNL A   1      36.860  21.157  25.747  1.00  0.00    -0.462 OA
BRANCH   2   3
ATOM      3  C   UNL A   1      36.367  22.423  25.790  1.00  0.00     0.313 C 
ATOM      4  O   UNL A   1      37.060  23.426  25.922  1.00  0.00    -0.252 OA
BRANCH   3   5
ATOM      5  C   UNL A   1      34.856  22.480  25.692  1.00  0.00     0.150 C 
ATOM      6  C   UNL A   1      34.397  21.751  24.446  1.00  0.00     0.125 C 
ATOM      7  C   UNL A   1      34.283  22.902  23.441  1.00  0.00     0.186 C 
ATOM      8  O   UNL A   1      33.904  24.074  24.180  1.00  0.00    -0.378 OA
ATOM      9  C   UNL A   1      34.306  23.885  25.546  1.00  0.00     0.177 C 
BRANCH   6  10
ATOM     10  N   UNL A   1      33.125  21.015  24.637  1.00  0.00    -0.352 N 
ATOM     11  C   UNL A   1      31.875  21.703  24.932  1.00  0.00     0.145 C 
BRANCH  10  12
ATOM     12  C   UNL A   1      33.199  19.644  24.851  1.00  0.00     0.151 A 
ATOM     13  C   UNL A   1      34.336  18.919  24.504  1.00  0.00     0.051 A 
ATOM     14  N   UNL A   1      32.153  18.986  25.402  1.00  0.00    -0.132 NA
ATOM     15  C   UNL A   1      34.374  17.536  24.681  1.00  0.00     0.040 A 
ATOM     16  N   UNL A   1      32.155  17.614  25.549  1.00  0.00    -0.143 NA
ATOM     17  C   UNL A   1      33.250  16.916  25.187  1.00  0.00     0.150 A 
BRANCH  17  18
ATOM     18  C   UNL A   1      33.187  15.434  25.327  1.00  0.00     0.269 C 
ATOM     19  N   UNL A   1      31.937  14.890  25.451  1.00  0.00    -0.364 N 
ATOM     20  O   UNL A   1      34.193  14.735  25.311  1.00  0.00    -0.268 OA
ATOM     21  H   UNL A   1      31.145  15.474  25.462  1.00  0.00     0.160 HD
ATOM     22  H   UNL A   1      31.830  13.914  25.531  1.00  0.00     0.160 HD
ENDBRANCH  17  18
ENDBRANCH  10  12
ENDBRANCH   6  10
ENDBRANCH   3   5
ENDBRANCH   2   3
ENDBRANCH   1   2
BRANCH   1  23
ATOM     23  C   UNL A   1      39.272  20.722  25.957  1.00  0.00     0.275 C 
BRANCH  23  24
ATOM     24  O   UNL A   1      40.188  19.762  25.402  1.00  0.00    -0.458 OA
BRANCH  24  25
ATOM     25  C   UNL A   1      41.342  19.601  26.089  1.00  0.00     0.338 C 
ATOM     26  O   UNL A   1      41.985  18.578  26.242  1.00  0.00    -0.246 OA
BRANCH  25  27
ATOM     27  C   UNL A   1      41.816  20.907  26.559  1.00  0.00     0.060 A 
ATOM     28  C   UNL A   1      41.683  21.211  27.916  1.00  0.00     0.016 A 
ATOM     29  C   UNL A   1      42.288  21.861  25.658  1.00  0.00     0.016 A 
ATOM     30  C   UNL A   1      42.016  22.477  28.385  1.00  0.00     0.010 A 
ATOM     31  C   UNL A   1      42.629  23.132  26.130  1.00  0.00     0.010 A 
ATOM     32  C   UNL A   1      42.480  23.449  27.493  1.00  0.00    -0.014 A 
BRANCH  32  33
ATOM     33  C   UNL A   1      42.760  24.818  27.978  1.00  0.00     0.031 A 
ATOM     34  C   UNL A   1      44.156  25.197  28.375  1.00  0.00     0.074 A 
ATOM     35  C   UNL A   1      41.765  25.719  28.053  1.00  0.00     0.049 A 
ATOM     36  N   UNL A   1      44.589  26.307  28.916  1.00  0.00    -0.248 NA
ATOM     37  C   UNL A   1      45.203  24.192  28.133  1.00  0.00     0.031 C 
ATOM     38  C   UNL A   1      40.378  25.482  27.651  1.00  0.00     0.029 A 
ATOM     39  N   UNL A   1      41.769  27.012  28.509  1.00  0.00    -0.354 N 
ATOM     40  C   UNL A   1      45.952  26.127  29.103  1.00  0.00     0.074 A 
ATOM     41  C   UNL A   1      46.274  24.798  28.627  1.00  0.00     0.031 C 
ATOM     42  C   UNL A   1      39.661  26.593  27.888  1.00  0.00     0.029 A 
ATOM     43  C   UNL A   1      40.529  27.598  28.497  1.00  0.00     0.049 A 
ATOM     44  H   UNL A   1      42.583  27.475  28.813  1.00  0.00     0.167 HD
ATOM     45  C   UNL A   1      46.854  26.991  29.626  1.00  0.00     0.031 A 
ATOM     46  C   UNL A   1      40.129  28.797  28.958  1.00  0.00     0.031 A 
ATOM     47  C   UNL A   1      46.531  28.309  30.101  1.00  0.00     0.049 A 
ATOM     48  C   UNL A   1      41.135  29.716  29.589  1.00  0.00     0.074 A 
ATOM     49  C   UNL A   1      47.376  29.264  30.642  1.00  0.00     0.029 A 
ATOM     50  N   UNL A   1      45.259  28.858  30.093  1.00  0.00    -0.354 N 
ATOM     51  N   UNL A   1      42.422  29.534  29.767  1.00  0.00    -0.248 NA
ATOM     52  C   UNL A   1      40.634  31.005  30.085  1.00  0.00     0.031 C 
ATOM     53  C   UNL A   1      46.605  30.376  31.000  1.00  0.00     0.029 A 
ATOM     54  C   UNL A   1      45.290  30.130  30.640  1.00  0.00     0.049 A 
ATOM     55  H   UNL A   1      44.453  28.410  29.751  1.00  0.00     0.167 HD
ATOM     56  C   UNL A   1      42.886  30.687  30.383  1.00  0.00     0.074 A 
ATOM     57  C   UNL A   1      41.747  31.570  30.533  1.00  0.00     0.031 C 
ATOM     58  C   UNL A   1      44.143  30.988  30.790  1.00  0.00     0.031 A 
BRANCH  45  59
ATOM     59  C   UNL A   1      48.270  26.509  29.748  1.00  0.00    -0.014 A 
ATOM     60  C   UNL A   1      48.712  25.820  30.888  1.00  0.00     0.009 A 
ATOM     61  C   UNL A   1      49.175  26.739  28.699  1.00  0.00     0.009 A 
ATOM     62  C   UNL A   1      50.040  25.403  30.992  1.00  0.00     0.001 A 
ATOM     63  C   UNL A   1      50.497  26.302  28.796  1.00  0.00     0.001 A 
ATOM     64  C   UNL A   1      50.931  25.643  29.945  1.00  0.00     0.000 A 
ENDBRANCH  45  59
BRANCH  46  65
ATOM     65  C   UNL A   1      38.697  29.175  28.874  1.00  0.00    -0.014 A 
ATOM     66  C   UNL A   1      38.164  29.708  27.692  1.00  0.00     0.009 A 
ATOM     67  C   UNL A   1      37.851  28.986  29.979  1.00  0.00     0.009 A 
ATOM     68  C   UNL A   1      36.814  30.058  27.622  1.00  0.00     0.001 A 
ATOM     69  C   UNL A   1      36.496  29.315  29.898  1.00  0.00     0.001 A 
ATOM     70  C   UNL A   1      35.980  29.856  28.722  1.00  0.00     0.000 A 
ENDBRANCH  46  65
BRANCH  58  71
ATOM     71  C   UNL A   1      44.352  32.336  31.417  1.00  0.00    -0.014 A 
ATOM     72  C   UNL A   1      44.648  33.461  30.633  1.00  0.00     0.009 A 
ATOM     73  C   UNL A   1      44.216  32.487  32.805  1.00  0.00     0.009 A 
ATOM     74  C   UNL A   1      44.830  34.708  31.232  1.00  0.00     0.001 A 
ATOM     75  C   UNL A   1      44.376  33.739  33.399  1.00  0.00     0.001 A 
ATOM     76  C   UNL A   1      44.691  34.847  32.613  1.00  0.00     0.000 A 
ENDBRANCH  58  71
ENDBRANCH  32  33
ENDBRANCH  25  27
ENDBRANCH  24  25
ENDBRANCH  23  24
ENDBRANCH   1  23
TORSDOF 14
ENDMDL
