MODEL 1
REMARK VINA RESULT:     -10.7      0.000      0.000
REMARK SMILES Cc1ccc(F)c(C(=O)N[C@@H]2C=C[C@@H](C(=O)OCCOC(=O)c3ccc(-c4c5nc(c(-c6ccccc6)c6ccc([nH]6)c(-c6ccccc6)c6nc(c(-c7ccccc7)c7ccc4[nH]7)C=C6)C=C5)cc3)C2)c1
REMARK SMILES IDX 18 1 17 2 15 3 16 4 14 5 11 6 12 7 71 8 13 9 10 10 8 11 9 12
REMARK SMILES IDX 7 14 1 15 2 16 3 17 72 18 4 19 5 20 6 21 19 22 20 23 21 24
REMARK SMILES IDX 22 25 23 26 24 27 70 28 25 29 69 30 26 31 27 32 28 33 63 34
REMARK SMILES IDX 29 35 68 36 62 37 64 38 30 39 67 40 61 41 60 42 31 44 53 45
REMARK SMILES IDX 38 46 52 47 39 48 42 49 51 50 65 51 40 52 41 53 50 55 66 56
REMARK SMILES IDX 43 57 32 58 33 59 37 60 34 61 36 62 35 63 54 64 55 65 59 66
REMARK SMILES IDX 56 67 58 68 57 69 44 70 45 71 49 72 46 73 48 74 47 75
REMARK H PARENT 10 13 64 43 42 54
REMARK Flexibility Score: inf
ROOT
ATOM      1  C   UNL A   1      42.017  19.078  26.386  1.00  0.00     0.274 C 
ENDROOT
BRANCH   1   2
ATOM      2  O   UNL A   1      42.149  20.487  26.649  1.00  0.00    -0.462 OA
BRANCH   2   3
ATOM      3  C   UNL A   1      41.079  21.136  27.175  1.00  0.00     0.312 C 
ATOM      4  O   UNL A   1      40.778  21.125  28.364  1.00  0.00    -0.252 OA
BRANCH   3   5
ATOM      5  C   UNL A   1      40.293  21.930  26.131  1.00  0.00     0.124 C 
ATOM      6  C   UNL A   1      37.887  22.175  25.582  1.00  0.00     0.106 C 
ATOM      7  C   UNL A   1      38.428  23.345  26.340  1.00  0.00    -0.006 C 
ATOM      8  C   UNL A   1      39.083  21.225  25.503  1.00  0.00     0.048 C 
ATOM      9  C   UNL A   1      39.717  23.201  26.666  1.00  0.00    -0.014 C 
BRANCH   6  10
ATOM     10  N   UNL A   1      37.375  22.622  24.304  1.00  0.00    -0.346 N 
ATOM     11  C   UNL A   1      36.086  22.766  23.836  1.00  0.00     0.254 C 
ATOM     12  O   UNL A   1      35.924  23.329  22.754  1.00  0.00    -0.269 OA
ATOM     13  H   UNL A   1      38.070  22.866  23.652  1.00  0.00     0.164 HD
BRANCH  11  14
ATOM     14  C   UNL A   1      34.909  22.223  24.559  1.00  0.00     0.075 A 
ATOM     15  C   UNL A   1      33.023  18.961  25.098  1.00  0.00     0.044 C 
ATOM     16  C   UNL A   1      33.409  20.409  25.184  1.00  0.00    -0.050 A 
ATOM     17  C   UNL A   1      32.558  21.329  25.809  1.00  0.00     0.006 A 
ATOM     18  C   UNL A   1      34.616  20.857  24.621  1.00  0.00     0.020 A 
ATOM     19  C   UNL A   1      32.885  22.683  25.825  1.00  0.00     0.040 A 
ATOM     20  C   UNL A   1      34.044  23.124  25.187  1.00  0.00     0.135 A 
ATOM     21  F   UNL A   1      34.276  24.445  25.165  1.00  0.00    -0.206 F 
ENDBRANCH  11  14
ENDBRANCH   6  10
ENDBRANCH   3   5
ENDBRANCH   2   3
ENDBRANCH   1   2
BRANCH   1  22
ATOM     22  C   UNL A   1      43.309  18.554  25.752  1.00  0.00     0.275 C 
BRANCH  22  23
ATOM     23  O   UNL A   1      43.548  19.181  24.473  1.00  0.00    -0.458 OA
BRANCH  23  24
ATOM     24  C   UNL A   1      44.830  19.546  24.251  1.00  0.00     0.338 C 
ATOM     25  O   UNL A   1      45.711  18.870  23.744  1.00  0.00    -0.246 OA
BRANCH  24  26
ATOM     26  C   UNL A   1      45.035  20.957  24.607  1.00  0.00     0.060 A 
ATOM     27  C   UNL A   1      45.542  21.251  25.874  1.00  0.00     0.016 A 
ATOM     28  C   UNL A   1      44.638  21.981  23.747  1.00  0.00     0.016 A 
ATOM     29  C   UNL A   1      45.657  22.573  26.294  1.00  0.00     0.010 A 
ATOM     30  C   UNL A   1      44.760  23.310  24.165  1.00  0.00     0.010 A 
ATOM     31  C   UNL A   1      45.265  23.612  25.442  1.00  0.00    -0.014 A 
BRANCH  31  32
ATOM     32  C   UNL A   1      45.401  25.014  25.895  1.00  0.00     0.031 A 
ATOM     33  C   UNL A   1      46.735  25.698  25.864  1.00  0.00     0.074 A 
ATOM     34  C   UNL A   1      44.308  25.672  26.326  1.00  0.00     0.049 A 
ATOM     35  N   UNL A   1      47.054  26.898  26.278  1.00  0.00    -0.248 NA
ATOM     36  C   UNL A   1      47.859  24.935  25.298  1.00  0.00     0.031 C 
ATOM     37  C   UNL A   1      42.953  25.120  26.369  1.00  0.00     0.029 A 
ATOM     38  N   UNL A   1      44.168  26.946  26.811  1.00  0.00    -0.354 N 
ATOM     39  C   UNL A   1      48.416  27.029  26.043  1.00  0.00     0.074 A 
ATOM     40  C   UNL A   1      48.866  25.785  25.457  1.00  0.00     0.031 C 
ATOM     41  C   UNL A   1      42.118  26.050  26.859  1.00  0.00     0.029 A 
ATOM     42  C   UNL A   1      42.885  27.244  27.200  1.00  0.00     0.049 A 
ATOM     43  H   UNL A   1      44.914  27.585  26.875  1.00  0.00     0.167 HD
ATOM     44  C   UNL A   1      49.216  28.092  26.299  1.00  0.00     0.031 A 
ATOM     45  C   UNL A   1      42.388  28.346  27.792  1.00  0.00     0.031 A 
ATOM     46  C   UNL A   1      48.762  29.332  26.870  1.00  0.00     0.049 A 
ATOM     47  C   UNL A   1      43.307  29.495  28.094  1.00  0.00     0.074 A 
ATOM     48  C   UNL A   1      49.495  30.477  27.136  1.00  0.00     0.029 A 
ATOM     49  N   UNL A   1      47.460  29.592  27.261  1.00  0.00    -0.354 N 
ATOM     50  N   UNL A   1      44.590  29.611  27.851  1.00  0.00    -0.248 NA
ATOM     51  C   UNL A   1      42.709  30.664  28.755  1.00  0.00     0.031 C 
ATOM     52  C   UNL A   1      48.644  31.413  27.731  1.00  0.00     0.029 A 
ATOM     53  C   UNL A   1      47.372  30.867  27.793  1.00  0.00     0.049 A 
ATOM     54  H   UNL A   1      46.707  28.962  27.175  1.00  0.00     0.167 HD
ATOM     55  C   UNL A   1      44.949  30.869  28.312  1.00  0.00     0.074 A 
ATOM     56  C   UNL A   1      43.746  31.486  28.833  1.00  0.00     0.031 C 
ATOM     57  C   UNL A   1      46.168  31.462  28.307  1.00  0.00     0.031 A 
BRANCH  44  58
ATOM     58  C   UNL A   1      50.679  27.951  25.998  1.00  0.00    -0.014 A 
ATOM     59  C   UNL A   1      51.577  27.452  26.953  1.00  0.00     0.009 A 
ATOM     60  C   UNL A   1      51.152  28.258  24.712  1.00  0.00     0.009 A 
ATOM     61  C   UNL A   1      52.925  27.280  26.631  1.00  0.00     0.001 A 
ATOM     62  C   UNL A   1      52.496  28.069  24.387  1.00  0.00     0.001 A 
ATOM     63  C   UNL A   1      53.382  27.583  25.348  1.00  0.00     0.000 A 
ENDBRANCH  44  58
BRANCH  45  64
ATOM     64  C   UNL A   1      40.955  28.400  28.175  1.00  0.00    -0.014 A 
ATOM     65  C   UNL A   1      40.003  28.977  27.321  1.00  0.00     0.009 A 
ATOM     66  C   UNL A   1      40.536  27.881  29.410  1.00  0.00     0.009 A 
ATOM     67  C   UNL A   1      38.663  29.055  27.709  1.00  0.00     0.001 A 
ATOM     68  C   UNL A   1      39.191  27.936  29.783  1.00  0.00     0.001 A 
ATOM     69  C   UNL A   1      38.258  28.531  28.936  1.00  0.00     0.000 A 
ENDBRANCH  45  64
BRANCH  57  70
ATOM     70  C   UNL A   1      46.250  32.853  28.864  1.00  0.00    -0.014 A 
ATOM     71  C   UNL A   1      46.034  33.973  28.046  1.00  0.00     0.009 A 
ATOM     72  C   UNL A   1      46.517  33.042  30.228  1.00  0.00     0.009 A 
ATOM     73  C   UNL A   1      46.114  35.259  28.580  1.00  0.00     0.001 A 
ATOM     74  C   UNL A   1      46.573  34.330  30.763  1.00  0.00     0.001 A 
ATOM     75  C   UNL A   1      46.379  35.436  29.938  1.00  0.00     0.000 A 
ENDBRANCH  57  70
ENDBRANCH  31  32
ENDBRANCH  24  26
ENDBRANCH  23  24
ENDBRANCH  22  23
ENDBRANCH   1  22
TORSDOF 13
ENDMDL
MODEL 2
REMARK VINA RESULT:     -10.5      2.995      7.434
REMARK SMILES Cc1ccc(F)c(C(=O)N[C@@H]2C=C[C@@H](C(=O)OCCOC(=O)c3ccc(-c4c5nc(c(-c6ccccc6)c6ccc([nH]6)c(-c6ccccc6)c6nc(c(-c7ccccc7)c7ccc4[nH]7)C=C6)C=C5)cc3)C2)c1
REMARK SMILES IDX 18 1 17 2 15 3 16 4 14 5 11 6 12 7 71 8 13 9 10 10 8 11 9 12
REMARK SMILES IDX 7 14 1 15 2 16 3 17 72 18 4 19 5 20 6 21 19 22 20 23 21 24
REMARK SMILES IDX 22 25 23 26 24 27 70 28 25 29 69 30 26 31 27 32 28 33 63 34
REMARK SMILES IDX 29 35 68 36 62 37 64 38 30 39 67 40 61 41 60 42 31 44 53 45
REMARK SMILES IDX 38 46 52 47 39 48 42 49 51 50 65 51 40 52 41 53 50 55 66 56
REMARK SMILES IDX 43 57 32 58 33 59 37 60 34 61 36 62 35 63 54 64 55 65 59 66
REMARK SMILES IDX 56 67 58 68 57 69 44 70 45 71 49 72 46 73 48 74 47 75
REMARK H PARENT 10 13 64 43 42 54
REMARK Flexibility Score: inf
ROOT
ATOM      1  C   UNL A   1      37.478  20.907  25.316  1.00  0.00     0.274 C 
ENDROOT
BRANCH   1   2
ATOM      2  O   UNL A   1      37.581  22.220  24.737  1.00  0.00    -0.462 OA
BRANCH   2   3
ATOM      3  C   UNL A   1      36.601  22.615  23.885  1.00  0.00     0.312 C 
ATOM      4  O   UNL A   1      36.779  22.891  22.703  1.00  0.00    -0.252 OA
BRANCH   3   5
ATOM      5  C   UNL A   1      35.219  22.646  24.541  1.00  0.00     0.124 C 
ATOM      6  C   UNL A   1      33.436  24.355  24.757  1.00  0.00     0.106 C 
ATOM      7  C   UNL A   1      33.126  23.327  23.716  1.00  0.00    -0.006 C 
ATOM      8  C   UNL A   1      34.826  23.950  25.248  1.00  0.00     0.048 C 
ATOM      9  C   UNL A   1      34.102  22.423  23.574  1.00  0.00    -0.014 C 
BRANCH   6  10
ATOM     10  N   UNL A   1      32.401  24.342  25.771  1.00  0.00    -0.346 N 
ATOM     11  C   UNL A   1      31.289  25.137  25.951  1.00  0.00     0.254 C 
ATOM     12  O   UNL A   1      30.475  24.804  26.810  1.00  0.00    -0.269 OA
ATOM     13  H   UNL A   1      32.512  23.643  26.454  1.00  0.00     0.164 HD
BRANCH  11  14
ATOM     14  C   UNL A   1      31.074  26.393  25.190  1.00  0.00     0.075 A 
ATOM     15  C   UNL A   1      31.603  30.151  25.486  1.00  0.00     0.044 C 
ATOM     16  C   UNL A   1      31.206  28.812  24.936  1.00  0.00    -0.050 A 
ATOM     17  C   UNL A   1      30.454  28.728  23.758  1.00  0.00     0.006 A 
ATOM     18  C   UNL A   1      31.570  27.633  25.608  1.00  0.00     0.020 A 
ATOM     19  C   UNL A   1      30.027  27.489  23.289  1.00  0.00     0.040 A 
ATOM     20  C   UNL A   1      30.322  26.334  24.013  1.00  0.00     0.135 A 
ATOM     21  F   UNL A   1      29.824  25.173  23.560  1.00  0.00    -0.206 F 
ENDBRANCH  11  14
ENDBRANCH   6  10
ENDBRANCH   3   5
ENDBRANCH   2   3
ENDBRANCH   1   2
BRANCH   1  22
ATOM     22  C   UNL A   1      38.661  20.051  24.854  1.00  0.00     0.275 C 
BRANCH  22  23
ATOM     23  O   UNL A   1      39.328  19.441  25.981  1.00  0.00    -0.458 OA
BRANCH  23  24
ATOM     24  C   UNL A   1      40.670  19.607  26.003  1.00  0.00     0.338 C 
ATOM     25  O   UNL A   1      41.513  18.849  25.550  1.00  0.00    -0.246 OA
BRANCH  24  26
ATOM     26  C   UNL A   1      41.019  20.918  26.567  1.00  0.00     0.060 A 
ATOM     27  C   UNL A   1      41.492  21.905  25.700  1.00  0.00     0.016 A 
ATOM     28  C   UNL A   1      40.979  21.143  27.944  1.00  0.00     0.016 A 
ATOM     29  C   UNL A   1      41.930  23.127  26.201  1.00  0.00     0.010 A 
ATOM     30  C   UNL A   1      41.413  22.374  28.447  1.00  0.00     0.010 A 
ATOM     31  C   UNL A   1      41.895  23.369  27.579  1.00  0.00    -0.014 A 
BRANCH  31  32
ATOM     32  C   UNL A   1      42.355  24.676  28.099  1.00  0.00     0.031 A 
ATOM     33  C   UNL A   1      41.371  25.773  28.376  1.00  0.00     0.074 A 
ATOM     34  C   UNL A   1      43.667  24.862  28.332  1.00  0.00     0.049 A 
ATOM     35  N   UNL A   1      41.598  27.000  28.775  1.00  0.00    -0.248 NA
ATOM     36  C   UNL A   1      39.949  25.456  28.176  1.00  0.00     0.031 C 
ATOM     37  C   UNL A   1      44.712  23.856  28.133  1.00  0.00     0.029 A 
ATOM     38  N   UNL A   1      44.345  25.965  28.784  1.00  0.00    -0.354 N 
ATOM     39  C   UNL A   1      40.352  27.607  28.854  1.00  0.00     0.074 A 
ATOM     40  C   UNL A   1      39.373  26.618  28.456  1.00  0.00     0.031 C 
ATOM     41  C   UNL A   1      45.900  24.390  28.458  1.00  0.00     0.029 A 
ATOM     42  C   UNL A   1      45.704  25.783  28.848  1.00  0.00     0.049 A 
ATOM     43  H   UNL A   1      43.900  26.806  29.039  1.00  0.00     0.167 HD
ATOM     44  C   UNL A   1      40.056  28.877  29.222  1.00  0.00     0.031 A 
ATOM     45  C   UNL A   1      46.686  26.650  29.158  1.00  0.00     0.031 A 
ATOM     46  C   UNL A   1      41.032  29.853  29.630  1.00  0.00     0.049 A 
ATOM     47  C   UNL A   1      46.329  28.061  29.528  1.00  0.00     0.074 A 
ATOM     48  C   UNL A   1      40.822  31.156  30.050  1.00  0.00     0.029 A 
ATOM     49  N   UNL A   1      42.398  29.635  29.669  1.00  0.00    -0.354 N 
ATOM     50  N   UNL A   1      45.145  28.616  29.615  1.00  0.00    -0.248 NA
ATOM     51  C   UNL A   1      47.445  28.965  29.842  1.00  0.00     0.031 C 
ATOM     52  C   UNL A   1      42.068  31.740  30.301  1.00  0.00     0.029 A 
ATOM     53  C   UNL A   1      43.049  30.786  30.079  1.00  0.00     0.049 A 
ATOM     54  H   UNL A   1      42.843  28.786  29.439  1.00  0.00     0.167 HD
ATOM     55  C   UNL A   1      45.371  29.927  30.010  1.00  0.00     0.074 A 
ATOM     56  C   UNL A   1      46.804  30.080  30.162  1.00  0.00     0.031 C 
ATOM     57  C   UNL A   1      44.473  30.919  30.224  1.00  0.00     0.031 A 
BRANCH  44  58
ATOM     58  C   UNL A   1      38.618  29.301  29.167  1.00  0.00    -0.014 A 
ATOM     59  C   UNL A   1      37.784  29.204  30.290  1.00  0.00     0.009 A 
ATOM     60  C   UNL A   1      38.112  29.872  27.989  1.00  0.00     0.009 A 
ATOM     61  C   UNL A   1      36.464  29.655  30.229  1.00  0.00     0.001 A 
ATOM     62  C   UNL A   1      36.798  30.339  27.935  1.00  0.00     0.001 A 
ATOM     63  C   UNL A   1      35.974  30.227  29.054  1.00  0.00     0.000 A 
ENDBRANCH  44  58
BRANCH  45  64
ATOM     64  C   UNL A   1      48.105  26.219  29.091  1.00  0.00    -0.014 A 
ATOM     65  C   UNL A   1      48.818  26.275  27.884  1.00  0.00     0.009 A 
ATOM     66  C   UNL A   1      48.750  25.736  30.241  1.00  0.00     0.009 A 
ATOM     67  C   UNL A   1      50.141  25.832  27.826  1.00  0.00     0.001 A 
ATOM     68  C   UNL A   1      50.082  25.321  30.185  1.00  0.00     0.001 A 
ATOM     69  C   UNL A   1      50.773  25.360  28.976  1.00  0.00     0.000 A 
ENDBRANCH  45  64
BRANCH  57  70
ATOM     70  C   UNL A   1      45.017  32.246  30.665  1.00  0.00    -0.014 A 
ATOM     71  C   UNL A   1      45.349  33.239  29.731  1.00  0.00     0.009 A 
ATOM     72  C   UNL A   1      45.168  32.516  32.034  1.00  0.00     0.009 A 
ATOM     73  C   UNL A   1      45.852  34.467  30.159  1.00  0.00     0.001 A 
ATOM     74  C   UNL A   1      45.650  33.754  32.459  1.00  0.00     0.001 A 
ATOM     75  C   UNL A   1      45.999  34.725  31.522  1.00  0.00     0.000 A 
ENDBRANCH  57  70
ENDBRANCH  31  32
ENDBRANCH  24  26
ENDBRANCH  23  24
ENDBRANCH  22  23
ENDBRANCH   1  22
TORSDOF 13
ENDMDL
MODEL 3
REMARK VINA RESULT:     -10.5      3.003      4.614
REMARK SMILES Cc1ccc(F)c(C(=O)N[C@@H]2C=C[C@@H](C(=O)OCCOC(=O)c3ccc(-c4c5nc(c(-c6ccccc6)c6ccc([nH]6)c(-c6ccccc6)c6nc(c(-c7ccccc7)c7ccc4[nH]7)C=C6)C=C5)cc3)C2)c1
REMARK SMILES IDX 18 1 17 2 15 3 16 4 14 5 11 6 12 7 71 8 13 9 10 10 8 11 9 12
REMARK SMILES IDX 7 14 1 15 2 16 3 17 72 18 4 19 5 20 6 21 19 22 20 23 21 24
REMARK SMILES IDX 22 25 23 26 24 27 70 28 25 29 69 30 26 31 27 32 28 33 63 34
REMARK SMILES IDX 29 35 68 36 62 37 64 38 30 39 67 40 61 41 60 42 31 44 53 45
REMARK SMILES IDX 38 46 52 47 39 48 42 49 51 50 65 51 40 52 41 53 50 55 66 56
REMARK SMILES IDX 43 57 32 58 33 59 37 60 34 61 36 62 35 63 54 64 55 65 59 66
REMARK SMILES IDX 56 67 58 68 57 69 44 70 45 71 49 72 46 73 48 74 47 75
REMARK H PARENT 10 13 64 43 42 54
REMARK Flexibility Score: inf
ROOT
ATOM      1  C   UNL A   1      38.262  21.042  25.399  1.00  0.00     0.274 C 
ENDROOT
BRANCH   1   2
ATOM      2  O   UNL A   1      37.321  21.210  24.323  1.00  0.00    -0.462 OA
BRANCH   2   3
ATOM      3  C   UNL A   1      36.510  22.298  24.354  1.00  0.00     0.312 C 
ATOM      4  O   UNL A   1      36.738  23.349  23.765  1.00  0.00    -0.252 OA
BRANCH   3   5
ATOM      5  C   UNL A   1      35.241  22.071  25.178  1.00  0.00     0.124 C 
ATOM      6  C   UNL A   1      32.862  22.717  24.916  1.00  0.00     0.106 C 
ATOM      7  C   UNL A   1      33.113  21.286  24.562  1.00  0.00    -0.006 C 
ATOM      8  C   UNL A   1      34.256  23.246  25.254  1.00  0.00     0.048 C 
ATOM      9  C   UNL A   1      34.402  20.944  24.670  1.00  0.00    -0.014 C 
BRANCH   6  10
ATOM     10  N   UNL A   1      31.902  22.785  25.999  1.00  0.00    -0.346 N 
ATOM     11  C   UNL A   1      31.043  23.788  26.397  1.00  0.00     0.254 C 
ATOM     12  O   UNL A   1      30.206  23.522  27.259  1.00  0.00    -0.269 OA
ATOM     13  H   UNL A   1      31.855  21.971  26.550  1.00  0.00     0.164 HD
BRANCH  11  14
ATOM     14  C   UNL A   1      31.130  25.170  25.867  1.00  0.00     0.075 A 
ATOM     15  C   UNL A   1      31.917  28.720  26.995  1.00  0.00     0.044 C 
ATOM     16  C   UNL A   1      31.541  27.558  26.122  1.00  0.00    -0.050 A 
ATOM     17  C   UNL A   1      31.084  27.775  24.817  1.00  0.00     0.006 A 
ATOM     18  C   UNL A   1      31.625  26.245  26.614  1.00  0.00     0.020 A 
ATOM     19  C   UNL A   1      30.668  26.700  24.035  1.00  0.00     0.040 A 
ATOM     20  C   UNL A   1      30.676  25.412  24.567  1.00  0.00     0.135 A 
ATOM     21  F   UNL A   1      30.195  24.421  23.800  1.00  0.00    -0.206 F 
ENDBRANCH  11  14
ENDBRANCH   6  10
ENDBRANCH   3   5
ENDBRANCH   2   3
ENDBRANCH   1   2
BRANCH   1  22
ATOM     22  C   UNL A   1      39.101  19.786  25.152  1.00  0.00     0.275 C 
BRANCH  22  23
ATOM     23  O   UNL A   1      39.938  19.491  26.292  1.00  0.00    -0.458 OA
BRANCH  23  24
ATOM     24  C   UNL A   1      41.261  19.676  26.088  1.00  0.00     0.338 C 
ATOM     25  O   UNL A   1      42.027  18.931  25.497  1.00  0.00    -0.246 OA
BRANCH  24  26
ATOM     26  C   UNL A   1      41.681  20.993  26.586  1.00  0.00     0.060 A 
ATOM     27  C   UNL A   1      41.442  21.299  27.927  1.00  0.00     0.016 A 
ATOM     28  C   UNL A   1      42.211  21.953  25.723  1.00  0.00     0.016 A 
ATOM     29  C   UNL A   1      41.729  22.568  28.419  1.00  0.00     0.010 A 
ATOM     30  C   UNL A   1      42.507  23.227  26.219  1.00  0.00     0.010 A 
ATOM     31  C   UNL A   1      42.263  23.542  27.568  1.00  0.00    -0.014 A 
BRANCH  31  32
ATOM     32  C   UNL A   1      42.574  24.886  28.104  1.00  0.00     0.031 A 
ATOM     33  C   UNL A   1      43.968  25.228  28.539  1.00  0.00     0.074 A 
ATOM     34  C   UNL A   1      41.591  25.801  28.186  1.00  0.00     0.049 A 
ATOM     35  N   UNL A   1      44.410  26.331  29.088  1.00  0.00    -0.248 NA
ATOM     36  C   UNL A   1      44.998  24.198  28.334  1.00  0.00     0.031 C 
ATOM     37  C   UNL A   1      40.205  25.593  27.761  1.00  0.00     0.029 A 
ATOM     38  N   UNL A   1      41.608  27.088  28.658  1.00  0.00    -0.354 N 
ATOM     39  C   UNL A   1      45.765  26.122  29.314  1.00  0.00     0.074 A 
ATOM     40  C   UNL A   1      46.070  24.786  28.849  1.00  0.00     0.031 C 
ATOM     41  C   UNL A   1      39.503  26.713  27.997  1.00  0.00     0.029 A 
ATOM     42  C   UNL A   1      40.379  27.700  28.622  1.00  0.00     0.049 A 
ATOM     43  H   UNL A   1      42.422  27.532  28.990  1.00  0.00     0.167 HD
ATOM     44  C   UNL A   1      46.666  26.970  29.864  1.00  0.00     0.031 A 
ATOM     45  C   UNL A   1      39.993  28.909  29.070  1.00  0.00     0.031 A 
ATOM     46  C   UNL A   1      46.361  28.302  30.313  1.00  0.00     0.049 A 
ATOM     47  C   UNL A   1      41.010  29.813  29.707  1.00  0.00     0.074 A 
ATOM     48  C   UNL A   1      47.218  29.246  30.855  1.00  0.00     0.029 A 
ATOM     49  N   UNL A   1      45.104  28.881  30.272  1.00  0.00    -0.354 N 
ATOM     50  N   UNL A   1      42.290  29.609  29.899  1.00  0.00    -0.248 NA
ATOM     51  C   UNL A   1      40.526  31.115  30.191  1.00  0.00     0.031 C 
ATOM     52  C   UNL A   1      46.468  30.380  31.183  1.00  0.00     0.029 A 
ATOM     53  C   UNL A   1      45.153  30.158  30.804  1.00  0.00     0.049 A 
ATOM     54  H   UNL A   1      44.293  28.447  29.917  1.00  0.00     0.167 HD
ATOM     55  C   UNL A   1      42.769  30.760  30.508  1.00  0.00     0.074 A 
ATOM     56  C   UNL A   1      41.645  31.665  30.638  1.00  0.00     0.031 C 
ATOM     57  C   UNL A   1      44.026  31.042  30.927  1.00  0.00     0.031 A 
BRANCH  44  58
ATOM     58  C   UNL A   1      48.070  26.471  30.048  1.00  0.00    -0.014 A 
ATOM     59  C   UNL A   1      48.463  25.810  31.221  1.00  0.00     0.009 A 
ATOM     60  C   UNL A   1      48.993  26.605  28.999  1.00  0.00     0.009 A 
ATOM     61  C   UNL A   1      49.760  25.309  31.346  1.00  0.00     0.001 A 
ATOM     62  C   UNL A   1      50.283  26.087  29.119  1.00  0.00     0.001 A 
ATOM     63  C   UNL A   1      50.666  25.442  30.294  1.00  0.00     0.000 A 
ENDBRANCH  44  58
BRANCH  45  64
ATOM     64  C   UNL A   1      38.570  29.319  28.970  1.00  0.00    -0.014 A 
ATOM     65  C   UNL A   1      37.704  29.183  30.065  1.00  0.00     0.009 A 
ATOM     66  C   UNL A   1      38.070  29.839  27.766  1.00  0.00     0.009 A 
ATOM     67  C   UNL A   1      36.358  29.538  29.947  1.00  0.00     0.001 A 
ATOM     68  C   UNL A   1      36.730  30.219  27.661  1.00  0.00     0.001 A 
ATOM     69  C   UNL A   1      35.874  30.059  28.748  1.00  0.00     0.000 A 
ENDBRANCH  45  64
BRANCH  57  70
ATOM     70  C   UNL A   1      44.252  32.391  31.543  1.00  0.00    -0.014 A 
ATOM     71  C   UNL A   1      44.142  32.581  32.929  1.00  0.00     0.009 A 
ATOM     72  C   UNL A   1      44.609  33.478  30.729  1.00  0.00     0.009 A 
ATOM     73  C   UNL A   1      44.356  33.842  33.485  1.00  0.00     0.001 A 
ATOM     74  C   UNL A   1      44.845  34.732  31.293  1.00  0.00     0.001 A 
ATOM     75  C   UNL A   1      44.711  34.915  32.668  1.00  0.00     0.000 A 
ENDBRANCH  57  70
ENDBRANCH  31  32
ENDBRANCH  24  26
ENDBRANCH  23  24
ENDBRANCH  22  23
ENDBRANCH   1  22
TORSDOF 13
ENDMDL
