MODEL 1
REMARK VINA RESULT:     -10.4      0.000      0.000
REMARK SMILES NC(=O)N[C@@H](C(=O)N[C@@H](CO)C(=O)OCCOC(=O)c1ccc(-c2c3nc(c(-c4ccccc4)c4ccc([nH]4)c(-c4ccccc4)c4nc(c(-c5ccccc5)c5ccc2[nH]5)C=C4)C=C3)cc1)c1ccccc1
REMARK SMILES IDX 15 1 14 2 12 3 13 4 9 5 8 6 6 7 7 8 5 10 4 11 1 12 2 13 3 16
REMARK SMILES IDX 68 18 69 19 73 20 70 21 72 22 71 23 10 24 11 25 16 27 17 28
REMARK SMILES IDX 18 29 19 30 20 31 21 32 67 33 22 34 66 35 23 36 24 37 25 38
REMARK SMILES IDX 60 39 26 40 65 41 59 42 61 43 27 44 64 45 58 46 57 47 28 49
REMARK SMILES IDX 50 50 35 51 49 52 36 53 39 54 48 55 62 56 37 57 38 58 47 60
REMARK SMILES IDX 63 61 40 62 29 63 30 64 34 65 31 66 33 67 32 68 51 69 52 70
REMARK SMILES IDX 56 71 53 72 55 73 54 74 41 75 42 76 46 77 43 78 45 79 44 80
REMARK H PARENT 8 9 1 14 1 15 4 17 11 26 61 48 39 59
REMARK Flexibility Score: inf
ROOT
ATOM      1  C   UNL A   1      36.136  22.989  23.546  1.00  0.00     0.274 C 
ENDROOT
BRANCH   1   2
ATOM      2  O   UNL A   1      34.991  23.557  24.209  1.00  0.00    -0.460 OA
BRANCH   2   3
ATOM      3  C   UNL A   1      34.091  24.193  23.409  1.00  0.00     0.331 C 
ATOM      4  O   UNL A   1      34.313  25.223  22.782  1.00  0.00    -0.250 OA
BRANCH   3   5
ATOM      5  C   UNL A   1      32.743  23.467  23.351  1.00  0.00     0.218 C 
BRANCH   5   6
ATOM      6  N   UNL A   1      31.570  24.356  23.331  1.00  0.00    -0.339 N 
ATOM      7  C   UNL A   1      31.006  25.087  24.348  1.00  0.00     0.248 C 
ATOM      8  O   UNL A   1      30.036  25.790  24.063  1.00  0.00    -0.272 OA
ATOM      9  H   UNL A   1      31.122  24.437  22.458  1.00  0.00     0.164 HD
BRANCH   7  10
ATOM     10  C   UNL A   1      31.651  25.056  25.765  1.00  0.00     0.203 C 
BRANCH  10  11
ATOM     11  N   UNL A   1      30.692  24.493  26.715  1.00  0.00    -0.322 N 
ATOM     12  N   UNL A   1      31.193  22.267  26.426  1.00  0.00    -0.352 N 
ATOM     13  C   UNL A   1      30.408  23.205  26.979  1.00  0.00     0.313 C 
ATOM     14  H   UNL A   1      31.016  21.314  26.597  1.00  0.00     0.161 HD
ATOM     15  H   UNL A   1      31.945  22.532  25.850  1.00  0.00     0.161 HD
ATOM     16  O   UNL A   1      29.432  22.904  27.654  1.00  0.00    -0.249 OA
ATOM     17  H   UNL A   1      30.180  25.152  27.236  1.00  0.00     0.166 HD
ENDBRANCH  10  11
BRANCH  10  18
ATOM     18  C   UNL A   1      32.198  26.398  26.232  1.00  0.00    -0.016 A 
ATOM     19  C   UNL A   1      33.517  26.807  25.966  1.00  0.00     0.006 A 
ATOM     20  C   UNL A   1      31.372  27.262  26.972  1.00  0.00     0.006 A 
ATOM     21  C   UNL A   1      33.987  28.046  26.409  1.00  0.00     0.000 A 
ATOM     22  C   UNL A   1      31.845  28.500  27.417  1.00  0.00     0.000 A 
ATOM     23  C   UNL A   1      33.151  28.892  27.133  1.00  0.00     0.000 A 
ENDBRANCH  10  18
ENDBRANCH   7  10
ENDBRANCH   5   6
BRANCH   5  24
ATOM     24  C   UNL A   1      32.748  22.534  22.137  1.00  0.00     0.193 C 
BRANCH  24  25
ATOM     25  O   UNL A   1      33.188  23.224  20.966  1.00  0.00    -0.394 OA
ATOM     26  H   UNL A   1      32.431  23.656  20.541  1.00  0.00     0.210 HD
ENDBRANCH  24  25
ENDBRANCH   5  24
ENDBRANCH   3   5
ENDBRANCH   2   3
ENDBRANCH   1   2
BRANCH   1  27
ATOM     27  C   UNL A   1      36.562  21.692  24.235  1.00  0.00     0.275 C 
BRANCH  27  28
ATOM     28  O   UNL A   1      36.987  21.937  25.590  1.00  0.00    -0.458 OA
BRANCH  28  29
ATOM     29  C   UNL A   1      38.273  21.621  25.852  1.00  0.00     0.338 C 
ATOM     30  O   UNL A   1      38.872  20.596  25.573  1.00  0.00    -0.246 OA
BRANCH  29  31
ATOM     31  C   UNL A   1      38.950  22.765  26.467  1.00  0.00     0.060 A 
ATOM     32  C   UNL A   1      38.492  24.047  26.166  1.00  0.00     0.016 A 
ATOM     33  C   UNL A   1      40.118  22.582  27.207  1.00  0.00     0.016 A 
ATOM     34  C   UNL A   1      39.238  25.154  26.552  1.00  0.00     0.010 A 
ATOM     35  C   UNL A   1      40.831  23.702  27.646  1.00  0.00     0.010 A 
ATOM     36  C   UNL A   1      40.414  24.999  27.299  1.00  0.00    -0.014 A 
BRANCH  36  37
ATOM     37  C   UNL A   1      41.218  26.189  27.684  1.00  0.00     0.031 A 
ATOM     38  C   UNL A   1      40.667  27.190  28.665  1.00  0.00     0.074 A 
ATOM     39  C   UNL A   1      42.453  26.370  27.179  1.00  0.00     0.049 A 
ATOM     40  N   UNL A   1      41.130  28.370  28.989  1.00  0.00    -0.248 NA
ATOM     41  C   UNL A   1      39.431  26.814  29.373  1.00  0.00     0.031 C 
ATOM     42  C   UNL A   1      43.145  25.449  26.275  1.00  0.00     0.029 A 
ATOM     43  N   UNL A   1      43.352  27.391  27.361  1.00  0.00    -0.354 N 
ATOM     44  C   UNL A   1      40.215  28.903  29.888  1.00  0.00     0.074 A 
ATOM     45  C   UNL A   1      39.174  27.914  30.069  1.00  0.00     0.031 C 
ATOM     46  C   UNL A   1      44.371  25.927  26.014  1.00  0.00     0.029 A 
ATOM     47  C   UNL A   1      44.516  27.231  26.650  1.00  0.00     0.049 A 
ATOM     48  H   UNL A   1      43.179  28.164  27.946  1.00  0.00     0.167 HD
ATOM     49  C   UNL A   1      40.236  30.112  30.499  1.00  0.00     0.031 A 
ATOM     50  C   UNL A   1      45.564  28.061  26.480  1.00  0.00     0.031 A 
ATOM     51  C   UNL A   1      41.288  31.082  30.346  1.00  0.00     0.049 A 
ATOM     52  C   UNL A   1      45.536  29.418  27.118  1.00  0.00     0.074 A 
ATOM     53  C   UNL A   1      41.396  32.337  30.922  1.00  0.00     0.029 A 
ATOM     54  N   UNL A   1      42.424  30.898  29.573  1.00  0.00    -0.354 N 
ATOM     55  N   UNL A   1      44.629  29.940  27.906  1.00  0.00    -0.248 NA
ATOM     56  C   UNL A   1      46.666  30.311  26.822  1.00  0.00     0.031 C 
ATOM     57  C   UNL A   1      42.579  32.928  30.464  1.00  0.00     0.029 A 
ATOM     58  C   UNL A   1      43.229  32.023  29.643  1.00  0.00     0.049 A 
ATOM     59  H   UNL A   1      42.627  30.088  29.051  1.00  0.00     0.167 HD
ATOM     60  C   UNL A   1      45.080  31.219  28.206  1.00  0.00     0.074 A 
ATOM     61  C   UNL A   1      46.352  31.385  27.533  1.00  0.00     0.031 C 
ATOM     62  C   UNL A   1      44.489  32.172  28.965  1.00  0.00     0.031 A 
BRANCH  49  63
ATOM     63  C   UNL A   1      39.054  30.480  31.351  1.00  0.00    -0.014 A 
ATOM     64  C   UNL A   1      39.029  30.223  32.729  1.00  0.00     0.009 A 
ATOM     65  C   UNL A   1      37.961  31.137  30.761  1.00  0.00     0.009 A 
ATOM     66  C   UNL A   1      37.919  30.591  33.494  1.00  0.00     0.001 A 
ATOM     67  C   UNL A   1      36.865  31.525  31.533  1.00  0.00     0.001 A 
ATOM     68  C   UNL A   1      36.842  31.245  32.897  1.00  0.00     0.000 A 
ENDBRANCH  49  63
BRANCH  50  69
ATOM     69  C   UNL A   1      46.697  27.651  25.610  1.00  0.00    -0.014 A 
ATOM     70  C   UNL A   1      47.789  26.951  26.142  1.00  0.00     0.009 A 
ATOM     71  C   UNL A   1      46.685  27.953  24.238  1.00  0.00     0.009 A 
ATOM     72  C   UNL A   1      48.851  26.570  25.318  1.00  0.00     0.001 A 
ATOM     73  C   UNL A   1      47.733  27.543  23.413  1.00  0.00     0.001 A 
ATOM     74  C   UNL A   1      48.819  26.859  23.954  1.00  0.00     0.000 A 
ENDBRANCH  50  69
BRANCH  62  75
ATOM     75  C   UNL A   1      45.225  33.470  29.129  1.00  0.00    -0.014 A 
ATOM     76  C   UNL A   1      46.168  33.644  30.153  1.00  0.00     0.009 A 
ATOM     77  C   UNL A   1      45.001  34.516  28.220  1.00  0.00     0.009 A 
ATOM     78  C   UNL A   1      46.856  34.853  30.278  1.00  0.00     0.001 A 
ATOM     79  C   UNL A   1      45.706  35.715  28.335  1.00  0.00     0.001 A 
ATOM     80  C   UNL A   1      46.628  35.884  29.366  1.00  0.00     0.000 A 
ENDBRANCH  62  75
ENDBRANCH  36  37
ENDBRANCH  29  31
ENDBRANCH  28  29
ENDBRANCH  27  28
ENDBRANCH   1  27
TORSDOF 17
ENDMDL
MODEL 2
REMARK VINA RESULT:     -10.2      3.057      6.409
REMARK SMILES NC(=O)N[C@@H](C(=O)N[C@@H](CO)C(=O)OCCOC(=O)c1ccc(-c2c3nc(c(-c4ccccc4)c4ccc([nH]4)c(-c4ccccc4)c4nc(c(-c5ccccc5)c5ccc2[nH]5)C=C4)C=C3)cc1)c1ccccc1
REMARK SMILES IDX 15 1 14 2 12 3 13 4 9 5 8 6 6 7 7 8 5 10 4 11 1 12 2 13 3 16
REMARK SMILES IDX 68 18 69 19 73 20 70 21 72 22 71 23 10 24 11 25 16 27 17 28
REMARK SMILES IDX 18 29 19 30 20 31 21 32 67 33 22 34 66 35 23 36 24 37 25 38
REMARK SMILES IDX 60 39 26 40 65 41 59 42 61 43 27 44 64 45 58 46 57 47 28 49
REMARK SMILES IDX 50 50 35 51 49 52 36 53 39 54 48 55 62 56 37 57 38 58 47 60
REMARK SMILES IDX 63 61 40 62 29 63 30 64 34 65 31 66 33 67 32 68 51 69 52 70
REMARK SMILES IDX 56 71 53 72 55 73 54 74 41 75 42 76 46 77 43 78 45 79 44 80
REMARK H PARENT 8 9 1 14 1 15 4 17 11 26 61 48 39 59
REMARK Flexibility Score: inf
ROOT
ATOM      1  C   UNL A   1      32.634  27.718  26.135  1.00  0.00     0.274 C 
ENDROOT
BRANCH   1   2
ATOM      2  O   UNL A   1      33.148  26.373  26.108  1.00  0.00    -0.460 OA
BRANCH   2   3
ATOM      3  C   UNL A   1      33.001  25.700  24.934  1.00  0.00     0.331 C 
ATOM      4  O   UNL A   1      33.407  26.089  23.845  1.00  0.00    -0.250 OA
BRANCH   3   5
ATOM      5  C   UNL A   1      32.273  24.363  25.112  1.00  0.00     0.218 C 
BRANCH   5   6
ATOM      6  N   UNL A   1      32.349  23.801  26.470  1.00  0.00    -0.339 N 
ATOM      7  C   UNL A   1      32.949  22.645  26.908  1.00  0.00     0.248 C 
ATOM      8  O   UNL A   1      32.903  22.412  28.116  1.00  0.00    -0.272 OA
ATOM      9  H   UNL A   1      31.902  24.332  27.169  1.00  0.00     0.164 HD
BRANCH   7  10
ATOM     10  C   UNL A   1      33.711  21.743  25.892  1.00  0.00     0.203 C 
BRANCH  10  11
ATOM     11  N   UNL A   1      33.433  20.340  26.197  1.00  0.00    -0.322 N 
ATOM     12  N   UNL A   1      32.489  19.736  24.188  1.00  0.00    -0.352 N 
ATOM     13  C   UNL A   1      32.798  19.415  25.455  1.00  0.00     0.313 C 
ATOM     14  H   UNL A   1      32.024  19.084  23.615  1.00  0.00     0.161 HD
ATOM     15  H   UNL A   1      32.727  20.622  23.833  1.00  0.00     0.161 HD
ATOM     16  O   UNL A   1      32.466  18.342  25.940  1.00  0.00    -0.249 OA
ATOM     17  H   UNL A   1      33.756  20.027  27.072  1.00  0.00     0.166 HD
ENDBRANCH  10  11
BRANCH  10  18
ATOM     18  C   UNL A   1      35.205  22.024  25.804  1.00  0.00    -0.016 A 
ATOM     19  C   UNL A   1      35.756  23.276  26.129  1.00  0.00     0.006 A 
ATOM     20  C   UNL A   1      36.075  21.009  25.368  1.00  0.00     0.006 A 
ATOM     21  C   UNL A   1      37.132  23.499  26.038  1.00  0.00     0.000 A 
ATOM     22  C   UNL A   1      37.451  21.236  25.275  1.00  0.00     0.000 A 
ATOM     23  C   UNL A   1      37.978  22.479  25.613  1.00  0.00     0.000 A 
ENDBRANCH  10  18
ENDBRANCH   7  10
ENDBRANCH   5   6
BRANCH   5  24
ATOM     24  C   UNL A   1      30.817  24.544  24.672  1.00  0.00     0.193 C 
BRANCH  24  25
ATOM     25  O   UNL A   1      29.985  24.872  25.787  1.00  0.00    -0.394 OA
ATOM     26  H   UNL A   1      29.854  24.083  26.336  1.00  0.00     0.210 HD
ENDBRANCH  24  25
ENDBRANCH   5  24
ENDBRANCH   3   5
ENDBRANCH   2   3
ENDBRANCH   1   2
BRANCH   1  27
ATOM     27  C   UNL A   1      33.285  28.515  27.267  1.00  0.00     0.275 C 
BRANCH  27  28
ATOM     28  O   UNL A   1      34.132  29.560  26.749  1.00  0.00    -0.458 OA
BRANCH  28  29
ATOM     29  C   UNL A   1      34.514  30.486  27.653  1.00  0.00     0.338 C 
ATOM     30  O   UNL A   1      33.859  31.406  28.117  1.00  0.00    -0.246 OA
BRANCH  29  31
ATOM     31  C   UNL A   1      35.868  30.191  28.126  1.00  0.00     0.060 A 
ATOM     32  C   UNL A   1      36.922  30.291  27.220  1.00  0.00     0.016 A 
ATOM     33  C   UNL A   1      36.074  29.673  29.404  1.00  0.00     0.016 A 
ATOM     34  C   UNL A   1      38.180  29.812  27.569  1.00  0.00     0.010 A 
ATOM     35  C   UNL A   1      37.355  29.249  29.771  1.00  0.00     0.010 A 
ATOM     36  C   UNL A   1      38.415  29.288  28.848  1.00  0.00    -0.014 A 
BRANCH  36  37
ATOM     37  C   UNL A   1      39.757  28.755  29.203  1.00  0.00     0.031 A 
ATOM     38  C   UNL A   1      40.715  29.591  30.009  1.00  0.00     0.074 A 
ATOM     39  C   UNL A   1      40.118  27.512  28.826  1.00  0.00     0.049 A 
ATOM     40  N   UNL A   1      41.982  29.381  30.263  1.00  0.00    -0.248 NA
ATOM     41  C   UNL A   1      40.179  30.826  30.604  1.00  0.00     0.031 C 
ATOM     42  C   UNL A   1      39.269  26.563  28.105  1.00  0.00     0.029 A 
ATOM     43  N   UNL A   1      41.296  26.832  29.008  1.00  0.00    -0.354 N 
ATOM     44  C   UNL A   1      42.409  30.482  30.994  1.00  0.00     0.074 A 
ATOM     45  C   UNL A   1      41.265  31.355  31.152  1.00  0.00     0.031 C 
ATOM     46  C   UNL A   1      39.939  25.412  27.939  1.00  0.00     0.029 A 
ATOM     47  C   UNL A   1      41.294  25.575  28.454  1.00  0.00     0.049 A 
ATOM     48  H   UNL A   1      42.068  27.208  29.489  1.00  0.00     0.167 HD
ATOM     49  C   UNL A   1      43.646  30.746  31.480  1.00  0.00     0.031 A 
ATOM     50  C   UNL A   1      42.282  24.669  28.324  1.00  0.00     0.031 A 
ATOM     51  C   UNL A   1      44.775  29.863  31.353  1.00  0.00     0.049 A 
ATOM     52  C   UNL A   1      43.659  25.010  28.816  1.00  0.00     0.074 A 
ATOM     53  C   UNL A   1      46.070  30.045  31.809  1.00  0.00     0.029 A 
ATOM     54  N   UNL A   1      44.739  28.621  30.737  1.00  0.00    -0.354 N 
ATOM     55  N   UNL A   1      44.068  26.087  29.438  1.00  0.00    -0.248 NA
ATOM     56  C   UNL A   1      44.714  24.019  28.563  1.00  0.00     0.031 C 
ATOM     57  C   UNL A   1      46.827  28.931  31.433  1.00  0.00     0.029 A 
ATOM     58  C   UNL A   1      45.993  28.034  30.786  1.00  0.00     0.049 A 
ATOM     59  H   UNL A   1      43.941  28.218  30.325  1.00  0.00     0.167 HD
ATOM     60  C   UNL A   1      45.427  25.903  29.658  1.00  0.00     0.074 A 
ATOM     61  C   UNL A   1      45.767  24.600  29.123  1.00  0.00     0.031 C 
ATOM     62  C   UNL A   1      46.314  26.741  30.246  1.00  0.00     0.031 A 
BRANCH  49  63
ATOM     63  C   UNL A   1      43.860  32.074  32.149  1.00  0.00    -0.014 A 
ATOM     64  C   UNL A   1      43.711  32.235  33.534  1.00  0.00     0.009 A 
ATOM     65  C   UNL A   1      44.261  33.176  31.375  1.00  0.00     0.009 A 
ATOM     66  C   UNL A   1      43.932  33.481  34.127  1.00  0.00     0.001 A 
ATOM     67  C   UNL A   1      44.504  34.413  31.974  1.00  0.00     0.001 A 
ATOM     68  C   UNL A   1      44.331  34.566  33.347  1.00  0.00     0.000 A 
ENDBRANCH  49  63
BRANCH  50  69
ATOM     69  C   UNL A   1      42.017  23.379  27.635  1.00  0.00    -0.014 A 
ATOM     70  C   UNL A   1      42.350  23.209  26.284  1.00  0.00     0.009 A 
ATOM     71  C   UNL A   1      41.436  22.308  28.332  1.00  0.00     0.009 A 
ATOM     72  C   UNL A   1      42.096  21.994  25.643  1.00  0.00     0.001 A 
ATOM     73  C   UNL A   1      41.213  21.085  27.698  1.00  0.00     0.001 A 
ATOM     74  C   UNL A   1      41.536  20.931  26.351  1.00  0.00     0.000 A 
ENDBRANCH  50  69
BRANCH  62  75
ATOM     75  C   UNL A   1      47.732  26.263  30.362  1.00  0.00    -0.014 A 
ATOM     76  C   UNL A   1      48.213  25.706  31.556  1.00  0.00     0.009 A 
ATOM     77  C   UNL A   1      48.584  26.334  29.248  1.00  0.00     0.009 A 
ATOM     78  C   UNL A   1      49.531  25.251  31.640  1.00  0.00     0.001 A 
ATOM     79  C   UNL A   1      49.893  25.857  29.328  1.00  0.00     0.001 A 
ATOM     80  C   UNL A   1      50.366  25.322  30.525  1.00  0.00     0.000 A 
ENDBRANCH  62  75
ENDBRANCH  36  37
ENDBRANCH  29  31
ENDBRANCH  28  29
ENDBRANCH  27  28
ENDBRANCH   1  27
TORSDOF 17
ENDMDL
MODEL 3
REMARK VINA RESULT:     -10.2      3.898      8.541
REMARK SMILES NC(=O)N[C@@H](C(=O)N[C@@H](CO)C(=O)OCCOC(=O)c1ccc(-c2c3nc(c(-c4ccccc4)c4ccc([nH]4)c(-c4ccccc4)c4nc(c(-c5ccccc5)c5ccc2[nH]5)C=C4)C=C3)cc1)c1ccccc1
REMARK SMILES IDX 15 1 14 2 12 3 13 4 9 5 8 6 6 7 7 8 5 10 4 11 1 12 2 13 3 16
REMARK SMILES IDX 68 18 69 19 73 20 70 21 72 22 71 23 10 24 11 25 16 27 17 28
REMARK SMILES IDX 18 29 19 30 20 31 21 32 67 33 22 34 66 35 23 36 24 37 25 38
REMARK SMILES IDX 60 39 26 40 65 41 59 42 61 43 27 44 64 45 58 46 57 47 28 49
REMARK SMILES IDX 50 50 35 51 49 52 36 53 39 54 48 55 62 56 37 57 38 58 47 60
REMARK SMILES IDX 63 61 40 62 29 63 30 64 34 65 31 66 33 67 32 68 51 69 52 70
REMARK SMILES IDX 56 71 53 72 55 73 54 74 41 75 42 76 46 77 43 78 45 79 44 80
REMARK H PARENT 8 9 1 14 1 15 4 17 11 26 61 48 39 59
REMARK Flexibility Score: inf
ROOT
ATOM      1  C   UNL A   1      31.696  28.222  27.241  1.00  0.00     0.274 C 
ENDROOT
BRANCH   1   2
ATOM      2  O   UNL A   1      31.140  27.294  26.290  1.00  0.00    -0.460 OA
BRANCH   2   3
ATOM      3  C   UNL A   1      31.690  26.049  26.277  1.00  0.00     0.331 C 
ATOM      4  O   UNL A   1      31.355  25.126  27.011  1.00  0.00    -0.250 OA
BRANCH   3   5
ATOM      5  C   UNL A   1      32.786  25.904  25.216  1.00  0.00     0.218 C 
BRANCH   5   6
ATOM      6  N   UNL A   1      33.214  27.170  24.600  1.00  0.00    -0.339 N 
ATOM      7  C   UNL A   1      32.729  27.812  23.487  1.00  0.00     0.248 C 
ATOM      8  O   UNL A   1      33.242  28.893  23.194  1.00  0.00    -0.272 OA
ATOM      9  H   UNL A   1      33.960  27.625  25.055  1.00  0.00     0.164 HD
BRANCH   7  10
ATOM     10  C   UNL A   1      31.530  27.197  22.707  1.00  0.00     0.203 C 
BRANCH  10  11
ATOM     11  N   UNL A   1      31.974  26.821  21.365  1.00  0.00    -0.322 N 
ATOM     12  N   UNL A   1      32.496  24.620  21.782  1.00  0.00    -0.352 N 
ATOM     13  C   UNL A   1      32.498  25.660  20.933  1.00  0.00     0.313 C 
ATOM     14  H   UNL A   1      32.872  23.755  21.501  1.00  0.00     0.161 HD
ATOM     15  H   UNL A   1      32.120  24.724  22.685  1.00  0.00     0.161 HD
ATOM     16  O   UNL A   1      33.009  25.577  19.824  1.00  0.00    -0.249 OA
ATOM     17  H   UNL A   1      31.875  27.519  20.679  1.00  0.00     0.166 HD
ENDBRANCH  10  11
BRANCH  10  18
ATOM     18  C   UNL A   1      30.289  28.077  22.673  1.00  0.00    -0.016 A 
ATOM     19  C   UNL A   1      29.064  27.674  23.234  1.00  0.00     0.006 A 
ATOM     20  C   UNL A   1      30.350  29.335  22.048  1.00  0.00     0.006 A 
ATOM     21  C   UNL A   1      27.944  28.508  23.186  1.00  0.00     0.000 A 
ATOM     22  C   UNL A   1      29.227  30.167  21.999  1.00  0.00     0.000 A 
ATOM     23  C   UNL A   1      28.026  29.753  22.570  1.00  0.00     0.000 A 
ENDBRANCH  10  18
ENDBRANCH   7  10
ENDBRANCH   5   6
BRANCH   5  24
ATOM     24  C   UNL A   1      33.973  25.168  25.845  1.00  0.00     0.193 C 
BRANCH  24  25
ATOM     25  O   UNL A   1      33.725  23.762  25.909  1.00  0.00    -0.394 OA
ATOM     26  H   UNL A   1      33.998  23.348  25.076  1.00  0.00     0.210 HD
ENDBRANCH  24  25
ENDBRANCH   5  24
ENDBRANCH   3   5
ENDBRANCH   2   3
ENDBRANCH   1   2
BRANCH   1  27
ATOM     27  C   UNL A   1      31.752  29.629  26.643  1.00  0.00     0.275 C 
BRANCH  27  28
ATOM     28  O   UNL A   1      33.111  30.033  26.389  1.00  0.00    -0.458 OA
BRANCH  28  29
ATOM     29  C   UNL A   1      33.525  31.116  27.082  1.00  0.00     0.338 C 
ATOM     30  O   UNL A   1      32.918  32.152  27.299  1.00  0.00    -0.246 OA
BRANCH  29  31
ATOM     31  C   UNL A   1      34.840  30.857  27.671  1.00  0.00     0.060 A 
ATOM     32  C   UNL A   1      35.131  29.562  28.098  1.00  0.00     0.016 A 
ATOM     33  C   UNL A   1      35.714  31.908  27.942  1.00  0.00     0.016 A 
ATOM     34  C   UNL A   1      36.273  29.324  28.853  1.00  0.00     0.010 A 
ATOM     35  C   UNL A   1      36.892  31.652  28.650  1.00  0.00     0.010 A 
ATOM     36  C   UNL A   1      37.170  30.363  29.138  1.00  0.00    -0.014 A 
BRANCH  36  37
ATOM     37  C   UNL A   1      38.375  30.104  29.969  1.00  0.00     0.031 A 
ATOM     38  C   UNL A   1      39.500  29.261  29.431  1.00  0.00     0.074 A 
ATOM     39  C   UNL A   1      38.482  30.640  31.201  1.00  0.00     0.049 A 
ATOM     40  N   UNL A   1      40.542  28.776  30.057  1.00  0.00    -0.248 NA
ATOM     41  C   UNL A   1      39.445  28.917  28.000  1.00  0.00     0.031 C 
ATOM     42  C   UNL A   1      37.505  31.534  31.826  1.00  0.00     0.029 A 
ATOM     43  N   UNL A   1      39.468  30.515  32.147  1.00  0.00    -0.354 N 
ATOM     44  C   UNL A   1      41.232  28.021  29.117  1.00  0.00     0.074 A 
ATOM     45  C   UNL A   1      40.498  28.120  27.873  1.00  0.00     0.031 C 
ATOM     46  C   UNL A   1      37.959  31.906  33.033  1.00  0.00     0.029 A 
ATOM     47  C   UNL A   1      39.207  31.203  33.306  1.00  0.00     0.049 A 
ATOM     48  H   UNL A   1      40.286  29.983  32.008  1.00  0.00     0.167 HD
ATOM     49  C   UNL A   1      42.369  27.302  29.280  1.00  0.00     0.031 A 
ATOM     50  C   UNL A   1      39.865  31.228  34.482  1.00  0.00     0.031 A 
ATOM     51  C   UNL A   1      43.118  27.232  30.506  1.00  0.00     0.049 A 
ATOM     52  C   UNL A   1      41.087  30.376  34.656  1.00  0.00     0.074 A 
ATOM     53  C   UNL A   1      44.280  26.526  30.769  1.00  0.00     0.029 A 
ATOM     54  N   UNL A   1      42.786  27.904  31.673  1.00  0.00    -0.354 N 
ATOM     55  N   UNL A   1      41.688  29.607  33.782  1.00  0.00    -0.248 NA
ATOM     56  C   UNL A   1      41.708  30.376  35.989  1.00  0.00     0.031 C 
ATOM     57  C   UNL A   1      44.629  26.740  32.107  1.00  0.00     0.029 A 
ATOM     58  C   UNL A   1      43.711  27.617  32.662  1.00  0.00     0.049 A 
ATOM     59  H   UNL A   1      42.007  28.497  31.781  1.00  0.00     0.167 HD
ATOM     60  C   UNL A   1      42.760  29.037  34.455  1.00  0.00     0.074 A 
ATOM     61  C   UNL A   1      42.741  29.566  35.804  1.00  0.00     0.031 C 
ATOM     62  C   UNL A   1      43.675  28.148  33.998  1.00  0.00     0.031 A 
BRANCH  49  63
ATOM     63  C   UNL A   1      42.846  26.485  28.112  1.00  0.00    -0.014 A 
ATOM     64  C   UNL A   1      43.752  26.999  27.173  1.00  0.00     0.009 A 
ATOM     65  C   UNL A   1      42.408  25.157  27.979  1.00  0.00     0.009 A 
ATOM     66  C   UNL A   1      44.186  26.207  26.107  1.00  0.00     0.001 A 
ATOM     67  C   UNL A   1      42.863  24.361  26.927  1.00  0.00     0.001 A 
ATOM     68  C   UNL A   1      43.745  24.889  25.988  1.00  0.00     0.000 A 
ENDBRANCH  49  63
BRANCH  50  69
ATOM     69  C   UNL A   1      39.335  32.040  35.608  1.00  0.00    -0.014 A 
ATOM     70  C   UNL A   1      38.416  31.492  36.514  1.00  0.00     0.009 A 
ATOM     71  C   UNL A   1      39.754  33.369  35.785  1.00  0.00     0.009 A 
ATOM     72  C   UNL A   1      37.921  32.262  37.570  1.00  0.00     0.001 A 
ATOM     73  C   UNL A   1      39.282  34.125  36.859  1.00  0.00     0.001 A 
ATOM     74  C   UNL A   1      38.360  33.574  37.746  1.00  0.00     0.000 A 
ENDBRANCH  50  69
BRANCH  62  75
ATOM     75  C   UNL A   1      44.744  27.714  34.956  1.00  0.00    -0.014 A 
ATOM     76  C   UNL A   1      45.939  28.438  35.088  1.00  0.00     0.009 A 
ATOM     77  C   UNL A   1      44.535  26.587  35.768  1.00  0.00     0.009 A 
ATOM     78  C   UNL A   1      46.915  28.028  35.998  1.00  0.00     0.001 A 
ATOM     79  C   UNL A   1      45.503  26.193  36.693  1.00  0.00     0.001 A 
ATOM     80  C   UNL A   1      46.694  26.910  36.802  1.00  0.00     0.000 A 
ENDBRANCH  62  75
ENDBRANCH  36  37
ENDBRANCH  29  31
ENDBRANCH  28  29
ENDBRANCH  27  28
ENDBRANCH   1  27
TORSDOF 17
ENDMDL
