MODEL 1
REMARK VINA RESULT:     -11.5      0.000      0.000
REMARK SMILES O=C(OCCOC(=O)[C@H]1c2[nH]cnc2CC[N@@H+]1Cc1ccoc1)c1ccc(-c2c3nc(c(-c4ccccc4)c4ccc([nH]4)c(-c4ccccc4)c4nc(c(-c5ccccc5)c5ccc2[nH]5)C=C4)C=C3)cc1
REMARK SMILES IDX 4 1 3 2 2 3 1 4 24 5 25 6 71 7 26 8 70 9 27 10 28 11 29 12
REMARK SMILES IDX 64 13 30 14 69 15 63 16 65 17 31 18 68 19 62 20 61 21 32 23
REMARK SMILES IDX 54 24 39 25 53 26 40 27 43 28 52 29 66 30 41 31 42 32 51 34
REMARK SMILES IDX 67 35 44 36 33 37 34 38 38 39 35 40 37 41 36 42 55 43 56 44
REMARK SMILES IDX 60 45 57 46 59 47 58 48 45 49 46 50 50 51 47 52 49 53 48 54
REMARK SMILES IDX 5 55 6 56 7 57 8 58 9 59 10 60 17 61 11 62 14 63 16 64 12 66
REMARK SMILES IDX 13 68 15 69 18 70 19 71 20 72 23 73 21 74 22 75
REMARK H PARENT 65 22 43 33 17 65 11 67
REMARK Flexibility Score: inf
ROOT
ATOM      1  C   UNL A   1      37.498  31.364  32.522  1.00  0.00     0.275 C 
ENDROOT
BRANCH   1   2
ATOM      2  O   UNL A   1      38.099  30.654  31.424  1.00  0.00    -0.458 OA
BRANCH   2   3
ATOM      3  C   UNL A   1      37.422  29.648  30.852  1.00  0.00     0.338 C 
ATOM      4  O   UNL A   1      36.268  29.366  31.147  1.00  0.00    -0.246 OA
BRANCH   3   5
ATOM      5  C   UNL A   1      38.114  28.841  29.852  1.00  0.00     0.060 A 
ATOM      6  C   UNL A   1      38.697  27.214  30.050  1.00  0.00     0.016 A 
ATOM      7  C   UNL A   1      38.768  29.786  28.504  1.00  0.00     0.016 A 
ATOM      8  C   UNL A   1      39.900  26.472  29.001  1.00  0.00     0.010 A 
ATOM      9  C   UNL A   1      39.972  28.891  27.219  1.00  0.00     0.010 A 
ATOM     10  C   UNL A   1      40.638  27.307  27.641  1.00  0.00    -0.014 A 
BRANCH  10  11
ATOM     11  C   UNL A   1      42.240  27.290  27.552  1.00  0.00     0.031 A 
ATOM     12  C   UNL A   1      42.513  26.007  26.923  1.00  0.00     0.074 A 
ATOM     13  C   UNL A   1      43.324  28.146  27.787  1.00  0.00     0.049 A 
ATOM     14  N   UNL A   1      42.511  24.910  27.596  1.00  0.00    -0.248 NA
ATOM     15  C   UNL A   1      42.403  25.846  25.467  1.00  0.00     0.031 C 
ATOM     16  C   UNL A   1      43.378  29.574  28.197  1.00  0.00     0.029 A 
ATOM     17  N   UNL A   1      44.712  27.920  27.662  1.00  0.00    -0.354 N 
ATOM     18  C   UNL A   1      42.772  23.950  26.654  1.00  0.00     0.074 A 
ATOM     19  C   UNL A   1      42.343  24.512  25.395  1.00  0.00     0.031 C 
ATOM     20  C   UNL A   1      44.622  30.112  28.049  1.00  0.00     0.029 A 
ATOM     21  C   UNL A   1      45.568  29.070  27.705  1.00  0.00     0.049 A 
ATOM     22  H   UNL A   1      45.077  27.012  27.550  1.00  0.00     0.167 HD
ATOM     23  C   UNL A   1      43.723  23.021  26.925  1.00  0.00     0.031 A 
ATOM     24  C   UNL A   1      46.942  29.173  27.581  1.00  0.00     0.031 A 
ATOM     25  C   UNL A   1      44.161  23.103  28.309  1.00  0.00     0.049 A 
ATOM     26  C   UNL A   1      47.481  27.864  27.968  1.00  0.00     0.074 A 
ATOM     27  C   UNL A   1      43.553  23.048  29.548  1.00  0.00     0.029 A 
ATOM     28  N   UNL A   1      45.351  23.763  28.489  1.00  0.00    -0.354 N 
ATOM     29  N   UNL A   1      47.476  27.421  29.186  1.00  0.00    -0.248 NA
ATOM     30  C   UNL A   1      47.686  26.888  26.922  1.00  0.00     0.031 C 
ATOM     31  C   UNL A   1      44.278  23.947  30.387  1.00  0.00     0.029 A 
ATOM     32  C   UNL A   1      45.369  24.442  29.677  1.00  0.00     0.049 A 
ATOM     33  H   UNL A   1      46.097  23.751  27.846  1.00  0.00     0.167 HD
ATOM     34  C   UNL A   1      47.099  26.103  29.028  1.00  0.00     0.074 A 
ATOM     35  C   UNL A   1      47.379  25.796  27.623  1.00  0.00     0.031 C 
ATOM     36  C   UNL A   1      46.289  25.524  29.959  1.00  0.00     0.031 A 
BRANCH  23  37
ATOM     37  C   UNL A   1      44.596  22.441  25.850  1.00  0.00    -0.014 A 
ATOM     38  C   UNL A   1      44.522  21.065  25.606  1.00  0.00     0.009 A 
ATOM     39  C   UNL A   1      45.647  23.146  25.227  1.00  0.00     0.009 A 
ATOM     40  C   UNL A   1      45.451  20.431  24.775  1.00  0.00     0.001 A 
ATOM     41  C   UNL A   1      46.549  22.527  24.363  1.00  0.00     0.001 A 
ATOM     42  C   UNL A   1      46.456  21.163  24.147  1.00  0.00     0.000 A 
ENDBRANCH  23  37
BRANCH  24  43
ATOM     43  C   UNL A   1      47.969  30.177  27.087  1.00  0.00    -0.014 A 
ATOM     44  C   UNL A   1      47.638  31.551  26.895  1.00  0.00     0.009 A 
ATOM     45  C   UNL A   1      49.336  29.893  27.191  1.00  0.00     0.009 A 
ATOM     46  C   UNL A   1      48.611  32.576  26.890  1.00  0.00     0.001 A 
ATOM     47  C   UNL A   1      50.310  30.918  27.185  1.00  0.00     0.001 A 
ATOM     48  C   UNL A   1      49.950  32.258  27.059  1.00  0.00     0.000 A 
ENDBRANCH  24  43
BRANCH  36  49
ATOM     49  C   UNL A   1      46.236  26.151  31.338  1.00  0.00    -0.014 A 
ATOM     50  C   UNL A   1      47.086  25.827  32.414  1.00  0.00     0.009 A 
ATOM     51  C   UNL A   1      45.309  27.189  31.523  1.00  0.00     0.009 A 
ATOM     52  C   UNL A   1      46.989  26.511  33.635  1.00  0.00     0.001 A 
ATOM     53  C   UNL A   1      45.228  27.884  32.730  1.00  0.00     0.001 A 
ATOM     54  C   UNL A   1      46.064  27.543  33.790  1.00  0.00     0.000 A 
ENDBRANCH  36  49
ENDBRANCH  10  11
ENDBRANCH   3   5
ENDBRANCH   2   3
ENDBRANCH   1   2
BRANCH   1  55
ATOM     55  C   UNL A   1      38.021  32.811  32.699  1.00  0.00     0.274 C 
BRANCH  55  56
ATOM     56  O   UNL A   1      37.314  33.653  31.758  1.00  0.00    -0.457 OA
BRANCH  56  57
ATOM     57  C   UNL A   1      36.197  34.362  32.057  1.00  0.00     0.371 C 
ATOM     58  O   UNL A   1      36.169  35.313  32.831  1.00  0.00    -0.245 OA
BRANCH  57  59
ATOM     59  C   UNL A   1      34.957  33.844  31.177  1.00  0.00     0.345 C 
ATOM     60  C   UNL A   1      33.520  34.912  31.637  1.00  0.00     0.108 A 
ATOM     61  N   UNL A   1      35.494  33.868  29.355  1.00  0.00    -0.314 N 
ATOM     62  N   UNL A   1      33.264  35.377  32.906  1.00  0.00    -0.343 N 
ATOM     63  C   UNL A   1      32.770  35.923  30.790  1.00  0.00     0.074 A 
ATOM     64  C   UNL A   1      34.634  35.423  28.204  1.00  0.00     0.270 C 
ATOM     65  H   UNL A   1      36.242  34.288  28.803  1.00  0.00     0.349 HD
ATOM     66  C   UNL A   1      32.375  36.427  32.802  1.00  0.00     0.197 A 
ATOM     67  H   UNL A   1      33.647  35.022  33.741  1.00  0.00     0.167 HD
ATOM     68  N   UNL A   1      32.011  36.728  31.573  1.00  0.00    -0.241 NA
ATOM     69  C   UNL A   1      33.070  36.328  29.027  1.00  0.00     0.120 C 
BRANCH  61  70
ATOM     70  C   UNL A   1      35.911  32.364  29.191  1.00  0.00     0.303 C 
BRANCH  70  71
ATOM     71  C   UNL A   1      35.000  31.492  28.325  1.00  0.00     0.044 A 
ATOM     72  C   UNL A   1      33.686  31.750  27.801  1.00  0.00     0.051 A 
ATOM     73  C   UNL A   1      35.352  30.309  27.696  1.00  0.00     0.204 A 
ATOM     74  C   UNL A   1      33.256  30.597  27.184  1.00  0.00     0.195 A 
ATOM     75  O   UNL A   1      34.291  29.731  27.075  1.00  0.00    -0.472 OA
ENDBRANCH  70  71
ENDBRANCH  61  70
ENDBRANCH  57  59
ENDBRANCH  56  57
ENDBRANCH  55  56
ENDBRANCH   1  55
TORSDOF 13
ENDMDL
MODEL 2
REMARK VINA RESULT:     -11.0      5.673     10.207
REMARK SMILES O=C(OCCOC(=O)[C@H]1c2[nH]cnc2CC[N@@H+]1Cc1ccoc1)c1ccc(-c2c3nc(c(-c4ccccc4)c4ccc([nH]4)c(-c4ccccc4)c4nc(c(-c5ccccc5)c5ccc2[nH]5)C=C4)C=C3)cc1
REMARK SMILES IDX 4 1 3 2 2 3 1 4 24 5 25 6 71 7 26 8 70 9 27 10 28 11 29 12
REMARK SMILES IDX 64 13 30 14 69 15 63 16 65 17 31 18 68 19 62 20 61 21 32 23
REMARK SMILES IDX 54 24 39 25 53 26 40 27 43 28 52 29 66 30 41 31 42 32 51 34
REMARK SMILES IDX 67 35 44 36 33 37 34 38 38 39 35 40 37 41 36 42 55 43 56 44
REMARK SMILES IDX 60 45 57 46 59 47 58 48 45 49 46 50 50 51 47 52 49 53 48 54
REMARK SMILES IDX 5 55 6 56 7 57 8 58 9 59 10 60 17 61 11 62 14 63 16 64 12 66
REMARK SMILES IDX 13 68 15 69 18 70 19 71 20 72 23 73 21 74 22 75
REMARK H PARENT 65 22 43 33 17 65 11 67
REMARK Flexibility Score: inf
ROOT
ATOM      1  C   UNL A   1      37.561  22.213  25.299  1.00  0.00     0.275 C 
ENDROOT
BRANCH   1   2
ATOM      2  O   UNL A   1      38.325  22.326  26.513  1.00  0.00    -0.458 OA
BRANCH   2   3
ATOM      3  C   UNL A   1      39.648  22.114  26.471  1.00  0.00     0.338 C 
ATOM      4  O   UNL A   1      40.142  21.019  26.237  1.00  0.00    -0.246 OA
BRANCH   3   5
ATOM      5  C   UNL A   1      40.530  23.244  26.745  1.00  0.00     0.060 A 
ATOM      6  C   UNL A   1      41.569  23.440  28.126  1.00  0.00     0.016 A 
ATOM      7  C   UNL A   1      40.151  24.689  25.794  1.00  0.00     0.016 A 
ATOM      8  C   UNL A   1      42.244  24.987  28.629  1.00  0.00     0.010 A 
ATOM      9  C   UNL A   1      41.060  26.383  26.246  1.00  0.00     0.010 A 
ATOM     10  C   UNL A   1      41.932  26.495  27.781  1.00  0.00    -0.014 A 
BRANCH  10  11
ATOM     11  C   UNL A   1      41.435  27.742  28.661  1.00  0.00     0.031 A 
ATOM     12  C   UNL A   1      42.360  28.796  28.275  1.00  0.00     0.074 A 
ATOM     13  C   UNL A   1      40.382  28.079  29.521  1.00  0.00     0.049 A 
ATOM     14  N   UNL A   1      43.543  28.876  28.779  1.00  0.00    -0.248 NA
ATOM     15  C   UNL A   1      42.159  29.556  27.035  1.00  0.00     0.031 C 
ATOM     16  C   UNL A   1      39.166  27.327  29.930  1.00  0.00     0.029 A 
ATOM     17  N   UNL A   1      40.132  29.270  30.238  1.00  0.00    -0.354 N 
ATOM     18  C   UNL A   1      44.093  29.959  28.146  1.00  0.00     0.074 A 
ATOM     19  C   UNL A   1      43.379  30.086  26.897  1.00  0.00     0.031 C 
ATOM     20  C   UNL A   1      38.256  28.115  30.567  1.00  0.00     0.029 A 
ATOM     21  C   UNL A   1      38.830  29.422  30.819  1.00  0.00     0.049 A 
ATOM     22  H   UNL A   1      40.823  29.965  30.336  1.00  0.00     0.167 HD
ATOM     23  C   UNL A   1      44.724  30.895  28.898  1.00  0.00     0.031 A 
ATOM     24  C   UNL A   1      38.284  30.468  31.539  1.00  0.00     0.031 A 
ATOM     25  C   UNL A   1      44.879  30.450  30.273  1.00  0.00     0.049 A 
ATOM     26  C   UNL A   1      39.418  31.188  32.128  1.00  0.00     0.074 A 
ATOM     27  C   UNL A   1      45.442  29.357  30.906  1.00  0.00     0.029 A 
ATOM     28  N   UNL A   1      43.959  30.973  31.146  1.00  0.00    -0.354 N 
ATOM     29  N   UNL A   1      40.146  30.713  33.089  1.00  0.00    -0.248 NA
ATOM     30  C   UNL A   1      39.974  32.291  31.377  1.00  0.00     0.031 C 
ATOM     31  C   UNL A   1      44.617  29.088  32.040  1.00  0.00     0.029 A 
ATOM     32  C   UNL A   1      43.645  30.080  32.135  1.00  0.00     0.049 A 
ATOM     33  H   UNL A   1      43.573  31.877  31.072  1.00  0.00     0.167 HD
ATOM     34  C   UNL A   1      41.426  31.047  32.695  1.00  0.00     0.074 A 
ATOM     35  C   UNL A   1      41.252  32.128  31.722  1.00  0.00     0.031 C 
ATOM     36  C   UNL A   1      42.448  30.179  32.943  1.00  0.00     0.031 A 
BRANCH  23  37
ATOM     37  C   UNL A   1      44.705  32.351  28.534  1.00  0.00    -0.014 A 
ATOM     38  C   UNL A   1      43.559  33.096  28.839  1.00  0.00     0.009 A 
ATOM     39  C   UNL A   1      45.667  32.966  27.704  1.00  0.00     0.009 A 
ATOM     40  C   UNL A   1      43.391  34.391  28.341  1.00  0.00     0.001 A 
ATOM     41  C   UNL A   1      45.524  34.272  27.242  1.00  0.00     0.001 A 
ATOM     42  C   UNL A   1      44.376  34.982  27.552  1.00  0.00     0.000 A 
ENDBRANCH  23  37
BRANCH  24  43
ATOM     43  C   UNL A   1      36.921  31.093  31.785  1.00  0.00    -0.014 A 
ATOM     44  C   UNL A   1      36.573  31.650  33.051  1.00  0.00     0.009 A 
ATOM     45  C   UNL A   1      36.132  31.507  30.704  1.00  0.00     0.009 A 
ATOM     46  C   UNL A   1      35.553  32.617  33.204  1.00  0.00     0.001 A 
ATOM     47  C   UNL A   1      35.111  32.473  30.856  1.00  0.00     0.001 A 
ATOM     48  C   UNL A   1      34.835  33.045  32.097  1.00  0.00     0.000 A 
ENDBRANCH  24  43
BRANCH  36  49
ATOM     49  C   UNL A   1      42.253  29.152  34.040  1.00  0.00    -0.014 A 
ATOM     50  C   UNL A   1      41.766  27.843  33.855  1.00  0.00     0.009 A 
ATOM     51  C   UNL A   1      42.662  29.523  35.331  1.00  0.00     0.009 A 
ATOM     52  C   UNL A   1      41.678  26.951  34.935  1.00  0.00     0.001 A 
ATOM     53  C   UNL A   1      42.596  28.629  36.400  1.00  0.00     0.001 A 
ATOM     54  C   UNL A   1      42.099  27.344  36.205  1.00  0.00     0.000 A 
ENDBRANCH  36  49
ENDBRANCH  10  11
ENDBRANCH   3   5
ENDBRANCH   2   3
ENDBRANCH   1   2
BRANCH   1  55
ATOM     55  C   UNL A   1      36.229  21.440  25.462  1.00  0.00     0.274 C 
BRANCH  55  56
ATOM     56  O   UNL A   1      35.162  22.414  25.549  1.00  0.00    -0.457 OA
BRANCH  56  57
ATOM     57  C   UNL A   1      34.163  22.372  26.466  1.00  0.00     0.371 C 
ATOM     58  O   UNL A   1      34.338  22.360  27.679  1.00  0.00    -0.245 OA
BRANCH  57  59
ATOM     59  C   UNL A   1      32.734  22.448  25.735  1.00  0.00     0.345 C 
ATOM     60  C   UNL A   1      32.350  24.246  25.544  1.00  0.00     0.108 A 
ATOM     61  N   UNL A   1      32.849  21.423  24.139  1.00  0.00    -0.314 N 
ATOM     62  N   UNL A   1      32.654  25.214  26.473  1.00  0.00    -0.343 N 
ATOM     63  C   UNL A   1      32.238  25.071  24.277  1.00  0.00     0.074 A 
ATOM     64  C   UNL A   1      32.929  22.569  22.360  1.00  0.00     0.270 C 
ATOM     65  H   UNL A   1      33.589  21.030  23.557  1.00  0.00     0.349 HD
ATOM     66  C   UNL A   1      32.587  26.441  25.845  1.00  0.00     0.197 A 
ATOM     67  H   UNL A   1      32.880  25.059  27.419  1.00  0.00     0.167 HD
ATOM     68  N   UNL A   1      32.275  26.394  24.567  1.00  0.00    -0.241 NA
ATOM     69  C   UNL A   1      32.411  24.476  22.550  1.00  0.00     0.120 C 
BRANCH  61  70
ATOM     70  C   UNL A   1      32.229  20.077  24.653  1.00  0.00     0.303 C 
BRANCH  70  71
ATOM     71  C   UNL A   1      32.745  18.793  24.001  1.00  0.00     0.044 A 
ATOM     72  C   UNL A   1      33.391  17.647  24.582  1.00  0.00     0.051 A 
ATOM     73  C   UNL A   1      32.514  18.385  22.698  1.00  0.00     0.204 A 
ATOM     74  C   UNL A   1      33.762  16.817  23.549  1.00  0.00     0.195 A 
ATOM     75  O   UNL A   1      33.184  17.241  22.400  1.00  0.00    -0.472 OA
ENDBRANCH  70  71
ENDBRANCH  61  70
ENDBRANCH  57  59
ENDBRANCH  56  57
ENDBRANCH  55  56
ENDBRANCH   1  55
TORSDOF 13
ENDMDL
MODEL 3
REMARK VINA RESULT:     -10.9      3.899      8.336
REMARK SMILES O=C(OCCOC(=O)[C@H]1c2[nH]cnc2CC[N@@H+]1Cc1ccoc1)c1ccc(-c2c3nc(c(-c4ccccc4)c4ccc([nH]4)c(-c4ccccc4)c4nc(c(-c5ccccc5)c5ccc2[nH]5)C=C4)C=C3)cc1
REMARK SMILES IDX 4 1 3 2 2 3 1 4 24 5 25 6 71 7 26 8 70 9 27 10 28 11 29 12
REMARK SMILES IDX 64 13 30 14 69 15 63 16 65 17 31 18 68 19 62 20 61 21 32 23
REMARK SMILES IDX 54 24 39 25 53 26 40 27 43 28 52 29 66 30 41 31 42 32 51 34
REMARK SMILES IDX 67 35 44 36 33 37 34 38 38 39 35 40 37 41 36 42 55 43 56 44
REMARK SMILES IDX 60 45 57 46 59 47 58 48 45 49 46 50 50 51 47 52 49 53 48 54
REMARK SMILES IDX 5 55 6 56 7 57 8 58 9 59 10 60 17 61 11 62 14 63 16 64 12 66
REMARK SMILES IDX 13 68 15 69 18 70 19 71 20 72 23 73 21 74 22 75
REMARK H PARENT 65 22 43 33 17 65 11 67
REMARK Flexibility Score: inf
ROOT
ATOM      1  C   UNL A   1      33.653  30.992  27.500  1.00  0.00     0.275 C 
ENDROOT
BRANCH   1   2
ATOM      2  O   UNL A   1      34.720  31.952  27.603  1.00  0.00    -0.458 OA
BRANCH   2   3
ATOM      3  C   UNL A   1      34.887  32.616  28.756  1.00  0.00     0.338 C 
ATOM      4  O   UNL A   1      34.136  33.507  29.129  1.00  0.00    -0.246 OA
BRANCH   3   5
ATOM      5  C   UNL A   1      36.038  32.268  29.583  1.00  0.00     0.060 A 
ATOM      6  C   UNL A   1      37.623  32.982  29.512  1.00  0.00     0.016 A 
ATOM      7  C   UNL A   1      35.882  30.704  30.399  1.00  0.00     0.016 A 
ATOM      8  C   UNL A   1      39.064  32.232  30.189  1.00  0.00     0.010 A 
ATOM      9  C   UNL A   1      37.460  29.958  31.322  1.00  0.00     0.010 A 
ATOM     10  C   UNL A   1      39.046  30.677  31.008  1.00  0.00    -0.014 A 
BRANCH  10  11
ATOM     11  C   UNL A   1      40.114  29.580  30.525  1.00  0.00     0.031 A 
ATOM     12  C   UNL A   1      40.736  29.167  31.774  1.00  0.00     0.074 A 
ATOM     13  C   UNL A   1      40.482  28.902  29.356  1.00  0.00     0.049 A 
ATOM     14  N   UNL A   1      41.664  29.867  32.331  1.00  0.00    -0.248 NA
ATOM     15  C   UNL A   1      40.085  28.185  32.650  1.00  0.00     0.031 C 
ATOM     16  C   UNL A   1      39.901  28.916  27.987  1.00  0.00     0.029 A 
ATOM     17  N   UNL A   1      41.505  27.955  29.131  1.00  0.00    -0.354 N 
ATOM     18  C   UNL A   1      41.953  29.170  33.475  1.00  0.00     0.074 A 
ATOM     19  C   UNL A   1      40.764  28.410  33.780  1.00  0.00     0.031 C 
ATOM     20  C   UNL A   1      40.383  27.907  27.207  1.00  0.00     0.029 A 
ATOM     21  C   UNL A   1      41.463  27.229  27.896  1.00  0.00     0.049 A 
ATOM     22  H   UNL A   1      42.216  27.801  29.794  1.00  0.00     0.167 HD
ATOM     23  C   UNL A   1      43.255  28.925  33.771  1.00  0.00     0.031 A 
ATOM     24  C   UNL A   1      42.290  26.233  27.410  1.00  0.00     0.031 A 
ATOM     25  C   UNL A   1      44.143  29.656  32.883  1.00  0.00     0.049 A 
ATOM     26  C   UNL A   1      43.576  26.408  28.093  1.00  0.00     0.074 A 
ATOM     27  C   UNL A   1      44.326  30.980  32.528  1.00  0.00     0.029 A 
ATOM     28  N   UNL A   1      44.669  28.905  31.862  1.00  0.00    -0.354 N 
ATOM     29  N   UNL A   1      44.382  27.396  27.859  1.00  0.00    -0.248 NA
ATOM     30  C   UNL A   1      43.788  25.674  29.320  1.00  0.00     0.031 C 
ATOM     31  C   UNL A   1      44.700  30.974  31.151  1.00  0.00     0.029 A 
ATOM     32  C   UNL A   1      44.844  29.654  30.729  1.00  0.00     0.049 A 
ATOM     33  H   UNL A   1      44.893  27.948  31.934  1.00  0.00     0.167 HD
ATOM     34  C   UNL A   1      44.795  27.758  29.125  1.00  0.00     0.074 A 
ATOM     35  C   UNL A   1      44.516  26.588  29.963  1.00  0.00     0.031 C 
ATOM     36  C   UNL A   1      44.993  29.076  29.410  1.00  0.00     0.031 A 
BRANCH  23  37
ATOM     37  C   UNL A   1      43.687  27.668  34.467  1.00  0.00    -0.014 A 
ATOM     38  C   UNL A   1      44.507  27.784  35.595  1.00  0.00     0.009 A 
ATOM     39  C   UNL A   1      43.513  26.374  33.932  1.00  0.00     0.009 A 
ATOM     40  C   UNL A   1      45.116  26.659  36.160  1.00  0.00     0.001 A 
ATOM     41  C   UNL A   1      44.082  25.244  34.516  1.00  0.00     0.001 A 
ATOM     42  C   UNL A   1      44.895  25.390  35.627  1.00  0.00     0.000 A 
ENDBRANCH  23  37
BRANCH  24  43
ATOM     43  C   UNL A   1      42.201  25.023  26.496  1.00  0.00    -0.014 A 
ATOM     44  C   UNL A   1      43.176  24.779  25.483  1.00  0.00     0.009 A 
ATOM     45  C   UNL A   1      41.424  23.919  26.865  1.00  0.00     0.009 A 
ATOM     46  C   UNL A   1      43.404  23.495  24.938  1.00  0.00     0.001 A 
ATOM     47  C   UNL A   1      41.651  22.634  26.320  1.00  0.00     0.001 A 
ATOM     48  C   UNL A   1      42.653  22.415  25.376  1.00  0.00     0.000 A 
ENDBRANCH  24  43
BRANCH  36  49
ATOM     49  C   UNL A   1      45.236  30.022  28.251  1.00  0.00    -0.014 A 
ATOM     50  C   UNL A   1      44.241  30.755  27.575  1.00  0.00     0.009 A 
ATOM     51  C   UNL A   1      46.573  30.232  27.878  1.00  0.00     0.009 A 
ATOM     52  C   UNL A   1      44.582  31.649  26.549  1.00  0.00     0.001 A 
ATOM     53  C   UNL A   1      46.913  31.138  26.874  1.00  0.00     0.001 A 
ATOM     54  C   UNL A   1      45.918  31.844  26.204  1.00  0.00     0.000 A 
ENDBRANCH  36  49
ENDBRANCH  10  11
ENDBRANCH   3   5
ENDBRANCH   2   3
ENDBRANCH   1   2
BRANCH   1  55
ATOM     55  C   UNL A   1      34.099  29.612  26.956  1.00  0.00     0.274 C 
BRANCH  55  56
ATOM     56  O   UNL A   1      33.297  29.318  25.787  1.00  0.00    -0.457 OA
BRANCH  56  57
ATOM     57  C   UNL A   1      32.311  28.388  25.750  1.00  0.00     0.371 C 
ATOM     58  O   UNL A   1      31.551  28.151  26.682  1.00  0.00    -0.245 OA
BRANCH  57  59
ATOM     59  C   UNL A   1      32.223  27.729  24.288  1.00  0.00     0.345 C 
ATOM     60  C   UNL A   1      33.102  26.106  24.403  1.00  0.00     0.108 A 
ATOM     61  N   UNL A   1      30.390  27.676  23.789  1.00  0.00    -0.314 N 
ATOM     62  N   UNL A   1      34.237  25.882  25.148  1.00  0.00    -0.343 N 
ATOM     63  C   UNL A   1      32.539  24.703  24.283  1.00  0.00     0.074 A 
ATOM     64  C   UNL A   1      29.519  25.747  23.842  1.00  0.00     0.270 C 
ATOM     65  H   UNL A   1      29.488  27.762  24.257  1.00  0.00     0.349 HD
ATOM     66  C   UNL A   1      34.376  24.519  25.310  1.00  0.00     0.197 A 
ATOM     67  H   UNL A   1      34.844  26.573  25.501  1.00  0.00     0.167 HD
ATOM     68  N   UNL A   1      33.428  23.794  24.753  1.00  0.00    -0.241 NA
ATOM     69  C   UNL A   1      30.801  24.234  23.937  1.00  0.00     0.120 C 
BRANCH  61  70
ATOM     70  C   UNL A   1      30.322  28.983  22.925  1.00  0.00     0.303 C 
BRANCH  70  71
ATOM     71  C   UNL A   1      29.087  29.865  23.116  1.00  0.00     0.044 A 
ATOM     72  C   UNL A   1      28.972  31.293  23.240  1.00  0.00     0.051 A 
ATOM     73  C   UNL A   1      27.766  29.461  23.016  1.00  0.00     0.204 A 
ATOM     74  C   UNL A   1      27.653  31.577  23.513  1.00  0.00     0.195 A 
ATOM     75  O   UNL A   1      26.905  30.464  23.328  1.00  0.00    -0.472 OA
ENDBRANCH  70  71
ENDBRANCH  61  70
ENDBRANCH  57  59
ENDBRANCH  56  57
ENDBRANCH  55  56
ENDBRANCH   1  55
TORSDOF 13
ENDMDL
