MODEL 1
REMARK VINA RESULT:      -8.8      0.000      0.000
REMARK SMILES O=C(OCCOC(=O)[C@H]1C[C@H]1c1ccc(C2CC2)cc1)c1ccc(-c2c3nc(c(-c4ccccc4)c4ccc([nH]4)c(-c4ccccc4)c4nc(c(-c5ccccc5)c5ccc2[nH]5)C=C4)C=C3)cc1
REMARK SMILES IDX 4 1 3 2 2 3 1 4 21 5 22 6 68 7 23 8 67 9 24 10 25 11 26 12
REMARK SMILES IDX 61 13 27 14 66 15 60 16 62 17 28 18 65 19 59 20 58 21 29 23
REMARK SMILES IDX 51 24 36 25 50 26 37 27 40 28 49 29 63 30 38 31 39 32 48 34
REMARK SMILES IDX 64 35 41 36 30 37 31 38 35 39 32 40 34 41 33 42 52 43 53 44
REMARK SMILES IDX 57 45 54 46 56 47 55 48 42 49 43 50 47 51 44 52 46 53 45 54
REMARK SMILES IDX 5 55 6 56 7 57 8 58 9 59 10 60 11 61 12 62 13 63 20 64 14 65
REMARK SMILES IDX 19 66 15 67 16 68 17 69 18 70
REMARK H PARENT 62 22 40 33
REMARK Flexibility Score: inf
ROOT
ATOM      1  C   UNL A   1      32.914  36.516  30.530  1.00  0.00     0.275 C 
ENDROOT
BRANCH   1   2
ATOM      2  O   UNL A   1      32.570  35.212  30.050  1.00  0.00    -0.458 OA
BRANCH   2   3
ATOM      3  C   UNL A   1      33.140  34.460  29.085  1.00  0.00     0.338 C 
ATOM      4  O   UNL A   1      32.469  34.213  28.083  1.00  0.00    -0.246 OA
BRANCH   3   5
ATOM      5  C   UNL A   1      34.514  33.848  29.166  1.00  0.00     0.060 A 
ATOM      6  C   UNL A   1      35.652  34.168  28.417  1.00  0.00     0.016 A 
ATOM      7  C   UNL A   1      34.662  32.850  30.139  1.00  0.00     0.016 A 
ATOM      8  C   UNL A   1      36.904  33.594  28.690  1.00  0.00     0.010 A 
ATOM      9  C   UNL A   1      35.907  32.287  30.428  1.00  0.00     0.010 A 
ATOM     10  C   UNL A   1      37.048  32.670  29.720  1.00  0.00    -0.014 A 
BRANCH  10  11
ATOM     11  C   UNL A   1      38.347  32.016  30.007  1.00  0.00     0.031 A 
ATOM     12  C   UNL A   1      39.360  32.770  30.822  1.00  0.00     0.074 A 
ATOM     13  C   UNL A   1      38.638  30.799  29.501  1.00  0.00     0.049 A 
ATOM     14  N   UNL A   1      40.592  32.450  31.114  1.00  0.00    -0.248 NA
ATOM     15  C   UNL A   1      38.938  34.081  31.348  1.00  0.00     0.031 C 
ATOM     16  C   UNL A   1      37.745  29.984  28.674  1.00  0.00     0.029 A 
ATOM     17  N   UNL A   1      39.776  30.036  29.599  1.00  0.00    -0.354 N 
ATOM     18  C   UNL A   1      41.099  33.535  31.818  1.00  0.00     0.074 A 
ATOM     19  C   UNL A   1      40.067  34.542  31.861  1.00  0.00     0.031 C 
ATOM     20  C   UNL A   1      38.364  28.836  28.348  1.00  0.00     0.029 A 
ATOM     21  C   UNL A   1      39.706  28.842  28.917  1.00  0.00     0.049 A 
ATOM     22  H   UNL A   1      40.569  30.318  30.109  1.00  0.00     0.167 HD
ATOM     23  C   UNL A   1      42.311  33.669  32.401  1.00  0.00     0.031 A 
ATOM     24  C   UNL A   1      40.629  27.870  28.769  1.00  0.00     0.031 A 
ATOM     25  C   UNL A   1      43.310  32.641  32.399  1.00  0.00     0.049 A 
ATOM     26  C   UNL A   1      41.969  28.043  29.438  1.00  0.00     0.074 A 
ATOM     27  C   UNL A   1      44.537  32.631  33.034  1.00  0.00     0.029 A 
ATOM     28  N   UNL A   1      43.189  31.435  31.726  1.00  0.00    -0.354 N 
ATOM     29  N   UNL A   1      42.396  29.033  30.187  1.00  0.00    -0.248 NA
ATOM     30  C   UNL A   1      42.953  26.966  29.250  1.00  0.00     0.031 C 
ATOM     31  C   UNL A   1      45.182  31.436  32.704  1.00  0.00     0.029 A 
ATOM     32  C   UNL A   1      44.334  30.685  31.902  1.00  0.00     0.049 A 
ATOM     33  H   UNL A   1      42.404  31.156  31.201  1.00  0.00     0.167 HD
ATOM     34  C   UNL A   1      43.684  28.688  30.575  1.00  0.00     0.074 A 
ATOM     35  C   UNL A   1      43.960  27.387  30.002  1.00  0.00     0.031 C 
ATOM     36  C   UNL A   1      44.567  29.386  31.329  1.00  0.00     0.031 A 
BRANCH  23  37
ATOM     37  C   UNL A   1      42.608  34.973  33.083  1.00  0.00    -0.014 A 
ATOM     38  C   UNL A   1      42.156  35.237  34.386  1.00  0.00     0.009 A 
ATOM     39  C   UNL A   1      43.357  35.951  32.413  1.00  0.00     0.009 A 
ATOM     40  C   UNL A   1      42.410  36.471  34.986  1.00  0.00     0.001 A 
ATOM     41  C   UNL A   1      43.636  37.173  33.027  1.00  0.00     0.001 A 
ATOM     42  C   UNL A   1      43.153  37.436  34.308  1.00  0.00     0.000 A 
ENDBRANCH  23  37
BRANCH  24  43
ATOM     43  C   UNL A   1      40.345  26.653  27.956  1.00  0.00    -0.014 A 
ATOM     44  C   UNL A   1      39.680  25.551  28.518  1.00  0.00     0.009 A 
ATOM     45  C   UNL A   1      40.790  26.560  26.627  1.00  0.00     0.009 A 
ATOM     46  C   UNL A   1      39.506  24.373  27.786  1.00  0.00     0.001 A 
ATOM     47  C   UNL A   1      40.587  25.392  25.886  1.00  0.00     0.001 A 
ATOM     48  C   UNL A   1      39.958  24.294  26.471  1.00  0.00     0.000 A 
ENDBRANCH  24  43
BRANCH  36  49
ATOM     49  C   UNL A   1      45.902  28.753  31.591  1.00  0.00    -0.014 A 
ATOM     50  C   UNL A   1      46.067  27.823  32.628  1.00  0.00     0.009 A 
ATOM     51  C   UNL A   1      46.980  29.021  30.733  1.00  0.00     0.009 A 
ATOM     52  C   UNL A   1      47.292  27.184  32.811  1.00  0.00     0.001 A 
ATOM     53  C   UNL A   1      48.195  28.360  30.901  1.00  0.00     0.001 A 
ATOM     54  C   UNL A   1      48.352  27.445  31.941  1.00  0.00     0.000 A 
ENDBRANCH  36  49
ENDBRANCH  10  11
ENDBRANCH   3   5
ENDBRANCH   2   3
ENDBRANCH   1   2
BRANCH   1  55
ATOM     55  C   UNL A   1      33.074  36.577  32.049  1.00  0.00     0.274 C 
BRANCH  55  56
ATOM     56  O   UNL A   1      34.434  36.764  32.483  1.00  0.00    -0.462 OA
BRANCH  56  57
ATOM     57  C   UNL A   1      35.186  35.646  32.728  1.00  0.00     0.309 C 
ATOM     58  O   UNL A   1      36.122  35.258  32.050  1.00  0.00    -0.252 OA
BRANCH  57  59
ATOM     59  C   UNL A   1      34.607  34.876  33.861  1.00  0.00     0.107 C 
ATOM     60  C   UNL A   1      34.205  33.439  33.616  1.00  0.00     0.025 C 
ATOM     61  C   UNL A   1      35.208  33.758  34.689  1.00  0.00     0.034 C 
BRANCH  61  62
ATOM     62  C   UNL A   1      36.634  33.241  34.668  1.00  0.00    -0.044 A 
ATOM     63  C   UNL A   1      37.089  32.115  33.977  1.00  0.00     0.004 A 
ATOM     64  C   UNL A   1      37.579  33.831  35.522  1.00  0.00     0.004 A 
ATOM     65  C   UNL A   1      38.421  31.659  34.093  1.00  0.00     0.004 A 
ATOM     66  C   UNL A   1      38.917  33.417  35.602  1.00  0.00     0.004 A 
ATOM     67  C   UNL A   1      39.381  32.314  34.883  1.00  0.00    -0.045 A 
BRANCH  67  68
ATOM     68  C   UNL A   1      40.820  31.823  34.937  1.00  0.00     0.019 C 
ATOM     69  C   UNL A   1      41.651  32.050  36.179  1.00  0.00     0.009 C 
ATOM     70  C   UNL A   1      41.250  30.656  35.795  1.00  0.00     0.009 C 
ENDBRANCH  67  68
ENDBRANCH  61  62
ENDBRANCH  57  59
ENDBRANCH  56  57
ENDBRANCH  55  56
ENDBRANCH   1  55
TORSDOF 13
ENDMDL
MODEL 2
REMARK VINA RESULT:      -8.5      3.207      8.695
REMARK SMILES O=C(OCCOC(=O)[C@H]1C[C@H]1c1ccc(C2CC2)cc1)c1ccc(-c2c3nc(c(-c4ccccc4)c4ccc([nH]4)c(-c4ccccc4)c4nc(c(-c5ccccc5)c5ccc2[nH]5)C=C4)C=C3)cc1
REMARK SMILES IDX 4 1 3 2 2 3 1 4 21 5 22 6 68 7 23 8 67 9 24 10 25 11 26 12
REMARK SMILES IDX 61 13 27 14 66 15 60 16 62 17 28 18 65 19 59 20 58 21 29 23
REMARK SMILES IDX 51 24 36 25 50 26 37 27 40 28 49 29 63 30 38 31 39 32 48 34
REMARK SMILES IDX 64 35 41 36 30 37 31 38 35 39 32 40 34 41 33 42 52 43 53 44
REMARK SMILES IDX 57 45 54 46 56 47 55 48 42 49 43 50 47 51 44 52 46 53 45 54
REMARK SMILES IDX 5 55 6 56 7 57 8 58 9 59 10 60 11 61 12 62 13 63 20 64 14 65
REMARK SMILES IDX 19 66 15 67 16 68 17 69 18 70
REMARK H PARENT 62 22 40 33
REMARK Flexibility Score: inf
ROOT
ATOM      1  C   UNL A   1      31.462  32.059  26.948  1.00  0.00     0.275 C 
ENDROOT
BRANCH   1   2
ATOM      2  O   UNL A   1      32.094  33.344  26.947  1.00  0.00    -0.458 OA
BRANCH   2   3
ATOM      3  C   UNL A   1      32.838  33.949  27.896  1.00  0.00     0.338 C 
ATOM      4  O   UNL A   1      32.395  34.986  28.392  1.00  0.00    -0.246 OA
BRANCH   3   5
ATOM      5  C   UNL A   1      34.197  33.489  28.352  1.00  0.00     0.060 A 
ATOM      6  C   UNL A   1      35.452  33.888  27.880  1.00  0.00     0.016 A 
ATOM      7  C   UNL A   1      34.187  32.561  29.403  1.00  0.00     0.016 A 
ATOM      8  C   UNL A   1      36.643  33.462  28.489  1.00  0.00     0.010 A 
ATOM      9  C   UNL A   1      35.367  32.146  30.026  1.00  0.00     0.010 A 
ATOM     10  C   UNL A   1      36.609  32.610  29.588  1.00  0.00    -0.014 A 
BRANCH  10  11
ATOM     11  C   UNL A   1      37.849  32.110  30.229  1.00  0.00     0.031 A 
ATOM     12  C   UNL A   1      38.481  30.862  29.681  1.00  0.00     0.074 A 
ATOM     13  C   UNL A   1      38.366  32.726  31.312  1.00  0.00     0.049 A 
ATOM     14  N   UNL A   1      39.502  30.183  30.133  1.00  0.00    -0.248 NA
ATOM     15  C   UNL A   1      37.854  30.277  28.482  1.00  0.00     0.031 C 
ATOM     16  C   UNL A   1      37.825  33.928  31.949  1.00  0.00     0.029 A 
ATOM     17  N   UNL A   1      39.463  32.418  32.081  1.00  0.00    -0.354 N 
ATOM     18  C   UNL A   1      39.608  29.077  29.300  1.00  0.00     0.074 A 
ATOM     19  C   UNL A   1      38.520  29.142  28.353  1.00  0.00     0.031 C 
ATOM     20  C   UNL A   1      38.592  34.259  33.002  1.00  0.00     0.029 A 
ATOM     21  C   UNL A   1      39.664  33.279  33.135  1.00  0.00     0.049 A 
ATOM     22  H   UNL A   1      40.049  31.650  31.894  1.00  0.00     0.167 HD
ATOM     23  C   UNL A   1      40.547  28.104  29.306  1.00  0.00     0.031 A 
ATOM     24  C   UNL A   1      40.607  33.269  34.099  1.00  0.00     0.031 A 
ATOM     25  C   UNL A   1      41.654  28.078  30.216  1.00  0.00     0.049 A 
ATOM     26  C   UNL A   1      41.647  32.177  34.075  1.00  0.00     0.074 A 
ATOM     27  C   UNL A   1      42.715  27.193  30.256  1.00  0.00     0.029 A 
ATOM     28  N   UNL A   1      41.840  28.986  31.247  1.00  0.00    -0.354 N 
ATOM     29  N   UNL A   1      41.793  31.195  33.218  1.00  0.00    -0.248 NA
ATOM     30  C   UNL A   1      42.656  32.194  35.145  1.00  0.00     0.031 C 
ATOM     31  C   UNL A   1      43.520  27.537  31.345  1.00  0.00     0.029 A 
ATOM     32  C   UNL A   1      42.983  28.663  31.952  1.00  0.00     0.049 A 
ATOM     33  H   UNL A   1      41.248  29.745  31.446  1.00  0.00     0.167 HD
ATOM     34  C   UNL A   1      42.918  30.493  33.631  1.00  0.00     0.074 A 
ATOM     35  C   UNL A   1      43.432  31.176  34.799  1.00  0.00     0.031 C 
ATOM     36  C   UNL A   1      43.473  29.377  33.101  1.00  0.00     0.031 A 
BRANCH  23  37
ATOM     37  C   UNL A   1      40.405  27.001  28.298  1.00  0.00    -0.014 A 
ATOM     38  C   UNL A   1      41.006  27.085  27.032  1.00  0.00     0.009 A 
ATOM     39  C   UNL A   1      39.662  25.857  28.622  1.00  0.00     0.009 A 
ATOM     40  C   UNL A   1      40.829  26.066  26.095  1.00  0.00     0.001 A 
ATOM     41  C   UNL A   1      39.511  24.825  27.695  1.00  0.00     0.001 A 
ATOM     42  C   UNL A   1      40.085  24.935  26.429  1.00  0.00     0.000 A 
ENDBRANCH  23  37
BRANCH  24  43
ATOM     43  C   UNL A   1      40.624  34.302  35.174  1.00  0.00    -0.014 A 
ATOM     44  C   UNL A   1      39.894  34.119  36.359  1.00  0.00     0.009 A 
ATOM     45  C   UNL A   1      41.322  35.507  34.997  1.00  0.00     0.009 A 
ATOM     46  C   UNL A   1      39.828  35.132  37.321  1.00  0.00     0.001 A 
ATOM     47  C   UNL A   1      41.281  36.507  35.974  1.00  0.00     0.001 A 
ATOM     48  C   UNL A   1      40.521  36.325  37.128  1.00  0.00     0.000 A 
ENDBRANCH  24  43
BRANCH  36  49
ATOM     49  C   UNL A   1      44.705  28.837  33.766  1.00  0.00    -0.014 A 
ATOM     50  C   UNL A   1      44.615  27.852  34.760  1.00  0.00     0.009 A 
ATOM     51  C   UNL A   1      45.972  29.255  33.328  1.00  0.00     0.009 A 
ATOM     52  C   UNL A   1      45.771  27.305  35.314  1.00  0.00     0.001 A 
ATOM     53  C   UNL A   1      47.126  28.685  33.863  1.00  0.00     0.001 A 
ATOM     54  C   UNL A   1      47.025  27.714  34.858  1.00  0.00     0.000 A 
ENDBRANCH  36  49
ENDBRANCH  10  11
ENDBRANCH   3   5
ENDBRANCH   2   3
ENDBRANCH   1   2
BRANCH   1  55
ATOM     55  C   UNL A   1      32.421  30.914  26.623  1.00  0.00     0.274 C 
BRANCH  55  56
ATOM     56  O   UNL A   1      31.762  29.700  26.221  1.00  0.00    -0.462 OA
BRANCH  56  57
ATOM     57  C   UNL A   1      32.096  28.544  26.876  1.00  0.00     0.309 C 
ATOM     58  O   UNL A   1      33.124  28.355  27.502  1.00  0.00    -0.252 OA
BRANCH  57  59
ATOM     59  C   UNL A   1      31.090  27.485  26.593  1.00  0.00     0.107 C 
ATOM     60  C   UNL A   1      30.860  27.085  25.153  1.00  0.00     0.025 C 
ATOM     61  C   UNL A   1      31.285  26.047  26.154  1.00  0.00     0.034 C 
BRANCH  61  62
ATOM     62  C   UNL A   1      32.584  25.271  26.041  1.00  0.00    -0.044 A 
ATOM     63  C   UNL A   1      33.671  25.604  25.228  1.00  0.00     0.004 A 
ATOM     64  C   UNL A   1      32.684  24.026  26.681  1.00  0.00     0.004 A 
ATOM     65  C   UNL A   1      34.803  24.766  25.122  1.00  0.00     0.004 A 
ATOM     66  C   UNL A   1      33.827  23.214  26.623  1.00  0.00     0.004 A 
ATOM     67  C   UNL A   1      34.928  23.564  25.839  1.00  0.00    -0.045 A 
BRANCH  67  68
ATOM     68  C   UNL A   1      36.189  22.719  25.740  1.00  0.00     0.019 C 
ATOM     69  C   UNL A   1      36.555  22.058  24.430  1.00  0.00     0.009 C 
ATOM     70  C   UNL A   1      37.410  23.167  24.970  1.00  0.00     0.009 C 
ENDBRANCH  67  68
ENDBRANCH  61  62
ENDBRANCH  57  59
ENDBRANCH  56  57
ENDBRANCH  55  56
ENDBRANCH   1  55
TORSDOF 13
ENDMDL
MODEL 3
REMARK VINA RESULT:      -8.5      5.262     10.832
REMARK SMILES O=C(OCCOC(=O)[C@H]1C[C@H]1c1ccc(C2CC2)cc1)c1ccc(-c2c3nc(c(-c4ccccc4)c4ccc([nH]4)c(-c4ccccc4)c4nc(c(-c5ccccc5)c5ccc2[nH]5)C=C4)C=C3)cc1
REMARK SMILES IDX 4 1 3 2 2 3 1 4 21 5 22 6 68 7 23 8 67 9 24 10 25 11 26 12
REMARK SMILES IDX 61 13 27 14 66 15 60 16 62 17 28 18 65 19 59 20 58 21 29 23
REMARK SMILES IDX 51 24 36 25 50 26 37 27 40 28 49 29 63 30 38 31 39 32 48 34
REMARK SMILES IDX 64 35 41 36 30 37 31 38 35 39 32 40 34 41 33 42 52 43 53 44
REMARK SMILES IDX 57 45 54 46 56 47 55 48 42 49 43 50 47 51 44 52 46 53 45 54
REMARK SMILES IDX 5 55 6 56 7 57 8 58 9 59 10 60 11 61 12 62 13 63 20 64 14 65
REMARK SMILES IDX 19 66 15 67 16 68 17 69 18 70
REMARK H PARENT 62 22 40 33
REMARK Flexibility Score: inf
ROOT
ATOM      1  C   UNL A   1      38.445  19.819  24.865  1.00  0.00     0.275 C 
ENDROOT
BRANCH   1   2
ATOM      2  O   UNL A   1      39.470  19.217  25.663  1.00  0.00    -0.458 OA
BRANCH   2   3
ATOM      3  C   UNL A   1      40.731  19.626  25.914  1.00  0.00     0.338 C 
ATOM      4  O   UNL A   1      41.649  18.870  25.596  1.00  0.00    -0.246 OA
BRANCH   3   5
ATOM      5  C   UNL A   1      41.100  20.909  26.611  1.00  0.00     0.060 A 
ATOM      6  C   UNL A   1      41.088  21.187  27.982  1.00  0.00     0.016 A 
ATOM      7  C   UNL A   1      41.534  21.940  25.765  1.00  0.00     0.016 A 
ATOM      8  C   UNL A   1      41.579  22.397  28.497  1.00  0.00     0.010 A 
ATOM      9  C   UNL A   1      42.040  23.139  26.270  1.00  0.00     0.010 A 
ATOM     10  C   UNL A   1      42.089  23.373  27.646  1.00  0.00    -0.014 A 
BRANCH  10  11
ATOM     11  C   UNL A   1      42.577  24.677  28.155  1.00  0.00     0.031 A 
ATOM     12  C   UNL A   1      41.573  25.767  28.401  1.00  0.00     0.074 A 
ATOM     13  C   UNL A   1      43.895  24.899  28.338  1.00  0.00     0.049 A 
ATOM     14  N   UNL A   1      41.770  27.012  28.745  1.00  0.00    -0.248 NA
ATOM     15  C   UNL A   1      40.156  25.417  28.194  1.00  0.00     0.031 C 
ATOM     16  C   UNL A   1      44.965  23.926  28.106  1.00  0.00     0.029 A 
ATOM     17  N   UNL A   1      44.566  26.025  28.752  1.00  0.00    -0.354 N 
ATOM     18  C   UNL A   1      40.510  27.596  28.754  1.00  0.00     0.074 A 
ATOM     19  C   UNL A   1      39.565  26.593  28.328  1.00  0.00     0.031 C 
ATOM     20  C   UNL A   1      46.152  24.492  28.388  1.00  0.00     0.029 A 
ATOM     21  C   UNL A   1      45.933  25.875  28.793  1.00  0.00     0.049 A 
ATOM     22  H   UNL A   1      44.108  26.862  28.995  1.00  0.00     0.167 HD
ATOM     23  C   UNL A   1      40.167  28.854  29.112  1.00  0.00     0.031 A 
ATOM     24  C   UNL A   1      46.896  26.762  29.118  1.00  0.00     0.031 A 
ATOM     25  C   UNL A   1      41.107  29.827  29.586  1.00  0.00     0.049 A 
ATOM     26  C   UNL A   1      46.483  28.155  29.522  1.00  0.00     0.074 A 
ATOM     27  C   UNL A   1      40.861  31.101  30.062  1.00  0.00     0.029 A 
ATOM     28  N   UNL A   1      42.478  29.626  29.644  1.00  0.00    -0.354 N 
ATOM     29  N   UNL A   1      45.277  28.662  29.623  1.00  0.00    -0.248 NA
ATOM     30  C   UNL A   1      47.559  29.097  29.864  1.00  0.00     0.031 C 
ATOM     31  C   UNL A   1      42.092  31.691  30.363  1.00  0.00     0.029 A 
ATOM     32  C   UNL A   1      43.096  30.766  30.118  1.00  0.00     0.049 A 
ATOM     33  H   UNL A   1      42.939  28.797  29.387  1.00  0.00     0.167 HD
ATOM     34  C   UNL A   1      45.448  29.969  30.059  1.00  0.00     0.074 A 
ATOM     35  C   UNL A   1      46.872  30.170  30.229  1.00  0.00     0.031 C 
ATOM     36  C   UNL A   1      44.516  30.924  30.289  1.00  0.00     0.031 A 
BRANCH  23  37
ATOM     37  C   UNL A   1      38.719  29.233  29.001  1.00  0.00    -0.014 A 
ATOM     38  C   UNL A   1      37.845  29.112  30.093  1.00  0.00     0.009 A 
ATOM     39  C   UNL A   1      38.223  29.724  27.785  1.00  0.00     0.009 A 
ATOM     40  C   UNL A   1      36.493  29.433  29.956  1.00  0.00     0.001 A 
ATOM     41  C   UNL A   1      36.877  30.072  27.658  1.00  0.00     0.001 A 
ATOM     42  C   UNL A   1      36.012  29.917  28.741  1.00  0.00     0.000 A 
ENDBRANCH  23  37
BRANCH  24  43
ATOM     43  C   UNL A   1      48.338  26.388  29.072  1.00  0.00    -0.014 A 
ATOM     44  C   UNL A   1      48.985  25.874  30.207  1.00  0.00     0.009 A 
ATOM     45  C   UNL A   1      49.095  26.598  27.908  1.00  0.00     0.009 A 
ATOM     46  C   UNL A   1      50.359  25.620  30.193  1.00  0.00     0.001 A 
ATOM     47  C   UNL A   1      50.464  26.313  27.885  1.00  0.00     0.001 A 
ATOM     48  C   UNL A   1      51.098  25.839  29.031  1.00  0.00     0.000 A 
ENDBRANCH  24  43
BRANCH  36  49
ATOM     49  C   UNL A   1      45.002  32.262  30.765  1.00  0.00    -0.014 A 
ATOM     50  C   UNL A   1      45.279  33.293  29.856  1.00  0.00     0.009 A 
ATOM     51  C   UNL A   1      45.095  32.519  32.142  1.00  0.00     0.009 A 
ATOM     52  C   UNL A   1      45.656  34.553  30.316  1.00  0.00     0.001 A 
ATOM     53  C   UNL A   1      45.443  33.788  32.600  1.00  0.00     0.001 A 
ATOM     54  C   UNL A   1      45.727  34.803  31.688  1.00  0.00     0.000 A 
ENDBRANCH  36  49
ENDBRANCH  10  11
ENDBRANCH   3   5
ENDBRANCH   2   3
ENDBRANCH   1   2
BRANCH   1  55
ATOM     55  C   UNL A   1      38.016  21.196  25.373  1.00  0.00     0.274 C 
BRANCH  55  56
ATOM     56  O   UNL A   1      36.921  21.772  24.638  1.00  0.00    -0.462 OA
BRANCH  56  57
ATOM     57  C   UNL A   1      35.659  21.620  25.149  1.00  0.00     0.309 C 
ATOM     58  O   UNL A   1      35.390  21.268  26.284  1.00  0.00    -0.252 OA
BRANCH  57  59
ATOM     59  C   UNL A   1      34.646  21.798  24.074  1.00  0.00     0.107 C 
ATOM     60  C   UNL A   1      33.200  21.495  24.398  1.00  0.00     0.025 C 
ATOM     61  C   UNL A   1      33.580  22.863  23.904  1.00  0.00     0.034 C 
BRANCH  61  62
ATOM     62  C   UNL A   1      33.379  24.123  24.724  1.00  0.00    -0.044 A 
ATOM     63  C   UNL A   1      32.445  24.296  25.748  1.00  0.00     0.004 A 
ATOM     64  C   UNL A   1      34.071  25.287  24.354  1.00  0.00     0.004 A 
ATOM     65  C   UNL A   1      32.270  25.540  26.393  1.00  0.00     0.004 A 
ATOM     66  C   UNL A   1      33.941  26.513  25.024  1.00  0.00     0.004 A 
ATOM     67  C   UNL A   1      33.034  26.676  26.072  1.00  0.00    -0.045 A 
BRANCH  67  68
ATOM     68  C   UNL A   1      32.853  27.982  26.830  1.00  0.00     0.019 C 
ATOM     69  C   UNL A   1      31.830  28.993  26.362  1.00  0.00     0.009 C 
ATOM     70  C   UNL A   1      31.629  28.276  27.665  1.00  0.00     0.009 C 
ENDBRANCH  67  68
ENDBRANCH  61  62
ENDBRANCH  57  59
ENDBRANCH  56  57
ENDBRANCH  55  56
ENDBRANCH   1  55
TORSDOF 13
ENDMDL
