MODEL 1
REMARK VINA RESULT:     -11.8      0.000      0.000
REMARK SMILES Cc1sc(NC(=O)[C@@H]2[C@@H](C(=O)OCCOC(=O)c3ccc(-c4c5nc(c(-c6ccccc6)c6ccc([nH]6)c(-c6ccccc6)c6nc(c(-c7ccccc7)c7ccc4[nH]7)C=C6)C=C5)cc3)[C@@H]3C=C[C@H]2C3)c(C#N)c1C
REMARK SMILES IDX 13 1 12 2 10 3 11 4 9 5 8 6 69 7 66 8 68 9 70 10 67 11 6 12
REMARK SMILES IDX 5 13 7 15 4 16 1 17 2 18 3 19 74 20 71 21 75 22 72 23 73 24
REMARK SMILES IDX 14 25 15 26 16 27 17 28 18 29 19 30 65 31 20 32 64 33 21 34
REMARK SMILES IDX 22 35 23 36 58 37 24 38 63 39 57 40 59 41 25 42 62 43 56 44
REMARK SMILES IDX 55 45 26 47 48 48 33 49 47 50 34 51 37 52 46 53 60 54 35 55
REMARK SMILES IDX 36 56 45 58 61 59 38 60 27 61 28 62 32 63 29 64 31 65 30 66
REMARK SMILES IDX 49 67 50 68 54 69 51 70 53 71 52 72 39 73 40 74 44 75 41 76
REMARK SMILES IDX 43 77 42 78
REMARK H PARENT 5 14 59 46 37 57
REMARK Flexibility Score: inf
ROOT
ATOM      1  C   UNL A   1      32.532  29.667  26.127  1.00  0.00     0.274 C 
ENDROOT
BRANCH   1   2
ATOM      2  O   UNL A   1      31.427  28.778  25.886  1.00  0.00    -0.462 OA
BRANCH   2   3
ATOM      3  C   UNL A   1      31.429  27.618  26.594  1.00  0.00     0.310 C 
ATOM      4  O   UNL A   1      31.796  27.524  27.760  1.00  0.00    -0.252 OA
BRANCH   3   5
ATOM      5  C   UNL A   1      30.882  26.436  25.835  1.00  0.00     0.119 C 
ATOM      6  C   UNL A   1      31.964  25.319  25.715  1.00  0.00     0.100 C 
ATOM      7  C   UNL A   1      31.975  25.068  24.174  1.00  0.00     0.025 C 
ATOM      8  C   UNL A   1      30.525  26.759  24.359  1.00  0.00     0.027 C 
ATOM      9  C   UNL A   1      30.635  24.575  23.675  1.00  0.00    -0.027 C 
ATOM     10  C   UNL A   1      31.864  26.509  23.654  1.00  0.00     0.017 C 
ATOM     11  C   UNL A   1      29.760  25.584  23.799  1.00  0.00    -0.027 C 
BRANCH   6  12
ATOM     12  C   UNL A   1      31.645  24.091  26.568  1.00  0.00     0.229 C 
ATOM     13  N   UNL A   1      32.493  23.040  26.770  1.00  0.00    -0.316 N 
ATOM     14  H   UNL A   1      32.181  22.433  27.481  1.00  0.00     0.170 HD
ATOM     15  O   UNL A   1      30.583  24.017  27.199  1.00  0.00    -0.274 OA
BRANCH  13  16
ATOM     16  C   UNL A   1      33.691  22.628  26.211  1.00  0.00     0.113 A 
ATOM     17  C   UNL A   1      37.547  22.600  25.894  1.00  0.00     0.057 C 
ATOM     18  C   UNL A   1      36.082  22.370  25.721  1.00  0.00     0.008 A 
ATOM     19  S   UNL A   1      35.004  23.674  25.985  1.00  0.00    -0.122 S 
ATOM     20  C   UNL A   1      35.385  21.230  25.350  1.00  0.00    -0.017 A 
ATOM     21  C   UNL A   1      33.977  21.403  25.631  1.00  0.00     0.090 A 
ATOM     22  C   UNL A   1      35.987  19.970  24.808  1.00  0.00     0.047 C 
BRANCH  21  23
ATOM     23  C   UNL A   1      32.986  20.380  25.413  1.00  0.00     0.103 C 
ATOM     24  N   UNL A   1      32.202  19.558  25.223  1.00  0.00    -0.192 NA
ENDBRANCH  21  23
ENDBRANCH  13  16
ENDBRANCH   6  12
ENDBRANCH   3   5
ENDBRANCH   2   3
ENDBRANCH   1   2
BRANCH   1  25
ATOM     25  C   UNL A   1      32.087  30.994  26.733  1.00  0.00     0.275 C 
BRANCH  25  26
ATOM     26  O   UNL A   1      33.116  31.566  27.531  1.00  0.00    -0.458 OA
BRANCH  26  27
ATOM     27  C   UNL A   1      32.970  32.871  27.860  1.00  0.00     0.338 C 
ATOM     28  O   UNL A   1      32.110  33.643  27.472  1.00  0.00    -0.246 OA
BRANCH  27  29
ATOM     29  C   UNL A   1      34.128  33.278  28.662  1.00  0.00     0.060 A 
ATOM     30  C   UNL A   1      35.121  34.029  28.028  1.00  0.00     0.016 A 
ATOM     31  C   UNL A   1      34.377  32.561  29.831  1.00  0.00     0.016 A 
ATOM     32  C   UNL A   1      36.432  33.738  28.338  1.00  0.00     0.010 A 
ATOM     33  C   UNL A   1      35.676  32.298  30.152  1.00  0.00     0.010 A 
ATOM     34  C   UNL A   1      36.676  32.747  29.294  1.00  0.00    -0.014 A 
BRANCH  34  35
ATOM     35  C   UNL A   1      38.016  32.269  29.559  1.00  0.00     0.031 A 
ATOM     36  C   UNL A   1      38.088  30.826  29.234  1.00  0.00     0.074 A 
ATOM     37  C   UNL A   1      39.048  33.087  29.863  1.00  0.00     0.049 A 
ATOM     38  N   UNL A   1      37.999  29.854  30.081  1.00  0.00    -0.248 NA
ATOM     39  C   UNL A   1      37.897  30.411  27.827  1.00  0.00     0.031 C 
ATOM     40  C   UNL A   1      39.092  34.550  29.980  1.00  0.00     0.029 A 
ATOM     41  N   UNL A   1      40.353  32.754  30.067  1.00  0.00    -0.354 N 
ATOM     42  C   UNL A   1      38.025  28.709  29.296  1.00  0.00     0.074 A 
ATOM     43  C   UNL A   1      37.615  29.117  27.983  1.00  0.00     0.031 C 
ATOM     44  C   UNL A   1      40.385  34.972  29.984  1.00  0.00     0.029 A 
ATOM     45  C   UNL A   1      41.261  33.814  30.007  1.00  0.00     0.049 A 
ATOM     46  H   UNL A   1      40.637  31.828  30.244  1.00  0.00     0.167 HD
ATOM     47  C   UNL A   1      38.798  27.648  29.657  1.00  0.00     0.031 A 
ATOM     48  C   UNL A   1      42.619  33.702  29.933  1.00  0.00     0.031 A 
ATOM     49  C   UNL A   1      39.192  27.752  31.041  1.00  0.00     0.049 A 
ATOM     50  C   UNL A   1      42.962  32.331  30.396  1.00  0.00     0.074 A 
ATOM     51  C   UNL A   1      38.514  27.829  32.241  1.00  0.00     0.029 A 
ATOM     52  N   UNL A   1      40.450  28.257  31.273  1.00  0.00    -0.354 N 
ATOM     53  N   UNL A   1      42.783  31.945  31.628  1.00  0.00    -0.248 NA
ATOM     54  C   UNL A   1      42.956  31.275  29.394  1.00  0.00     0.031 C 
ATOM     55  C   UNL A   1      39.236  28.791  33.009  1.00  0.00     0.029 A 
ATOM     56  C   UNL A   1      40.378  29.163  32.299  1.00  0.00     0.049 A 
ATOM     57  H   UNL A   1      41.267  28.010  30.784  1.00  0.00     0.167 HD
ATOM     58  C   UNL A   1      42.181  30.700  31.516  1.00  0.00     0.074 A 
ATOM     59  C   UNL A   1      42.354  30.318  30.110  1.00  0.00     0.031 C 
ATOM     60  C   UNL A   1      41.314  30.251  32.472  1.00  0.00     0.031 A 
BRANCH  47  61
ATOM     61  C   UNL A   1      39.605  26.850  28.657  1.00  0.00    -0.014 A 
ATOM     62  C   UNL A   1      40.447  27.554  27.782  1.00  0.00     0.009 A 
ATOM     63  C   UNL A   1      39.372  25.494  28.347  1.00  0.00     0.009 A 
ATOM     64  C   UNL A   1      40.955  26.956  26.623  1.00  0.00     0.001 A 
ATOM     65  C   UNL A   1      39.906  24.883  27.211  1.00  0.00     0.001 A 
ATOM     66  C   UNL A   1      40.677  25.624  26.334  1.00  0.00     0.000 A 
ENDBRANCH  47  61
BRANCH  48  67
ATOM     67  C   UNL A   1      43.597  34.510  29.152  1.00  0.00    -0.014 A 
ATOM     68  C   UNL A   1      44.895  34.769  29.634  1.00  0.00     0.009 A 
ATOM     69  C   UNL A   1      43.359  34.766  27.790  1.00  0.00     0.009 A 
ATOM     70  C   UNL A   1      45.914  35.235  28.780  1.00  0.00     0.001 A 
ATOM     71  C   UNL A   1      44.374  35.224  26.938  1.00  0.00     0.001 A 
ATOM     72  C   UNL A   1      45.655  35.447  27.430  1.00  0.00     0.000 A 
ENDBRANCH  48  67
BRANCH  60  73
ATOM     73  C   UNL A   1      41.187  31.048  33.749  1.00  0.00    -0.014 A 
ATOM     74  C   UNL A   1      40.305  32.132  33.926  1.00  0.00     0.009 A 
ATOM     75  C   UNL A   1      41.883  30.571  34.867  1.00  0.00     0.009 A 
ATOM     76  C   UNL A   1      40.154  32.730  35.185  1.00  0.00     0.001 A 
ATOM     77  C   UNL A   1      41.717  31.153  36.123  1.00  0.00     0.001 A 
ATOM     78  C   UNL A   1      40.858  32.237  36.282  1.00  0.00     0.000 A 
ENDBRANCH  60  73
ENDBRANCH  34  35
ENDBRANCH  27  29
ENDBRANCH  26  27
ENDBRANCH  25  26
ENDBRANCH   1  25
TORSDOF 14
ENDMDL
MODEL 2
REMARK VINA RESULT:     -11.2      2.853      6.621
REMARK SMILES Cc1sc(NC(=O)[C@@H]2[C@@H](C(=O)OCCOC(=O)c3ccc(-c4c5nc(c(-c6ccccc6)c6ccc([nH]6)c(-c6ccccc6)c6nc(c(-c7ccccc7)c7ccc4[nH]7)C=C6)C=C5)cc3)[C@@H]3C=C[C@H]2C3)c(C#N)c1C
REMARK SMILES IDX 13 1 12 2 10 3 11 4 9 5 8 6 69 7 66 8 68 9 70 10 67 11 6 12
REMARK SMILES IDX 5 13 7 15 4 16 1 17 2 18 3 19 74 20 71 21 75 22 72 23 73 24
REMARK SMILES IDX 14 25 15 26 16 27 17 28 18 29 19 30 65 31 20 32 64 33 21 34
REMARK SMILES IDX 22 35 23 36 58 37 24 38 63 39 57 40 59 41 25 42 62 43 56 44
REMARK SMILES IDX 55 45 26 47 48 48 33 49 47 50 34 51 37 52 46 53 60 54 35 55
REMARK SMILES IDX 36 56 45 58 61 59 38 60 27 61 28 62 32 63 29 64 31 65 30 66
REMARK SMILES IDX 49 67 50 68 54 69 51 70 53 71 52 72 39 73 40 74 44 75 41 76
REMARK SMILES IDX 43 77 42 78
REMARK H PARENT 5 14 59 46 37 57
REMARK Flexibility Score: inf
ROOT
ATOM      1  C   UNL A   1      33.939  28.602  26.118  1.00  0.00     0.274 C 
ENDROOT
BRANCH   1   2
ATOM      2  O   UNL A   1      33.334  27.509  26.831  1.00  0.00    -0.462 OA
BRANCH   2   3
ATOM      3  C   UNL A   1      31.980  27.541  26.936  1.00  0.00     0.310 C 
ATOM      4  O   UNL A   1      31.359  28.391  27.566  1.00  0.00    -0.252 OA
BRANCH   3   5
ATOM      5  C   UNL A   1      31.277  26.458  26.157  1.00  0.00     0.119 C 
ATOM      6  C   UNL A   1      32.260  25.288  25.847  1.00  0.00     0.100 C 
ATOM      7  C   UNL A   1      32.100  25.156  24.299  1.00  0.00     0.025 C 
ATOM      8  C   UNL A   1      30.798  26.916  24.754  1.00  0.00     0.027 C 
ATOM      9  C   UNL A   1      30.685  24.789  23.910  1.00  0.00    -0.027 C 
ATOM     10  C   UNL A   1      32.039  26.637  23.897  1.00  0.00     0.017 C 
ATOM     11  C   UNL A   1      29.901  25.839  24.196  1.00  0.00    -0.027 C 
BRANCH   6  12
ATOM     12  C   UNL A   1      31.943  24.020  26.641  1.00  0.00     0.229 C 
ATOM     13  N   UNL A   1      32.792  22.961  26.793  1.00  0.00    -0.316 N 
ATOM     14  H   UNL A   1      32.479  22.321  27.473  1.00  0.00     0.170 HD
ATOM     15  O   UNL A   1      30.880  23.915  27.266  1.00  0.00    -0.274 OA
BRANCH  13  16
ATOM     16  C   UNL A   1      33.990  22.578  26.216  1.00  0.00     0.113 A 
ATOM     17  C   UNL A   1      37.833  22.703  25.784  1.00  0.00     0.057 C 
ATOM     18  C   UNL A   1      36.376  22.402  25.665  1.00  0.00     0.008 A 
ATOM     19  S   UNL A   1      35.248  23.670  25.907  1.00  0.00    -0.122 S 
ATOM     20  C   UNL A   1      35.720  21.219  25.363  1.00  0.00    -0.017 A 
ATOM     21  C   UNL A   1      34.314  21.343  25.679  1.00  0.00     0.090 A 
ATOM     22  C   UNL A   1      36.361  19.964  24.856  1.00  0.00     0.047 C 
BRANCH  21  23
ATOM     23  C   UNL A   1      33.364  20.269  25.533  1.00  0.00     0.103 C 
ATOM     24  N   UNL A   1      32.594  19.419  25.430  1.00  0.00    -0.192 NA
ENDBRANCH  21  23
ENDBRANCH  13  16
ENDBRANCH   6  12
ENDBRANCH   3   5
ENDBRANCH   2   3
ENDBRANCH   1   2
BRANCH   1  25
ATOM     25  C   UNL A   1      34.203  29.805  27.018  1.00  0.00     0.275 C 
BRANCH  25  26
ATOM     26  O   UNL A   1      35.575  29.880  27.388  1.00  0.00    -0.458 OA
BRANCH  26  27
ATOM     27  C   UNL A   1      35.964  31.001  28.038  1.00  0.00     0.338 C 
ATOM     28  O   UNL A   1      35.686  32.155  27.761  1.00  0.00    -0.246 OA
BRANCH  27  29
ATOM     29  C   UNL A   1      36.930  30.623  29.075  1.00  0.00     0.060 A 
ATOM     30  C   UNL A   1      38.148  31.306  29.102  1.00  0.00     0.016 A 
ATOM     31  C   UNL A   1      36.771  29.371  29.668  1.00  0.00     0.016 A 
ATOM     32  C   UNL A   1      39.283  30.569  29.367  1.00  0.00     0.010 A 
ATOM     33  C   UNL A   1      37.895  28.655  29.955  1.00  0.00     0.010 A 
ATOM     34  C   UNL A   1      39.132  29.205  29.632  1.00  0.00    -0.014 A 
BRANCH  34  35
ATOM     35  C   UNL A   1      40.279  28.331  29.758  1.00  0.00     0.031 A 
ATOM     36  C   UNL A   1      40.717  28.308  31.173  1.00  0.00     0.074 A 
ATOM     37  C   UNL A   1      40.718  27.535  28.758  1.00  0.00     0.049 A 
ATOM     38  N   UNL A   1      41.687  29.000  31.676  1.00  0.00    -0.248 NA
ATOM     39  C   UNL A   1      39.800  27.742  32.184  1.00  0.00     0.031 C 
ATOM     40  C   UNL A   1      40.189  27.343  27.402  1.00  0.00     0.029 A 
ATOM     41  N   UNL A   1      41.738  26.633  28.786  1.00  0.00    -0.354 N 
ATOM     42  C   UNL A   1      41.646  28.713  33.033  1.00  0.00     0.074 A 
ATOM     43  C   UNL A   1      40.313  28.254  33.303  1.00  0.00     0.031 C 
ATOM     44  C   UNL A   1      40.735  26.226  26.849  1.00  0.00     0.029 A 
ATOM     45  C   UNL A   1      41.745  25.699  27.748  1.00  0.00     0.049 A 
ATOM     46  H   UNL A   1      42.425  26.639  29.492  1.00  0.00     0.167 HD
ATOM     47  C   UNL A   1      42.795  28.444  33.712  1.00  0.00     0.031 A 
ATOM     48  C   UNL A   1      42.504  24.566  27.694  1.00  0.00     0.031 A 
ATOM     49  C   UNL A   1      43.947  28.878  32.958  1.00  0.00     0.049 A 
ATOM     50  C   UNL A   1      43.618  24.750  28.662  1.00  0.00     0.074 A 
ATOM     51  C   UNL A   1      44.378  30.089  32.454  1.00  0.00     0.029 A 
ATOM     52  N   UNL A   1      44.596  27.904  32.236  1.00  0.00    -0.354 N 
ATOM     53  N   UNL A   1      44.553  25.641  28.488  1.00  0.00    -0.248 NA
ATOM     54  C   UNL A   1      43.368  24.356  30.041  1.00  0.00     0.031 C 
ATOM     55  C   UNL A   1      44.905  29.783  31.165  1.00  0.00     0.029 A 
ATOM     56  C   UNL A   1      44.885  28.399  30.991  1.00  0.00     0.049 A 
ATOM     57  H   UNL A   1      44.817  27.002  32.560  1.00  0.00     0.167 HD
ATOM     58  C   UNL A   1      44.677  26.258  29.725  1.00  0.00     0.074 A 
ATOM     59  C   UNL A   1      43.950  25.391  30.658  1.00  0.00     0.031 C 
ATOM     60  C   UNL A   1      45.059  27.566  29.822  1.00  0.00     0.031 A 
BRANCH  47  61
ATOM     61  C   UNL A   1      42.890  27.347  34.750  1.00  0.00    -0.014 A 
ATOM     62  C   UNL A   1      43.031  26.027  34.298  1.00  0.00     0.009 A 
ATOM     63  C   UNL A   1      42.570  27.513  36.114  1.00  0.00     0.009 A 
ATOM     64  C   UNL A   1      42.783  24.939  35.143  1.00  0.00     0.001 A 
ATOM     65  C   UNL A   1      42.358  26.431  36.970  1.00  0.00     0.001 A 
ATOM     66  C   UNL A   1      42.438  25.142  36.476  1.00  0.00     0.000 A 
ENDBRANCH  47  61
BRANCH  48  67
ATOM     67  C   UNL A   1      42.152  23.210  27.188  1.00  0.00    -0.014 A 
ATOM     68  C   UNL A   1      43.023  22.482  26.353  1.00  0.00     0.009 A 
ATOM     69  C   UNL A   1      41.092  22.499  27.778  1.00  0.00     0.009 A 
ATOM     70  C   UNL A   1      42.854  21.100  26.145  1.00  0.00     0.001 A 
ATOM     71  C   UNL A   1      40.925  21.121  27.576  1.00  0.00     0.001 A 
ATOM     72  C   UNL A   1      41.814  20.419  26.770  1.00  0.00     0.000 A 
ENDBRANCH  48  67
BRANCH  60  73
ATOM     73  C   UNL A   1      45.541  28.262  28.571  1.00  0.00    -0.014 A 
ATOM     74  C   UNL A   1      46.840  28.135  28.039  1.00  0.00     0.009 A 
ATOM     75  C   UNL A   1      44.582  28.951  27.817  1.00  0.00     0.009 A 
ATOM     76  C   UNL A   1      47.163  28.708  26.801  1.00  0.00     0.001 A 
ATOM     77  C   UNL A   1      44.899  29.504  26.577  1.00  0.00     0.001 A 
ATOM     78  C   UNL A   1      46.191  29.389  26.071  1.00  0.00     0.000 A 
ENDBRANCH  60  73
ENDBRANCH  34  35
ENDBRANCH  27  29
ENDBRANCH  26  27
ENDBRANCH  25  26
ENDBRANCH   1  25
TORSDOF 14
ENDMDL
MODEL 3
REMARK VINA RESULT:     -11.2      4.014      8.458
REMARK SMILES Cc1sc(NC(=O)[C@@H]2[C@@H](C(=O)OCCOC(=O)c3ccc(-c4c5nc(c(-c6ccccc6)c6ccc([nH]6)c(-c6ccccc6)c6nc(c(-c7ccccc7)c7ccc4[nH]7)C=C6)C=C5)cc3)[C@@H]3C=C[C@H]2C3)c(C#N)c1C
REMARK SMILES IDX 13 1 12 2 10 3 11 4 9 5 8 6 69 7 66 8 68 9 70 10 67 11 6 12
REMARK SMILES IDX 5 13 7 15 4 16 1 17 2 18 3 19 74 20 71 21 75 22 72 23 73 24
REMARK SMILES IDX 14 25 15 26 16 27 17 28 18 29 19 30 65 31 20 32 64 33 21 34
REMARK SMILES IDX 22 35 23 36 58 37 24 38 63 39 57 40 59 41 25 42 62 43 56 44
REMARK SMILES IDX 55 45 26 47 48 48 33 49 47 50 34 51 37 52 46 53 60 54 35 55
REMARK SMILES IDX 36 56 45 58 61 59 38 60 27 61 28 62 32 63 29 64 31 65 30 66
REMARK SMILES IDX 49 67 50 68 54 69 51 70 53 71 52 72 39 73 40 74 44 75 41 76
REMARK SMILES IDX 43 77 42 78
REMARK H PARENT 5 14 59 46 37 57
REMARK Flexibility Score: inf
ROOT
ATOM      1  C   UNL A   1      37.119  21.332  24.156  1.00  0.00     0.274 C 
ENDROOT
BRANCH   1   2
ATOM      2  O   UNL A   1      35.747  21.755  24.240  1.00  0.00    -0.462 OA
BRANCH   2   3
ATOM      3  C   UNL A   1      34.882  20.868  24.798  1.00  0.00     0.310 C 
ATOM      4  O   UNL A   1      34.994  19.650  24.710  1.00  0.00    -0.252 OA
BRANCH   3   5
ATOM      5  C   UNL A   1      33.775  21.509  25.596  1.00  0.00     0.119 C 
ATOM      6  C   UNL A   1      33.475  22.941  25.057  1.00  0.00     0.100 C 
ATOM      7  C   UNL A   1      33.590  23.790  26.363  1.00  0.00     0.025 C 
ATOM      8  C   UNL A   1      34.144  21.748  27.085  1.00  0.00     0.027 C 
ATOM      9  C   UNL A   1      32.562  23.376  27.393  1.00  0.00    -0.027 C 
ATOM     10  C   UNL A   1      34.810  23.129  27.021  1.00  0.00     0.017 C 
ATOM     11  C   UNL A   1      32.886  22.146  27.817  1.00  0.00    -0.027 C 
BRANCH   6  12
ATOM     12  C   UNL A   1      32.128  23.035  24.340  1.00  0.00     0.229 C 
ATOM     13  N   UNL A   1      31.460  24.198  24.083  1.00  0.00    -0.316 N 
ATOM     14  H   UNL A   1      30.703  24.070  23.466  1.00  0.00     0.170 HD
ATOM     15  O   UNL A   1      31.585  22.023  23.879  1.00  0.00    -0.274 OA
BRANCH  13  16
ATOM     16  C   UNL A   1      31.600  25.516  24.484  1.00  0.00     0.113 A 
ATOM     17  C   UNL A   1      31.658  28.359  27.107  1.00  0.00     0.057 C 
ATOM     18  C   UNL A   1      31.699  27.551  25.853  1.00  0.00     0.008 A 
ATOM     19  S   UNL A   1      30.646  26.208  25.701  1.00  0.00    -0.122 S 
ATOM     20  C   UNL A   1      32.467  27.698  24.709  1.00  0.00    -0.017 A 
ATOM     21  C   UNL A   1      32.387  26.498  23.906  1.00  0.00     0.090 A 
ATOM     22  C   UNL A   1      33.320  28.882  24.370  1.00  0.00     0.047 C 
BRANCH  21  23
ATOM     23  C   UNL A   1      33.116  26.306  22.678  1.00  0.00     0.103 C 
ATOM     24  N   UNL A   1      33.688  26.140  21.692  1.00  0.00    -0.192 NA
ENDBRANCH  21  23
ENDBRANCH  13  16
ENDBRANCH   6  12
ENDBRANCH   3   5
ENDBRANCH   2   3
ENDBRANCH   1   2
BRANCH   1  25
ATOM     25  C   UNL A   1      37.762  21.173  25.529  1.00  0.00     0.275 C 
BRANCH  25  26
ATOM     26  O   UNL A   1      39.136  21.540  25.500  1.00  0.00    -0.458 OA
BRANCH  26  27
ATOM     27  C   UNL A   1      40.028  20.569  25.806  1.00  0.00     0.338 C 
ATOM     28  O   UNL A   1      39.892  19.366  25.665  1.00  0.00    -0.246 OA
BRANCH  27  29
ATOM     29  C   UNL A   1      41.165  21.185  26.496  1.00  0.00     0.060 A 
ATOM     30  C   UNL A   1      41.225  21.054  27.885  1.00  0.00     0.016 A 
ATOM     31  C   UNL A   1      41.854  22.190  25.818  1.00  0.00     0.016 A 
ATOM     32  C   UNL A   1      41.640  22.151  28.609  1.00  0.00     0.010 A 
ATOM     33  C   UNL A   1      42.290  23.261  26.540  1.00  0.00     0.010 A 
ATOM     34  C   UNL A   1      42.014  23.299  27.905  1.00  0.00    -0.014 A 
BRANCH  34  35
ATOM     35  C   UNL A   1      42.306  24.541  28.587  1.00  0.00     0.031 A 
ATOM     36  C   UNL A   1      41.260  25.535  28.253  1.00  0.00     0.074 A 
ATOM     37  C   UNL A   1      43.276  24.663  29.521  1.00  0.00     0.049 A 
ATOM     38  N   UNL A   1      41.356  26.463  27.359  1.00  0.00    -0.248 NA
ATOM     39  C   UNL A   1      39.874  25.272  28.695  1.00  0.00     0.031 C 
ATOM     40  C   UNL A   1      44.199  23.658  30.062  1.00  0.00     0.029 A 
ATOM     41  N   UNL A   1      43.592  25.758  30.267  1.00  0.00    -0.354 N 
ATOM     42  C   UNL A   1      40.105  27.064  27.350  1.00  0.00     0.074 A 
ATOM     43  C   UNL A   1      39.195  26.098  27.897  1.00  0.00     0.031 C 
ATOM     44  C   UNL A   1      44.780  24.130  31.197  1.00  0.00     0.029 A 
ATOM     45  C   UNL A   1      44.379  25.512  31.394  1.00  0.00     0.049 A 
ATOM     46  H   UNL A   1      43.286  26.663  30.027  1.00  0.00     0.167 HD
ATOM     47  C   UNL A   1      39.996  28.421  27.328  1.00  0.00     0.031 A 
ATOM     48  C   UNL A   1      44.616  26.388  32.413  1.00  0.00     0.031 A 
ATOM     49  C   UNL A   1      41.245  29.027  26.931  1.00  0.00     0.049 A 
ATOM     50  C   UNL A   1      44.300  27.745  31.893  1.00  0.00     0.074 A 
ATOM     51  C   UNL A   1      42.052  28.945  25.814  1.00  0.00     0.029 A 
ATOM     52  N   UNL A   1      42.042  29.489  27.952  1.00  0.00    -0.354 N 
ATOM     53  N   UNL A   1      45.003  28.314  30.955  1.00  0.00    -0.248 NA
ATOM     54  C   UNL A   1      42.919  28.193  32.009  1.00  0.00     0.031 C 
ATOM     55  C   UNL A   1      43.383  28.923  26.324  1.00  0.00     0.029 A 
ATOM     56  C   UNL A   1      43.336  29.113  27.705  1.00  0.00     0.049 A 
ATOM     57  H   UNL A   1      41.733  30.006  28.731  1.00  0.00     0.167 HD
ATOM     58  C   UNL A   1      44.058  28.825  30.077  1.00  0.00     0.074 A 
ATOM     59  C   UNL A   1      42.786  28.758  30.805  1.00  0.00     0.031 C 
ATOM     60  C   UNL A   1      44.328  28.937  28.742  1.00  0.00     0.031 A 
BRANCH  47  61
ATOM     61  C   UNL A   1      38.976  29.170  28.157  1.00  0.00    -0.014 A 
ATOM     62  C   UNL A   1      39.037  29.034  29.552  1.00  0.00     0.009 A 
ATOM     63  C   UNL A   1      37.807  29.764  27.635  1.00  0.00     0.009 A 
ATOM     64  C   UNL A   1      37.956  29.395  30.365  1.00  0.00     0.001 A 
ATOM     65  C   UNL A   1      36.742  30.158  28.445  1.00  0.00     0.001 A 
ATOM     66  C   UNL A   1      36.806  29.948  29.810  1.00  0.00     0.000 A 
ENDBRANCH  47  61
BRANCH  48  67
ATOM     67  C   UNL A   1      44.713  26.137  33.878  1.00  0.00    -0.014 A 
ATOM     68  C   UNL A   1      43.931  25.150  34.513  1.00  0.00     0.009 A 
ATOM     69  C   UNL A   1      45.799  26.655  34.605  1.00  0.00     0.009 A 
ATOM     70  C   UNL A   1      44.246  24.686  35.805  1.00  0.00     0.001 A 
ATOM     71  C   UNL A   1      46.117  26.189  35.889  1.00  0.00     0.001 A 
ATOM     72  C   UNL A   1      45.348  25.195  36.484  1.00  0.00     0.000 A 
ENDBRANCH  48  67
BRANCH  60  73
ATOM     73  C   UNL A   1      45.744  28.687  28.279  1.00  0.00    -0.014 A 
ATOM     74  C   UNL A   1      46.757  29.666  28.251  1.00  0.00     0.009 A 
ATOM     75  C   UNL A   1      46.099  27.360  28.008  1.00  0.00     0.009 A 
ATOM     76  C   UNL A   1      48.077  29.317  27.934  1.00  0.00     0.001 A 
ATOM     77  C   UNL A   1      47.416  27.010  27.712  1.00  0.00     0.001 A 
ATOM     78  C   UNL A   1      48.405  27.989  27.668  1.00  0.00     0.000 A 
ENDBRANCH  60  73
ENDBRANCH  34  35
ENDBRANCH  27  29
ENDBRANCH  26  27
ENDBRANCH  25  26
ENDBRANCH   1  25
TORSDOF 14
ENDMDL
