MODEL 1
REMARK VINA RESULT:     -11.1      0.000      0.000
REMARK SMILES NS(=O)(=O)c1ccc(/N=N/c2ccc(O)c(C(=O)OCCOC(=O)c3ccc(-c4c5nc(c(-c6ccccc6)c6ccc([nH]6)c(-c6ccccc6)c6nc(c(-c7ccccc7)c7ccc4[nH]7)C=C6)C=C5)cc3)c2)cc1
REMARK SMILES IDX 20 1 19 2 17 3 18 4 16 5 11 6 12 7 73 8 13 9 14 10 10 11
REMARK SMILES IDX 9 12 8 13 5 14 6 15 75 16 7 17 74 18 2 19 3 20 4 21 1 22
REMARK SMILES IDX 15 25 21 27 22 28 23 29 24 30 25 31 26 32 72 33 27 34 71 35
REMARK SMILES IDX 28 36 29 37 30 38 65 39 31 40 70 41 64 42 66 43 32 44 69 45
REMARK SMILES IDX 63 46 62 47 33 49 55 50 40 51 54 52 41 53 44 54 53 55 67 56
REMARK SMILES IDX 42 57 43 58 52 60 68 61 45 62 34 63 35 64 39 65 36 66 38 67
REMARK SMILES IDX 37 68 56 69 57 70 61 71 58 72 60 73 59 74 46 75 47 76 51 77
REMARK SMILES IDX 48 78 50 79 49 80
REMARK H PARENT 1 23 1 24 15 26 66 48 44 59
REMARK Flexibility Score: inf
ROOT
ATOM      1  C   UNL A   1      34.407  34.840  31.969  1.00  0.00     0.275 C 
ENDROOT
BRANCH   1   2
ATOM      2  O   UNL A   1      33.316  34.566  31.070  1.00  0.00    -0.458 OA
BRANCH   2   3
ATOM      3  C   UNL A   1      33.466  34.972  29.787  1.00  0.00     0.342 C 
ATOM      4  O   UNL A   1      33.246  36.089  29.343  1.00  0.00    -0.246 OA
BRANCH   3   5
ATOM      5  C   UNL A   1      34.060  33.901  28.950  1.00  0.00     0.104 A 
ATOM      6  C   UNL A   1      33.889  31.770  27.789  1.00  0.00     0.087 A 
ATOM      7  C   UNL A   1      35.275  31.777  27.592  1.00  0.00     0.034 A 
ATOM      8  C   UNL A   1      33.292  32.824  28.495  1.00  0.00     0.049 A 
ATOM      9  C   UNL A   1      36.047  32.857  28.017  1.00  0.00     0.049 A 
ATOM     10  C   UNL A   1      35.434  33.929  28.664  1.00  0.00     0.130 A 
BRANCH   6  11
ATOM     11  N   UNL A   1      33.130  30.692  27.305  1.00  0.00    -0.151 NA
ATOM     12  N   UNL A   1      33.838  29.663  27.250  1.00  0.00    -0.151 NA
BRANCH  12  13
ATOM     13  C   UNL A   1      33.133  28.516  26.831  1.00  0.00     0.086 A 
ATOM     14  C   UNL A   1      31.897  26.122  26.041  1.00  0.00     0.082 A 
ATOM     15  C   UNL A   1      33.255  26.317  25.779  1.00  0.00     0.024 A 
ATOM     16  C   UNL A   1      31.148  27.111  26.680  1.00  0.00     0.024 A 
ATOM     17  C   UNL A   1      33.863  27.513  26.175  1.00  0.00     0.031 A 
ATOM     18  C   UNL A   1      31.768  28.298  27.076  1.00  0.00     0.031 A 
BRANCH  14  19
ATOM     19  S   UNL A   1      31.112  24.613  25.564  1.00  0.00     0.238 S 
ATOM     20  O   UNL A   1      32.031  23.516  25.780  1.00  0.00    -0.207 OA
ATOM     21  O   UNL A   1      30.431  24.828  24.313  1.00  0.00    -0.207 OA
BRANCH  19  22
ATOM     22  N   UNL A   1      29.916  24.413  26.727  1.00  0.00    -0.225 NA
ATOM     23  H   UNL A   1      29.014  24.283  26.269  1.00  0.00     0.137 HD
ATOM     24  H   UNL A   1      29.879  25.240  27.322  1.00  0.00     0.137 HD
ENDBRANCH  19  22
ENDBRANCH  14  19
ENDBRANCH  12  13
ENDBRANCH   6  11
BRANCH  10  25
ATOM     25  O   UNL A   1      36.263  34.953  29.039  1.00  0.00    -0.507 OA
ATOM     26  H   UNL A   1      36.345  35.713  28.496  1.00  0.00     0.293 HD
ENDBRANCH  10  25
ENDBRANCH   3   5
ENDBRANCH   2   3
ENDBRANCH   1   2
BRANCH   1  27
ATOM     27  C   UNL A   1      34.381  33.901  33.179  1.00  0.00     0.275 C 
BRANCH  27  28
ATOM     28  O   UNL A   1      35.066  32.663  32.899  1.00  0.00    -0.458 OA
BRANCH  28  29
ATOM     29  C   UNL A   1      36.263  32.518  33.516  1.00  0.00     0.338 C 
ATOM     30  O   UNL A   1      36.505  32.674  34.702  1.00  0.00    -0.246 OA
BRANCH  29  31
ATOM     31  C   UNL A   1      37.237  31.934  32.576  1.00  0.00     0.060 A 
ATOM     32  C   UNL A   1      38.348  31.304  33.138  1.00  0.00     0.016 A 
ATOM     33  C   UNL A   1      37.112  32.031  31.190  1.00  0.00     0.016 A 
ATOM     34  C   UNL A   1      39.318  30.721  32.330  1.00  0.00     0.010 A 
ATOM     35  C   UNL A   1      38.111  31.476  30.373  1.00  0.00     0.010 A 
ATOM     36  C   UNL A   1      39.218  30.817  30.940  1.00  0.00    -0.014 A 
BRANCH  36  37
ATOM     37  C   UNL A   1      40.336  30.312  30.106  1.00  0.00     0.031 A 
ATOM     38  C   UNL A   1      41.537  31.184  29.873  1.00  0.00     0.074 A 
ATOM     39  C   UNL A   1      40.320  29.055  29.624  1.00  0.00     0.049 A 
ATOM     40  N   UNL A   1      42.610  30.945  29.164  1.00  0.00    -0.248 NA
ATOM     41  C   UNL A   1      41.529  32.498  30.534  1.00  0.00     0.031 C 
ATOM     42  C   UNL A   1      39.260  28.074  29.854  1.00  0.00     0.029 A 
ATOM     43  N   UNL A   1      41.233  28.387  28.846  1.00  0.00    -0.354 N 
ATOM     44  C   UNL A   1      43.402  32.081  29.285  1.00  0.00     0.074 A 
ATOM     45  C   UNL A   1      42.673  33.017  30.114  1.00  0.00     0.031 C 
ATOM     46  C   UNL A   1      39.584  26.929  29.229  1.00  0.00     0.029 A 
ATOM     47  C   UNL A   1      40.848  27.110  28.520  1.00  0.00     0.049 A 
ATOM     48  H   UNL A   1      42.084  28.786  28.551  1.00  0.00     0.167 HD
ATOM     49  C   UNL A   1      44.625  32.322  28.754  1.00  0.00     0.031 A 
ATOM     50  C   UNL A   1      41.435  26.200  27.718  1.00  0.00     0.031 A 
ATOM     51  C   UNL A   1      45.344  31.398  27.917  1.00  0.00     0.049 A 
ATOM     52  C   UNL A   1      42.741  26.537  27.048  1.00  0.00     0.074 A 
ATOM     53  C   UNL A   1      46.586  31.559  27.324  1.00  0.00     0.029 A 
ATOM     54  N   UNL A   1      44.886  30.143  27.546  1.00  0.00    -0.354 N 
ATOM     55  N   UNL A   1      43.476  27.617  27.159  1.00  0.00    -0.248 NA
ATOM     56  C   UNL A   1      43.300  25.522  26.143  1.00  0.00     0.031 C 
ATOM     57  C   UNL A   1      46.847  30.430  26.540  1.00  0.00     0.029 A 
ATOM     58  C   UNL A   1      45.805  29.532  26.707  1.00  0.00     0.049 A 
ATOM     59  H   UNL A   1      44.033  29.746  27.835  1.00  0.00     0.167 HD
ATOM     60  C   UNL A   1      44.599  27.397  26.370  1.00  0.00     0.074 A 
ATOM     61  C   UNL A   1      44.455  26.074  25.799  1.00  0.00     0.031 C 
ATOM     62  C   UNL A   1      45.656  28.215  26.143  1.00  0.00     0.031 A 
BRANCH  49  63
ATOM     63  C   UNL A   1      45.238  33.669  29.022  1.00  0.00    -0.014 A 
ATOM     64  C   UNL A   1      46.162  33.864  30.061  1.00  0.00     0.009 A 
ATOM     65  C   UNL A   1      44.902  34.756  28.201  1.00  0.00     0.009 A 
ATOM     66  C   UNL A   1      46.705  35.130  30.296  1.00  0.00     0.001 A 
ATOM     67  C   UNL A   1      45.470  36.012  28.417  1.00  0.00     0.001 A 
ATOM     68  C   UNL A   1      46.362  36.200  29.471  1.00  0.00     0.000 A 
ENDBRANCH  49  63
BRANCH  50  69
ATOM     69  C   UNL A   1      40.778  24.887  27.465  1.00  0.00    -0.014 A 
ATOM     70  C   UNL A   1      41.301  23.704  28.007  1.00  0.00     0.009 A 
ATOM     71  C   UNL A   1      39.645  24.810  26.639  1.00  0.00     0.009 A 
ATOM     72  C   UNL A   1      40.723  22.469  27.700  1.00  0.00     0.001 A 
ATOM     73  C   UNL A   1      39.049  23.579  26.362  1.00  0.00     0.001 A 
ATOM     74  C   UNL A   1      39.596  22.408  26.882  1.00  0.00     0.000 A 
ENDBRANCH  50  69
BRANCH  62  75
ATOM     75  C   UNL A   1      46.769  27.684  25.279  1.00  0.00    -0.014 A 
ATOM     76  C   UNL A   1      47.789  26.875  25.803  1.00  0.00     0.009 A 
ATOM     77  C   UNL A   1      46.779  27.979  23.906  1.00  0.00     0.009 A 
ATOM     78  C   UNL A   1      48.818  26.409  24.980  1.00  0.00     0.001 A 
ATOM     79  C   UNL A   1      47.788  27.483  23.078  1.00  0.00     0.001 A 
ATOM     80  C   UNL A   1      48.813  26.709  23.618  1.00  0.00     0.000 A 
ENDBRANCH  62  75
ENDBRANCH  36  37
ENDBRANCH  29  31
ENDBRANCH  28  29
ENDBRANCH  27  28
ENDBRANCH   1  27
TORSDOF 16
ENDMDL
MODEL 2
REMARK VINA RESULT:     -11.1      4.943     10.685
REMARK SMILES NS(=O)(=O)c1ccc(/N=N/c2ccc(O)c(C(=O)OCCOC(=O)c3ccc(-c4c5nc(c(-c6ccccc6)c6ccc([nH]6)c(-c6ccccc6)c6nc(c(-c7ccccc7)c7ccc4[nH]7)C=C6)C=C5)cc3)c2)cc1
REMARK SMILES IDX 20 1 19 2 17 3 18 4 16 5 11 6 12 7 73 8 13 9 14 10 10 11
REMARK SMILES IDX 9 12 8 13 5 14 6 15 75 16 7 17 74 18 2 19 3 20 4 21 1 22
REMARK SMILES IDX 15 25 21 27 22 28 23 29 24 30 25 31 26 32 72 33 27 34 71 35
REMARK SMILES IDX 28 36 29 37 30 38 65 39 31 40 70 41 64 42 66 43 32 44 69 45
REMARK SMILES IDX 63 46 62 47 33 49 55 50 40 51 54 52 41 53 44 54 53 55 67 56
REMARK SMILES IDX 42 57 43 58 52 60 68 61 45 62 34 63 35 64 39 65 36 66 38 67
REMARK SMILES IDX 37 68 56 69 57 70 61 71 58 72 60 73 59 74 46 75 47 76 51 77
REMARK SMILES IDX 48 78 50 79 49 80
REMARK H PARENT 1 23 1 24 15 26 66 48 44 59
REMARK Flexibility Score: inf
ROOT
ATOM      1  C   UNL A   1      44.374  21.057  25.229  1.00  0.00     0.275 C 
ENDROOT
BRANCH   1   2
ATOM      2  O   UNL A   1      43.289  20.160  24.927  1.00  0.00    -0.458 OA
BRANCH   2   3
ATOM      3  C   UNL A   1      42.620  19.632  25.979  1.00  0.00     0.342 C 
ATOM      4  O   UNL A   1      42.882  18.591  26.563  1.00  0.00    -0.246 OA
BRANCH   3   5
ATOM      5  C   UNL A   1      41.551  20.546  26.449  1.00  0.00     0.104 A 
ATOM      6  C   UNL A   1      39.424  21.678  26.113  1.00  0.00     0.087 A 
ATOM      7  C   UNL A   1      39.676  22.467  27.242  1.00  0.00     0.034 A 
ATOM      8  C   UNL A   1      40.381  20.739  25.706  1.00  0.00     0.049 A 
ATOM      9  C   UNL A   1      40.825  22.266  28.005  1.00  0.00     0.049 A 
ATOM     10  C   UNL A   1      41.741  21.286  27.627  1.00  0.00     0.130 A 
BRANCH   6  11
ATOM     11  N   UNL A   1      38.234  21.869  25.392  1.00  0.00    -0.151 NA
ATOM     12  N   UNL A   1      37.751  22.991  25.657  1.00  0.00    -0.151 NA
BRANCH  12  13
ATOM     13  C   UNL A   1      36.582  23.287  24.926  1.00  0.00     0.086 A 
ATOM     14  C   UNL A   1      34.272  24.071  23.535  1.00  0.00     0.082 A 
ATOM     15  C   UNL A   1      34.543  24.621  24.790  1.00  0.00     0.024 A 
ATOM     16  C   UNL A   1      35.132  23.127  22.973  1.00  0.00     0.024 A 
ATOM     17  C   UNL A   1      35.695  24.225  25.476  1.00  0.00     0.031 A 
ATOM     18  C   UNL A   1      36.283  22.744  23.665  1.00  0.00     0.031 A 
BRANCH  14  19
ATOM     19  S   UNL A   1      32.831  24.570  22.643  1.00  0.00     0.238 S 
ATOM     20  O   UNL A   1      33.215  24.948  21.300  1.00  0.00    -0.207 OA
ATOM     21  O   UNL A   1      32.035  25.414  23.496  1.00  0.00    -0.207 OA
BRANCH  19  22
ATOM     22  N   UNL A   1      31.972  23.136  22.461  1.00  0.00    -0.225 NA
ATOM     23  H   UNL A   1      31.262  23.255  21.738  1.00  0.00     0.137 HD
ATOM     24  H   UNL A   1      31.522  22.896  23.344  1.00  0.00     0.137 HD
ENDBRANCH  19  22
ENDBRANCH  14  19
ENDBRANCH  12  13
ENDBRANCH   6  11
BRANCH  10  25
ATOM     25  O   UNL A   1      42.837  21.147  28.437  1.00  0.00    -0.507 OA
ATOM     26  H   UNL A   1      42.791  20.602  29.198  1.00  0.00     0.293 HD
ENDBRANCH  10  25
ENDBRANCH   3   5
ENDBRANCH   2   3
ENDBRANCH   1   2
BRANCH   1  27
ATOM     27  C   UNL A   1      44.457  22.197  24.209  1.00  0.00     0.275 C 
BRANCH  27  28
ATOM     28  O   UNL A   1      43.731  23.359  24.659  1.00  0.00    -0.458 OA
BRANCH  28  29
ATOM     29  C   UNL A   1      44.503  24.394  25.067  1.00  0.00     0.338 C 
ATOM     30  O   UNL A   1      45.553  24.772  24.572  1.00  0.00    -0.246 OA
BRANCH  29  31
ATOM     31  C   UNL A   1      43.792  25.162  26.105  1.00  0.00     0.060 A 
ATOM     32  C   UNL A   1      44.275  26.442  26.378  1.00  0.00     0.016 A 
ATOM     33  C   UNL A   1      42.717  24.650  26.832  1.00  0.00     0.016 A 
ATOM     34  C   UNL A   1      43.667  27.242  27.339  1.00  0.00     0.010 A 
ATOM     35  C   UNL A   1      42.125  25.442  27.829  1.00  0.00     0.010 A 
ATOM     36  C   UNL A   1      42.597  26.744  28.086  1.00  0.00    -0.014 A 
BRANCH  36  37
ATOM     37  C   UNL A   1      42.059  27.564  29.199  1.00  0.00     0.031 A 
ATOM     38  C   UNL A   1      42.783  27.590  30.515  1.00  0.00     0.074 A 
ATOM     39  C   UNL A   1      40.976  28.343  29.016  1.00  0.00     0.049 A 
ATOM     40  N   UNL A   1      42.475  28.222  31.618  1.00  0.00    -0.248 NA
ATOM     41  C   UNL A   1      44.024  26.804  30.594  1.00  0.00     0.031 C 
ATOM     42  C   UNL A   1      40.235  28.482  27.764  1.00  0.00     0.029 A 
ATOM     43  N   UNL A   1      40.318  29.173  29.891  1.00  0.00    -0.354 N 
ATOM     44  C   UNL A   1      43.477  27.903  32.526  1.00  0.00     0.074 A 
ATOM     45  C   UNL A   1      44.388  27.003  31.852  1.00  0.00     0.031 C 
ATOM     46  C   UNL A   1      39.223  29.347  27.950  1.00  0.00     0.029 A 
ATOM     47  C   UNL A   1      39.218  29.785  29.344  1.00  0.00     0.049 A 
ATOM     48  H   UNL A   1      40.610  29.315  30.820  1.00  0.00     0.167 HD
ATOM     49  C   UNL A   1      43.627  28.324  33.806  1.00  0.00     0.031 A 
ATOM     50  C   UNL A   1      38.295  30.588  29.910  1.00  0.00     0.031 A 
ATOM     51  C   UNL A   1      42.714  29.207  34.483  1.00  0.00     0.049 A 
ATOM     52  C   UNL A   1      38.422  30.948  31.367  1.00  0.00     0.074 A 
ATOM     53  C   UNL A   1      42.777  29.680  35.784  1.00  0.00     0.029 A 
ATOM     54  N   UNL A   1      41.568  29.746  33.919  1.00  0.00    -0.354 N 
ATOM     55  N   UNL A   1      39.366  30.634  32.220  1.00  0.00    -0.248 NA
ATOM     56  C   UNL A   1      37.353  31.781  31.937  1.00  0.00     0.031 C 
ATOM     57  C   UNL A   1      41.634  30.448  36.026  1.00  0.00     0.029 A 
ATOM     58  C   UNL A   1      40.899  30.520  34.854  1.00  0.00     0.049 A 
ATOM     59  H   UNL A   1      41.272  29.599  32.991  1.00  0.00     0.167 HD
ATOM     60  C   UNL A   1      39.026  31.259  33.414  1.00  0.00     0.074 A 
ATOM     61  C   UNL A   1      37.795  31.984  33.169  1.00  0.00     0.031 C 
ATOM     62  C   UNL A   1      39.675  31.239  34.604  1.00  0.00     0.031 A 
BRANCH  49  63
ATOM     63  C   UNL A   1      44.800  27.783  34.576  1.00  0.00    -0.014 A 
ATOM     64  C   UNL A   1      46.016  28.480  34.651  1.00  0.00     0.009 A 
ATOM     65  C   UNL A   1      44.675  26.563  35.259  1.00  0.00     0.009 A 
ATOM     66  C   UNL A   1      47.094  27.947  35.362  1.00  0.00     0.001 A 
ATOM     67  C   UNL A   1      45.742  26.048  35.995  1.00  0.00     0.001 A 
ATOM     68  C   UNL A   1      46.954  26.735  36.036  1.00  0.00     0.000 A 
ENDBRANCH  49  63
BRANCH  50  69
ATOM     69  C   UNL A   1      37.138  31.081  29.113  1.00  0.00    -0.014 A 
ATOM     70  C   UNL A   1      37.070  32.417  28.692  1.00  0.00     0.009 A 
ATOM     71  C   UNL A   1      36.070  30.221  28.808  1.00  0.00     0.009 A 
ATOM     72  C   UNL A   1      35.944  32.889  28.012  1.00  0.00     0.001 A 
ATOM     73  C   UNL A   1      34.963  30.686  28.098  1.00  0.00     0.001 A 
ATOM     74  C   UNL A   1      34.894  32.023  27.712  1.00  0.00     0.000 A 
ENDBRANCH  50  69
BRANCH  62  75
ATOM     75  C   UNL A   1      39.098  32.066  35.722  1.00  0.00    -0.014 A 
ATOM     76  C   UNL A   1      38.218  31.518  36.669  1.00  0.00     0.009 A 
ATOM     77  C   UNL A   1      39.468  33.415  35.845  1.00  0.00     0.009 A 
ATOM     78  C   UNL A   1      37.688  32.315  37.687  1.00  0.00     0.001 A 
ATOM     79  C   UNL A   1      38.965  34.200  36.884  1.00  0.00     0.001 A 
ATOM     80  C   UNL A   1      38.065  33.652  37.796  1.00  0.00     0.000 A 
ENDBRANCH  62  75
ENDBRANCH  36  37
ENDBRANCH  29  31
ENDBRANCH  28  29
ENDBRANCH  27  28
ENDBRANCH   1  27
TORSDOF 16
ENDMDL
MODEL 3
REMARK VINA RESULT:     -11.0      3.791      6.045
REMARK SMILES NS(=O)(=O)c1ccc(/N=N/c2ccc(O)c(C(=O)OCCOC(=O)c3ccc(-c4c5nc(c(-c6ccccc6)c6ccc([nH]6)c(-c6ccccc6)c6nc(c(-c7ccccc7)c7ccc4[nH]7)C=C6)C=C5)cc3)c2)cc1
REMARK SMILES IDX 20 1 19 2 17 3 18 4 16 5 11 6 12 7 73 8 13 9 14 10 10 11
REMARK SMILES IDX 9 12 8 13 5 14 6 15 75 16 7 17 74 18 2 19 3 20 4 21 1 22
REMARK SMILES IDX 15 25 21 27 22 28 23 29 24 30 25 31 26 32 72 33 27 34 71 35
REMARK SMILES IDX 28 36 29 37 30 38 65 39 31 40 70 41 64 42 66 43 32 44 69 45
REMARK SMILES IDX 63 46 62 47 33 49 55 50 40 51 54 52 41 53 44 54 53 55 67 56
REMARK SMILES IDX 42 57 43 58 52 60 68 61 45 62 34 63 35 64 39 65 36 66 38 67
REMARK SMILES IDX 37 68 56 69 57 70 61 71 58 72 60 73 59 74 46 75 47 76 51 77
REMARK SMILES IDX 48 78 50 79 49 80
REMARK H PARENT 1 23 1 24 15 26 66 48 44 59
REMARK Flexibility Score: inf
ROOT
ATOM      1  C   UNL A   1      33.839  34.329  28.933  1.00  0.00     0.275 C 
ENDROOT
BRANCH   1   2
ATOM      2  O   UNL A   1      34.572  34.868  30.050  1.00  0.00    -0.458 OA
BRANCH   2   3
ATOM      3  C   UNL A   1      33.986  34.776  31.267  1.00  0.00     0.342 C 
ATOM      4  O   UNL A   1      32.805  34.956  31.526  1.00  0.00    -0.246 OA
BRANCH   3   5
ATOM      5  C   UNL A   1      34.947  34.299  32.291  1.00  0.00     0.104 A 
ATOM      6  C   UNL A   1      36.760  32.831  32.983  1.00  0.00     0.087 A 
ATOM      7  C   UNL A   1      36.571  33.239  34.309  1.00  0.00     0.034 A 
ATOM      8  C   UNL A   1      35.923  33.345  31.983  1.00  0.00     0.049 A 
ATOM      9  C   UNL A   1      35.619  34.208  34.624  1.00  0.00     0.049 A 
ATOM     10  C   UNL A   1      34.834  34.758  33.613  1.00  0.00     0.130 A 
BRANCH   6  11
ATOM     11  N   UNL A   1      37.760  31.891  32.688  1.00  0.00    -0.151 NA
ATOM     12  N   UNL A   1      38.560  31.805  33.645  1.00  0.00    -0.151 NA
BRANCH  12  13
ATOM     13  C   UNL A   1      39.564  30.834  33.454  1.00  0.00     0.086 A 
ATOM     14  C   UNL A   1      41.649  28.964  33.251  1.00  0.00     0.082 A 
ATOM     15  C   UNL A   1      41.909  30.235  33.767  1.00  0.00     0.024 A 
ATOM     16  C   UNL A   1      40.366  28.620  32.824  1.00  0.00     0.024 A 
ATOM     17  C   UNL A   1      40.866  31.161  33.865  1.00  0.00     0.031 A 
ATOM     18  C   UNL A   1      39.330  29.552  32.932  1.00  0.00     0.031 A 
BRANCH  14  19
ATOM     19  S   UNL A   1      42.949  27.774  33.133  1.00  0.00     0.238 S 
ATOM     20  O   UNL A   1      42.606  26.621  33.937  1.00  0.00    -0.207 OA
ATOM     21  O   UNL A   1      44.210  28.461  33.250  1.00  0.00    -0.207 OA
BRANCH  19  22
ATOM     22  N   UNL A   1      42.846  27.241  31.543  1.00  0.00    -0.225 NA
ATOM     23  H   UNL A   1      43.601  27.654  30.996  1.00  0.00     0.137 HD
ATOM     24  H   UNL A   1      41.948  27.522  31.149  1.00  0.00     0.137 HD
ENDBRANCH  19  22
ENDBRANCH  14  19
ENDBRANCH  12  13
ENDBRANCH   6  11
BRANCH  10  25
ATOM     25  O   UNL A   1      33.932  35.710  34.007  1.00  0.00    -0.507 OA
ATOM     26  H   UNL A   1      33.028  35.623  33.777  1.00  0.00     0.293 HD
ENDBRANCH  10  25
ENDBRANCH   3   5
ENDBRANCH   2   3
ENDBRANCH   1   2
BRANCH   1  27
ATOM     27  C   UNL A   1      34.585  33.155  28.291  1.00  0.00     0.275 C 
BRANCH  27  28
ATOM     28  O   UNL A   1      34.421  31.945  29.058  1.00  0.00    -0.458 OA
BRANCH  28  29
ATOM     29  C   UNL A   1      34.477  30.798  28.339  1.00  0.00     0.338 C 
ATOM     30  O   UNL A   1      33.605  30.335  27.622  1.00  0.00    -0.246 OA
BRANCH  29  31
ATOM     31  C   UNL A   1      35.848  30.258  28.376  1.00  0.00     0.060 A 
ATOM     32  C   UNL A   1      36.325  29.849  29.621  1.00  0.00     0.016 A 
ATOM     33  C   UNL A   1      36.673  30.190  27.253  1.00  0.00     0.016 A 
ATOM     34  C   UNL A   1      37.605  29.323  29.755  1.00  0.00     0.010 A 
ATOM     35  C   UNL A   1      37.980  29.695  27.393  1.00  0.00     0.010 A 
ATOM     36  C   UNL A   1      38.452  29.257  28.645  1.00  0.00    -0.014 A 
BRANCH  36  37
ATOM     37  C   UNL A   1      39.857  28.825  28.842  1.00  0.00     0.031 A 
ATOM     38  C   UNL A   1      40.850  29.786  29.431  1.00  0.00     0.074 A 
ATOM     39  C   UNL A   1      40.230  27.560  28.572  1.00  0.00     0.049 A 
ATOM     40  N   UNL A   1      42.126  29.618  29.668  1.00  0.00    -0.248 NA
ATOM     41  C   UNL A   1      40.333  31.110  29.809  1.00  0.00     0.031 C 
ATOM     42  C   UNL A   1      39.346  26.502  28.085  1.00  0.00     0.029 A 
ATOM     43  N   UNL A   1      41.457  26.951  28.681  1.00  0.00    -0.354 N 
ATOM     44  C   UNL A   1      42.567  30.817  30.215  1.00  0.00     0.074 A 
ATOM     45  C   UNL A   1      41.428  31.710  30.250  1.00  0.00     0.031 C 
ATOM     46  C   UNL A   1      40.060  25.373  27.936  1.00  0.00     0.029 A 
ATOM     47  C   UNL A   1      41.456  25.640  28.273  1.00  0.00     0.049 A 
ATOM     48  H   UNL A   1      42.258  27.411  29.020  1.00  0.00     0.167 HD
ATOM     49  C   UNL A   1      43.808  31.144  30.650  1.00  0.00     0.031 A 
ATOM     50  C   UNL A   1      42.472  24.761  28.160  1.00  0.00     0.031 A 
ATOM     51  C   UNL A   1      44.945  30.262  30.602  1.00  0.00     0.049 A 
ATOM     52  C   UNL A   1      43.865  25.188  28.543  1.00  0.00     0.074 A 
ATOM     53  C   UNL A   1      46.246  30.510  31.009  1.00  0.00     0.029 A 
ATOM     54  N   UNL A   1      44.921  28.966  30.110  1.00  0.00    -0.354 N 
ATOM     55  N   UNL A   1      44.275  26.326  29.048  1.00  0.00    -0.248 NA
ATOM     56  C   UNL A   1      44.936  24.201  28.342  1.00  0.00     0.031 C 
ATOM     57  C   UNL A   1      47.022  29.389  30.701  1.00  0.00     0.029 A 
ATOM     58  C   UNL A   1      46.191  28.413  30.174  1.00  0.00     0.049 A 
ATOM     59  H   UNL A   1      44.122  28.508  29.765  1.00  0.00     0.167 HD
ATOM     60  C   UNL A   1      45.640  26.179  29.260  1.00  0.00     0.074 A 
ATOM     61  C   UNL A   1      45.986  24.836  28.842  1.00  0.00     0.031 C 
ATOM     62  C   UNL A   1      46.527  27.075  29.758  1.00  0.00     0.031 A 
BRANCH  49  63
ATOM     63  C   UNL A   1      44.010  32.542  31.166  1.00  0.00    -0.014 A 
ATOM     64  C   UNL A   1      44.260  33.618  30.298  1.00  0.00     0.009 A 
ATOM     65  C   UNL A   1      43.925  32.790  32.544  1.00  0.00     0.009 A 
ATOM     66  C   UNL A   1      44.458  34.904  30.807  1.00  0.00     0.001 A 
ATOM     67  C   UNL A   1      44.091  34.081  33.047  1.00  0.00     0.001 A 
ATOM     68  C   UNL A   1      44.369  35.135  32.179  1.00  0.00     0.000 A 
ENDBRANCH  49  63
BRANCH  50  69
ATOM     69  C   UNL A   1      42.227  23.394  27.622  1.00  0.00    -0.014 A 
ATOM     70  C   UNL A   1      42.397  23.116  26.258  1.00  0.00     0.009 A 
ATOM     71  C   UNL A   1      41.776  22.370  28.471  1.00  0.00     0.009 A 
ATOM     72  C   UNL A   1      42.089  21.851  25.750  1.00  0.00     0.001 A 
ATOM     73  C   UNL A   1      41.502  21.098  27.966  1.00  0.00     0.001 A 
ATOM     74  C   UNL A   1      41.646  20.842  26.605  1.00  0.00     0.000 A 
ENDBRANCH  50  69
BRANCH  62  75
ATOM     75  C   UNL A   1      47.951  26.617  29.932  1.00  0.00    -0.014 A 
ATOM     76  C   UNL A   1      48.931  26.861  28.956  1.00  0.00     0.009 A 
ATOM     77  C   UNL A   1      48.324  25.951  31.112  1.00  0.00     0.009 A 
ATOM     78  C   UNL A   1      50.241  26.410  29.140  1.00  0.00     0.001 A 
ATOM     79  C   UNL A   1      49.641  25.534  31.308  1.00  0.00     0.001 A 
ATOM     80  C   UNL A   1      50.595  25.752  30.317  1.00  0.00     0.000 A 
ENDBRANCH  62  75
ENDBRANCH  36  37
ENDBRANCH  29  31
ENDBRANCH  28  29
ENDBRANCH  27  28
ENDBRANCH   1  27
TORSDOF 16
ENDMDL
