MODEL 1
REMARK VINA RESULT:     -10.3      0.000      0.000
REMARK SMILES COc1ccc2cc([C@H](C)C(=O)OCCOC(=O)c3ccc(-c4c5nc(c(-c6ccccc6)c6ccc([nH]6)c(-c6ccccc6)c6nc(c(-c7ccccc7)c7ccc4[nH]7)C=C6)C=C5)cc3)ccc2c1
REMARK SMILES IDX 14 1 13 2 11 3 12 4 9 5 10 6 8 7 3 8 4 9 70 10 5 11 69 12
REMARK SMILES IDX 6 13 68 14 7 15 67 16 2 17 1 18 15 19 16 20 17 21 18 22
REMARK SMILES IDX 19 23 20 24 66 25 21 26 65 27 22 28 23 29 24 30 59 31 25 32
REMARK SMILES IDX 64 33 58 34 60 35 26 36 63 37 57 38 56 39 27 41 49 42 34 43
REMARK SMILES IDX 48 44 35 45 38 46 47 47 61 48 36 49 37 50 46 52 62 53 39 54
REMARK SMILES IDX 28 55 29 56 33 57 30 58 32 59 31 60 50 61 51 62 55 63 52 64
REMARK SMILES IDX 54 65 53 66 40 67 41 68 45 69 42 70 44 71 43 72
REMARK H PARENT 60 40 38 51
REMARK Flexibility Score: inf
ROOT
ATOM      1  C   UNL A   1      33.830  35.643  29.056  1.00  0.00     0.274 C 
ENDROOT
BRANCH   1   2
ATOM      2  O   UNL A   1      33.440  34.317  28.651  1.00  0.00    -0.462 OA
BRANCH   2   3
ATOM      3  C   UNL A   1      34.242  33.306  29.081  1.00  0.00     0.313 C 
ATOM      4  O   UNL A   1      34.203  32.823  30.209  1.00  0.00    -0.252 OA
BRANCH   3   5
ATOM      5  C   UNL A   1      35.236  32.835  28.020  1.00  0.00     0.126 C 
ATOM      6  C   UNL A   1      36.689  33.157  28.369  1.00  0.00     0.025 C 
BRANCH   5   7
ATOM      7  C   UNL A   1      34.946  31.402  27.612  1.00  0.00    -0.033 A 
ATOM      8  C   UNL A   1      32.585  27.120  26.234  1.00  0.00     0.119 A 
ATOM      9  C   UNL A   1      31.603  28.107  26.259  1.00  0.00     0.047 A 
ATOM     10  C   UNL A   1      33.900  27.437  26.575  1.00  0.00     0.055 A 
ATOM     11  C   UNL A   1      31.944  29.418  26.592  1.00  0.00     0.012 A 
ATOM     12  C   UNL A   1      34.260  28.751  26.908  1.00  0.00    -0.015 A 
ATOM     13  C   UNL A   1      33.269  29.753  26.914  1.00  0.00    -0.018 A 
ATOM     14  C   UNL A   1      35.580  29.090  27.243  1.00  0.00     0.009 A 
ATOM     15  C   UNL A   1      33.625  31.064  27.259  1.00  0.00     0.013 A 
ATOM     16  C   UNL A   1      35.919  30.400  27.596  1.00  0.00     0.005 A 
BRANCH   8  17
ATOM     17  O   UNL A   1      32.345  25.804  25.943  1.00  0.00    -0.497 OA
ATOM     18  C   UNL A   1      32.423  25.496  24.554  1.00  0.00     0.278 C 
ENDBRANCH   8  17
ENDBRANCH   5   7
ENDBRANCH   3   5
ENDBRANCH   2   3
ENDBRANCH   1   2
BRANCH   1  19
ATOM     19  C   UNL A   1      32.774  36.310  29.944  1.00  0.00     0.275 C 
BRANCH  19  20
ATOM     20  O   UNL A   1      32.389  35.471  31.050  1.00  0.00    -0.458 OA
BRANCH  20  21
ATOM     21  C   UNL A   1      32.776  35.916  32.268  1.00  0.00     0.338 C 
ATOM     22  O   UNL A   1      32.227  36.755  32.959  1.00  0.00    -0.246 OA
BRANCH  21  23
ATOM     23  C   UNL A   1      33.927  35.133  32.742  1.00  0.00     0.060 A 
ATOM     24  C   UNL A   1      35.204  35.663  32.546  1.00  0.00     0.016 A 
ATOM     25  C   UNL A   1      33.765  33.853  33.272  1.00  0.00     0.016 A 
ATOM     26  C   UNL A   1      36.332  34.921  32.877  1.00  0.00     0.010 A 
ATOM     27  C   UNL A   1      34.900  33.105  33.603  1.00  0.00     0.010 A 
ATOM     28  C   UNL A   1      36.189  33.630  33.395  1.00  0.00    -0.014 A 
BRANCH  28  29
ATOM     29  C   UNL A   1      37.395  32.814  33.660  1.00  0.00     0.031 A 
ATOM     30  C   UNL A   1      38.163  33.012  34.934  1.00  0.00     0.074 A 
ATOM     31  C   UNL A   1      37.786  31.884  32.769  1.00  0.00     0.049 A 
ATOM     32  N   UNL A   1      39.288  32.462  35.314  1.00  0.00    -0.248 NA
ATOM     33  C   UNL A   1      37.590  33.953  35.912  1.00  0.00     0.031 C 
ATOM     34  C   UNL A   1      37.094  31.564  31.519  1.00  0.00     0.029 A 
ATOM     35  N   UNL A   1      38.869  31.042  32.780  1.00  0.00    -0.354 N 
ATOM     36  C   UNL A   1      39.576  33.012  36.556  1.00  0.00     0.074 A 
ATOM     37  C   UNL A   1      38.508  33.939  36.868  1.00  0.00     0.031 C 
ATOM     38  C   UNL A   1      37.776  30.599  30.879  1.00  0.00     0.029 A 
ATOM     39  C   UNL A   1      38.971  30.269  31.651  1.00  0.00     0.049 A 
ATOM     40  H   UNL A   1      39.511  30.996  33.526  1.00  0.00     0.167 HD
ATOM     41  C   UNL A   1      40.638  32.770  37.359  1.00  0.00     0.031 A 
ATOM     42  C   UNL A   1      39.937  29.414  31.264  1.00  0.00     0.031 A 
ATOM     43  C   UNL A   1      41.689  31.837  37.056  1.00  0.00     0.049 A 
ATOM     44  C   UNL A   1      41.128  29.198  32.157  1.00  0.00     0.074 A 
ATOM     45  C   UNL A   1      42.793  31.504  37.822  1.00  0.00     0.029 A 
ATOM     46  N   UNL A   1      41.765  31.086  35.895  1.00  0.00    -0.354 N 
ATOM     47  N   UNL A   1      41.385  29.721  33.331  1.00  0.00    -0.248 NA
ATOM     48  C   UNL A   1      42.161  28.274  31.668  1.00  0.00     0.031 C 
ATOM     49  C   UNL A   1      43.560  30.583  37.102  1.00  0.00     0.029 A 
ATOM     50  C   UNL A   1      42.911  30.309  35.910  1.00  0.00     0.049 A 
ATOM     51  H   UNL A   1      41.102  31.102  35.167  1.00  0.00     0.167 HD
ATOM     52  C   UNL A   1      42.600  29.178  33.727  1.00  0.00     0.074 A 
ATOM     53  C   UNL A   1      43.020  28.273  32.678  1.00  0.00     0.031 C 
ATOM     54  C   UNL A   1      43.309  29.413  34.857  1.00  0.00     0.031 A 
BRANCH  41  55
ATOM     55  C   UNL A   1      40.741  33.562  38.629  1.00  0.00    -0.014 A 
ATOM     56  C   UNL A   1      40.089  33.155  39.802  1.00  0.00     0.009 A 
ATOM     57  C   UNL A   1      41.548  34.711  38.661  1.00  0.00     0.009 A 
ATOM     58  C   UNL A   1      40.227  33.896  40.978  1.00  0.00     0.001 A 
ATOM     59  C   UNL A   1      41.699  35.438  39.842  1.00  0.00     0.001 A 
ATOM     60  C   UNL A   1      41.034  35.034  40.998  1.00  0.00     0.000 A 
ENDBRANCH  41  55
BRANCH  42  61
ATOM     61  C   UNL A   1      39.849  28.738  29.945  1.00  0.00    -0.014 A 
ATOM     62  C   UNL A   1      40.239  29.399  28.771  1.00  0.00     0.009 A 
ATOM     63  C   UNL A   1      39.355  27.427  29.856  1.00  0.00     0.009 A 
ATOM     64  C   UNL A   1      40.111  28.768  27.530  1.00  0.00     0.001 A 
ATOM     65  C   UNL A   1      39.254  26.790  28.619  1.00  0.00     0.001 A 
ATOM     66  C   UNL A   1      39.623  27.463  27.456  1.00  0.00     0.000 A 
ENDBRANCH  42  61
BRANCH  54  67
ATOM     67  C   UNL A   1      44.594  28.658  35.028  1.00  0.00    -0.014 A 
ATOM     68  C   UNL A   1      44.609  27.372  35.588  1.00  0.00     0.009 A 
ATOM     69  C   UNL A   1      45.799  29.226  34.587  1.00  0.00     0.009 A 
ATOM     70  C   UNL A   1      45.812  26.679  35.729  1.00  0.00     0.001 A 
ATOM     71  C   UNL A   1      46.998  28.522  34.709  1.00  0.00     0.001 A 
ATOM     72  C   UNL A   1      47.005  27.253  35.287  1.00  0.00     0.000 A 
ENDBRANCH  54  67
ENDBRANCH  28  29
ENDBRANCH  21  23
ENDBRANCH  20  21
ENDBRANCH  19  20
ENDBRANCH   1  19
TORSDOF 13
ENDMDL
MODEL 2
REMARK VINA RESULT:     -10.2      4.310     10.414
REMARK SMILES COc1ccc2cc([C@H](C)C(=O)OCCOC(=O)c3ccc(-c4c5nc(c(-c6ccccc6)c6ccc([nH]6)c(-c6ccccc6)c6nc(c(-c7ccccc7)c7ccc4[nH]7)C=C6)C=C5)cc3)ccc2c1
REMARK SMILES IDX 14 1 13 2 11 3 12 4 9 5 10 6 8 7 3 8 4 9 70 10 5 11 69 12
REMARK SMILES IDX 6 13 68 14 7 15 67 16 2 17 1 18 15 19 16 20 17 21 18 22
REMARK SMILES IDX 19 23 20 24 66 25 21 26 65 27 22 28 23 29 24 30 59 31 25 32
REMARK SMILES IDX 64 33 58 34 60 35 26 36 63 37 57 38 56 39 27 41 49 42 34 43
REMARK SMILES IDX 48 44 35 45 38 46 47 47 61 48 36 49 37 50 46 52 62 53 39 54
REMARK SMILES IDX 28 55 29 56 33 57 30 58 32 59 31 60 50 61 51 62 55 63 52 64
REMARK SMILES IDX 54 65 53 66 40 67 41 68 45 69 42 70 44 71 43 72
REMARK H PARENT 60 40 38 51
REMARK Flexibility Score: inf
ROOT
ATOM      1  C   UNL A   1      44.149  21.686  25.013  1.00  0.00     0.274 C 
ENDROOT
BRANCH   1   2
ATOM      2  O   UNL A   1      42.759  21.922  25.308  1.00  0.00    -0.462 OA
BRANCH   2   3
ATOM      3  C   UNL A   1      42.082  20.874  25.850  1.00  0.00     0.313 C 
ATOM      4  O   UNL A   1      42.064  19.742  25.376  1.00  0.00    -0.252 OA
BRANCH   3   5
ATOM      5  C   UNL A   1      41.308  21.248  27.113  1.00  0.00     0.126 C 
ATOM      6  C   UNL A   1      42.191  21.849  28.207  1.00  0.00     0.025 C 
BRANCH   5   7
ATOM      7  C   UNL A   1      40.053  22.026  26.762  1.00  0.00    -0.033 A 
ATOM      8  C   UNL A   1      35.624  23.450  24.718  1.00  0.00     0.119 A 
ATOM      9  C   UNL A   1      35.860  22.157  24.256  1.00  0.00     0.047 A 
ATOM     10  C   UNL A   1      36.553  24.072  25.554  1.00  0.00     0.055 A 
ATOM     11  C   UNL A   1      37.010  21.475  24.658  1.00  0.00     0.012 A 
ATOM     12  C   UNL A   1      37.710  23.398  25.971  1.00  0.00    -0.015 A 
ATOM     13  C   UNL A   1      37.939  22.083  25.518  1.00  0.00    -0.018 A 
ATOM     14  C   UNL A   1      38.649  24.004  26.820  1.00  0.00     0.009 A 
ATOM     15  C   UNL A   1      39.101  21.414  25.923  1.00  0.00     0.013 A 
ATOM     16  C   UNL A   1      39.810  23.328  27.207  1.00  0.00     0.005 A 
BRANCH   8  17
ATOM     17  O   UNL A   1      34.541  24.207  24.364  1.00  0.00    -0.497 OA
ATOM     18  C   UNL A   1      33.739  24.622  25.466  1.00  0.00     0.278 C 
ENDBRANCH   8  17
ENDBRANCH   5   7
ENDBRANCH   3   5
ENDBRANCH   2   3
ENDBRANCH   1   2
BRANCH   1  19
ATOM     19  C   UNL A   1      44.797  22.876  24.298  1.00  0.00     0.275 C 
BRANCH  19  20
ATOM     20  O   UNL A   1      44.030  24.085  24.453  1.00  0.00    -0.458 OA
BRANCH  20  21
ATOM     21  C   UNL A   1      44.702  25.123  25.003  1.00  0.00     0.338 C 
ATOM     22  O   UNL A   1      45.765  25.594  24.638  1.00  0.00    -0.246 OA
BRANCH  21  23
ATOM     23  C   UNL A   1      43.894  25.733  26.070  1.00  0.00     0.060 A 
ATOM     24  C   UNL A   1      44.056  27.098  26.314  1.00  0.00     0.016 A 
ATOM     25  C   UNL A   1      43.070  24.960  26.888  1.00  0.00     0.016 A 
ATOM     26  C   UNL A   1      43.399  27.705  27.378  1.00  0.00     0.010 A 
ATOM     27  C   UNL A   1      42.411  25.569  27.961  1.00  0.00     0.010 A 
ATOM     28  C   UNL A   1      42.583  26.942  28.219  1.00  0.00    -0.014 A 
BRANCH  28  29
ATOM     29  C   UNL A   1      41.959  27.579  29.401  1.00  0.00     0.031 A 
ATOM     30  C   UNL A   1      40.620  28.243  29.269  1.00  0.00     0.074 A 
ATOM     31  C   UNL A   1      42.583  27.539  30.593  1.00  0.00     0.049 A 
ATOM     32  N   UNL A   1      39.948  28.929  30.159  1.00  0.00    -0.248 NA
ATOM     33  C   UNL A   1      39.947  28.124  27.965  1.00  0.00     0.031 C 
ATOM     34  C   UNL A   1      43.862  26.879  30.858  1.00  0.00     0.029 A 
ATOM     35  N   UNL A   1      42.223  28.074  31.803  1.00  0.00    -0.354 N 
ATOM     36  C   UNL A   1      38.791  29.349  29.515  1.00  0.00     0.074 A 
ATOM     37  C   UNL A   1      38.851  28.842  28.160  1.00  0.00     0.031 C 
ATOM     38  C   UNL A   1      44.185  27.056  32.150  1.00  0.00     0.029 A 
ATOM     39  C   UNL A   1      43.159  27.877  32.787  1.00  0.00     0.049 A 
ATOM     40  H   UNL A   1      41.375  28.553  31.952  1.00  0.00     0.167 HD
ATOM     41  C   UNL A   1      37.775  30.095  30.009  1.00  0.00     0.031 A 
ATOM     42  C   UNL A   1      43.203  28.336  34.053  1.00  0.00     0.031 A 
ATOM     43  C   UNL A   1      37.709  30.583  31.360  1.00  0.00     0.049 A 
ATOM     44  C   UNL A   1      42.082  29.200  34.561  1.00  0.00     0.074 A 
ATOM     45  C   UNL A   1      36.705  31.325  31.959  1.00  0.00     0.029 A 
ATOM     46  N   UNL A   1      38.684  30.376  32.321  1.00  0.00    -0.354 N 
ATOM     47  N   UNL A   1      40.992  29.585  33.943  1.00  0.00    -0.248 NA
ATOM     48  C   UNL A   1      42.200  29.691  35.941  1.00  0.00     0.031 C 
ATOM     49  C   UNL A   1      37.096  31.604  33.273  1.00  0.00     0.029 A 
ATOM     50  C   UNL A   1      38.320  30.998  33.503  1.00  0.00     0.049 A 
ATOM     51  H   UNL A   1      39.513  29.864  32.184  1.00  0.00     0.167 HD
ATOM     52  C   UNL A   1      40.288  30.351  34.863  1.00  0.00     0.074 A 
ATOM     53  C   UNL A   1      41.064  30.361  36.085  1.00  0.00     0.031 C 
ATOM     54  C   UNL A   1      39.106  30.994  34.708  1.00  0.00     0.031 A 
BRANCH  41  55
ATOM     55  C   UNL A   1      36.669  30.469  29.067  1.00  0.00    -0.014 A 
ATOM     56  C   UNL A   1      35.759  29.514  28.590  1.00  0.00     0.009 A 
ATOM     57  C   UNL A   1      36.508  31.812  28.692  1.00  0.00     0.009 A 
ATOM     58  C   UNL A   1      34.720  29.896  27.738  1.00  0.00     0.001 A 
ATOM     59  C   UNL A   1      35.458  32.193  27.856  1.00  0.00     0.001 A 
ATOM     60  C   UNL A   1      34.569  31.234  27.375  1.00  0.00     0.000 A 
ENDBRANCH  41  55
BRANCH  42  61
ATOM     61  C   UNL A   1      44.375  28.035  34.913  1.00  0.00    -0.014 A 
ATOM     62  C   UNL A   1      45.500  28.873  34.916  1.00  0.00     0.009 A 
ATOM     63  C   UNL A   1      44.377  26.891  35.728  1.00  0.00     0.009 A 
ATOM     64  C   UNL A   1      46.614  28.557  35.698  1.00  0.00     0.001 A 
ATOM     65  C   UNL A   1      45.480  26.593  36.528  1.00  0.00     0.001 A 
ATOM     66  C   UNL A   1      46.601  27.420  36.506  1.00  0.00     0.000 A 
ENDBRANCH  42  61
BRANCH  54  67
ATOM     67  C   UNL A   1      38.570  31.735  35.898  1.00  0.00    -0.014 A 
ATOM     68  C   UNL A   1      38.669  33.132  35.985  1.00  0.00     0.009 A 
ATOM     69  C   UNL A   1      37.925  31.029  36.925  1.00  0.00     0.009 A 
ATOM     70  C   UNL A   1      38.156  33.806  37.094  1.00  0.00     0.001 A 
ATOM     71  C   UNL A   1      37.392  31.709  38.021  1.00  0.00     0.001 A 
ATOM     72  C   UNL A   1      37.515  33.095  38.109  1.00  0.00     0.000 A 
ENDBRANCH  54  67
ENDBRANCH  28  29
ENDBRANCH  21  23
ENDBRANCH  20  21
ENDBRANCH  19  20
ENDBRANCH   1  19
TORSDOF 13
ENDMDL
MODEL 3
REMARK VINA RESULT:     -10.0      4.340      9.625
REMARK SMILES COc1ccc2cc([C@H](C)C(=O)OCCOC(=O)c3ccc(-c4c5nc(c(-c6ccccc6)c6ccc([nH]6)c(-c6ccccc6)c6nc(c(-c7ccccc7)c7ccc4[nH]7)C=C6)C=C5)cc3)ccc2c1
REMARK SMILES IDX 14 1 13 2 11 3 12 4 9 5 10 6 8 7 3 8 4 9 70 10 5 11 69 12
REMARK SMILES IDX 6 13 68 14 7 15 67 16 2 17 1 18 15 19 16 20 17 21 18 22
REMARK SMILES IDX 19 23 20 24 66 25 21 26 65 27 22 28 23 29 24 30 59 31 25 32
REMARK SMILES IDX 64 33 58 34 60 35 26 36 63 37 57 38 56 39 27 41 49 42 34 43
REMARK SMILES IDX 48 44 35 45 38 46 47 47 61 48 36 49 37 50 46 52 62 53 39 54
REMARK SMILES IDX 28 55 29 56 33 57 30 58 32 59 31 60 50 61 51 62 55 63 52 64
REMARK SMILES IDX 54 65 53 66 40 67 41 68 45 69 42 70 44 71 43 72
REMARK H PARENT 60 40 38 51
REMARK Flexibility Score: inf
ROOT
ATOM      1  C   UNL A   1      44.103  21.621  25.142  1.00  0.00     0.274 C 
ENDROOT
BRANCH   1   2
ATOM      2  O   UNL A   1      42.675  21.623  25.328  1.00  0.00    -0.462 OA
BRANCH   2   3
ATOM      3  C   UNL A   1      42.189  20.688  26.188  1.00  0.00     0.313 C 
ATOM      4  O   UNL A   1      42.307  19.476  26.033  1.00  0.00    -0.252 OA
BRANCH   3   5
ATOM      5  C   UNL A   1      41.443  21.294  27.376  1.00  0.00     0.126 C 
ATOM      6  C   UNL A   1      42.358  22.039  28.348  1.00  0.00     0.025 C 
BRANCH   5   7
ATOM      7  C   UNL A   1      40.210  22.046  26.907  1.00  0.00    -0.033 A 
ATOM      8  C   UNL A   1      35.901  23.325  24.539  1.00  0.00     0.119 A 
ATOM      9  C   UNL A   1      36.160  22.005  24.176  1.00  0.00     0.047 A 
ATOM     10  C   UNL A   1      36.784  24.002  25.381  1.00  0.00     0.055 A 
ATOM     11  C   UNL A   1      37.284  21.353  24.683  1.00  0.00     0.012 A 
ATOM     12  C   UNL A   1      37.916  23.359  25.903  1.00  0.00    -0.015 A 
ATOM     13  C   UNL A   1      38.167  22.017  25.550  1.00  0.00    -0.018 A 
ATOM     14  C   UNL A   1      38.809  24.020  26.760  1.00  0.00     0.009 A 
ATOM     15  C   UNL A   1      39.304  21.378  26.060  1.00  0.00     0.013 A 
ATOM     16  C   UNL A   1      39.946  23.373  27.253  1.00  0.00     0.005 A 
BRANCH   8  17
ATOM     17  O   UNL A   1      34.840  24.055  24.077  1.00  0.00    -0.497 OA
ATOM     18  C   UNL A   1      34.073  23.393  23.076  1.00  0.00     0.278 C 
ENDBRANCH   8  17
ENDBRANCH   5   7
ENDBRANCH   3   5
ENDBRANCH   2   3
ENDBRANCH   1   2
BRANCH   1  19
ATOM     19  C   UNL A   1      44.565  22.752  24.216  1.00  0.00     0.275 C 
BRANCH  19  20
ATOM     20  O   UNL A   1      43.917  24.002  24.521  1.00  0.00    -0.458 OA
BRANCH  20  21
ATOM     21  C   UNL A   1      44.727  24.958  25.030  1.00  0.00     0.338 C 
ATOM     22  O   UNL A   1      45.857  25.239  24.673  1.00  0.00    -0.246 OA
BRANCH  21  23
ATOM     23  C   UNL A   1      43.998  25.747  26.035  1.00  0.00     0.060 A 
ATOM     24  C   UNL A   1      44.346  27.091  26.189  1.00  0.00     0.016 A 
ATOM     25  C   UNL A   1      43.064  25.155  26.885  1.00  0.00     0.016 A 
ATOM     26  C   UNL A   1      43.767  27.857  27.194  1.00  0.00     0.010 A 
ATOM     27  C   UNL A   1      42.483  25.924  27.898  1.00  0.00     0.010 A 
ATOM     28  C   UNL A   1      42.841  27.275  28.066  1.00  0.00    -0.014 A 
BRANCH  28  29
ATOM     29  C   UNL A   1      42.297  28.073  29.188  1.00  0.00     0.031 A 
ATOM     30  C   UNL A   1      43.021  28.101  30.502  1.00  0.00     0.074 A 
ATOM     31  C   UNL A   1      41.169  28.788  29.019  1.00  0.00     0.049 A 
ATOM     32  N   UNL A   1      42.666  28.666  31.628  1.00  0.00    -0.248 NA
ATOM     33  C   UNL A   1      44.315  27.401  30.559  1.00  0.00     0.031 C 
ATOM     34  C   UNL A   1      40.404  28.882  27.775  1.00  0.00     0.029 A 
ATOM     35  N   UNL A   1      40.469  29.566  29.905  1.00  0.00    -0.354 N 
ATOM     36  C   UNL A   1      43.674  28.363  32.535  1.00  0.00     0.074 A 
ATOM     37  C   UNL A   1      44.655  27.566  31.829  1.00  0.00     0.031 C 
ATOM     38  C   UNL A   1      39.333  29.668  27.980  1.00  0.00     0.029 A 
ATOM     39  C   UNL A   1      39.316  30.093  29.377  1.00  0.00     0.049 A 
ATOM     40  H   UNL A   1      40.764  29.733  30.830  1.00  0.00     0.167 HD
ATOM     41  C   UNL A   1      43.768  28.714  33.839  1.00  0.00     0.031 A 
ATOM     42  C   UNL A   1      38.337  30.809  29.962  1.00  0.00     0.031 A 
ATOM     43  C   UNL A   1      42.801  29.520  34.534  1.00  0.00     0.049 A 
ATOM     44  C   UNL A   1      38.446  31.147  31.424  1.00  0.00     0.074 A 
ATOM     45  C   UNL A   1      42.825  29.950  35.850  1.00  0.00     0.029 A 
ATOM     46  N   UNL A   1      41.639  30.020  33.969  1.00  0.00    -0.354 N 
ATOM     47  N   UNL A   1      39.407  30.859  32.268  1.00  0.00    -0.248 NA
ATOM     48  C   UNL A   1      37.334  31.908  32.011  1.00  0.00     0.031 C 
ATOM     49  C   UNL A   1      41.653  30.674  36.092  1.00  0.00     0.029 A 
ATOM     50  C   UNL A   1      40.924  30.732  34.915  1.00  0.00     0.049 A 
ATOM     51  H   UNL A   1      41.364  29.887  33.033  1.00  0.00     0.167 HD
ATOM     52  C   UNL A   1      39.023  31.415  33.481  1.00  0.00     0.074 A 
ATOM     53  C   UNL A   1      37.752  32.073  33.258  1.00  0.00     0.031 C 
ATOM     54  C   UNL A   1      39.662  31.380  34.674  1.00  0.00     0.031 A 
BRANCH  41  55
ATOM     55  C   UNL A   1      44.938  28.188  34.615  1.00  0.00    -0.014 A 
ATOM     56  C   UNL A   1      46.131  28.919  34.727  1.00  0.00     0.009 A 
ATOM     57  C   UNL A   1      44.825  26.961  35.287  1.00  0.00     0.009 A 
ATOM     58  C   UNL A   1      47.195  28.418  35.482  1.00  0.00     0.001 A 
ATOM     59  C   UNL A   1      45.882  26.473  36.055  1.00  0.00     0.001 A 
ATOM     60  C   UNL A   1      47.068  27.199  36.147  1.00  0.00     0.000 A 
ENDBRANCH  41  55
BRANCH  42  61
ATOM     61  C   UNL A   1      37.140  31.210  29.181  1.00  0.00    -0.014 A 
ATOM     62  C   UNL A   1      36.998  32.522  28.705  1.00  0.00     0.009 A 
ATOM     63  C   UNL A   1      36.122  30.279  28.922  1.00  0.00     0.009 A 
ATOM     64  C   UNL A   1      35.847  32.900  28.009  1.00  0.00     0.001 A 
ATOM     65  C   UNL A   1      34.986  30.652  28.203  1.00  0.00     0.001 A 
ATOM     66  C   UNL A   1      34.845  31.964  27.755  1.00  0.00     0.000 A 
ENDBRANCH  42  61
BRANCH  54  67
ATOM     67  C   UNL A   1      39.011  32.097  35.820  1.00  0.00    -0.014 A 
ATOM     68  C   UNL A   1      38.170  31.418  36.714  1.00  0.00     0.009 A 
ATOM     69  C   UNL A   1      39.273  33.460  36.027  1.00  0.00     0.009 A 
ATOM     70  C   UNL A   1      37.580  32.098  37.781  1.00  0.00     0.001 A 
ATOM     71  C   UNL A   1      38.700  34.132  37.108  1.00  0.00     0.001 A 
ATOM     72  C   UNL A   1      37.848  33.454  37.979  1.00  0.00     0.000 A 
ENDBRANCH  54  67
ENDBRANCH  28  29
ENDBRANCH  21  23
ENDBRANCH  20  21
ENDBRANCH  19  20
ENDBRANCH   1  19
TORSDOF 13
ENDMDL
