MODEL 1
REMARK VINA RESULT:     -14.2      0.000      0.000
REMARK SMILES O=C(OCCOC(=O)c1ccc(-c2c3nc(c(-c4ccccc4)c4ccc([nH]4)c(-c4ccccc4)c4nc(c(-c5ccccc5)c5ccc2[nH]5)C=C4)C=C3)cc1)C1=Cc2cc(C(F)(F)F)ccc2O[C@@H]1C(F)(F)F
REMARK SMILES IDX 5 1 4 2 3 3 2 4 1 5 57 6 58 7 70 8 59 9 69 10 60 11 68 12
REMARK SMILES IDX 61 13 67 14 66 15 71 16 72 17 73 18 74 19 62 20 63 21 64 22
REMARK SMILES IDX 65 23 6 24 7 25 8 26 9 27 10 28 56 29 11 30 55 31 12 32
REMARK SMILES IDX 13 33 14 34 49 35 15 36 54 37 48 38 50 39 16 40 53 41 47 42
REMARK SMILES IDX 46 43 17 45 39 46 24 47 38 48 25 49 28 50 37 51 51 52 26 53
REMARK SMILES IDX 27 54 36 56 52 57 29 58 18 59 19 60 23 61 20 62 22 63 21 64
REMARK SMILES IDX 40 65 41 66 45 67 42 68 44 69 43 70 30 71 31 72 35 73 32 74
REMARK SMILES IDX 34 75 33 76
REMARK H PARENT 50 44 28 55
REMARK Flexibility Score: inf
ROOT
ATOM      1  C   UNL A   1      31.332  32.265  26.711  1.00  0.00     0.275 C 
ENDROOT
BRANCH   1   2
ATOM      2  C   UNL A   1      32.086  30.231  26.504  1.00  0.00     0.275 C 
BRANCH   2   3
ATOM      3  O   UNL A   1      31.466  29.100  25.713  1.00  0.00    -0.459 OA
BRANCH   3   4
ATOM      4  C   UNL A   1      31.396  27.986  26.443  1.00  0.00     0.338 C 
ATOM      5  O   UNL A   1      31.535  27.864  27.637  1.00  0.00    -0.246 OA
BRANCH   4   6
ATOM      6  C   UNL A   1      31.629  27.024  25.373  1.00  0.00     0.087 C 
ATOM      7  C   UNL A   1      32.967  26.564  25.200  1.00  0.00     0.027 C 
ATOM      8  C   UNL A   1      30.168  25.945  25.945  1.00  0.00     0.316 C 
ATOM      9  C   UNL A   1      33.553  25.011  25.732  1.00  0.00     0.018 A 
ATOM     10  O   UNL A   1      30.807  24.272  26.753  1.00  0.00    -0.475 OA
ATOM     11  C   UNL A   1      34.855  24.763  25.464  1.00  0.00     0.025 A 
ATOM     12  C   UNL A   1      32.614  23.895  26.651  1.00  0.00     0.128 A 
ATOM     13  C   UNL A   1      35.381  23.620  26.075  1.00  0.00     0.056 A 
ATOM     14  C   UNL A   1      33.179  22.798  27.233  1.00  0.00     0.048 A 
ATOM     15  C   UNL A   1      34.588  22.711  26.936  1.00  0.00     0.017 A 
BRANCH   8  16
ATOM     16  C   UNL A   1      29.509  26.386  24.411  1.00  0.00     0.430 C 
ATOM     17  F   UNL A   1      29.833  25.476  23.488  1.00  0.00    -0.167 F 
ATOM     18  F   UNL A   1      28.135  26.303  24.378  1.00  0.00    -0.167 F 
ATOM     19  F   UNL A   1      29.694  27.636  23.944  1.00  0.00    -0.167 F 
ENDBRANCH   8  16
BRANCH  13  20
ATOM     20  C   UNL A   1      36.854  23.409  25.752  1.00  0.00     0.416 C 
ATOM     21  F   UNL A   1      37.658  24.142  26.574  1.00  0.00    -0.166 F 
ATOM     22  F   UNL A   1      37.234  22.111  25.950  1.00  0.00    -0.166 F 
ATOM     23  F   UNL A   1      37.208  23.717  24.482  1.00  0.00    -0.166 F 
ENDBRANCH  13  20
ENDBRANCH   4   6
ENDBRANCH   3   4
ENDBRANCH   2   3
ENDBRANCH   1   2
BRANCH   1  24
ATOM     24  O   UNL A   1      32.394  33.604  27.242  1.00  0.00    -0.458 OA
BRANCH  24  25
ATOM     25  C   UNL A   1      33.183  34.000  28.322  1.00  0.00     0.338 C 
ATOM     26  O   UNL A   1      32.855  34.574  29.348  1.00  0.00    -0.246 OA
BRANCH  25  27
ATOM     27  C   UNL A   1      34.437  33.171  28.290  1.00  0.00     0.060 A 
ATOM     28  C   UNL A   1      35.690  33.818  28.402  1.00  0.00     0.016 A 
ATOM     29  C   UNL A   1      34.343  31.809  28.560  1.00  0.00     0.016 A 
ATOM     30  C   UNL A   1      36.776  33.148  29.010  1.00  0.00     0.010 A 
ATOM     31  C   UNL A   1      35.409  31.161  29.193  1.00  0.00     0.010 A 
ATOM     32  C   UNL A   1      36.606  31.842  29.498  1.00  0.00    -0.014 A 
BRANCH  32  33
ATOM     33  C   UNL A   1      37.747  31.054  30.039  1.00  0.00     0.031 A 
ATOM     34  C   UNL A   1      38.039  31.330  31.484  1.00  0.00     0.074 A 
ATOM     35  C   UNL A   1      38.546  30.224  29.331  1.00  0.00     0.049 A 
ATOM     36  N   UNL A   1      39.023  30.927  32.235  1.00  0.00    -0.248 NA
ATOM     37  C   UNL A   1      37.094  32.247  32.151  1.00  0.00     0.031 C 
ATOM     38  C   UNL A   1      38.397  29.862  27.920  1.00  0.00     0.029 A 
ATOM     39  N   UNL A   1      39.678  29.533  29.718  1.00  0.00    -0.354 N 
ATOM     40  C   UNL A   1      38.818  31.558  33.453  1.00  0.00     0.074 A 
ATOM     41  C   UNL A   1      37.685  32.437  33.311  1.00  0.00     0.031 C 
ATOM     42  C   UNL A   1      39.391  29.017  27.568  1.00  0.00     0.029 A 
ATOM     43  C   UNL A   1      40.269  28.793  28.715  1.00  0.00     0.049 A 
ATOM     44  H   UNL A   1      40.034  29.566  30.636  1.00  0.00     0.167 HD
ATOM     45  C   UNL A   1      39.486  31.397  34.613  1.00  0.00     0.031 A 
ATOM     46  C   UNL A   1      41.389  28.031  28.731  1.00  0.00     0.031 A 
ATOM     47  C   UNL A   1      40.627  30.548  34.752  1.00  0.00     0.049 A 
ATOM     48  C   UNL A   1      42.175  27.919  30.024  1.00  0.00     0.074 A 
ATOM     49  C   UNL A   1      41.381  30.300  35.880  1.00  0.00     0.029 A 
ATOM     50  N   UNL A   1      41.185  29.819  33.713  1.00  0.00    -0.354 N 
ATOM     51  N   UNL A   1      41.926  28.458  31.195  1.00  0.00    -0.248 NA
ATOM     52  C   UNL A   1      43.389  27.085  30.003  1.00  0.00     0.031 C 
ATOM     53  C   UNL A   1      42.444  29.475  35.507  1.00  0.00     0.029 A 
ATOM     54  C   UNL A   1      42.298  29.141  34.168  1.00  0.00     0.049 A 
ATOM     55  H   UNL A   1      40.840  29.789  32.791  1.00  0.00     0.167 HD
ATOM     56  C   UNL A   1      42.922  27.998  32.052  1.00  0.00     0.074 A 
ATOM     57  C   UNL A   1      43.774  27.127  31.271  1.00  0.00     0.031 C 
ATOM     58  C   UNL A   1      43.117  28.267  33.367  1.00  0.00     0.031 A 
BRANCH  45  59
ATOM     59  C   UNL A   1      38.994  32.203  35.778  1.00  0.00    -0.014 A 
ATOM     60  C   UNL A   1      39.480  33.501  36.023  1.00  0.00     0.009 A 
ATOM     61  C   UNL A   1      38.106  31.623  36.692  1.00  0.00     0.009 A 
ATOM     62  C   UNL A   1      39.134  34.173  37.194  1.00  0.00     0.001 A 
ATOM     63  C   UNL A   1      37.728  32.317  37.840  1.00  0.00     0.001 A 
ATOM     64  C   UNL A   1      38.256  33.582  38.100  1.00  0.00     0.000 A 
ENDBRANCH  45  59
BRANCH  46  65
ATOM     65  C   UNL A   1      41.869  27.307  27.510  1.00  0.00    -0.014 A 
ATOM     66  C   UNL A   1      42.713  27.939  26.576  1.00  0.00     0.009 A 
ATOM     67  C   UNL A   1      41.423  26.007  27.222  1.00  0.00     0.009 A 
ATOM     68  C   UNL A   1      43.066  27.304  25.378  1.00  0.00     0.001 A 
ATOM     69  C   UNL A   1      41.804  25.361  26.038  1.00  0.00     0.001 A 
ATOM     70  C   UNL A   1      42.615  26.013  25.112  1.00  0.00     0.000 A 
ENDBRANCH  46  65
BRANCH  58  71
ATOM     71  C   UNL A   1      44.253  27.576  34.070  1.00  0.00    -0.014 A 
ATOM     72  C   UNL A   1      45.511  28.180  34.209  1.00  0.00     0.009 A 
ATOM     73  C   UNL A   1      44.017  26.343  34.701  1.00  0.00     0.009 A 
ATOM     74  C   UNL A   1      46.518  27.548  34.942  1.00  0.00     0.001 A 
ATOM     75  C   UNL A   1      45.009  25.733  35.466  1.00  0.00     0.001 A 
ATOM     76  C   UNL A   1      46.263  26.332  35.579  1.00  0.00     0.000 A 
ENDBRANCH  58  71
ENDBRANCH  32  33
ENDBRANCH  25  27
ENDBRANCH  24  25
ENDBRANCH   1  24
TORSDOF 13
ENDMDL
MODEL 2
REMARK VINA RESULT:     -14.0      0.860      6.081
REMARK SMILES O=C(OCCOC(=O)c1ccc(-c2c3nc(c(-c4ccccc4)c4ccc([nH]4)c(-c4ccccc4)c4nc(c(-c5ccccc5)c5ccc2[nH]5)C=C4)C=C3)cc1)C1=Cc2cc(C(F)(F)F)ccc2O[C@@H]1C(F)(F)F
REMARK SMILES IDX 5 1 4 2 3 3 2 4 1 5 57 6 58 7 70 8 59 9 69 10 60 11 68 12
REMARK SMILES IDX 61 13 67 14 66 15 71 16 72 17 73 18 74 19 62 20 63 21 64 22
REMARK SMILES IDX 65 23 6 24 7 25 8 26 9 27 10 28 56 29 11 30 55 31 12 32
REMARK SMILES IDX 13 33 14 34 49 35 15 36 54 37 48 38 50 39 16 40 53 41 47 42
REMARK SMILES IDX 46 43 17 45 39 46 24 47 38 48 25 49 28 50 37 51 51 52 26 53
REMARK SMILES IDX 27 54 36 56 52 57 29 58 18 59 19 60 23 61 20 62 22 63 21 64
REMARK SMILES IDX 40 65 41 66 45 67 42 68 44 69 43 70 30 71 31 72 35 73 32 74
REMARK SMILES IDX 34 75 33 76
REMARK H PARENT 50 44 28 55
REMARK Flexibility Score: inf
ROOT
ATOM      1  C   UNL A   1      31.261  32.087  26.878  1.00  0.00     0.275 C 
ENDROOT
BRANCH   1   2
ATOM      2  C   UNL A   1      32.082  30.071  26.844  1.00  0.00     0.275 C 
BRANCH   2   3
ATOM      3  O   UNL A   1      31.729  28.953  25.887  1.00  0.00    -0.459 OA
BRANCH   3   4
ATOM      4  C   UNL A   1      31.432  27.832  26.547  1.00  0.00     0.338 C 
ATOM      5  O   UNL A   1      31.415  27.649  27.741  1.00  0.00    -0.246 OA
BRANCH   4   6
ATOM      6  C   UNL A   1      31.661  26.887  25.460  1.00  0.00     0.087 C 
ATOM      7  C   UNL A   1      32.995  26.414  25.289  1.00  0.00     0.027 C 
ATOM      8  C   UNL A   1      30.182  25.817  26.002  1.00  0.00     0.316 C 
ATOM      9  C   UNL A   1      33.557  24.844  25.796  1.00  0.00     0.018 A 
ATOM     10  O   UNL A   1      30.795  24.121  26.783  1.00  0.00    -0.475 OA
ATOM     11  C   UNL A   1      34.858  24.584  25.533  1.00  0.00     0.025 A 
ATOM     12  C   UNL A   1      32.597  23.723  26.687  1.00  0.00     0.128 A 
ATOM     13  C   UNL A   1      35.365  23.424  26.126  1.00  0.00     0.056 A 
ATOM     14  C   UNL A   1      33.144  22.608  27.252  1.00  0.00     0.048 A 
ATOM     15  C   UNL A   1      34.553  22.509  26.964  1.00  0.00     0.017 A 
BRANCH   8  16
ATOM     16  C   UNL A   1      29.541  26.295  24.471  1.00  0.00     0.430 C 
ATOM     17  F   UNL A   1      29.801  25.365  23.548  1.00  0.00    -0.167 F 
ATOM     18  F   UNL A   1      28.164  26.297  24.449  1.00  0.00    -0.167 F 
ATOM     19  F   UNL A   1      29.799  27.530  23.999  1.00  0.00    -0.167 F 
ENDBRANCH   8  16
BRANCH  13  20
ATOM     20  C   UNL A   1      36.837  23.199  25.810  1.00  0.00     0.416 C 
ATOM     21  F   UNL A   1      37.180  21.884  25.925  1.00  0.00    -0.166 F 
ATOM     22  F   UNL A   1      37.133  23.530  24.517  1.00  0.00    -0.166 F 
ATOM     23  F   UNL A   1      37.699  23.898  26.586  1.00  0.00    -0.166 F 
ENDBRANCH  13  20
ENDBRANCH   4   6
ENDBRANCH   3   4
ENDBRANCH   2   3
ENDBRANCH   1   2
BRANCH   1  24
ATOM     24  O   UNL A   1      32.311  33.521  27.096  1.00  0.00    -0.458 OA
BRANCH  24  25
ATOM     25  C   UNL A   1      32.976  34.236  28.091  1.00  0.00     0.338 C 
ATOM     26  O   UNL A   1      32.527  35.029  28.903  1.00  0.00    -0.246 OA
BRANCH  25  27
ATOM     27  C   UNL A   1      34.268  33.519  28.373  1.00  0.00     0.060 A 
ATOM     28  C   UNL A   1      35.481  34.243  28.309  1.00  0.00     0.016 A 
ATOM     29  C   UNL A   1      34.224  32.315  29.068  1.00  0.00     0.016 A 
ATOM     30  C   UNL A   1      36.565  33.874  29.139  1.00  0.00     0.010 A 
ATOM     31  C   UNL A   1      35.286  31.973  29.913  1.00  0.00     0.010 A 
ATOM     32  C   UNL A   1      36.433  32.788  30.019  1.00  0.00    -0.014 A 
BRANCH  32  33
ATOM     33  C   UNL A   1      37.579  32.288  30.825  1.00  0.00     0.031 A 
ATOM     34  C   UNL A   1      38.365  31.205  30.148  1.00  0.00     0.074 A 
ATOM     35  C   UNL A   1      37.884  32.661  32.089  1.00  0.00     0.049 A 
ATOM     36  N   UNL A   1      39.334  30.461  30.600  1.00  0.00    -0.248 NA
ATOM     37  C   UNL A   1      37.941  30.890  28.770  1.00  0.00     0.031 C 
ATOM     38  C   UNL A   1      37.211  33.690  32.882  1.00  0.00     0.029 A 
ATOM     39  N   UNL A   1      38.858  32.186  32.947  1.00  0.00    -0.354 N 
ATOM     40  C   UNL A   1      39.617  29.584  29.563  1.00  0.00     0.074 A 
ATOM     41  C   UNL A   1      38.663  29.821  28.510  1.00  0.00     0.031 C 
ATOM     42  C   UNL A   1      37.794  33.771  34.098  1.00  0.00     0.029 A 
ATOM     43  C   UNL A   1      38.867  32.783  34.190  1.00  0.00     0.049 A 
ATOM     44  H   UNL A   1      39.495  31.479  32.690  1.00  0.00     0.167 HD
ATOM     45  C   UNL A   1      40.613  28.679  29.468  1.00  0.00     0.031 A 
ATOM     46  C   UNL A   1      39.650  32.548  35.270  1.00  0.00     0.031 A 
ATOM     47  C   UNL A   1      41.544  28.422  30.521  1.00  0.00     0.049 A 
ATOM     48  C   UNL A   1      40.718  31.474  35.175  1.00  0.00     0.074 A 
ATOM     49  C   UNL A   1      42.599  27.534  30.535  1.00  0.00     0.029 A 
ATOM     50  N   UNL A   1      41.516  29.050  31.756  1.00  0.00    -0.354 N 
ATOM     51  N   UNL A   1      41.031  30.702  34.159  1.00  0.00    -0.248 NA
ATOM     52  C   UNL A   1      41.548  31.243  36.370  1.00  0.00     0.031 C 
ATOM     53  C   UNL A   1      43.167  27.570  31.810  1.00  0.00     0.029 A 
ATOM     54  C   UNL A   1      42.520  28.545  32.556  1.00  0.00     0.049 A 
ATOM     55  H   UNL A   1      40.876  29.750  32.022  1.00  0.00     0.167 HD
ATOM     56  C   UNL A   1      42.112  29.932  34.577  1.00  0.00     0.074 A 
ATOM     57  C   UNL A   1      42.411  30.335  35.935  1.00  0.00     0.031 C 
ATOM     58  C   UNL A   1      42.801  28.979  33.901  1.00  0.00     0.031 A 
BRANCH  45  59
ATOM     59  C   UNL A   1      40.678  27.900  28.188  1.00  0.00    -0.014 A 
ATOM     60  C   UNL A   1      40.093  26.626  28.082  1.00  0.00     0.009 A 
ATOM     61  C   UNL A   1      41.414  28.407  27.110  1.00  0.00     0.009 A 
ATOM     62  C   UNL A   1      40.299  25.849  26.942  1.00  0.00     0.001 A 
ATOM     63  C   UNL A   1      41.580  27.644  25.954  1.00  0.00     0.001 A 
ATOM     64  C   UNL A   1      41.039  26.361  25.879  1.00  0.00     0.000 A 
ENDBRANCH  45  59
BRANCH  46  65
ATOM     65  C   UNL A   1      39.486  33.314  36.548  1.00  0.00    -0.014 A 
ATOM     66  C   UNL A   1      38.552  32.910  37.521  1.00  0.00     0.009 A 
ATOM     67  C   UNL A   1      40.198  34.502  36.771  1.00  0.00     0.009 A 
ATOM     68  C   UNL A   1      38.314  33.690  38.661  1.00  0.00     0.001 A 
ATOM     69  C   UNL A   1      39.983  35.264  37.927  1.00  0.00     0.001 A 
ATOM     70  C   UNL A   1      39.034  34.865  38.865  1.00  0.00     0.000 A 
ENDBRANCH  46  65
BRANCH  58  71
ATOM     71  C   UNL A   1      43.980  28.340  34.582  1.00  0.00    -0.014 A 
ATOM     72  C   UNL A   1      43.859  27.138  35.295  1.00  0.00     0.009 A 
ATOM     73  C   UNL A   1      45.257  28.903  34.409  1.00  0.00     0.009 A 
ATOM     74  C   UNL A   1      44.990  26.528  35.842  1.00  0.00     0.001 A 
ATOM     75  C   UNL A   1      46.388  28.271  34.921  1.00  0.00     0.001 A 
ATOM     76  C   UNL A   1      46.253  27.087  35.645  1.00  0.00     0.000 A 
ENDBRANCH  58  71
ENDBRANCH  32  33
ENDBRANCH  25  27
ENDBRANCH  24  25
ENDBRANCH   1  24
TORSDOF 13
ENDMDL
MODEL 3
REMARK VINA RESULT:     -14.0      4.461      9.486
REMARK SMILES O=C(OCCOC(=O)c1ccc(-c2c3nc(c(-c4ccccc4)c4ccc([nH]4)c(-c4ccccc4)c4nc(c(-c5ccccc5)c5ccc2[nH]5)C=C4)C=C3)cc1)C1=Cc2cc(C(F)(F)F)ccc2O[C@@H]1C(F)(F)F
REMARK SMILES IDX 5 1 4 2 3 3 2 4 1 5 57 6 58 7 70 8 59 9 69 10 60 11 68 12
REMARK SMILES IDX 61 13 67 14 66 15 71 16 72 17 73 18 74 19 62 20 63 21 64 22
REMARK SMILES IDX 65 23 6 24 7 25 8 26 9 27 10 28 56 29 11 30 55 31 12 32
REMARK SMILES IDX 13 33 14 34 49 35 15 36 54 37 48 38 50 39 16 40 53 41 47 42
REMARK SMILES IDX 46 43 17 45 39 46 24 47 38 48 25 49 28 50 37 51 51 52 26 53
REMARK SMILES IDX 27 54 36 56 52 57 29 58 18 59 19 60 23 61 20 62 22 63 21 64
REMARK SMILES IDX 40 65 41 66 45 67 42 68 44 69 43 70 30 71 31 72 35 73 32 74
REMARK SMILES IDX 34 75 33 76
REMARK H PARENT 50 44 28 55
REMARK Flexibility Score: inf
ROOT
ATOM      1  C   UNL A   1      37.999  19.547  24.618  1.00  0.00     0.275 C 
ENDROOT
BRANCH   1   2
ATOM      2  C   UNL A   1      36.235  20.763  25.008  1.00  0.00     0.275 C 
BRANCH   2   3
ATOM      3  O   UNL A   1      36.129  22.271  24.950  1.00  0.00    -0.459 OA
BRANCH   3   4
ATOM      4  C   UNL A   1      35.649  22.674  23.773  1.00  0.00     0.338 C 
ATOM      5  O   UNL A   1      36.264  22.969  22.776  1.00  0.00    -0.246 OA
BRANCH   4   6
ATOM      6  C   UNL A   1      34.338  23.123  24.228  1.00  0.00     0.087 C 
ATOM      7  C   UNL A   1      34.312  24.223  25.133  1.00  0.00     0.027 C 
ATOM      8  C   UNL A   1      33.668  23.156  22.446  1.00  0.00     0.316 C 
ATOM      9  C   UNL A   1      33.906  25.858  24.687  1.00  0.00     0.018 A 
ATOM     10  O   UNL A   1      33.404  25.005  21.832  1.00  0.00    -0.475 OA
ATOM     11  C   UNL A   1      33.931  26.756  25.699  1.00  0.00     0.025 A 
ATOM     12  C   UNL A   1      33.615  26.366  23.065  1.00  0.00     0.128 A 
ATOM     13  C   UNL A   1      33.819  28.094  25.309  1.00  0.00     0.056 A 
ATOM     14  C   UNL A   1      33.522  27.687  22.738  1.00  0.00     0.048 A 
ATOM     15  C   UNL A   1      33.657  28.528  23.901  1.00  0.00     0.017 A 
BRANCH   8  16
ATOM     16  C   UNL A   1      32.631  21.905  23.032  1.00  0.00     0.430 C 
ATOM     17  F   UNL A   1      31.615  22.430  23.721  1.00  0.00    -0.167 F 
ATOM     18  F   UNL A   1      31.950  21.263  22.023  1.00  0.00    -0.167 F 
ATOM     19  F   UNL A   1      33.164  20.852  23.681  1.00  0.00    -0.167 F 
ENDBRANCH   8  16
BRANCH  13  20
ATOM     20  C   UNL A   1      33.876  29.054  26.490  1.00  0.00     0.416 C 
ATOM     21  F   UNL A   1      33.458  30.304  26.140  1.00  0.00    -0.166 F 
ATOM     22  F   UNL A   1      33.035  28.668  27.496  1.00  0.00    -0.166 F 
ATOM     23  F   UNL A   1      35.100  29.193  27.052  1.00  0.00    -0.166 F 
ENDBRANCH  13  20
ENDBRANCH   4   6
ENDBRANCH   3   4
ENDBRANCH   2   3
ENDBRANCH   1   2
BRANCH   1  24
ATOM     24  O   UNL A   1      39.285  19.345  25.847  1.00  0.00    -0.458 OA
BRANCH  24  25
ATOM     25  C   UNL A   1      40.592  19.746  26.125  1.00  0.00     0.338 C 
ATOM     26  O   UNL A   1      41.635  19.393  25.601  1.00  0.00    -0.246 OA
BRANCH  25  27
ATOM     27  C   UNL A   1      40.514  21.071  26.833  1.00  0.00     0.060 A 
ATOM     28  C   UNL A   1      41.490  21.385  27.807  1.00  0.00     0.016 A 
ATOM     29  C   UNL A   1      39.769  22.094  26.255  1.00  0.00     0.016 A 
ATOM     30  C   UNL A   1      41.872  22.731  28.013  1.00  0.00     0.010 A 
ATOM     31  C   UNL A   1      40.172  23.420  26.435  1.00  0.00     0.010 A 
ATOM     32  C   UNL A   1      41.276  23.749  27.250  1.00  0.00    -0.014 A 
BRANCH  32  33
ATOM     33  C   UNL A   1      41.557  25.188  27.510  1.00  0.00     0.031 A 
ATOM     34  C   UNL A   1      42.898  25.639  27.012  1.00  0.00     0.074 A 
ATOM     35  C   UNL A   1      40.768  26.038  28.205  1.00  0.00     0.049 A 
ATOM     36  N   UNL A   1      43.518  26.773  27.175  1.00  0.00    -0.248 NA
ATOM     37  C   UNL A   1      43.664  24.624  26.263  1.00  0.00     0.031 C 
ATOM     38  C   UNL A   1      39.445  25.746  28.759  1.00  0.00     0.029 A 
ATOM     39  N   UNL A   1      40.987  27.350  28.580  1.00  0.00    -0.354 N 
ATOM     40  C   UNL A   1      44.749  26.593  26.563  1.00  0.00     0.074 A 
ATOM     41  C   UNL A   1      44.826  25.225  26.117  1.00  0.00     0.031 C 
ATOM     42  C   UNL A   1      38.974  26.842  29.392  1.00  0.00     0.029 A 
ATOM     43  C   UNL A   1      39.967  27.913  29.317  1.00  0.00     0.049 A 
ATOM     44  H   UNL A   1      41.805  27.843  28.339  1.00  0.00     0.167 HD
ATOM     45  C   UNL A   1      45.728  27.495  26.348  1.00  0.00     0.031 A 
ATOM     46  C   UNL A   1      39.859  29.146  29.868  1.00  0.00     0.031 A 
ATOM     47  C   UNL A   1      45.668  28.845  26.813  1.00  0.00     0.049 A 
ATOM     48  C   UNL A   1      41.001  30.128  29.682  1.00  0.00     0.074 A 
ATOM     49  C   UNL A   1      46.596  29.851  26.647  1.00  0.00     0.029 A 
ATOM     50  N   UNL A   1      44.617  29.368  27.551  1.00  0.00    -0.354 N 
ATOM     51  N   UNL A   1      42.131  29.972  29.032  1.00  0.00    -0.248 NA
ATOM     52  C   UNL A   1      40.851  31.458  30.297  1.00  0.00     0.031 C 
ATOM     53  C   UNL A   1      46.142  30.968  27.351  1.00  0.00     0.029 A 
ATOM     54  C   UNL A   1      44.890  30.681  27.877  1.00  0.00     0.049 A 
ATOM     55  H   UNL A   1      43.802  28.878  27.803  1.00  0.00     0.167 HD
ATOM     56  C   UNL A   1      42.801  31.189  29.124  1.00  0.00     0.074 A 
ATOM     57  C   UNL A   1      41.948  32.078  29.883  1.00  0.00     0.031 C 
ATOM     58  C   UNL A   1      44.010  31.545  28.624  1.00  0.00     0.031 A 
BRANCH  45  59
ATOM     59  C   UNL A   1      46.938  26.997  25.615  1.00  0.00    -0.014 A 
ATOM     60  C   UNL A   1      47.987  26.353  26.296  1.00  0.00     0.009 A 
ATOM     61  C   UNL A   1      47.070  27.258  24.246  1.00  0.00     0.009 A 
ATOM     62  C   UNL A   1      49.172  26.040  25.630  1.00  0.00     0.001 A 
ATOM     63  C   UNL A   1      48.240  26.903  23.574  1.00  0.00     0.001 A 
ATOM     64  C   UNL A   1      49.295  26.312  24.270  1.00  0.00     0.000 A 
ENDBRANCH  45  59
BRANCH  46  65
ATOM     65  C   UNL A   1      38.651  29.559  30.652  1.00  0.00    -0.014 A 
ATOM     66  C   UNL A   1      37.549  30.169  30.020  1.00  0.00     0.009 A 
ATOM     67  C   UNL A   1      38.619  29.426  32.049  1.00  0.00     0.009 A 
ATOM     68  C   UNL A   1      36.471  30.661  30.767  1.00  0.00     0.001 A 
ATOM     69  C   UNL A   1      37.525  29.891  32.791  1.00  0.00     0.001 A 
ATOM     70  C   UNL A   1      36.458  30.518  32.152  1.00  0.00     0.000 A 
ENDBRANCH  46  65
BRANCH  58  71
ATOM     71  C   UNL A   1      44.470  32.963  28.823  1.00  0.00    -0.014 A 
ATOM     72  C   UNL A   1      45.286  33.330  29.903  1.00  0.00     0.009 A 
ATOM     73  C   UNL A   1      44.166  33.924  27.843  1.00  0.00     0.009 A 
ATOM     74  C   UNL A   1      45.765  34.637  30.011  1.00  0.00     0.001 A 
ATOM     75  C   UNL A   1      44.678  35.217  27.932  1.00  0.00     0.001 A 
ATOM     76  C   UNL A   1      45.471  35.575  29.021  1.00  0.00     0.000 A 
ENDBRANCH  58  71
ENDBRANCH  32  33
ENDBRANCH  25  27
ENDBRANCH  24  25
ENDBRANCH   1  24
TORSDOF 13
ENDMDL
