MODEL 1
REMARK VINA RESULT:      -8.7      0.000      0.000
REMARK SMILES CCC(CC)N(CC(C)C)C(=O)N[C@H](C)C(=O)OCCOC(=O)c1ccc(-c2c3nc(c(-c4ccccc4)c4ccc([nH]4)c(-c4ccccc4)c4nc(c(-c5ccccc5)c5ccc2[nH]5)C=C4)C=C3)cc1
REMARK SMILES IDX 19 1 18 2 16 3 17 4 14 5 15 6 13 7 11 8 12 9 6 11 3 12 2 13
REMARK SMILES IDX 1 14 4 15 5 16 7 17 8 18 9 19 10 20 20 21 21 22 22 23 23 24
REMARK SMILES IDX 24 25 25 26 71 27 26 28 70 29 27 30 28 31 29 32 64 33 30 34
REMARK SMILES IDX 69 35 63 36 65 37 31 38 68 39 62 40 61 41 32 43 54 44 39 45
REMARK SMILES IDX 53 46 40 47 43 48 52 49 66 50 41 51 42 52 51 54 67 55 44 56
REMARK SMILES IDX 33 57 34 58 38 59 35 60 37 61 36 62 55 63 56 64 60 65 57 66
REMARK SMILES IDX 59 67 58 68 45 69 46 70 50 71 47 72 49 73 48 74
REMARK H PARENT 13 10 65 42 43 53
REMARK Flexibility Score: inf
ROOT
ATOM      1  C   UNL A   1      33.411  27.879  25.761  1.00  0.00     0.274 C 
ENDROOT
BRANCH   1   2
ATOM      2  O   UNL A   1      32.903  27.933  24.415  1.00  0.00    -0.461 OA
BRANCH   2   3
ATOM      3  C   UNL A   1      31.624  27.520  24.218  1.00  0.00     0.328 C 
ATOM      4  O   UNL A   1      30.684  28.270  23.969  1.00  0.00    -0.250 OA
BRANCH   3   5
ATOM      5  C   UNL A   1      31.486  25.985  24.239  1.00  0.00     0.190 C 
ATOM      6  C   UNL A   1      30.087  25.500  23.877  1.00  0.00     0.043 C 
BRANCH   5   7
ATOM      7  N   UNL A   1      32.480  25.429  23.311  1.00  0.00    -0.325 N 
ATOM      8  C   UNL A   1      33.449  24.499  23.345  1.00  0.00     0.318 C 
ATOM      9  O   UNL A   1      33.797  24.115  22.224  1.00  0.00    -0.249 OA
ATOM     10  H   UNL A   1      32.419  25.852  22.425  1.00  0.00     0.166 HD
BRANCH   8  11
ATOM     11  N   UNL A   1      34.003  24.008  24.501  1.00  0.00    -0.322 N 
BRANCH  11  12
ATOM     12  C   UNL A   1      33.301  22.910  25.227  1.00  0.00     0.086 C 
BRANCH  12  13
ATOM     13  C   UNL A   1      32.958  23.287  26.688  1.00  0.00     0.022 C 
ATOM     14  C   UNL A   1      33.631  22.389  27.717  1.00  0.00     0.006 C 
ENDBRANCH  12  13
BRANCH  12  15
ATOM     15  C   UNL A   1      32.160  22.231  24.433  1.00  0.00     0.022 C 
ATOM     16  C   UNL A   1      32.524  21.051  23.546  1.00  0.00     0.006 C 
ENDBRANCH  12  15
ENDBRANCH  11  12
BRANCH  11  17
ATOM     17  C   UNL A   1      35.318  24.366  25.043  1.00  0.00     0.124 C 
BRANCH  17  18
ATOM     18  C   UNL A   1      36.377  23.244  25.007  1.00  0.00     0.002 C 
ATOM     19  C   UNL A   1      36.764  22.779  23.603  1.00  0.00     0.009 C 
ATOM     20  C   UNL A   1      37.621  23.703  25.773  1.00  0.00     0.009 C 
ENDBRANCH  17  18
ENDBRANCH  11  17
ENDBRANCH   8  11
ENDBRANCH   5   7
ENDBRANCH   3   5
ENDBRANCH   2   3
ENDBRANCH   1   2
BRANCH   1  21
ATOM     21  C   UNL A   1      33.906  29.262  26.190  1.00  0.00     0.275 C 
BRANCH  21  22
ATOM     22  O   UNL A   1      34.005  29.377  27.624  1.00  0.00    -0.458 OA
BRANCH  22  23
ATOM     23  C   UNL A   1      34.604  30.501  28.076  1.00  0.00     0.338 C 
ATOM     24  O   UNL A   1      34.110  31.604  28.229  1.00  0.00    -0.246 OA
BRANCH  23  25
ATOM     25  C   UNL A   1      35.981  30.195  28.483  1.00  0.00     0.060 A 
ATOM     26  C   UNL A   1      36.998  30.396  27.553  1.00  0.00     0.016 A 
ATOM     27  C   UNL A   1      36.251  29.599  29.715  1.00  0.00     0.016 A 
ATOM     28  C   UNL A   1      38.287  29.944  27.826  1.00  0.00     0.010 A 
ATOM     29  C   UNL A   1      37.557  29.187  30.004  1.00  0.00     0.010 A 
ATOM     30  C   UNL A   1      38.583  29.330  29.052  1.00  0.00    -0.014 A 
BRANCH  30  31
ATOM     31  C   UNL A   1      39.952  28.818  29.324  1.00  0.00     0.031 A 
ATOM     32  C   UNL A   1      40.963  29.672  30.041  1.00  0.00     0.074 A 
ATOM     33  C   UNL A   1      40.302  27.580  28.927  1.00  0.00     0.049 A 
ATOM     34  N   UNL A   1      42.236  29.446  30.251  1.00  0.00    -0.248 NA
ATOM     35  C   UNL A   1      40.482  30.952  30.583  1.00  0.00     0.031 C 
ATOM     36  C   UNL A   1      39.423  26.626  28.249  1.00  0.00     0.029 A 
ATOM     37  N   UNL A   1      41.496  26.911  29.039  1.00  0.00    -0.354 N 
ATOM     38  C   UNL A   1      42.720  30.573  30.902  1.00  0.00     0.074 A 
ATOM     39  C   UNL A   1      41.602  31.482  31.054  1.00  0.00     0.031 C 
ATOM     40  C   UNL A   1      40.100  25.490  28.024  1.00  0.00     0.029 A 
ATOM     41  C   UNL A   1      41.475  25.656  28.484  1.00  0.00     0.049 A 
ATOM     42  H   UNL A   1      42.291  27.296  29.476  1.00  0.00     0.167 HD
ATOM     43  C   UNL A   1      43.980  30.834  31.328  1.00  0.00     0.031 A 
ATOM     44  C   UNL A   1      42.456  24.748  28.327  1.00  0.00     0.031 A 
ATOM     45  C   UNL A   1      45.089  29.923  31.214  1.00  0.00     0.049 A 
ATOM     46  C   UNL A   1      43.846  25.060  28.796  1.00  0.00     0.074 A 
ATOM     47  C   UNL A   1      46.392  30.092  31.654  1.00  0.00     0.029 A 
ATOM     48  N   UNL A   1      45.027  28.671  30.628  1.00  0.00    -0.354 N 
ATOM     49  N   UNL A   1      44.292  26.141  29.386  1.00  0.00    -0.248 NA
ATOM     50  C   UNL A   1      44.869  24.030  28.565  1.00  0.00     0.031 C 
ATOM     51  C   UNL A   1      47.127  28.956  31.298  1.00  0.00     0.029 A 
ATOM     52  C   UNL A   1      46.271  28.063  30.673  1.00  0.00     0.049 A 
ATOM     53  H   UNL A   1      44.218  28.271  30.235  1.00  0.00     0.167 HD
ATOM     54  C   UNL A   1      45.648  25.924  29.596  1.00  0.00     0.074 A 
ATOM     55  C   UNL A   1      45.945  24.600  29.091  1.00  0.00     0.031 C 
ATOM     56  C   UNL A   1      46.563  26.755  30.152  1.00  0.00     0.031 A 
BRANCH  43  57
ATOM     57  C   UNL A   1      44.238  32.190  31.921  1.00  0.00    -0.014 A 
ATOM     58  C   UNL A   1      44.606  33.282  31.122  1.00  0.00     0.009 A 
ATOM     59  C   UNL A   1      44.082  32.378  33.304  1.00  0.00     0.009 A 
ATOM     60  C   UNL A   1      44.846  34.530  31.704  1.00  0.00     0.001 A 
ATOM     61  C   UNL A   1      44.301  33.629  33.878  1.00  0.00     0.001 A 
ATOM     62  C   UNL A   1      44.691  34.703  33.080  1.00  0.00     0.000 A 
ENDBRANCH  43  57
BRANCH  44  63
ATOM     63  C   UNL A   1      42.153  23.464  27.649  1.00  0.00    -0.014 A 
ATOM     64  C   UNL A   1      41.551  22.411  28.351  1.00  0.00     0.009 A 
ATOM     65  C   UNL A   1      42.431  23.304  26.281  1.00  0.00     0.009 A 
ATOM     66  C   UNL A   1      41.235  21.219  27.697  1.00  0.00     0.001 A 
ATOM     67  C   UNL A   1      42.094  22.120  25.626  1.00  0.00     0.001 A 
ATOM     68  C   UNL A   1      41.499  21.078  26.335  1.00  0.00     0.000 A 
ENDBRANCH  44  63
BRANCH  56  69
ATOM     69  C   UNL A   1      47.973  26.251  30.244  1.00  0.00    -0.014 A 
ATOM     70  C   UNL A   1      48.864  26.404  29.170  1.00  0.00     0.009 A 
ATOM     71  C   UNL A   1      48.424  25.642  31.425  1.00  0.00     0.009 A 
ATOM     72  C   UNL A   1      50.175  25.931  29.269  1.00  0.00     0.001 A 
ATOM     73  C   UNL A   1      49.740  25.188  31.527  1.00  0.00     0.001 A 
ATOM     74  C   UNL A   1      50.612  25.326  30.446  1.00  0.00     0.000 A 
ENDBRANCH  56  69
ENDBRANCH  30  31
ENDBRANCH  23  25
ENDBRANCH  22  23
ENDBRANCH  21  22
ENDBRANCH   1  21
TORSDOF 18
ENDMDL
MODEL 2
REMARK VINA RESULT:      -8.7      2.887      6.565
REMARK SMILES CCC(CC)N(CC(C)C)C(=O)N[C@H](C)C(=O)OCCOC(=O)c1ccc(-c2c3nc(c(-c4ccccc4)c4ccc([nH]4)c(-c4ccccc4)c4nc(c(-c5ccccc5)c5ccc2[nH]5)C=C4)C=C3)cc1
REMARK SMILES IDX 19 1 18 2 16 3 17 4 14 5 15 6 13 7 11 8 12 9 6 11 3 12 2 13
REMARK SMILES IDX 1 14 4 15 5 16 7 17 8 18 9 19 10 20 20 21 21 22 22 23 23 24
REMARK SMILES IDX 24 25 25 26 71 27 26 28 70 29 27 30 28 31 29 32 64 33 30 34
REMARK SMILES IDX 69 35 63 36 65 37 31 38 68 39 62 40 61 41 32 43 54 44 39 45
REMARK SMILES IDX 53 46 40 47 43 48 52 49 66 50 41 51 42 52 51 54 67 55 44 56
REMARK SMILES IDX 33 57 34 58 38 59 35 60 37 61 36 62 55 63 56 64 60 65 57 66
REMARK SMILES IDX 59 67 58 68 45 69 46 70 50 71 47 72 49 73 48 74
REMARK H PARENT 13 10 65 42 43 53
REMARK Flexibility Score: inf
ROOT
ATOM      1  C   UNL A   1      34.898  20.770  25.013  1.00  0.00     0.274 C 
ENDROOT
BRANCH   1   2
ATOM      2  O   UNL A   1      33.967  21.573  24.265  1.00  0.00    -0.461 OA
BRANCH   2   3
ATOM      3  C   UNL A   1      32.881  22.045  24.930  1.00  0.00     0.328 C 
ATOM      4  O   UNL A   1      32.414  21.535  25.944  1.00  0.00    -0.250 OA
BRANCH   3   5
ATOM      5  C   UNL A   1      32.347  23.363  24.334  1.00  0.00     0.190 C 
ATOM      6  C   UNL A   1      31.431  23.153  23.133  1.00  0.00     0.043 C 
BRANCH   5   7
ATOM      7  N   UNL A   1      31.643  24.090  25.398  1.00  0.00    -0.325 N 
ATOM      8  C   UNL A   1      31.475  25.367  25.776  1.00  0.00     0.318 C 
ATOM      9  O   UNL A   1      30.508  25.533  26.526  1.00  0.00    -0.249 OA
ATOM     10  H   UNL A   1      31.166  23.472  25.998  1.00  0.00     0.166 HD
BRANCH   8  11
ATOM     11  N   UNL A   1      32.283  26.401  25.371  1.00  0.00    -0.322 N 
BRANCH  11  12
ATOM     12  C   UNL A   1      31.984  27.089  24.081  1.00  0.00     0.086 C 
BRANCH  12  13
ATOM     13  C   UNL A   1      33.141  26.972  23.062  1.00  0.00     0.022 C 
ATOM     14  C   UNL A   1      33.860  28.290  22.810  1.00  0.00     0.006 C 
ENDBRANCH  12  13
BRANCH  12  15
ATOM     15  C   UNL A   1      30.571  26.817  23.513  1.00  0.00     0.022 C 
ATOM     16  C   UNL A   1      29.636  28.005  23.351  1.00  0.00     0.006 C 
ENDBRANCH  12  15
ENDBRANCH  11  12
BRANCH  11  17
ATOM     17  C   UNL A   1      33.362  27.007  26.159  1.00  0.00     0.124 C 
BRANCH  17  18
ATOM     18  C   UNL A   1      33.144  28.483  26.554  1.00  0.00     0.002 C 
ATOM     19  C   UNL A   1      31.890  28.740  27.391  1.00  0.00     0.009 C 
ATOM     20  C   UNL A   1      34.385  28.993  27.293  1.00  0.00     0.009 C 
ENDBRANCH  17  18
ENDBRANCH  11  17
ENDBRANCH   8  11
ENDBRANCH   5   7
ENDBRANCH   3   5
ENDBRANCH   2   3
ENDBRANCH   1   2
BRANCH   1  21
ATOM     21  C   UNL A   1      36.334  21.199  24.698  1.00  0.00     0.275 C 
BRANCH  21  22
ATOM     22  O   UNL A   1      37.002  21.734  25.858  1.00  0.00    -0.458 OA
BRANCH  22  23
ATOM     23  C   UNL A   1      38.332  21.499  25.920  1.00  0.00     0.338 C 
ATOM     24  O   UNL A   1      38.943  20.531  25.503  1.00  0.00    -0.246 OA
BRANCH  23  25
ATOM     25  C   UNL A   1      39.010  22.666  26.496  1.00  0.00     0.060 A 
ATOM     26  C   UNL A   1      38.551  23.932  26.139  1.00  0.00     0.016 A 
ATOM     27  C   UNL A   1      40.159  22.520  27.273  1.00  0.00     0.016 A 
ATOM     28  C   UNL A   1      39.277  25.063  26.507  1.00  0.00     0.010 A 
ATOM     29  C   UNL A   1      40.860  23.661  27.679  1.00  0.00     0.010 A 
ATOM     30  C   UNL A   1      40.443  24.942  27.277  1.00  0.00    -0.014 A 
BRANCH  30  31
ATOM     31  C   UNL A   1      41.233  26.149  27.637  1.00  0.00     0.031 A 
ATOM     32  C   UNL A   1      40.669  27.186  28.571  1.00  0.00     0.074 A 
ATOM     33  C   UNL A   1      42.466  26.327  27.126  1.00  0.00     0.049 A 
ATOM     34  N   UNL A   1      41.155  28.359  28.896  1.00  0.00    -0.248 NA
ATOM     35  C   UNL A   1      39.386  26.868  29.216  1.00  0.00     0.031 C 
ATOM     36  C   UNL A   1      43.157  25.396  26.233  1.00  0.00     0.029 A 
ATOM     37  N   UNL A   1      43.358  27.358  27.288  1.00  0.00    -0.354 N 
ATOM     38  C   UNL A   1      40.217  28.939  29.739  1.00  0.00     0.074 A 
ATOM     39  C   UNL A   1      39.133  27.988  29.878  1.00  0.00     0.031 C 
ATOM     40  C   UNL A   1      44.371  25.887  25.941  1.00  0.00     0.029 A 
ATOM     41  C   UNL A   1      44.520  27.194  26.575  1.00  0.00     0.049 A 
ATOM     42  H   UNL A   1      43.181  28.140  27.860  1.00  0.00     0.167 HD
ATOM     43  C   UNL A   1      40.248  30.153  30.339  1.00  0.00     0.031 A 
ATOM     44  C   UNL A   1      45.577  28.012  26.417  1.00  0.00     0.031 A 
ATOM     45  C   UNL A   1      41.336  31.091  30.237  1.00  0.00     0.049 A 
ATOM     46  C   UNL A   1      45.588  29.357  27.080  1.00  0.00     0.074 A 
ATOM     47  C   UNL A   1      41.467  32.330  30.843  1.00  0.00     0.029 A 
ATOM     48  N   UNL A   1      42.485  30.890  29.489  1.00  0.00    -0.354 N 
ATOM     49  N   UNL A   1      44.680  29.900  27.853  1.00  0.00    -0.248 NA
ATOM     50  C   UNL A   1      46.764  30.205  26.837  1.00  0.00     0.031 C 
ATOM     51  C   UNL A   1      42.679  32.895  30.430  1.00  0.00     0.029 A 
ATOM     52  C   UNL A   1      43.320  31.990  29.600  1.00  0.00     0.049 A 
ATOM     53  H   UNL A   1      42.679  30.085  28.957  1.00  0.00     0.167 HD
ATOM     54  C   UNL A   1      45.174  31.155  28.189  1.00  0.00     0.074 A 
ATOM     55  C   UNL A   1      46.469  31.282  27.554  1.00  0.00     0.031 C 
ATOM     56  C   UNL A   1      44.597  32.116  28.950  1.00  0.00     0.031 A 
BRANCH  43  57
ATOM     57  C   UNL A   1      39.037  30.561  31.129  1.00  0.00    -0.014 A 
ATOM     58  C   UNL A   1      37.959  31.226  30.528  1.00  0.00     0.009 A 
ATOM     59  C   UNL A   1      38.969  30.248  32.496  1.00  0.00     0.009 A 
ATOM     60  C   UNL A   1      36.849  31.599  31.291  1.00  0.00     0.001 A 
ATOM     61  C   UNL A   1      37.851  30.603  33.249  1.00  0.00     0.001 A 
ATOM     62  C   UNL A   1      36.795  31.285  32.649  1.00  0.00     0.000 A 
ENDBRANCH  43  57
BRANCH  44  63
ATOM     63  C   UNL A   1      46.700  27.584  25.547  1.00  0.00    -0.014 A 
ATOM     64  C   UNL A   1      47.742  26.802  26.061  1.00  0.00     0.009 A 
ATOM     65  C   UNL A   1      46.710  27.928  24.185  1.00  0.00     0.009 A 
ATOM     66  C   UNL A   1      48.777  26.372  25.228  1.00  0.00     0.001 A 
ATOM     67  C   UNL A   1      47.733  27.478  23.350  1.00  0.00     0.001 A 
ATOM     68  C   UNL A   1      48.767  26.704  23.873  1.00  0.00     0.000 A 
ENDBRANCH  44  63
BRANCH  56  69
ATOM     69  C   UNL A   1      45.368  33.389  29.138  1.00  0.00    -0.014 A 
ATOM     70  C   UNL A   1      46.287  33.526  30.190  1.00  0.00     0.009 A 
ATOM     71  C   UNL A   1      45.194  34.454  28.240  1.00  0.00     0.009 A 
ATOM     72  C   UNL A   1      46.999  34.716  30.355  1.00  0.00     0.001 A 
ATOM     73  C   UNL A   1      45.922  35.635  28.397  1.00  0.00     0.001 A 
ATOM     74  C   UNL A   1      46.818  35.768  29.457  1.00  0.00     0.000 A 
ENDBRANCH  56  69
ENDBRANCH  30  31
ENDBRANCH  23  25
ENDBRANCH  22  23
ENDBRANCH  21  22
ENDBRANCH   1  21
TORSDOF 18
ENDMDL
MODEL 3
REMARK VINA RESULT:      -8.7      2.731      4.477
REMARK SMILES CCC(CC)N(CC(C)C)C(=O)N[C@H](C)C(=O)OCCOC(=O)c1ccc(-c2c3nc(c(-c4ccccc4)c4ccc([nH]4)c(-c4ccccc4)c4nc(c(-c5ccccc5)c5ccc2[nH]5)C=C4)C=C3)cc1
REMARK SMILES IDX 19 1 18 2 16 3 17 4 14 5 15 6 13 7 11 8 12 9 6 11 3 12 2 13
REMARK SMILES IDX 1 14 4 15 5 16 7 17 8 18 9 19 10 20 20 21 21 22 22 23 23 24
REMARK SMILES IDX 24 25 25 26 71 27 26 28 70 29 27 30 28 31 29 32 64 33 30 34
REMARK SMILES IDX 69 35 63 36 65 37 31 38 68 39 62 40 61 41 32 43 54 44 39 45
REMARK SMILES IDX 53 46 40 47 43 48 52 49 66 50 41 51 42 52 51 54 67 55 44 56
REMARK SMILES IDX 33 57 34 58 38 59 35 60 37 61 36 62 55 63 56 64 60 65 57 66
REMARK SMILES IDX 59 67 58 68 45 69 46 70 50 71 47 72 49 73 48 74
REMARK H PARENT 13 10 65 42 43 53
REMARK Flexibility Score: inf
ROOT
ATOM      1  C   UNL A   1      31.547  31.644  26.502  1.00  0.00     0.274 C 
ENDROOT
BRANCH   1   2
ATOM      2  O   UNL A   1      32.606  30.828  27.036  1.00  0.00    -0.461 OA
BRANCH   2   3
ATOM      3  C   UNL A   1      32.393  29.487  27.080  1.00  0.00     0.328 C 
ATOM      4  O   UNL A   1      31.403  28.959  27.578  1.00  0.00    -0.250 OA
BRANCH   3   5
ATOM      5  C   UNL A   1      33.487  28.688  26.343  1.00  0.00     0.190 C 
ATOM      6  C   UNL A   1      34.890  28.953  26.876  1.00  0.00     0.043 C 
BRANCH   5   7
ATOM      7  N   UNL A   1      33.156  27.261  26.451  1.00  0.00    -0.325 N 
ATOM      8  C   UNL A   1      32.566  26.325  25.689  1.00  0.00     0.318 C 
ATOM      9  O   UNL A   1      32.825  25.171  26.046  1.00  0.00    -0.249 OA
ATOM     10  H   UNL A   1      33.444  26.891  27.316  1.00  0.00     0.166 HD
BRANCH   8  11
ATOM     11  N   UNL A   1      31.760  26.605  24.614  1.00  0.00    -0.322 N 
BRANCH  11  12
ATOM     12  C   UNL A   1      32.212  26.205  23.250  1.00  0.00     0.086 C 
BRANCH  12  13
ATOM     13  C   UNL A   1      33.652  26.674  22.938  1.00  0.00     0.022 C 
ATOM     14  C   UNL A   1      33.746  28.158  22.612  1.00  0.00     0.006 C 
ENDBRANCH  12  13
BRANCH  12  15
ATOM     15  C   UNL A   1      31.895  24.740  22.864  1.00  0.00     0.022 C 
ATOM     16  C   UNL A   1      30.654  24.105  23.470  1.00  0.00     0.006 C 
ENDBRANCH  12  15
ENDBRANCH  11  12
BRANCH  11  17
ATOM     17  C   UNL A   1      30.400  27.152  24.679  1.00  0.00     0.124 C 
BRANCH  17  18
ATOM     18  C   UNL A   1      29.979  28.025  23.479  1.00  0.00     0.002 C 
ATOM     19  C   UNL A   1      28.493  27.950  23.127  1.00  0.00     0.009 C 
ATOM     20  C   UNL A   1      30.385  29.478  23.748  1.00  0.00     0.009 C 
ENDBRANCH  17  18
ENDBRANCH  11  17
ENDBRANCH   8  11
ENDBRANCH   5   7
ENDBRANCH   3   5
ENDBRANCH   2   3
ENDBRANCH   1   2
BRANCH   1  21
ATOM     21  C   UNL A   1      31.671  33.075  27.030  1.00  0.00     0.275 C 
BRANCH  21  22
ATOM     22  O   UNL A   1      33.046  33.450  27.251  1.00  0.00    -0.458 OA
BRANCH  22  23
ATOM     23  C   UNL A   1      33.279  34.166  28.373  1.00  0.00     0.338 C 
ATOM     24  O   UNL A   1      32.588  35.045  28.858  1.00  0.00    -0.246 OA
BRANCH  23  25
ATOM     25  C   UNL A   1      34.486  33.662  29.037  1.00  0.00     0.060 A 
ATOM     26  C   UNL A   1      35.723  34.034  28.516  1.00  0.00     0.016 A 
ATOM     27  C   UNL A   1      34.402  32.735  30.076  1.00  0.00     0.016 A 
ATOM     28  C   UNL A   1      36.887  33.433  28.992  1.00  0.00     0.010 A 
ATOM     29  C   UNL A   1      35.577  32.166  30.582  1.00  0.00     0.010 A 
ATOM     30  C   UNL A   1      36.828  32.488  30.027  1.00  0.00    -0.014 A 
BRANCH  30  31
ATOM     31  C   UNL A   1      38.069  31.823  30.506  1.00  0.00     0.031 A 
ATOM     32  C   UNL A   1      38.892  32.436  31.607  1.00  0.00     0.074 A 
ATOM     33  C   UNL A   1      38.470  30.661  29.956  1.00  0.00     0.049 A 
ATOM     34  N   UNL A   1      40.064  32.071  32.065  1.00  0.00    -0.248 NA
ATOM     35  C   UNL A   1      38.329  33.620  32.274  1.00  0.00     0.031 C 
ATOM     36  C   UNL A   1      37.761  29.933  28.903  1.00  0.00     0.029 A 
ATOM     37  N   UNL A   1      39.576  29.889  30.209  1.00  0.00    -0.354 N 
ATOM     38  C   UNL A   1      40.403  33.006  33.034  1.00  0.00     0.074 A 
ATOM     39  C   UNL A   1      39.310  33.956  33.100  1.00  0.00     0.031 C 
ATOM     40  C   UNL A   1      38.438  28.811  28.614  1.00  0.00     0.029 A 
ATOM     41  C   UNL A   1      39.658  28.773  29.415  1.00  0.00     0.049 A 
ATOM     42  H   UNL A   1      40.247  30.115  30.894  1.00  0.00     0.167 HD
ATOM     43  C   UNL A   1      41.521  33.075  33.795  1.00  0.00     0.031 A 
ATOM     44  C   UNL A   1      40.619  27.836  29.313  1.00  0.00     0.031 A 
ATOM     45  C   UNL A   1      42.596  32.118  33.763  1.00  0.00     0.049 A 
ATOM     46  C   UNL A   1      41.855  27.936  30.156  1.00  0.00     0.074 A 
ATOM     47  C   UNL A   1      43.751  32.091  34.528  1.00  0.00     0.029 A 
ATOM     48  N   UNL A   1      42.645  31.013  32.930  1.00  0.00    -0.354 N 
ATOM     49  N   UNL A   1      42.170  28.842  31.049  1.00  0.00    -0.248 NA
ATOM     50  C   UNL A   1      42.871  26.891  29.968  1.00  0.00     0.031 C 
ATOM     51  C   UNL A   1      44.516  30.990  34.130  1.00  0.00     0.029 A 
ATOM     52  C   UNL A   1      43.819  30.309  33.146  1.00  0.00     0.049 A 
ATOM     53  H   UNL A   1      41.949  30.764  32.280  1.00  0.00     0.167 HD
ATOM     54  C   UNL A   1      43.422  28.479  31.528  1.00  0.00     0.074 A 
ATOM     55  C   UNL A   1      43.797  27.258  30.844  1.00  0.00     0.031 C 
ATOM     56  C   UNL A   1      44.193  29.108  32.448  1.00  0.00     0.031 A 
BRANCH  43  57
ATOM     57  C   UNL A   1      41.663  34.265  34.702  1.00  0.00    -0.014 A 
ATOM     58  C   UNL A   1      42.229  35.467  34.254  1.00  0.00     0.009 A 
ATOM     59  C   UNL A   1      41.194  34.182  36.024  1.00  0.00     0.009 A 
ATOM     60  C   UNL A   1      42.353  36.553  35.124  1.00  0.00     0.001 A 
ATOM     61  C   UNL A   1      41.300  35.275  36.883  1.00  0.00     0.001 A 
ATOM     62  C   UNL A   1      41.887  36.457  36.436  1.00  0.00     0.000 A 
ENDBRANCH  43  57
BRANCH  44  63
ATOM     63  C   UNL A   1      40.457  26.737  28.329  1.00  0.00    -0.014 A 
ATOM     64  C   UNL A   1      39.735  25.583  28.660  1.00  0.00     0.009 A 
ATOM     65  C   UNL A   1      40.995  26.861  27.037  1.00  0.00     0.009 A 
ATOM     66  C   UNL A   1      39.557  24.569  27.716  1.00  0.00     0.001 A 
ATOM     67  C   UNL A   1      40.795  25.857  26.089  1.00  0.00     0.001 A 
ATOM     68  C   UNL A   1      40.079  24.711  26.431  1.00  0.00     0.000 A 
ENDBRANCH  44  63
BRANCH  56  69
ATOM     69  C   UNL A   1      45.518  28.482  32.769  1.00  0.00    -0.014 A 
ATOM     70  C   UNL A   1      46.678  28.856  32.072  1.00  0.00     0.009 A 
ATOM     71  C   UNL A   1      45.614  27.531  33.796  1.00  0.00     0.009 A 
ATOM     72  C   UNL A   1      47.906  28.267  32.380  1.00  0.00     0.001 A 
ATOM     73  C   UNL A   1      46.847  26.959  34.114  1.00  0.00     0.001 A 
ATOM     74  C   UNL A   1      47.990  27.321  33.402  1.00  0.00     0.000 A 
ENDBRANCH  56  69
ENDBRANCH  30  31
ENDBRANCH  23  25
ENDBRANCH  22  23
ENDBRANCH  21  22
ENDBRANCH   1  21
TORSDOF 18
ENDMDL
