MODEL 1
REMARK VINA RESULT:     -13.1      0.000      0.000
REMARK SMILES CC1(C)O[C@@H]2C[C@H]3[C@H]4CCC5=CC(=O)C=C[C@@]5(C)[C@]4(F)[C@H](O)C[C@]3(C)[C@]2(C(=O)OCCOC(=O)c2ccc(-c3c4nc(c(-c5ccccc5)c5ccc([nH]5)c(-c5ccccc5)c5nc(c(-c6ccccc6)c6ccc3[nH]6)C=C5)C=C4)cc2)O1
REMARK SMILES IDX 31 1 30 2 29 3 27 4 28 5 26 6 1 7 2 8 4 9 83 10 3 11 5 12
REMARK SMILES IDX 6 13 24 14 7 15 23 16 25 17 8 18 21 19 9 20 19 21 10 22
REMARK SMILES IDX 17 23 20 24 11 25 16 26 18 27 12 28 15 29 13 30 14 31 22 32
REMARK SMILES IDX 32 34 33 35 34 36 35 37 36 38 82 39 37 40 81 41 38 42 39 43
REMARK SMILES IDX 40 44 75 45 41 46 80 47 74 48 76 49 42 50 79 51 73 52 72 53
REMARK SMILES IDX 43 55 65 56 50 57 64 58 51 59 54 60 63 61 77 62 52 63 53 64
REMARK SMILES IDX 62 66 78 67 55 68 44 69 45 70 49 71 46 72 48 73 47 74 66 75
REMARK SMILES IDX 67 76 71 77 68 78 70 79 69 80 56 81 57 82 61 83 58 84 60 85
REMARK SMILES IDX 59 86
REMARK H PARENT 22 33 76 54 54 65
REMARK Flexibility Score: inf
ROOT
ATOM      1  C   UNL A   1      31.544  29.222  25.986  1.00  0.00     0.275 C 
ENDROOT
BRANCH   1   2
ATOM      2  C   UNL A   1      31.552  28.238  27.152  1.00  0.00     0.274 C 
BRANCH   2   3
ATOM      3  O   UNL A   1      32.304  27.056  26.806  1.00  0.00    -0.460 OA
BRANCH   3   4
ATOM      4  C   UNL A   1      31.616  25.978  26.322  1.00  0.00     0.342 C 
ATOM      5  O   UNL A   1      30.414  25.794  26.461  1.00  0.00    -0.249 OA
BRANCH   4   6
ATOM      6  C   UNL A   1      32.576  25.002  25.633  1.00  0.00     0.200 C 
ATOM      7  C   UNL A   1      32.448  26.927  22.909  1.00  0.00     0.075 C 
ATOM      8  C   UNL A   1      33.145  25.693  23.478  1.00  0.00     0.165 C 
ATOM      9  O   UNL A   1      34.216  26.123  24.318  1.00  0.00    -0.344 OA
ATOM     10  O   UNL A   1      32.193  24.920  24.233  1.00  0.00    -0.329 OA
ATOM     11  C   UNL A   1      33.708  24.825  22.344  1.00  0.00     0.075 C 
ATOM     12  C   UNL A   1      34.043  25.494  25.588  1.00  0.00     0.166 C 
ATOM     13  C   UNL A   1      34.942  24.222  25.656  1.00  0.00     0.040 C 
ATOM     14  C   UNL A   1      32.696  23.554  26.245  1.00  0.00     0.016 C 
ATOM     15  C   UNL A   1      33.921  23.118  25.406  1.00  0.00     0.008 C 
ATOM     16  C   UNL A   1      31.476  22.619  26.081  1.00  0.00     0.046 C 
ATOM     17  C   UNL A   1      33.028  23.600  27.750  1.00  0.00     0.015 C 
ATOM     18  C   UNL A   1      34.245  21.665  25.118  1.00  0.00     0.035 C 
ATOM     19  C   UNL A   1      31.739  21.372  25.225  1.00  0.00     0.154 C 
ATOM     20  C   UNL A   1      35.632  21.155  25.462  1.00  0.00     0.012 C 
ATOM     21  C   UNL A   1      33.123  20.700  25.537  1.00  0.00     0.152 C 
ATOM     22  C   UNL A   1      35.888  19.940  24.568  1.00  0.00     0.032 C 
ATOM     23  C   UNL A   1      33.343  19.272  24.874  1.00  0.00     0.044 C 
ATOM     24  F   UNL A   1      33.213  20.556  26.901  1.00  0.00    -0.239 F 
ATOM     25  C   UNL A   1      34.837  18.869  24.744  1.00  0.00    -0.053 C 
ATOM     26  C   UNL A   1      32.607  18.184  25.664  1.00  0.00    -0.009 C 
ATOM     27  C   UNL A   1      32.744  19.218  23.444  1.00  0.00     0.024 C 
ATOM     28  C   UNL A   1      35.217  17.578  24.719  1.00  0.00     0.052 C 
ATOM     29  C   UNL A   1      33.000  16.900  25.677  1.00  0.00     0.048 C 
ATOM     30  C   UNL A   1      34.237  16.500  24.972  1.00  0.00     0.178 C 
ATOM     31  O   UNL A   1      34.470  15.336  24.674  1.00  0.00    -0.290 OA
BRANCH  19  32
ATOM     32  O   UNL A   1      31.625  21.764  23.850  1.00  0.00    -0.390 OA
ATOM     33  H   UNL A   1      31.739  22.724  23.776  1.00  0.00     0.211 HD
ENDBRANCH  19  32
ENDBRANCH   4   6
ENDBRANCH   3   4
ENDBRANCH   2   3
ENDBRANCH   1   2
BRANCH   1  34
ATOM     34  O   UNL A   1      32.849  29.813  25.892  1.00  0.00    -0.458 OA
BRANCH  34  35
ATOM     35  C   UNL A   1      33.138  30.794  26.779  1.00  0.00     0.338 C 
ATOM     36  O   UNL A   1      32.376  31.650  27.190  1.00  0.00    -0.246 OA
BRANCH  35  37
ATOM     37  C   UNL A   1      34.525  30.618  27.285  1.00  0.00     0.060 A 
ATOM     38  C   UNL A   1      35.044  29.346  27.514  1.00  0.00     0.016 A 
ATOM     39  C   UNL A   1      35.260  31.731  27.697  1.00  0.00     0.016 A 
ATOM     40  C   UNL A   1      36.192  29.190  28.291  1.00  0.00     0.010 A 
ATOM     41  C   UNL A   1      36.493  31.563  28.348  1.00  0.00     0.010 A 
ATOM     42  C   UNL A   1      36.963  30.286  28.701  1.00  0.00    -0.014 A 
BRANCH  42  43
ATOM     43  C   UNL A   1      38.225  30.104  29.498  1.00  0.00     0.031 A 
ATOM     44  C   UNL A   1      39.406  29.347  28.924  1.00  0.00     0.074 A 
ATOM     45  C   UNL A   1      38.350  30.602  30.749  1.00  0.00     0.049 A 
ATOM     46  N   UNL A   1      40.416  28.793  29.552  1.00  0.00    -0.248 NA
ATOM     47  C   UNL A   1      39.452  29.175  27.463  1.00  0.00     0.031 C 
ATOM     48  C   UNL A   1      37.361  31.419  31.457  1.00  0.00     0.029 A 
ATOM     49  N   UNL A   1      39.379  30.488  31.659  1.00  0.00    -0.354 N 
ATOM     50  C   UNL A   1      41.156  28.126  28.580  1.00  0.00     0.074 A 
ATOM     51  C   UNL A   1      40.495  28.368  27.314  1.00  0.00     0.031 C 
ATOM     52  C   UNL A   1      37.853  31.788  32.644  1.00  0.00     0.029 A 
ATOM     53  C   UNL A   1      39.112  31.094  32.864  1.00  0.00     0.049 A 
ATOM     54  H   UNL A   1      40.222  30.018  31.464  1.00  0.00     0.167 HD
ATOM     55  C   UNL A   1      42.269  27.368  28.734  1.00  0.00     0.031 A 
ATOM     56  C   UNL A   1      39.734  31.032  34.056  1.00  0.00     0.031 A 
ATOM     57  C   UNL A   1      42.980  27.199  29.978  1.00  0.00     0.049 A 
ATOM     58  C   UNL A   1      40.931  30.148  34.221  1.00  0.00     0.074 A 
ATOM     59  C   UNL A   1      44.130  26.465  30.221  1.00  0.00     0.029 A 
ATOM     60  N   UNL A   1      42.629  27.795  31.177  1.00  0.00    -0.354 N 
ATOM     61  N   UNL A   1      41.540  29.413  33.326  1.00  0.00    -0.248 NA
ATOM     62  C   UNL A   1      41.502  30.059  35.572  1.00  0.00     0.031 C 
ATOM     63  C   UNL A   1      44.451  26.583  31.577  1.00  0.00     0.029 A 
ATOM     64  C   UNL A   1      43.531  27.434  32.165  1.00  0.00     0.049 A 
ATOM     65  H   UNL A   1      41.853  28.387  31.308  1.00  0.00     0.167 HD
ATOM     66  C   UNL A   1      42.570  28.777  34.004  1.00  0.00     0.074 A 
ATOM     67  C   UNL A   1      42.519  29.233  35.378  1.00  0.00     0.031 C 
ATOM     68  C   UNL A   1      43.473  27.886  33.529  1.00  0.00     0.031 A 
BRANCH  55  69
ATOM     69  C   UNL A   1      42.783  26.603  27.542  1.00  0.00    -0.014 A 
ATOM     70  C   UNL A   1      42.297  25.333  27.204  1.00  0.00     0.009 A 
ATOM     71  C   UNL A   1      43.706  27.226  26.683  1.00  0.00     0.009 A 
ATOM     72  C   UNL A   1      42.735  24.698  26.037  1.00  0.00     0.001 A 
ATOM     73  C   UNL A   1      44.120  26.602  25.505  1.00  0.00     0.001 A 
ATOM     74  C   UNL A   1      43.638  25.336  25.185  1.00  0.00     0.000 A 
ENDBRANCH  55  69
BRANCH  56  75
ATOM     75  C   UNL A   1      39.145  31.738  35.227  1.00  0.00    -0.014 A 
ATOM     76  C   UNL A   1      38.310  31.065  36.128  1.00  0.00     0.009 A 
ATOM     77  C   UNL A   1      39.443  33.093  35.456  1.00  0.00     0.009 A 
ATOM     78  C   UNL A   1      37.783  31.736  37.235  1.00  0.00     0.001 A 
ATOM     79  C   UNL A   1      38.949  33.748  36.583  1.00  0.00     0.001 A 
ATOM     80  C   UNL A   1      38.113  33.072  37.468  1.00  0.00     0.000 A 
ENDBRANCH  56  75
BRANCH  68  81
ATOM     81  C   UNL A   1      44.505  27.384  34.496  1.00  0.00    -0.014 A 
ATOM     82  C   UNL A   1      45.715  28.067  34.688  1.00  0.00     0.009 A 
ATOM     83  C   UNL A   1      44.261  26.209  35.223  1.00  0.00     0.009 A 
ATOM     84  C   UNL A   1      46.679  27.561  35.563  1.00  0.00     0.001 A 
ATOM     85  C   UNL A   1      45.215  25.719  36.116  1.00  0.00     0.001 A 
ATOM     86  C   UNL A   1      46.427  26.389  36.277  1.00  0.00     0.000 A 
ENDBRANCH  68  81
ENDBRANCH  42  43
ENDBRANCH  35  37
ENDBRANCH  34  35
ENDBRANCH   1  34
TORSDOF 12
ENDMDL
MODEL 2
REMARK VINA RESULT:     -13.1      3.359      6.176
REMARK SMILES CC1(C)O[C@@H]2C[C@H]3[C@H]4CCC5=CC(=O)C=C[C@@]5(C)[C@]4(F)[C@H](O)C[C@]3(C)[C@]2(C(=O)OCCOC(=O)c2ccc(-c3c4nc(c(-c5ccccc5)c5ccc([nH]5)c(-c5ccccc5)c5nc(c(-c6ccccc6)c6ccc3[nH]6)C=C5)C=C4)cc2)O1
REMARK SMILES IDX 31 1 30 2 29 3 27 4 28 5 26 6 1 7 2 8 4 9 83 10 3 11 5 12
REMARK SMILES IDX 6 13 24 14 7 15 23 16 25 17 8 18 21 19 9 20 19 21 10 22
REMARK SMILES IDX 17 23 20 24 11 25 16 26 18 27 12 28 15 29 13 30 14 31 22 32
REMARK SMILES IDX 32 34 33 35 34 36 35 37 36 38 82 39 37 40 81 41 38 42 39 43
REMARK SMILES IDX 40 44 75 45 41 46 80 47 74 48 76 49 42 50 79 51 73 52 72 53
REMARK SMILES IDX 43 55 65 56 50 57 64 58 51 59 54 60 63 61 77 62 52 63 53 64
REMARK SMILES IDX 62 66 78 67 55 68 44 69 45 70 49 71 46 72 48 73 47 74 66 75
REMARK SMILES IDX 67 76 71 77 68 78 70 79 69 80 56 81 57 82 61 83 58 84 60 85
REMARK SMILES IDX 59 86
REMARK H PARENT 22 33 76 54 54 65
REMARK Flexibility Score: inf
ROOT
ATOM      1  C   UNL A   1      33.014  29.348  26.372  1.00  0.00     0.275 C 
ENDROOT
BRANCH   1   2
ATOM      2  C   UNL A   1      31.829  28.423  26.631  1.00  0.00     0.274 C 
BRANCH   2   3
ATOM      3  O   UNL A   1      32.290  27.092  26.946  1.00  0.00    -0.460 OA
BRANCH   3   4
ATOM      4  C   UNL A   1      31.597  26.035  26.427  1.00  0.00     0.342 C 
ATOM      5  O   UNL A   1      30.394  25.854  26.557  1.00  0.00    -0.249 OA
BRANCH   4   6
ATOM      6  C   UNL A   1      32.553  25.073  25.711  1.00  0.00     0.200 C 
ATOM      7  C   UNL A   1      32.389  27.043  23.022  1.00  0.00     0.075 C 
ATOM      8  C   UNL A   1      33.096  25.802  23.563  1.00  0.00     0.165 C 
ATOM      9  O   UNL A   1      34.175  26.222  24.399  1.00  0.00    -0.344 OA
ATOM     10  O   UNL A   1      32.155  25.014  24.315  1.00  0.00    -0.329 OA
ATOM     11  C   UNL A   1      33.649  24.955  22.409  1.00  0.00     0.075 C 
ATOM     12  C   UNL A   1      34.017  25.571  25.660  1.00  0.00     0.166 C 
ATOM     13  C   UNL A   1      34.922  24.301  25.697  1.00  0.00     0.040 C 
ATOM     14  C   UNL A   1      32.684  23.615  26.298  1.00  0.00     0.016 C 
ATOM     15  C   UNL A   1      33.901  23.198  25.439  1.00  0.00     0.008 C 
ATOM     16  C   UNL A   1      31.465  22.679  26.132  1.00  0.00     0.046 C 
ATOM     17  C   UNL A   1      33.032  23.638  27.800  1.00  0.00     0.015 C 
ATOM     18  C   UNL A   1      34.227  21.751  25.123  1.00  0.00     0.035 C 
ATOM     19  C   UNL A   1      31.723  21.448  25.252  1.00  0.00     0.154 C 
ATOM     20  C   UNL A   1      35.619  21.240  25.444  1.00  0.00     0.012 C 
ATOM     21  C   UNL A   1      33.113  20.776  25.538  1.00  0.00     0.152 C 
ATOM     22  C   UNL A   1      35.869  20.041  24.526  1.00  0.00     0.032 C 
ATOM     23  C   UNL A   1      33.330  19.359  24.848  1.00  0.00     0.044 C 
ATOM     24  F   UNL A   1      33.217  20.609  26.898  1.00  0.00    -0.239 F 
ATOM     25  C   UNL A   1      34.824  18.964  24.696  1.00  0.00    -0.053 C 
ATOM     26  C   UNL A   1      32.606  18.256  25.628  1.00  0.00    -0.009 C 
ATOM     27  C   UNL A   1      32.716  19.328  23.424  1.00  0.00     0.024 C 
ATOM     28  C   UNL A   1      35.208  17.675  24.646  1.00  0.00     0.052 C 
ATOM     29  C   UNL A   1      33.003  16.973  25.615  1.00  0.00     0.048 C 
ATOM     30  C   UNL A   1      34.234  16.590  24.890  1.00  0.00     0.178 C 
ATOM     31  O   UNL A   1      34.467  15.432  24.570  1.00  0.00    -0.290 OA
BRANCH  19  32
ATOM     32  O   UNL A   1      31.593  21.862  23.885  1.00  0.00    -0.390 OA
ATOM     33  H   UNL A   1      32.206  21.352  23.333  1.00  0.00     0.211 HD
ENDBRANCH  19  32
ENDBRANCH   4   6
ENDBRANCH   3   4
ENDBRANCH   2   3
ENDBRANCH   1   2
BRANCH   1  34
ATOM     34  O   UNL A   1      33.952  29.185  27.447  1.00  0.00    -0.458 OA
BRANCH  34  35
ATOM     35  C   UNL A   1      34.519  30.313  27.936  1.00  0.00     0.338 C 
ATOM     36  O   UNL A   1      33.951  31.359  28.193  1.00  0.00    -0.246 OA
BRANCH  35  37
ATOM     37  C   UNL A   1      35.955  30.065  28.229  1.00  0.00     0.060 A 
ATOM     38  C   UNL A   1      36.924  30.242  27.244  1.00  0.00     0.016 A 
ATOM     39  C   UNL A   1      36.326  29.488  29.445  1.00  0.00     0.016 A 
ATOM     40  C   UNL A   1      38.198  29.697  27.411  1.00  0.00     0.010 A 
ATOM     41  C   UNL A   1      37.653  29.079  29.658  1.00  0.00     0.010 A 
ATOM     42  C   UNL A   1      38.607  29.132  28.626  1.00  0.00    -0.014 A 
BRANCH  42  43
ATOM     43  C   UNL A   1      39.997  28.591  28.811  1.00  0.00     0.031 A 
ATOM     44  C   UNL A   1      41.131  29.491  29.259  1.00  0.00     0.074 A 
ATOM     45  C   UNL A   1      40.286  27.290  28.581  1.00  0.00     0.049 A 
ATOM     46  N   UNL A   1      42.425  29.311  29.143  1.00  0.00    -0.248 NA
ATOM     47  C   UNL A   1      40.767  30.763  29.905  1.00  0.00     0.031 C 
ATOM     48  C   UNL A   1      39.329  26.243  28.212  1.00  0.00     0.029 A 
ATOM     49  N   UNL A   1      41.490  26.619  28.623  1.00  0.00    -0.354 N 
ATOM     50  C   UNL A   1      43.021  30.481  29.604  1.00  0.00     0.074 A 
ATOM     51  C   UNL A   1      41.948  31.355  30.031  1.00  0.00     0.031 C 
ATOM     52  C   UNL A   1      39.960  25.067  28.133  1.00  0.00     0.029 A 
ATOM     53  C   UNL A   1      41.391  25.295  28.268  1.00  0.00     0.049 A 
ATOM     54  H   UNL A   1      42.338  27.049  28.883  1.00  0.00     0.167 HD
ATOM     55  C   UNL A   1      44.338  30.801  29.649  1.00  0.00     0.031 A 
ATOM     56  C   UNL A   1      42.325  24.372  27.976  1.00  0.00     0.031 A 
ATOM     57  C   UNL A   1      45.411  29.900  29.310  1.00  0.00     0.049 A 
ATOM     58  C   UNL A   1      43.772  24.758  27.979  1.00  0.00     0.074 A 
ATOM     59  C   UNL A   1      46.777  30.134  29.347  1.00  0.00     0.029 A 
ATOM     60  N   UNL A   1      45.245  28.586  28.905  1.00  0.00    -0.354 N 
ATOM     61  N   UNL A   1      44.316  25.908  28.284  1.00  0.00    -0.248 NA
ATOM     62  C   UNL A   1      44.729  23.725  27.561  1.00  0.00     0.031 C 
ATOM     63  C   UNL A   1      47.435  28.974  28.923  1.00  0.00     0.029 A 
ATOM     64  C   UNL A   1      46.481  28.003  28.675  1.00  0.00     0.049 A 
ATOM     65  H   UNL A   1      44.377  28.135  28.796  1.00  0.00     0.167 HD
ATOM     66  C   UNL A   1      45.681  25.737  28.099  1.00  0.00     0.074 A 
ATOM     67  C   UNL A   1      45.883  24.365  27.682  1.00  0.00     0.031 C 
ATOM     68  C   UNL A   1      46.676  26.642  28.255  1.00  0.00     0.031 A 
BRANCH  55  69
ATOM     69  C   UNL A   1      44.718  32.207  30.031  1.00  0.00    -0.014 A 
ATOM     70  C   UNL A   1      45.065  32.557  31.343  1.00  0.00     0.009 A 
ATOM     71  C   UNL A   1      44.830  33.177  29.019  1.00  0.00     0.009 A 
ATOM     72  C   UNL A   1      45.502  33.853  31.635  1.00  0.00     0.001 A 
ATOM     73  C   UNL A   1      45.293  34.463  29.309  1.00  0.00     0.001 A 
ATOM     74  C   UNL A   1      45.624  34.801  30.618  1.00  0.00     0.000 A 
ENDBRANCH  55  69
BRANCH  56  75
ATOM     75  C   UNL A   1      41.902  23.018  27.525  1.00  0.00    -0.014 A 
ATOM     76  C   UNL A   1      41.613  22.766  26.177  1.00  0.00     0.009 A 
ATOM     77  C   UNL A   1      41.811  21.963  28.450  1.00  0.00     0.009 A 
ATOM     78  C   UNL A   1      41.239  21.484  25.766  1.00  0.00     0.001 A 
ATOM     79  C   UNL A   1      41.478  20.676  28.029  1.00  0.00     0.001 A 
ATOM     80  C   UNL A   1      41.184  20.439  26.689  1.00  0.00     0.000 A 
ENDBRANCH  56  75
BRANCH  68  81
ATOM     81  C   UNL A   1      48.076  26.159  28.014  1.00  0.00    -0.014 A 
ATOM     82  C   UNL A   1      48.668  26.248  26.745  1.00  0.00     0.009 A 
ATOM     83  C   UNL A   1      48.811  25.605  29.072  1.00  0.00     0.009 A 
ATOM     84  C   UNL A   1      49.957  25.755  26.532  1.00  0.00     0.001 A 
ATOM     85  C   UNL A   1      50.109  25.137  28.864  1.00  0.00     0.001 A 
ATOM     86  C   UNL A   1      50.676  25.203  27.592  1.00  0.00     0.000 A 
ENDBRANCH  68  81
ENDBRANCH  42  43
ENDBRANCH  35  37
ENDBRANCH  34  35
ENDBRANCH   1  34
TORSDOF 12
ENDMDL
MODEL 3
REMARK VINA RESULT:     -12.8      3.817      9.268
REMARK SMILES CC1(C)O[C@@H]2C[C@H]3[C@H]4CCC5=CC(=O)C=C[C@@]5(C)[C@]4(F)[C@H](O)C[C@]3(C)[C@]2(C(=O)OCCOC(=O)c2ccc(-c3c4nc(c(-c5ccccc5)c5ccc([nH]5)c(-c5ccccc5)c5nc(c(-c6ccccc6)c6ccc3[nH]6)C=C5)C=C4)cc2)O1
REMARK SMILES IDX 31 1 30 2 29 3 27 4 28 5 26 6 1 7 2 8 4 9 83 10 3 11 5 12
REMARK SMILES IDX 6 13 24 14 7 15 23 16 25 17 8 18 21 19 9 20 19 21 10 22
REMARK SMILES IDX 17 23 20 24 11 25 16 26 18 27 12 28 15 29 13 30 14 31 22 32
REMARK SMILES IDX 32 34 33 35 34 36 35 37 36 38 82 39 37 40 81 41 38 42 39 43
REMARK SMILES IDX 40 44 75 45 41 46 80 47 74 48 76 49 42 50 79 51 73 52 72 53
REMARK SMILES IDX 43 55 65 56 50 57 64 58 51 59 54 60 63 61 77 62 52 63 53 64
REMARK SMILES IDX 62 66 78 67 55 68 44 69 45 70 49 71 46 72 48 73 47 74 66 75
REMARK SMILES IDX 67 76 71 77 68 78 70 79 69 80 56 81 57 82 61 83 58 84 60 85
REMARK SMILES IDX 59 86
REMARK H PARENT 22 33 76 54 54 65
REMARK Flexibility Score: inf
ROOT
ATOM      1  C   UNL A   1      36.117  21.465  24.547  1.00  0.00     0.275 C 
ENDROOT
BRANCH   1   2
ATOM      2  C   UNL A   1      36.341  22.584  23.533  1.00  0.00     0.274 C 
BRANCH   2   3
ATOM      3  O   UNL A   1      35.572  23.749  23.894  1.00  0.00    -0.460 OA
BRANCH   3   4
ATOM      4  C   UNL A   1      34.372  23.944  23.267  1.00  0.00     0.342 C 
ATOM      5  O   UNL A   1      34.026  23.393  22.230  1.00  0.00    -0.249 OA
BRANCH   4   6
ATOM      6  C   UNL A   1      33.547  24.998  24.014  1.00  0.00     0.200 C 
ATOM      7  C   UNL A   1      32.561  22.609  26.126  1.00  0.00     0.075 C 
ATOM      8  C   UNL A   1      32.470  24.114  25.885  1.00  0.00     0.165 C 
ATOM      9  O   UNL A   1      33.662  24.727  26.378  1.00  0.00    -0.344 OA
ATOM     10  O   UNL A   1      32.326  24.358  24.474  1.00  0.00    -0.329 OA
ATOM     11  C   UNL A   1      31.258  24.702  26.621  1.00  0.00     0.075 C 
ATOM     12  C   UNL A   1      34.213  25.506  25.315  1.00  0.00     0.166 C 
ATOM     13  C   UNL A   1      33.775  26.992  25.490  1.00  0.00     0.040 C 
ATOM     14  C   UNL A   1      33.202  26.327  23.239  1.00  0.00     0.016 C 
ATOM     15  C   UNL A   1      32.653  27.097  24.464  1.00  0.00     0.008 C 
ATOM     16  C   UNL A   1      32.188  26.219  22.077  1.00  0.00     0.046 C 
ATOM     17  C   UNL A   1      34.468  26.997  22.670  1.00  0.00     0.015 C 
ATOM     18  C   UNL A   1      31.676  28.250  24.340  1.00  0.00     0.035 C 
ATOM     19  C   UNL A   1      30.882  26.995  22.297  1.00  0.00     0.154 C 
ATOM     20  C   UNL A   1      32.030  29.568  25.003  1.00  0.00     0.012 C 
ATOM     21  C   UNL A   1      31.116  28.418  22.917  1.00  0.00     0.152 C 
ATOM     22  C   UNL A   1      30.711  30.304  25.250  1.00  0.00     0.032 C 
ATOM     23  C   UNL A   1      29.838  29.365  22.931  1.00  0.00     0.044 C 
ATOM     24  F   UNL A   1      32.095  29.034  22.175  1.00  0.00    -0.239 F 
ATOM     25  C   UNL A   1      29.925  30.510  23.977  1.00  0.00    -0.053 C 
ATOM     26  C   UNL A   1      29.599  29.978  21.548  1.00  0.00    -0.009 C 
ATOM     27  C   UNL A   1      28.550  28.565  23.257  1.00  0.00     0.024 C 
ATOM     28  C   UNL A   1      29.259  31.668  23.807  1.00  0.00     0.052 C 
ATOM     29  C   UNL A   1      28.969  31.151  21.369  1.00  0.00     0.048 C 
ATOM     30  C   UNL A   1      28.546  31.947  22.542  1.00  0.00     0.178 C 
ATOM     31  O   UNL A   1      27.705  32.832  22.459  1.00  0.00    -0.290 OA
BRANCH  19  32
ATOM     32  O   UNL A   1      30.031  26.181  23.116  1.00  0.00    -0.390 OA
ATOM     33  H   UNL A   1      30.179  26.396  24.050  1.00  0.00     0.211 HD
ENDBRANCH  19  32
ENDBRANCH   4   6
ENDBRANCH   3   4
ENDBRANCH   2   3
ENDBRANCH   1   2
BRANCH   1  34
ATOM     34  O   UNL A   1      36.793  21.820  25.762  1.00  0.00    -0.458 OA
BRANCH  34  35
ATOM     35  C   UNL A   1      38.129  21.604  25.800  1.00  0.00     0.338 C 
ATOM     36  O   UNL A   1      38.730  20.676  25.290  1.00  0.00    -0.246 OA
BRANCH  35  37
ATOM     37  C   UNL A   1      38.802  22.744  26.477  1.00  0.00     0.060 A 
ATOM     38  C   UNL A   1      38.385  24.053  26.251  1.00  0.00     0.016 A 
ATOM     39  C   UNL A   1      39.967  22.524  27.214  1.00  0.00     0.016 A 
ATOM     40  C   UNL A   1      39.210  25.121  26.609  1.00  0.00     0.010 A 
ATOM     41  C   UNL A   1      40.711  23.611  27.701  1.00  0.00     0.010 A 
ATOM     42  C   UNL A   1      40.374  24.935  27.367  1.00  0.00    -0.014 A 
BRANCH  42  43
ATOM     43  C   UNL A   1      41.230  26.095  27.789  1.00  0.00     0.031 A 
ATOM     44  C   UNL A   1      40.707  27.139  28.755  1.00  0.00     0.074 A 
ATOM     45  C   UNL A   1      42.488  26.253  27.319  1.00  0.00     0.049 A 
ATOM     46  N   UNL A   1      41.137  28.361  28.964  1.00  0.00    -0.248 NA
ATOM     47  C   UNL A   1      39.544  26.772  29.580  1.00  0.00     0.031 C 
ATOM     48  C   UNL A   1      43.205  25.328  26.438  1.00  0.00     0.029 A 
ATOM     49  N   UNL A   1      43.399  27.268  27.523  1.00  0.00    -0.354 N 
ATOM     50  C   UNL A   1      40.242  28.936  29.862  1.00  0.00     0.074 A 
ATOM     51  C   UNL A   1      39.261  27.921  30.182  1.00  0.00     0.031 C 
ATOM     52  C   UNL A   1      44.449  25.774  26.238  1.00  0.00     0.029 A 
ATOM     53  C   UNL A   1      44.570  27.100  26.824  1.00  0.00     0.049 A 
ATOM     54  H   UNL A   1      43.225  28.038  28.113  1.00  0.00     0.167 HD
ATOM     55  C   UNL A   1      40.232  30.199  30.357  1.00  0.00     0.031 A 
ATOM     56  C   UNL A   1      45.596  27.936  26.577  1.00  0.00     0.031 A 
ATOM     57  C   UNL A   1      41.257  31.183  30.112  1.00  0.00     0.049 A 
ATOM     58  C   UNL A   1      45.542  29.342  27.087  1.00  0.00     0.074 A 
ATOM     59  C   UNL A   1      41.338  32.481  30.591  1.00  0.00     0.029 A 
ATOM     60  N   UNL A   1      42.393  30.970  29.350  1.00  0.00    -0.354 N 
ATOM     61  N   UNL A   1      44.624  29.918  27.820  1.00  0.00    -0.248 NA
ATOM     62  C   UNL A   1      46.652  30.224  26.702  1.00  0.00     0.031 C 
ATOM     63  C   UNL A   1      42.502  33.067  30.083  1.00  0.00     0.029 A 
ATOM     64  C   UNL A   1      43.173  32.116  29.333  1.00  0.00     0.049 A 
ATOM     65  H   UNL A   1      42.614  30.129  28.887  1.00  0.00     0.167 HD
ATOM     66  C   UNL A   1      45.047  31.228  27.988  1.00  0.00     0.074 A 
ATOM     67  C   UNL A   1      46.316  31.356  27.304  1.00  0.00     0.031 C 
ATOM     68  C   UNL A   1      44.430  32.239  28.647  1.00  0.00     0.031 A 
BRANCH  55  69
ATOM     69  C   UNL A   1      39.049  30.633  31.182  1.00  0.00    -0.014 A 
ATOM     70  C   UNL A   1      37.900  31.190  30.603  1.00  0.00     0.009 A 
ATOM     71  C   UNL A   1      39.054  30.377  32.564  1.00  0.00     0.009 A 
ATOM     72  C   UNL A   1      36.788  31.494  31.396  1.00  0.00     0.001 A 
ATOM     73  C   UNL A   1      37.933  30.655  33.348  1.00  0.00     0.001 A 
ATOM     74  C   UNL A   1      36.802  31.218  32.764  1.00  0.00     0.000 A 
ENDBRANCH  55  69
BRANCH  56  75
ATOM     75  C   UNL A   1      46.705  27.492  25.690  1.00  0.00    -0.014 A 
ATOM     76  C   UNL A   1      46.728  27.844  24.334  1.00  0.00     0.009 A 
ATOM     77  C   UNL A   1      47.764  26.729  26.213  1.00  0.00     0.009 A 
ATOM     78  C   UNL A   1      47.788  27.439  23.519  1.00  0.00     0.001 A 
ATOM     79  C   UNL A   1      48.841  26.362  25.407  1.00  0.00     0.001 A 
ATOM     80  C   UNL A   1      48.849  26.710  24.059  1.00  0.00     0.000 A 
ENDBRANCH  56  75
BRANCH  68  81
ATOM     81  C   UNL A   1      45.147  33.556  28.693  1.00  0.00    -0.014 A 
ATOM     82  C   UNL A   1      44.913  34.545  27.725  1.00  0.00     0.009 A 
ATOM     83  C   UNL A   1      46.071  33.809  29.718  1.00  0.00     0.009 A 
ATOM     84  C   UNL A   1      45.621  35.748  27.763  1.00  0.00     0.001 A 
ATOM     85  C   UNL A   1      46.757  35.022  29.769  1.00  0.00     0.001 A 
ATOM     86  C   UNL A   1      46.540  35.986  28.785  1.00  0.00     0.000 A 
ENDBRANCH  68  81
ENDBRANCH  42  43
ENDBRANCH  35  37
ENDBRANCH  34  35
ENDBRANCH   1  34
TORSDOF 12
ENDMDL
