MODEL 1
REMARK VINA RESULT:     -13.2      0.000      0.000
REMARK SMILES O=C(OCCOC(=O)c1ccc(-c2c3nc(c(-c4ccccc4)c4ccc([nH]4)c(-c4ccccc4)c4nc(c(-c5ccccc5)c5ccc2[nH]5)C=C4)C=C3)cc1)C1=Cc2cc(Cl)c(Cl)c(Cl)c2O[C@@H]1C(F)(F)F
REMARK SMILES IDX 5 1 4 2 3 3 2 4 1 5 57 6 58 7 69 8 59 9 68 10 60 11 67 12
REMARK SMILES IDX 61 13 65 14 62 15 63 16 66 17 64 18 70 19 71 20 72 21 73 22
REMARK SMILES IDX 6 23 7 24 8 25 9 26 10 27 56 28 11 29 55 30 12 31 13 32
REMARK SMILES IDX 14 33 49 34 15 35 54 36 48 37 50 38 16 39 53 40 47 41 46 42
REMARK SMILES IDX 17 44 39 45 24 46 38 47 25 48 28 49 37 50 51 51 26 52 27 53
REMARK SMILES IDX 36 55 52 56 29 57 18 58 19 59 23 60 20 61 22 62 21 63 40 64
REMARK SMILES IDX 41 65 45 66 42 67 44 68 43 69 30 70 31 71 35 72 32 73 34 74
REMARK SMILES IDX 33 75
REMARK H PARENT 50 43 28 54
REMARK Flexibility Score: inf
ROOT
ATOM      1  C   UNL A   1      31.417  32.325  26.982  1.00  0.00     0.275 C 
ENDROOT
BRANCH   1   2
ATOM      2  C   UNL A   1      32.333  30.370  26.827  1.00  0.00     0.275 C 
BRANCH   2   3
ATOM      3  O   UNL A   1      32.174  29.373  25.633  1.00  0.00    -0.459 OA
BRANCH   3   4
ATOM      4  C   UNL A   1      31.779  28.150  26.005  1.00  0.00     0.338 C 
ATOM      5  O   UNL A   1      31.491  27.706  27.085  1.00  0.00    -0.246 OA
BRANCH   4   6
ATOM      6  C   UNL A   1      32.143  27.523  24.763  1.00  0.00     0.087 C 
ATOM      7  C   UNL A   1      33.515  26.972  24.840  1.00  0.00     0.027 C 
ATOM      8  C   UNL A   1      30.533  26.472  24.554  1.00  0.00     0.316 C 
ATOM      9  C   UNL A   1      33.865  25.198  24.893  1.00  0.00     0.020 A 
ATOM     10  O   UNL A   1      30.895  24.583  24.654  1.00  0.00    -0.474 OA
ATOM     11  C   UNL A   1      35.149  24.804  25.138  1.00  0.00     0.034 A 
ATOM     12  C   UNL A   1      32.608  24.002  24.893  1.00  0.00     0.148 A 
ATOM     13  C   UNL A   1      35.319  23.425  25.379  1.00  0.00     0.062 A 
ATOM     14  C   UNL A   1      32.861  22.673  25.131  1.00  0.00     0.103 A 
ATOM     15  Cl  UNL A   1      36.975  22.985  25.728  1.00  0.00    -0.083 Cl
ATOM     16  C   UNL A   1      34.244  22.410  25.384  1.00  0.00     0.082 A 
ATOM     17  Cl  UNL A   1      31.630  21.494  25.175  1.00  0.00    -0.079 Cl
ATOM     18  Cl  UNL A   1      34.717  20.767  25.769  1.00  0.00    -0.081 Cl
BRANCH   8  19
ATOM     19  C   UNL A   1      29.798  27.353  23.489  1.00  0.00     0.430 C 
ATOM     20  F   UNL A   1      30.325  27.214  22.266  1.00  0.00    -0.167 F 
ATOM     21  F   UNL A   1      28.519  26.883  23.363  1.00  0.00    -0.167 F 
ATOM     22  F   UNL A   1      29.612  28.651  23.794  1.00  0.00    -0.167 F 
ENDBRANCH   8  19
ENDBRANCH   4   6
ENDBRANCH   3   4
ENDBRANCH   2   3
ENDBRANCH   1   2
BRANCH   1  23
ATOM     23  O   UNL A   1      32.204  33.780  27.404  1.00  0.00    -0.458 OA
BRANCH  23  24
ATOM     24  C   UNL A   1      32.906  34.414  28.396  1.00  0.00     0.338 C 
ATOM     25  O   UNL A   1      32.544  35.247  29.202  1.00  0.00    -0.246 OA
BRANCH  24  26
ATOM     26  C   UNL A   1      34.155  33.611  28.550  1.00  0.00     0.060 A 
ATOM     27  C   UNL A   1      35.334  34.077  27.945  1.00  0.00     0.016 A 
ATOM     28  C   UNL A   1      34.222  32.673  29.579  1.00  0.00     0.016 A 
ATOM     29  C   UNL A   1      36.573  33.810  28.551  1.00  0.00     0.010 A 
ATOM     30  C   UNL A   1      35.458  32.371  30.145  1.00  0.00     0.010 A 
ATOM     31  C   UNL A   1      36.631  33.001  29.695  1.00  0.00    -0.014 A 
BRANCH  31  32
ATOM     32  C   UNL A   1      37.916  32.590  30.313  1.00  0.00     0.031 A 
ATOM     33  C   UNL A   1      38.544  31.357  29.746  1.00  0.00     0.074 A 
ATOM     34  C   UNL A   1      38.416  33.161  31.428  1.00  0.00     0.049 A 
ATOM     35  N   UNL A   1      39.511  30.619  30.218  1.00  0.00    -0.248 NA
ATOM     36  C   UNL A   1      37.947  30.862  28.494  1.00  0.00     0.031 C 
ATOM     37  C   UNL A   1      37.904  34.363  32.086  1.00  0.00     0.029 A 
ATOM     38  N   UNL A   1      39.463  32.766  32.232  1.00  0.00    -0.354 N 
ATOM     39  C   UNL A   1      39.609  29.551  29.339  1.00  0.00     0.074 A 
ATOM     40  C   UNL A   1      38.586  29.719  28.335  1.00  0.00     0.031 C 
ATOM     41  C   UNL A   1      38.620  34.592  33.204  1.00  0.00     0.029 A 
ATOM     42  C   UNL A   1      39.619  33.536  33.364  1.00  0.00     0.049 A 
ATOM     43  H   UNL A   1      40.047  32.004  32.018  1.00  0.00     0.167 HD
ATOM     44  C   UNL A   1      40.472  28.512  29.362  1.00  0.00     0.031 A 
ATOM     45  C   UNL A   1      40.458  33.383  34.413  1.00  0.00     0.031 A 
ATOM     46  C   UNL A   1      41.458  28.317  30.380  1.00  0.00     0.049 A 
ATOM     47  C   UNL A   1      41.401  32.200  34.437  1.00  0.00     0.074 A 
ATOM     48  C   UNL A   1      42.393  27.308  30.493  1.00  0.00     0.029 A 
ATOM     49  N   UNL A   1      41.621  29.152  31.476  1.00  0.00    -0.354 N 
ATOM     50  N   UNL A   1      41.539  31.231  33.561  1.00  0.00    -0.248 NA
ATOM     51  C   UNL A   1      42.308  32.088  35.593  1.00  0.00     0.031 C 
ATOM     52  C   UNL A   1      43.097  27.507  31.685  1.00  0.00     0.029 A 
ATOM     53  C   UNL A   1      42.635  28.672  32.281  1.00  0.00     0.049 A 
ATOM     54  H   UNL A   1      41.093  29.964  31.653  1.00  0.00     0.167 HD
ATOM     55  C   UNL A   1      42.565  30.423  34.039  1.00  0.00     0.074 A 
ATOM     56  C   UNL A   1      43.020  31.013  35.281  1.00  0.00     0.031 C 
ATOM     57  C   UNL A   1      43.087  29.295  33.498  1.00  0.00     0.031 A 
BRANCH  44  58
ATOM     58  C   UNL A   1      40.306  27.503  28.266  1.00  0.00    -0.014 A 
ATOM     59  C   UNL A   1      39.534  26.343  28.461  1.00  0.00     0.009 A 
ATOM     60  C   UNL A   1      41.024  27.652  27.071  1.00  0.00     0.009 A 
ATOM     61  C   UNL A   1      39.552  25.319  27.516  1.00  0.00     0.001 A 
ATOM     62  C   UNL A   1      41.008  26.641  26.111  1.00  0.00     0.001 A 
ATOM     63  C   UNL A   1      40.291  25.468  26.342  1.00  0.00     0.000 A 
ENDBRANCH  44  58
BRANCH  45  64
ATOM     64  C   UNL A   1      40.458  34.352  35.549  1.00  0.00    -0.014 A 
ATOM     65  C   UNL A   1      39.655  34.123  36.680  1.00  0.00     0.009 A 
ATOM     66  C   UNL A   1      41.205  35.538  35.489  1.00  0.00     0.009 A 
ATOM     67  C   UNL A   1      39.577  35.071  37.706  1.00  0.00     0.001 A 
ATOM     68  C   UNL A   1      41.145  36.474  36.529  1.00  0.00     0.001 A 
ATOM     69  C   UNL A   1      40.322  36.245  37.631  1.00  0.00     0.000 A 
ENDBRANCH  45  64
BRANCH  57  70
ATOM     70  C   UNL A   1      44.249  28.643  34.195  1.00  0.00    -0.014 A 
ATOM     71  C   UNL A   1      45.567  29.065  33.972  1.00  0.00     0.009 A 
ATOM     72  C   UNL A   1      43.997  27.685  35.191  1.00  0.00     0.009 A 
ATOM     73  C   UNL A   1      46.612  28.536  34.733  1.00  0.00     0.001 A 
ATOM     74  C   UNL A   1      45.039  27.179  35.967  1.00  0.00     0.001 A 
ATOM     75  C   UNL A   1      46.346  27.604  35.738  1.00  0.00     0.000 A 
ENDBRANCH  57  70
ENDBRANCH  31  32
ENDBRANCH  24  26
ENDBRANCH  23  24
ENDBRANCH   1  23
TORSDOF 12
ENDMDL
MODEL 2
REMARK VINA RESULT:     -13.1      3.175      7.264
REMARK SMILES O=C(OCCOC(=O)c1ccc(-c2c3nc(c(-c4ccccc4)c4ccc([nH]4)c(-c4ccccc4)c4nc(c(-c5ccccc5)c5ccc2[nH]5)C=C4)C=C3)cc1)C1=Cc2cc(Cl)c(Cl)c(Cl)c2O[C@@H]1C(F)(F)F
REMARK SMILES IDX 5 1 4 2 3 3 2 4 1 5 57 6 58 7 69 8 59 9 68 10 60 11 67 12
REMARK SMILES IDX 61 13 65 14 62 15 63 16 66 17 64 18 70 19 71 20 72 21 73 22
REMARK SMILES IDX 6 23 7 24 8 25 9 26 10 27 56 28 11 29 55 30 12 31 13 32
REMARK SMILES IDX 14 33 49 34 15 35 54 36 48 37 50 38 16 39 53 40 47 41 46 42
REMARK SMILES IDX 17 44 39 45 24 46 38 47 25 48 28 49 37 50 51 51 26 52 27 53
REMARK SMILES IDX 36 55 52 56 29 57 18 58 19 59 23 60 20 61 22 62 21 63 40 64
REMARK SMILES IDX 41 65 45 66 42 67 44 68 43 69 30 70 31 71 35 72 32 73 34 74
REMARK SMILES IDX 33 75
REMARK H PARENT 50 43 28 54
REMARK Flexibility Score: inf
ROOT
ATOM      1  C   UNL A   1      32.496  30.128  26.889  1.00  0.00     0.275 C 
ENDROOT
BRANCH   1   2
ATOM      2  C   UNL A   1      31.972  28.043  27.149  1.00  0.00     0.275 C 
BRANCH   2   3
ATOM      3  O   UNL A   1      32.805  26.818  26.649  1.00  0.00    -0.459 OA
BRANCH   3   4
ATOM      4  C   UNL A   1      32.059  25.745  26.362  1.00  0.00     0.338 C 
ATOM      5  O   UNL A   1      31.343  25.071  27.053  1.00  0.00    -0.246 OA
BRANCH   4   6
ATOM      6  C   UNL A   1      32.672  25.512  25.081  1.00  0.00     0.087 C 
ATOM      7  C   UNL A   1      34.142  25.407  25.219  1.00  0.00     0.027 C 
ATOM      8  C   UNL A   1      31.502  24.077  24.522  1.00  0.00     0.316 C 
ATOM      9  C   UNL A   1      35.044  23.851  25.016  1.00  0.00     0.020 A 
ATOM     10  O   UNL A   1      32.449  22.410  24.347  1.00  0.00    -0.474 OA
ATOM     11  C   UNL A   1      36.371  23.832  25.335  1.00  0.00     0.034 A 
ATOM     12  C   UNL A   1      34.243  22.350  24.677  1.00  0.00     0.148 A 
ATOM     13  C   UNL A   1      36.964  22.554  25.361  1.00  0.00     0.062 A 
ATOM     14  C   UNL A   1      34.899  21.144  24.718  1.00  0.00     0.103 A 
ATOM     15  Cl  UNL A   1      38.653  22.586  25.816  1.00  0.00    -0.083 Cl
ATOM     16  C   UNL A   1      36.278  21.276  25.077  1.00  0.00     0.082 A 
ATOM     17  Cl  UNL A   1      34.115  19.658  24.427  1.00  0.00    -0.079 Cl
ATOM     18  Cl  UNL A   1      37.235  19.816  25.235  1.00  0.00    -0.081 Cl
BRANCH   8  19
ATOM     19  C   UNL A   1      30.579  24.878  23.542  1.00  0.00     0.430 C 
ATOM     20  F   UNL A   1      31.279  25.506  22.588  1.00  0.00    -0.167 F 
ATOM     21  F   UNL A   1      29.807  23.977  22.860  1.00  0.00    -0.167 F 
ATOM     22  F   UNL A   1      29.667  25.697  24.096  1.00  0.00    -0.167 F 
ENDBRANCH   8  19
ENDBRANCH   4   6
ENDBRANCH   3   4
ENDBRANCH   2   3
ENDBRANCH   1   2
BRANCH   1  23
ATOM     23  O   UNL A   1      34.006  30.842  27.238  1.00  0.00    -0.458 OA
BRANCH  23  24
ATOM     24  C   UNL A   1      34.828  31.257  28.253  1.00  0.00     0.338 C 
ATOM     25  O   UNL A   1      34.658  32.110  29.100  1.00  0.00    -0.246 OA
BRANCH  24  26
ATOM     26  C   UNL A   1      35.868  30.192  28.360  1.00  0.00     0.060 A 
ATOM     27  C   UNL A   1      36.807  30.060  27.323  1.00  0.00     0.016 A 
ATOM     28  C   UNL A   1      36.128  29.637  29.612  1.00  0.00     0.016 A 
ATOM     29  C   UNL A   1      38.107  29.616  27.620  1.00  0.00     0.010 A 
ATOM     30  C   UNL A   1      37.404  29.151  29.889  1.00  0.00     0.010 A 
ATOM     31  C   UNL A   1      38.426  29.216  28.926  1.00  0.00    -0.014 A 
BRANCH  31  32
ATOM     32  C   UNL A   1      39.744  28.632  29.278  1.00  0.00     0.031 A 
ATOM     33  C   UNL A   1      40.733  29.579  29.878  1.00  0.00     0.074 A 
ATOM     34  C   UNL A   1      40.118  27.385  28.926  1.00  0.00     0.049 A 
ATOM     35  N   UNL A   1      42.018  29.442  30.058  1.00  0.00    -0.248 NA
ATOM     36  C   UNL A   1      40.192  30.890  30.276  1.00  0.00     0.031 C 
ATOM     37  C   UNL A   1      39.258  26.361  28.333  1.00  0.00     0.029 A 
ATOM     38  N   UNL A   1      41.355  26.781  28.986  1.00  0.00    -0.354 N 
ATOM     39  C   UNL A   1      42.444  30.665  30.554  1.00  0.00     0.074 A 
ATOM     40  C   UNL A   1      41.293  31.536  30.610  1.00  0.00     0.031 C 
ATOM     41  C   UNL A   1      39.998  25.267  28.061  1.00  0.00     0.029 A 
ATOM     42  C   UNL A   1      41.390  25.522  28.427  1.00  0.00     0.049 A 
ATOM     43  H   UNL A   1      42.142  27.209  29.393  1.00  0.00     0.167 HD
ATOM     44  C   UNL A   1      43.686  31.042  30.928  1.00  0.00     0.031 A 
ATOM     45  C   UNL A   1      42.435  24.691  28.218  1.00  0.00     0.031 A 
ATOM     46  C   UNL A   1      44.837  30.198  30.833  1.00  0.00     0.049 A 
ATOM     47  C   UNL A   1      43.825  25.137  28.619  1.00  0.00     0.074 A 
ATOM     48  C   UNL A   1      46.140  30.472  31.198  1.00  0.00     0.029 A 
ATOM     49  N   UNL A   1      44.818  28.911  30.316  1.00  0.00    -0.354 N 
ATOM     50  N   UNL A   1      44.208  26.271  29.157  1.00  0.00    -0.248 NA
ATOM     51  C   UNL A   1      44.927  24.187  28.387  1.00  0.00     0.031 C 
ATOM     52  C   UNL A   1      46.921  29.363  30.860  1.00  0.00     0.029 A 
ATOM     53  C   UNL A   1      46.092  28.380  30.338  1.00  0.00     0.049 A 
ATOM     54  H   UNL A   1      44.016  28.445  29.983  1.00  0.00     0.167 HD
ATOM     55  C   UNL A   1      45.580  26.157  29.361  1.00  0.00     0.074 A 
ATOM     56  C   UNL A   1      45.965  24.842  28.891  1.00  0.00     0.031 C 
ATOM     57  C   UNL A   1      46.444  27.057  29.891  1.00  0.00     0.031 A 
BRANCH  44  58
ATOM     58  C   UNL A   1      43.821  32.454  31.412  1.00  0.00    -0.014 A 
ATOM     59  C   UNL A   1      43.647  32.774  32.770  1.00  0.00     0.009 A 
ATOM     60  C   UNL A   1      44.005  33.490  30.485  1.00  0.00     0.009 A 
ATOM     61  C   UNL A   1      43.571  34.105  33.176  1.00  0.00     0.001 A 
ATOM     62  C   UNL A   1      43.969  34.820  30.901  1.00  0.00     0.001 A 
ATOM     63  C   UNL A   1      43.731  35.127  32.241  1.00  0.00     0.000 A 
ENDBRANCH  44  58
BRANCH  45  64
ATOM     64  C   UNL A   1      42.242  23.352  27.586  1.00  0.00    -0.014 A 
ATOM     65  C   UNL A   1      42.501  23.166  26.217  1.00  0.00     0.009 A 
ATOM     66  C   UNL A   1      41.740  22.269  28.324  1.00  0.00     0.009 A 
ATOM     67  C   UNL A   1      42.232  21.940  25.598  1.00  0.00     0.001 A 
ATOM     68  C   UNL A   1      41.495  21.036  27.708  1.00  0.00     0.001 A 
ATOM     69  C   UNL A   1      41.732  20.876  26.343  1.00  0.00     0.000 A 
ENDBRANCH  45  64
BRANCH  57  70
ATOM     70  C   UNL A   1      47.881  26.651  30.058  1.00  0.00    -0.014 A 
ATOM     71  C   UNL A   1      48.318  25.949  31.191  1.00  0.00     0.009 A 
ATOM     72  C   UNL A   1      48.777  26.858  28.996  1.00  0.00     0.009 A 
ATOM     73  C   UNL A   1      49.626  25.466  31.257  1.00  0.00     0.001 A 
ATOM     74  C   UNL A   1      50.075  26.351  29.054  1.00  0.00     0.001 A 
ATOM     75  C   UNL A   1      50.498  25.655  30.184  1.00  0.00     0.000 A 
ENDBRANCH  57  70
ENDBRANCH  31  32
ENDBRANCH  24  26
ENDBRANCH  23  24
ENDBRANCH   1  23
TORSDOF 12
ENDMDL
MODEL 3
REMARK VINA RESULT:     -13.1      4.948      8.354
REMARK SMILES O=C(OCCOC(=O)c1ccc(-c2c3nc(c(-c4ccccc4)c4ccc([nH]4)c(-c4ccccc4)c4nc(c(-c5ccccc5)c5ccc2[nH]5)C=C4)C=C3)cc1)C1=Cc2cc(Cl)c(Cl)c(Cl)c2O[C@@H]1C(F)(F)F
REMARK SMILES IDX 5 1 4 2 3 3 2 4 1 5 57 6 58 7 69 8 59 9 68 10 60 11 67 12
REMARK SMILES IDX 61 13 65 14 62 15 63 16 66 17 64 18 70 19 71 20 72 21 73 22
REMARK SMILES IDX 6 23 7 24 8 25 9 26 10 27 56 28 11 29 55 30 12 31 13 32
REMARK SMILES IDX 14 33 49 34 15 35 54 36 48 37 50 38 16 39 53 40 47 41 46 42
REMARK SMILES IDX 17 44 39 45 24 46 38 47 25 48 28 49 37 50 51 51 26 52 27 53
REMARK SMILES IDX 36 55 52 56 29 57 18 58 19 59 23 60 20 61 22 62 21 63 40 64
REMARK SMILES IDX 41 65 45 66 42 67 44 68 43 69 30 70 31 71 35 72 32 73 34 74
REMARK SMILES IDX 33 75
REMARK H PARENT 50 43 28 54
REMARK Flexibility Score: inf
ROOT
ATOM      1  C   UNL A   1      38.832  19.257  25.351  1.00  0.00     0.275 C 
ENDROOT
BRANCH   1   2
ATOM      2  C   UNL A   1      36.778  19.840  24.995  1.00  0.00     0.275 C 
BRANCH   2   3
ATOM      3  O   UNL A   1      36.098  21.159  25.490  1.00  0.00    -0.459 OA
BRANCH   3   4
ATOM      4  C   UNL A   1      35.715  21.969  24.498  1.00  0.00     0.338 C 
ATOM      5  O   UNL A   1      36.332  22.446  23.582  1.00  0.00    -0.246 OA
BRANCH   4   6
ATOM      6  C   UNL A   1      34.454  22.310  25.100  1.00  0.00     0.087 C 
ATOM      7  C   UNL A   1      34.545  23.615  25.795  1.00  0.00     0.027 C 
ATOM      8  C   UNL A   1      33.351  21.949  23.553  1.00  0.00     0.316 C 
ATOM      9  C   UNL A   1      33.731  25.114  25.191  1.00  0.00     0.020 A 
ATOM     10  O   UNL A   1      32.517  23.549  22.881  1.00  0.00    -0.474 OA
ATOM     11  C   UNL A   1      34.021  26.296  25.809  1.00  0.00     0.034 A 
ATOM     12  C   UNL A   1      32.804  25.142  23.725  1.00  0.00     0.148 A 
ATOM     13  C   UNL A   1      33.527  27.448  25.165  1.00  0.00     0.062 A 
ATOM     14  C   UNL A   1      32.354  26.313  23.165  1.00  0.00     0.103 A 
ATOM     15  Cl  UNL A   1      33.965  28.934  25.977  1.00  0.00    -0.083 Cl
ATOM     16  C   UNL A   1      32.743  27.469  23.912  1.00  0.00     0.082 A 
ATOM     17  Cl  UNL A   1      31.478  26.358  21.702  1.00  0.00    -0.079 Cl
ATOM     18  Cl  UNL A   1      32.297  29.045  23.289  1.00  0.00    -0.081 Cl
BRANCH   8  19
ATOM     19  C   UNL A   1      32.778  20.555  23.977  1.00  0.00     0.430 C 
ATOM     20  F   UNL A   1      31.931  20.650  25.010  1.00  0.00    -0.167 F 
ATOM     21  F   UNL A   1      32.009  20.085  22.948  1.00  0.00    -0.167 F 
ATOM     22  F   UNL A   1      33.667  19.562  24.166  1.00  0.00    -0.167 F 
ENDBRANCH   8  19
ENDBRANCH   4   6
ENDBRANCH   3   4
ENDBRANCH   2   3
ENDBRANCH   1   2
BRANCH   1  23
ATOM     23  O   UNL A   1      40.040  20.211  26.088  1.00  0.00    -0.458 OA
BRANCH  23  24
ATOM     24  C   UNL A   1      40.919  20.270  27.138  1.00  0.00     0.338 C 
ATOM     25  O   UNL A   1      41.824  19.522  27.446  1.00  0.00    -0.246 OA
BRANCH  24  26
ATOM     26  C   UNL A   1      40.792  21.663  27.660  1.00  0.00     0.060 A 
ATOM     27  C   UNL A   1      41.768  22.140  28.551  1.00  0.00     0.016 A 
ATOM     28  C   UNL A   1      39.974  22.560  26.975  1.00  0.00     0.016 A 
ATOM     29  C   UNL A   1      42.101  23.505  28.546  1.00  0.00     0.010 A 
ATOM     30  C   UNL A   1      40.276  23.920  27.012  1.00  0.00     0.010 A 
ATOM     31  C   UNL A   1      41.390  24.393  27.725  1.00  0.00    -0.014 A 
BRANCH  31  32
ATOM     32  C   UNL A   1      41.617  25.859  27.758  1.00  0.00     0.031 A 
ATOM     33  C   UNL A   1      42.892  26.332  27.136  1.00  0.00     0.074 A 
ATOM     34  C   UNL A   1      40.838  26.713  28.453  1.00  0.00     0.049 A 
ATOM     35  N   UNL A   1      43.484  27.492  27.223  1.00  0.00    -0.248 NA
ATOM     36  C   UNL A   1      43.625  25.324  26.353  1.00  0.00     0.031 C 
ATOM     37  C   UNL A   1      39.572  26.386  29.110  1.00  0.00     0.029 A 
ATOM     38  N   UNL A   1      41.031  28.043  28.756  1.00  0.00    -0.354 N 
ATOM     39  C   UNL A   1      44.678  27.337  26.535  1.00  0.00     0.074 A 
ATOM     40  C   UNL A   1      44.741  25.970  26.075  1.00  0.00     0.031 C 
ATOM     41  C   UNL A   1      39.116  27.477  29.757  1.00  0.00     0.029 A 
ATOM     42  C   UNL A   1      40.072  28.572  29.592  1.00  0.00     0.049 A 
ATOM     43  H   UNL A   1      41.785  28.569  28.405  1.00  0.00     0.167 HD
ATOM     44  C   UNL A   1      45.649  28.248  26.308  1.00  0.00     0.031 A 
ATOM     45  C   UNL A   1      39.998  29.790  30.172  1.00  0.00     0.031 A 
ATOM     46  C   UNL A   1      45.613  29.591  26.801  1.00  0.00     0.049 A 
ATOM     47  C   UNL A   1      41.106  30.792  29.928  1.00  0.00     0.074 A 
ATOM     48  C   UNL A   1      46.534  30.603  26.617  1.00  0.00     0.029 A 
ATOM     49  N   UNL A   1      44.596  30.102  27.594  1.00  0.00    -0.354 N 
ATOM     50  N   UNL A   1      42.199  30.661  29.214  1.00  0.00    -0.248 NA
ATOM     51  C   UNL A   1      40.968  32.113  30.568  1.00  0.00     0.031 C 
ATOM     52  C   UNL A   1      46.096  31.717  27.338  1.00  0.00     0.029 A 
ATOM     53  C   UNL A   1      44.874  31.414  27.922  1.00  0.00     0.049 A 
ATOM     54  H   UNL A   1      43.796  29.604  27.880  1.00  0.00     0.167 HD
ATOM     55  C   UNL A   1      42.856  31.886  29.288  1.00  0.00     0.074 A 
ATOM     56  C   UNL A   1      42.040  32.751  30.114  1.00  0.00     0.031 C 
ATOM     57  C   UNL A   1      44.029  32.262  28.722  1.00  0.00     0.031 A 
BRANCH  44  58
ATOM     58  C   UNL A   1      46.838  27.757  25.538  1.00  0.00    -0.014 A 
ATOM     59  C   UNL A   1      46.923  27.939  24.146  1.00  0.00     0.009 A 
ATOM     60  C   UNL A   1      47.822  27.001  26.190  1.00  0.00     0.009 A 
ATOM     61  C   UNL A   1      47.925  27.304  23.414  1.00  0.00     0.001 A 
ATOM     62  C   UNL A   1      48.846  26.400  25.458  1.00  0.00     0.001 A 
ATOM     63  C   UNL A   1      48.884  26.534  24.070  1.00  0.00     0.000 A 
ENDBRANCH  44  58
BRANCH  45  64
ATOM     64  C   UNL A   1      38.852  30.156  31.056  1.00  0.00    -0.014 A 
ATOM     65  C   UNL A   1      37.699  30.752  30.517  1.00  0.00     0.009 A 
ATOM     66  C   UNL A   1      38.922  29.974  32.446  1.00  0.00     0.009 A 
ATOM     67  C   UNL A   1      36.661  31.184  31.350  1.00  0.00     0.001 A 
ATOM     68  C   UNL A   1      37.871  30.385  33.275  1.00  0.00     0.001 A 
ATOM     69  C   UNL A   1      36.746  30.999  32.727  1.00  0.00     0.000 A 
ENDBRANCH  45  64
BRANCH  57  70
ATOM     70  C   UNL A   1      44.487  33.681  28.911  1.00  0.00    -0.014 A 
ATOM     71  C   UNL A   1      45.414  34.026  29.905  1.00  0.00     0.009 A 
ATOM     72  C   UNL A   1      44.084  34.658  27.986  1.00  0.00     0.009 A 
ATOM     73  C   UNL A   1      45.925  35.324  29.970  1.00  0.00     0.001 A 
ATOM     74  C   UNL A   1      44.616  35.946  28.036  1.00  0.00     0.001 A 
ATOM     75  C   UNL A   1      45.536  36.278  29.028  1.00  0.00     0.000 A 
ENDBRANCH  57  70
ENDBRANCH  31  32
ENDBRANCH  24  26
ENDBRANCH  23  24
ENDBRANCH   1  23
TORSDOF 12
ENDMDL
