MODEL 1
REMARK VINA RESULT:     -10.0      0.000      0.000
REMARK SMILES [NH3+]CCC1=c2cc([N+](=O)[O-])ccc2=N[C@H]1C(=O)OCCOC(=O)c1ccc(-c2c3nc(c(-c4ccccc4)c4ccc([nH]4)c(-c4ccccc4)c4nc(c(-c5ccccc5)c5ccc2[nH]5)C=C4)C=C3)cc1
REMARK SMILES IDX 19 1 18 2 16 3 17 4 15 5 4 6 5 7 6 8 13 9 14 10 7 11 12 12
REMARK SMILES IDX 11 13 3 14 2 15 1 16 8 20 9 21 10 22 20 23 21 24 22 25 23 26
REMARK SMILES IDX 24 27 25 28 71 29 26 30 70 31 27 32 28 33 29 34 64 35 30 36
REMARK SMILES IDX 69 37 63 38 65 39 31 40 68 41 62 42 61 43 32 45 54 46 39 47
REMARK SMILES IDX 53 48 40 49 43 50 52 51 66 52 41 53 42 54 51 56 67 57 44 58
REMARK SMILES IDX 33 59 34 60 38 61 35 62 37 63 36 64 55 65 56 66 60 67 57 68
REMARK SMILES IDX 59 69 58 70 45 71 46 72 50 73 47 74 49 75 48 76
REMARK H PARENT 1 17 1 18 1 19 65 44 43 55
REMARK Flexibility Score: inf
ROOT
ATOM      1  C   UNL A   1      31.128  29.663  24.654  1.00  0.00     0.274 C 
ENDROOT
BRANCH   1   2
ATOM      2  O   UNL A   1      32.335  29.200  24.016  1.00  0.00    -0.460 OA
BRANCH   2   3
ATOM      3  C   UNL A   1      32.269  27.950  23.474  1.00  0.00     0.335 C 
ATOM      4  O   UNL A   1      31.328  27.541  22.799  1.00  0.00    -0.249 OA
BRANCH   3   5
ATOM      5  C   UNL A   1      33.523  27.113  23.803  1.00  0.00     0.242 C 
ATOM      6  C   UNL A   1      33.320  26.283  25.055  1.00  0.00    -0.019 C 
ATOM      7  C   UNL A   1      33.344  24.982  24.764  1.00  0.00     0.009 A 
ATOM      8  C   UNL A   1      33.164  23.780  25.516  1.00  0.00     0.096 A 
ATOM      9  C   UNL A   1      33.582  24.964  23.312  1.00  0.00     0.067 A 
ATOM     10  N   UNL A   1      33.730  26.105  22.713  1.00  0.00    -0.265 NA
ATOM     11  C   UNL A   1      33.123  22.609  24.852  1.00  0.00     0.270 A 
ATOM     12  C   UNL A   1      33.581  23.631  22.663  1.00  0.00     0.035 A 
ATOM     13  C   UNL A   1      33.333  22.538  23.409  1.00  0.00     0.088 A 
BRANCH   6  14
ATOM     14  C   UNL A   1      33.162  26.933  26.399  1.00  0.00     0.096 C 
BRANCH  14  15
ATOM     15  C   UNL A   1      31.723  27.081  26.928  1.00  0.00     0.263 C 
BRANCH  15  16
ATOM     16  N   UNL A   1      31.567  28.064  27.994  1.00  0.00    -0.357 N 
ATOM     17  H   UNL A   1      30.577  28.269  28.126  1.00  0.00     0.344 HD
ATOM     18  H   UNL A   1      32.061  28.920  27.743  1.00  0.00     0.344 HD
ATOM     19  H   UNL A   1      31.954  27.689  28.861  1.00  0.00     0.344 HD
ENDBRANCH  15  16
ENDBRANCH  14  15
ENDBRANCH   6  14
BRANCH  11  20
ATOM     20  N   UNL A   1      32.830  21.399  25.633  1.00  0.00     0.062 N 
ATOM     21  O   UNL A   1      31.786  20.779  25.383  1.00  0.00    -0.258 OA
ATOM     22  O   UNL A   1      33.657  21.065  26.492  1.00  0.00    -0.258 OA
ENDBRANCH  11  20
ENDBRANCH   3   5
ENDBRANCH   2   3
ENDBRANCH   1   2
BRANCH   1  23
ATOM     23  C   UNL A   1      31.410  30.669  25.771  1.00  0.00     0.275 C 
BRANCH  23  24
ATOM     24  O   UNL A   1      32.765  30.552  26.233  1.00  0.00    -0.458 OA
BRANCH  24  25
ATOM     25  C   UNL A   1      33.179  31.525  27.075  1.00  0.00     0.338 C 
ATOM     26  O   UNL A   1      32.592  32.542  27.394  1.00  0.00    -0.246 OA
BRANCH  25  27
ATOM     27  C   UNL A   1      34.490  31.148  27.619  1.00  0.00     0.060 A 
ATOM     28  C   UNL A   1      35.456  32.110  27.895  1.00  0.00     0.016 A 
ATOM     29  C   UNL A   1      34.712  29.814  27.950  1.00  0.00     0.016 A 
ATOM     30  C   UNL A   1      36.656  31.714  28.497  1.00  0.00     0.010 A 
ATOM     31  C   UNL A   1      35.873  29.430  28.609  1.00  0.00     0.010 A 
ATOM     32  C   UNL A   1      36.864  30.374  28.881  1.00  0.00    -0.014 A 
BRANCH  32  33
ATOM     33  C   UNL A   1      38.079  29.965  29.628  1.00  0.00     0.031 A 
ATOM     34  C   UNL A   1      38.279  30.348  31.069  1.00  0.00     0.074 A 
ATOM     35  C   UNL A   1      39.049  29.302  28.971  1.00  0.00     0.049 A 
ATOM     36  N   UNL A   1      39.245  29.998  31.881  1.00  0.00    -0.248 NA
ATOM     37  C   UNL A   1      37.299  31.268  31.668  1.00  0.00     0.031 C 
ATOM     38  C   UNL A   1      39.030  28.983  27.541  1.00  0.00     0.029 A 
ATOM     39  N   UNL A   1      40.233  28.767  29.416  1.00  0.00    -0.354 N 
ATOM     40  C   UNL A   1      38.995  30.662  33.076  1.00  0.00     0.074 A 
ATOM     41  C   UNL A   1      37.826  31.484  32.864  1.00  0.00     0.031 C 
ATOM     42  C   UNL A   1      40.112  28.249  27.242  1.00  0.00     0.029 A 
ATOM     43  C   UNL A   1      40.913  28.067  28.449  1.00  0.00     0.049 A 
ATOM     44  H   UNL A   1      40.560  28.875  30.338  1.00  0.00     0.167 HD
ATOM     45  C   UNL A   1      39.662  30.566  34.250  1.00  0.00     0.031 A 
ATOM     46  C   UNL A   1      42.038  27.332  28.527  1.00  0.00     0.031 A 
ATOM     47  C   UNL A   1      40.808  29.721  34.456  1.00  0.00     0.049 A 
ATOM     48  C   UNL A   1      42.722  27.175  29.854  1.00  0.00     0.074 A 
ATOM     49  C   UNL A   1      41.479  29.460  35.637  1.00  0.00     0.029 A 
ATOM     50  N   UNL A   1      41.454  29.007  33.459  1.00  0.00    -0.354 N 
ATOM     51  N   UNL A   1      42.393  27.694  31.013  1.00  0.00    -0.248 NA
ATOM     52  C   UNL A   1      43.916  26.319  29.893  1.00  0.00     0.031 C 
ATOM     53  C   UNL A   1      42.569  28.636  35.344  1.00  0.00     0.029 A 
ATOM     54  C   UNL A   1      42.536  28.330  33.992  1.00  0.00     0.049 A 
ATOM     55  H   UNL A   1      41.183  28.985  32.513  1.00  0.00     0.167 HD
ATOM     56  C   UNL A   1      43.331  27.221  31.920  1.00  0.00     0.074 A 
ATOM     57  C   UNL A   1      44.229  26.355  31.182  1.00  0.00     0.031 C 
ATOM     58  C   UNL A   1      43.433  27.483  33.246  1.00  0.00     0.031 A 
BRANCH  45  59
ATOM     59  C   UNL A   1      39.158  31.371  35.419  1.00  0.00    -0.014 A 
ATOM     60  C   UNL A   1      39.733  32.619  35.711  1.00  0.00     0.009 A 
ATOM     61  C   UNL A   1      38.177  30.861  36.283  1.00  0.00     0.009 A 
ATOM     62  C   UNL A   1      39.338  33.337  36.842  1.00  0.00     0.001 A 
ATOM     63  C   UNL A   1      37.759  31.596  37.395  1.00  0.00     0.001 A 
ATOM     64  C   UNL A   1      38.347  32.827  37.679  1.00  0.00     0.000 A 
ENDBRANCH  45  59
BRANCH  46  65
ATOM     65  C   UNL A   1      42.511  26.620  27.312  1.00  0.00    -0.014 A 
ATOM     66  C   UNL A   1      42.077  25.315  27.029  1.00  0.00     0.009 A 
ATOM     67  C   UNL A   1      43.485  27.205  26.489  1.00  0.00     0.009 A 
ATOM     68  C   UNL A   1      42.633  24.598  25.967  1.00  0.00     0.001 A 
ATOM     69  C   UNL A   1      44.020  26.495  25.412  1.00  0.00     0.001 A 
ATOM     70  C   UNL A   1      43.603  25.189  25.159  1.00  0.00     0.000 A 
ENDBRANCH  46  65
BRANCH  58  71
ATOM     71  C   UNL A   1      44.560  26.841  34.006  1.00  0.00    -0.014 A 
ATOM     72  C   UNL A   1      45.811  27.474  34.066  1.00  0.00     0.009 A 
ATOM     73  C   UNL A   1      44.420  25.556  34.554  1.00  0.00     0.009 A 
ATOM     74  C   UNL A   1      46.907  26.828  34.643  1.00  0.00     0.001 A 
ATOM     75  C   UNL A   1      45.510  24.925  35.155  1.00  0.00     0.001 A 
ATOM     76  C   UNL A   1      46.753  25.555  35.189  1.00  0.00     0.000 A 
ENDBRANCH  58  71
ENDBRANCH  32  33
ENDBRANCH  25  27
ENDBRANCH  24  25
ENDBRANCH  23  24
ENDBRANCH   1  23
TORSDOF 15
ENDMDL
MODEL 2
REMARK VINA RESULT:      -9.9      3.738      8.875
REMARK SMILES [NH3+]CCC1=c2cc([N+](=O)[O-])ccc2=N[C@H]1C(=O)OCCOC(=O)c1ccc(-c2c3nc(c(-c4ccccc4)c4ccc([nH]4)c(-c4ccccc4)c4nc(c(-c5ccccc5)c5ccc2[nH]5)C=C4)C=C3)cc1
REMARK SMILES IDX 19 1 18 2 16 3 17 4 15 5 4 6 5 7 6 8 13 9 14 10 7 11 12 12
REMARK SMILES IDX 11 13 3 14 2 15 1 16 8 20 9 21 10 22 20 23 21 24 22 25 23 26
REMARK SMILES IDX 24 27 25 28 71 29 26 30 70 31 27 32 28 33 29 34 64 35 30 36
REMARK SMILES IDX 69 37 63 38 65 39 31 40 68 41 62 42 61 43 32 45 54 46 39 47
REMARK SMILES IDX 53 48 40 49 43 50 52 51 66 52 41 53 42 54 51 56 67 57 44 58
REMARK SMILES IDX 33 59 34 60 38 61 35 62 37 63 36 64 55 65 56 66 60 67 57 68
REMARK SMILES IDX 59 69 58 70 45 71 46 72 50 73 47 74 49 75 48 76
REMARK H PARENT 1 17 1 18 1 19 65 44 43 55
REMARK Flexibility Score: inf
ROOT
ATOM      1  C   UNL A   1      35.513  20.684  24.845  1.00  0.00     0.274 C 
ENDROOT
BRANCH   1   2
ATOM      2  O   UNL A   1      34.942  21.234  26.050  1.00  0.00    -0.460 OA
BRANCH   2   3
ATOM      3  C   UNL A   1      34.403  22.481  25.926  1.00  0.00     0.335 C 
ATOM      4  O   UNL A   1      34.079  23.188  26.875  1.00  0.00    -0.249 OA
BRANCH   3   5
ATOM      5  C   UNL A   1      34.259  22.901  24.448  1.00  0.00     0.242 C 
ATOM      6  C   UNL A   1      32.803  23.077  24.064  1.00  0.00    -0.019 C 
ATOM      7  C   UNL A   1      32.549  24.349  23.758  1.00  0.00     0.009 A 
ATOM      8  C   UNL A   1      31.379  25.079  23.384  1.00  0.00     0.096 A 
ATOM      9  C   UNL A   1      33.856  25.005  23.928  1.00  0.00     0.067 A 
ATOM     10  N   UNL A   1      34.861  24.262  24.272  1.00  0.00    -0.265 NA
ATOM     11  C   UNL A   1      31.467  26.419  23.275  1.00  0.00     0.270 A 
ATOM     12  C   UNL A   1      33.882  26.474  23.732  1.00  0.00     0.035 A 
ATOM     13  C   UNL A   1      32.734  27.121  23.454  1.00  0.00     0.088 A 
BRANCH   6  14
ATOM     14  C   UNL A   1      31.865  21.906  24.026  1.00  0.00     0.096 C 
BRANCH  14  15
ATOM     15  C   UNL A   1      32.193  20.792  23.013  1.00  0.00     0.263 C 
BRANCH  15  16
ATOM     16  N   UNL A   1      31.750  21.063  21.649  1.00  0.00    -0.357 N 
ATOM     17  H   UNL A   1      32.202  21.911  21.307  1.00  0.00     0.344 HD
ATOM     18  H   UNL A   1      30.738  21.188  21.638  1.00  0.00     0.344 HD
ATOM     19  H   UNL A   1      32.004  20.279  21.048  1.00  0.00     0.344 HD
ENDBRANCH  15  16
ENDBRANCH  14  15
ENDBRANCH   6  14
BRANCH  11  20
ATOM     20  N   UNL A   1      30.227  27.158  22.996  1.00  0.00     0.062 N 
ATOM     21  O   UNL A   1      30.221  27.953  22.046  1.00  0.00    -0.258 OA
ATOM     22  O   UNL A   1      29.256  26.929  23.728  1.00  0.00    -0.258 OA
ENDBRANCH  11  20
ENDBRANCH   3   5
ENDBRANCH   2   3
ENDBRANCH   1   2
BRANCH   1  23
ATOM     23  C   UNL A   1      36.985  20.307  25.018  1.00  0.00     0.275 C 
BRANCH  23  24
ATOM     24  O   UNL A   1      37.759  21.447  25.423  1.00  0.00    -0.458 OA
BRANCH  24  25
ATOM     25  C   UNL A   1      38.954  21.168  25.990  1.00  0.00     0.338 C 
ATOM     26  O   UNL A   1      39.533  20.098  26.034  1.00  0.00    -0.246 OA
BRANCH  25  27
ATOM     27  C   UNL A   1      39.513  22.409  26.542  1.00  0.00     0.060 A 
ATOM     28  C   UNL A   1      40.626  22.385  27.375  1.00  0.00     0.016 A 
ATOM     29  C   UNL A   1      38.966  23.622  26.134  1.00  0.00     0.016 A 
ATOM     30  C   UNL A   1      41.179  23.598  27.804  1.00  0.00     0.010 A 
ATOM     31  C   UNL A   1      39.553  24.825  26.503  1.00  0.00     0.010 A 
ATOM     32  C   UNL A   1      40.660  24.828  27.352  1.00  0.00    -0.014 A 
BRANCH  32  33
ATOM     33  C   UNL A   1      41.311  26.115  27.702  1.00  0.00     0.031 A 
ATOM     34  C   UNL A   1      42.660  26.487  27.150  1.00  0.00     0.074 A 
ATOM     35  C   UNL A   1      40.706  26.924  28.591  1.00  0.00     0.049 A 
ATOM     36  N   UNL A   1      43.322  27.608  27.296  1.00  0.00    -0.248 NA
ATOM     37  C   UNL A   1      43.378  25.466  26.370  1.00  0.00     0.031 C 
ATOM     38  C   UNL A   1      39.458  26.617  29.294  1.00  0.00     0.029 A 
ATOM     39  N   UNL A   1      41.049  28.172  29.050  1.00  0.00    -0.354 N 
ATOM     40  C   UNL A   1      44.532  27.421  26.639  1.00  0.00     0.074 A 
ATOM     41  C   UNL A   1      44.542  26.061  26.150  1.00  0.00     0.031 C 
ATOM     42  C   UNL A   1      39.103  27.675  30.038  1.00  0.00     0.029 A 
ATOM     43  C   UNL A   1      40.109  28.723  29.888  1.00  0.00     0.049 A 
ATOM     44  H   UNL A   1      41.886  28.626  28.802  1.00  0.00     0.167 HD
ATOM     45  C   UNL A   1      45.528  28.315  26.434  1.00  0.00     0.031 A 
ATOM     46  C   UNL A   1      40.042  29.945  30.448  1.00  0.00     0.031 A 
ATOM     47  C   UNL A   1      45.494  29.675  26.900  1.00  0.00     0.049 A 
ATOM     48  C   UNL A   1      41.118  30.949  30.149  1.00  0.00     0.074 A 
ATOM     49  C   UNL A   1      46.395  30.694  26.641  1.00  0.00     0.029 A 
ATOM     50  N   UNL A   1      44.513  30.204  27.725  1.00  0.00    -0.354 N 
ATOM     51  N   UNL A   1      42.189  30.807  29.406  1.00  0.00    -0.248 NA
ATOM     52  C   UNL A   1      40.969  32.284  30.744  1.00  0.00     0.031 C 
ATOM     53  C   UNL A   1      45.991  31.823  27.360  1.00  0.00     0.029 A 
ATOM     54  C   UNL A   1      44.804  31.527  28.011  1.00  0.00     0.049 A 
ATOM     55  H   UNL A   1      43.728  29.713  28.058  1.00  0.00     0.167 HD
ATOM     56  C   UNL A   1      42.837  32.034  29.435  1.00  0.00     0.074 A 
ATOM     57  C   UNL A   1      42.026  32.916  30.250  1.00  0.00     0.031 C 
ATOM     58  C   UNL A   1      43.999  32.393  28.836  1.00  0.00     0.031 A 
BRANCH  45  59
ATOM     59  C   UNL A   1      46.732  27.867  25.647  1.00  0.00    -0.014 A 
ATOM     60  C   UNL A   1      46.737  27.980  24.248  1.00  0.00     0.009 A 
ATOM     61  C   UNL A   1      47.826  27.255  26.280  1.00  0.00     0.009 A 
ATOM     62  C   UNL A   1      47.809  27.489  23.498  1.00  0.00     0.001 A 
ATOM     63  C   UNL A   1      48.912  26.795  25.531  1.00  0.00     0.001 A 
ATOM     64  C   UNL A   1      48.898  26.903  24.142  1.00  0.00     0.000 A 
ENDBRANCH  45  59
BRANCH  46  65
ATOM     65  C   UNL A   1      38.854  30.290  31.268  1.00  0.00    -0.014 A 
ATOM     66  C   UNL A   1      37.741  30.922  30.690  1.00  0.00     0.009 A 
ATOM     67  C   UNL A   1      38.874  30.087  32.656  1.00  0.00     0.009 A 
ATOM     68  C   UNL A   1      36.688  31.374  31.490  1.00  0.00     0.001 A 
ATOM     69  C   UNL A   1      37.808  30.516  33.450  1.00  0.00     0.001 A 
ATOM     70  C   UNL A   1      36.722  31.170  32.868  1.00  0.00     0.000 A 
ENDBRANCH  46  65
BRANCH  58  71
ATOM     71  C   UNL A   1      44.489  33.799  29.037  1.00  0.00    -0.014 A 
ATOM     72  C   UNL A   1      44.144  34.798  28.112  1.00  0.00     0.009 A 
ATOM     73  C   UNL A   1      45.389  34.108  30.068  1.00  0.00     0.009 A 
ATOM     74  C   UNL A   1      44.705  36.073  28.203  1.00  0.00     0.001 A 
ATOM     75  C   UNL A   1      45.926  35.392  30.173  1.00  0.00     0.001 A 
ATOM     76  C   UNL A   1      45.594  36.369  29.236  1.00  0.00     0.000 A 
ENDBRANCH  58  71
ENDBRANCH  32  33
ENDBRANCH  25  27
ENDBRANCH  24  25
ENDBRANCH  23  24
ENDBRANCH   1  23
TORSDOF 15
ENDMDL
MODEL 3
REMARK VINA RESULT:      -9.8      3.951      8.592
REMARK SMILES [NH3+]CCC1=c2cc([N+](=O)[O-])ccc2=N[C@H]1C(=O)OCCOC(=O)c1ccc(-c2c3nc(c(-c4ccccc4)c4ccc([nH]4)c(-c4ccccc4)c4nc(c(-c5ccccc5)c5ccc2[nH]5)C=C4)C=C3)cc1
REMARK SMILES IDX 19 1 18 2 16 3 17 4 15 5 4 6 5 7 6 8 13 9 14 10 7 11 12 12
REMARK SMILES IDX 11 13 3 14 2 15 1 16 8 20 9 21 10 22 20 23 21 24 22 25 23 26
REMARK SMILES IDX 24 27 25 28 71 29 26 30 70 31 27 32 28 33 29 34 64 35 30 36
REMARK SMILES IDX 69 37 63 38 65 39 31 40 68 41 62 42 61 43 32 45 54 46 39 47
REMARK SMILES IDX 53 48 40 49 43 50 52 51 66 52 41 53 42 54 51 56 67 57 44 58
REMARK SMILES IDX 33 59 34 60 38 61 35 62 37 63 36 64 55 65 56 66 60 67 57 68
REMARK SMILES IDX 59 69 58 70 45 71 46 72 50 73 47 74 49 75 48 76
REMARK H PARENT 1 17 1 18 1 19 65 44 43 55
REMARK Flexibility Score: inf
ROOT
ATOM      1  C   UNL A   1      38.782  21.205  25.557  1.00  0.00     0.274 C 
ENDROOT
BRANCH   1   2
ATOM      2  O   UNL A   1      37.670  21.278  24.640  1.00  0.00    -0.460 OA
BRANCH   2   3
ATOM      3  C   UNL A   1      37.003  22.467  24.624  1.00  0.00     0.335 C 
ATOM      4  O   UNL A   1      37.420  23.498  25.144  1.00  0.00    -0.249 OA
BRANCH   3   5
ATOM      5  C   UNL A   1      35.664  22.364  23.863  1.00  0.00     0.242 C 
ATOM      6  C   UNL A   1      34.529  21.985  24.792  1.00  0.00    -0.019 C 
ATOM      7  C   UNL A   1      33.641  22.975  24.876  1.00  0.00     0.009 A 
ATOM      8  C   UNL A   1      32.436  23.186  25.616  1.00  0.00     0.096 A 
ATOM      9  C   UNL A   1      34.194  24.003  23.980  1.00  0.00     0.067 A 
ATOM     10  N   UNL A   1      35.294  23.725  23.352  1.00  0.00    -0.265 NA
ATOM     11  C   UNL A   1      31.848  24.396  25.553  1.00  0.00     0.270 A 
ATOM     12  C   UNL A   1      33.456  25.287  23.920  1.00  0.00     0.035 A 
ATOM     13  C   UNL A   1      32.368  25.457  24.696  1.00  0.00     0.088 A 
BRANCH   6  14
ATOM     14  C   UNL A   1      34.483  20.636  25.449  1.00  0.00     0.096 C 
BRANCH  14  15
ATOM     15  C   UNL A   1      33.344  19.695  25.012  1.00  0.00     0.263 C 
BRANCH  15  16
ATOM     16  N   UNL A   1      32.820  18.843  26.074  1.00  0.00    -0.357 N 
ATOM     17  H   UNL A   1      32.094  19.344  26.585  1.00  0.00     0.344 HD
ATOM     18  H   UNL A   1      33.574  18.591  26.712  1.00  0.00     0.344 HD
ATOM     19  H   UNL A   1      32.424  17.996  25.665  1.00  0.00     0.344 HD
ENDBRANCH  15  16
ENDBRANCH  14  15
ENDBRANCH   6  14
BRANCH  11  20
ATOM     20  N   UNL A   1      30.673  24.622  26.406  1.00  0.00     0.062 N 
ATOM     21  O   UNL A   1      30.378  23.755  27.241  1.00  0.00    -0.258 OA
ATOM     22  O   UNL A   1      30.051  25.680  26.243  1.00  0.00    -0.258 OA
ENDBRANCH  11  20
ENDBRANCH   3   5
ENDBRANCH   2   3
ENDBRANCH   1   2
BRANCH   1  23
ATOM     23  C   UNL A   1      39.425  19.817  25.582  1.00  0.00     0.275 C 
BRANCH  23  24
ATOM     24  O   UNL A   1      40.507  19.774  26.526  1.00  0.00    -0.458 OA
BRANCH  24  25
ATOM     25  C   UNL A   1      41.733  20.033  26.018  1.00  0.00     0.338 C 
ATOM     26  O   UNL A   1      42.368  19.373  25.216  1.00  0.00    -0.246 OA
BRANCH  25  27
ATOM     27  C   UNL A   1      42.205  21.313  26.561  1.00  0.00     0.060 A 
ATOM     28  C   UNL A   1      42.557  22.363  25.719  1.00  0.00     0.016 A 
ATOM     29  C   UNL A   1      42.200  21.490  27.942  1.00  0.00     0.016 A 
ATOM     30  C   UNL A   1      42.915  23.593  26.282  1.00  0.00     0.010 A 
ATOM     31  C   UNL A   1      42.488  22.729  28.499  1.00  0.00     0.010 A 
ATOM     32  C   UNL A   1      42.861  23.793  27.677  1.00  0.00    -0.014 A 
BRANCH  32  33
ATOM     33  C   UNL A   1      43.120  25.125  28.276  1.00  0.00     0.031 A 
ATOM     34  C   UNL A   1      44.506  25.544  28.686  1.00  0.00     0.074 A 
ATOM     35  C   UNL A   1      42.075  25.938  28.522  1.00  0.00     0.049 A 
ATOM     36  N   UNL A   1      44.907  26.703  29.147  1.00  0.00    -0.248 NA
ATOM     37  C   UNL A   1      45.570  24.530  28.610  1.00  0.00     0.031 C 
ATOM     38  C   UNL A   1      40.671  25.596  28.288  1.00  0.00     0.029 A 
ATOM     39  N   UNL A   1      42.029  27.219  29.013  1.00  0.00    -0.354 N 
ATOM     40  C   UNL A   1      46.260  26.553  29.424  1.00  0.00     0.074 A 
ATOM     41  C   UNL A   1      46.598  25.176  29.142  1.00  0.00     0.031 C 
ATOM     42  C   UNL A   1      39.908  26.663  28.566  1.00  0.00     0.029 A 
ATOM     43  C   UNL A   1      40.764  27.754  29.023  1.00  0.00     0.049 A 
ATOM     44  H   UNL A   1      42.825  27.706  29.325  1.00  0.00     0.167 HD
ATOM     45  C   UNL A   1      47.145  27.488  29.842  1.00  0.00     0.031 A 
ATOM     46  C   UNL A   1      40.338  28.993  29.331  1.00  0.00     0.031 A 
ATOM     47  C   UNL A   1      46.802  28.863  30.091  1.00  0.00     0.049 A 
ATOM     48  C   UNL A   1      41.343  30.039  29.721  1.00  0.00     0.074 A 
ATOM     49  C   UNL A   1      47.646  29.915  30.399  1.00  0.00     0.029 A 
ATOM     50  N   UNL A   1      45.513  29.373  30.067  1.00  0.00    -0.354 N 
ATOM     51  N   UNL A   1      42.643  29.922  29.840  1.00  0.00    -0.248 NA
ATOM     52  C   UNL A   1      40.829  31.388  29.997  1.00  0.00     0.031 C 
ATOM     53  C   UNL A   1      46.862  31.050  30.621  1.00  0.00     0.029 A 
ATOM     54  C   UNL A   1      45.536  30.720  30.385  1.00  0.00     0.049 A 
ATOM     55  H   UNL A   1      44.703  28.856  29.854  1.00  0.00     0.167 HD
ATOM     56  C   UNL A   1      43.106  31.182  30.195  1.00  0.00     0.074 A 
ATOM     57  C   UNL A   1      41.950  32.054  30.249  1.00  0.00     0.031 C 
ATOM     58  C   UNL A   1      44.378  31.576  30.451  1.00  0.00     0.031 A 
BRANCH  45  59
ATOM     59  C   UNL A   1      48.580  27.072  30.033  1.00  0.00    -0.014 A 
ATOM     60  C   UNL A   1      49.471  27.108  28.948  1.00  0.00     0.009 A 
ATOM     61  C   UNL A   1      49.031  26.562  31.261  1.00  0.00     0.009 A 
ATOM     62  C   UNL A   1      50.780  26.643  29.087  1.00  0.00     0.001 A 
ATOM     63  C   UNL A   1      50.351  26.128  31.407  1.00  0.00     0.001 A 
ATOM     64  C   UNL A   1      51.221  26.159  30.318  1.00  0.00     0.000 A 
ENDBRANCH  45  59
BRANCH  46  65
ATOM     65  C   UNL A   1      38.895  29.310  29.183  1.00  0.00    -0.014 A 
ATOM     66  C   UNL A   1      38.018  29.194  30.274  1.00  0.00     0.009 A 
ATOM     67  C   UNL A   1      38.369  29.624  27.921  1.00  0.00     0.009 A 
ATOM     68  C   UNL A   1      36.641  29.353  30.097  1.00  0.00     0.001 A 
ATOM     69  C   UNL A   1      36.995  29.808  27.752  1.00  0.00     0.001 A 
ATOM     70  C   UNL A   1      36.132  29.661  28.837  1.00  0.00     0.000 A 
ENDBRANCH  46  65
BRANCH  58  71
ATOM     71  C   UNL A   1      44.607  33.013  30.827  1.00  0.00    -0.014 A 
ATOM     72  C   UNL A   1      44.985  33.940  29.842  1.00  0.00     0.009 A 
ATOM     73  C   UNL A   1      44.570  33.422  32.169  1.00  0.00     0.009 A 
ATOM     74  C   UNL A   1      45.341  35.243  30.195  1.00  0.00     0.001 A 
ATOM     75  C   UNL A   1      44.898  34.734  32.514  1.00  0.00     0.001 A 
ATOM     76  C   UNL A   1      45.295  35.638  31.530  1.00  0.00     0.000 A 
ENDBRANCH  58  71
ENDBRANCH  32  33
ENDBRANCH  25  27
ENDBRANCH  24  25
ENDBRANCH  23  24
ENDBRANCH   1  23
TORSDOF 15
ENDMDL
