MODEL 1
REMARK VINA RESULT:     -12.2      0.000      0.000
REMARK SMILES Cc1ccc(C(F)(F)F)cc1-c1ccc(/C=C/C(=O)OCCOC(=O)c2ccc(-c3c4nc(c(-c5ccccc5)c5ccc([nH]5)c(-c5ccccc5)c5nc(c(-c6ccccc6)c6ccc3[nH]6)C=C5)C=C4)cc2)s1
REMARK SMILES IDX 21 1 20 2 18 3 19 4 17 5 16 6 15 7 12 8 13 9 74 10 14 11
REMARK SMILES IDX 11 12 1 13 2 14 3 15 4 16 10 17 5 18 6 19 7 20 8 21 9 22
REMARK SMILES IDX 22 23 23 24 24 25 25 26 26 27 27 28 73 29 28 30 72 31 29 32
REMARK SMILES IDX 30 33 31 34 66 35 32 36 71 37 65 38 67 39 33 40 70 41 64 42
REMARK SMILES IDX 63 43 34 45 56 46 41 47 55 48 42 49 45 50 54 51 68 52 43 53
REMARK SMILES IDX 44 54 53 56 69 57 46 58 35 59 36 60 40 61 37 62 39 63 38 64
REMARK SMILES IDX 57 65 58 66 62 67 59 68 61 69 60 70 47 71 48 72 52 73 49 74
REMARK SMILES IDX 51 75 50 76
REMARK H PARENT 67 44 45 55
REMARK Flexibility Score: inf
ROOT
ATOM      1  C   UNL A   1      33.277  37.278  31.117  1.00  0.00     0.275 C 
ENDROOT
BRANCH   1   2
ATOM      2  O   UNL A   1      32.458  36.424  30.311  1.00  0.00    -0.459 OA
BRANCH   2   3
ATOM      3  C   UNL A   1      32.996  36.066  29.006  1.00  0.00     0.330 C 
ATOM      4  O   UNL A   1      33.101  37.149  28.382  1.00  0.00    -0.247 OA
BRANCH   3   5
ATOM      5  C   UNL A   1      33.490  34.060  28.426  1.00  0.00     0.095 C 
ATOM      6  C   UNL A   1      34.454  33.048  28.391  1.00  0.00     0.026 C 
BRANCH   6   7
ATOM      7  C   UNL A   1      34.300  31.709  27.840  1.00  0.00     0.028 A 
ATOM      8  C   UNL A   1      33.643  29.579  26.655  1.00  0.00     0.035 A 
ATOM      9  C   UNL A   1      34.874  29.490  27.270  1.00  0.00     0.021 A 
ATOM     10  S   UNL A   1      32.969  31.140  26.881  1.00  0.00    -0.136 S 
ATOM     11  C   UNL A   1      35.229  30.683  27.965  1.00  0.00     0.020 A 
BRANCH   8  12
ATOM     12  C   UNL A   1      32.933  28.513  25.915  1.00  0.00    -0.005 A 
ATOM     13  C   UNL A   1      31.399  28.001  27.919  1.00  0.00     0.045 C 
ATOM     14  C   UNL A   1      31.915  27.745  26.526  1.00  0.00    -0.042 A 
ATOM     15  C   UNL A   1      31.354  26.652  25.839  1.00  0.00     0.005 A 
ATOM     16  C   UNL A   1      31.768  26.327  24.550  1.00  0.00     0.013 A 
ATOM     17  C   UNL A   1      33.329  28.178  24.603  1.00  0.00     0.023 A 
ATOM     18  C   UNL A   1      32.753  27.090  23.913  1.00  0.00     0.056 A 
BRANCH  18  19
ATOM     19  C   UNL A   1      33.183  26.704  22.518  1.00  0.00     0.416 C 
ATOM     20  F   UNL A   1      34.072  27.590  21.988  1.00  0.00    -0.166 F 
ATOM     21  F   UNL A   1      33.805  25.492  22.482  1.00  0.00    -0.166 F 
ATOM     22  F   UNL A   1      32.157  26.625  21.627  1.00  0.00    -0.166 F 
ENDBRANCH  18  19
ENDBRANCH   8  12
ENDBRANCH   6   7
ENDBRANCH   3   5
ENDBRANCH   2   3
ENDBRANCH   1   2
BRANCH   1  23
ATOM     23  C   UNL A   1      33.227  36.761  32.561  1.00  0.00     0.275 C 
BRANCH  23  24
ATOM     24  O   UNL A   1      33.588  35.357  32.743  1.00  0.00    -0.458 OA
BRANCH  24  25
ATOM     25  C   UNL A   1      34.874  34.911  32.879  1.00  0.00     0.338 C 
ATOM     26  O   UNL A   1      35.745  35.510  33.486  1.00  0.00    -0.246 OA
BRANCH  25  27
ATOM     27  C   UNL A   1      35.240  33.871  31.892  1.00  0.00     0.060 A 
ATOM     28  C   UNL A   1      35.155  32.180  32.565  1.00  0.00     0.016 A 
ATOM     29  C   UNL A   1      36.516  34.337  30.693  1.00  0.00     0.016 A 
ATOM     30  C   UNL A   1      36.474  30.970  32.148  1.00  0.00     0.010 A 
ATOM     31  C   UNL A   1      37.817  33.123  30.251  1.00  0.00     0.010 A 
ATOM     32  C   UNL A   1      37.807  31.481  31.043  1.00  0.00    -0.014 A 
BRANCH  32  33
ATOM     33  C   UNL A   1      39.139  30.930  31.137  1.00  0.00     0.031 A 
ATOM     34  C   UNL A   1      39.327  29.712  30.346  1.00  0.00     0.074 A 
ATOM     35  C   UNL A   1      40.114  31.640  31.760  1.00  0.00     0.049 A 
ATOM     36  N   UNL A   1      40.297  28.899  30.512  1.00  0.00    -0.248 NA
ATOM     37  C   UNL A   1      38.365  29.242  29.342  1.00  0.00     0.031 C 
ATOM     38  C   UNL A   1      41.568  31.477  31.696  1.00  0.00     0.029 A 
ATOM     39  N   UNL A   1      39.999  32.653  32.700  1.00  0.00    -0.354 N 
ATOM     40  C   UNL A   1      40.284  28.030  29.448  1.00  0.00     0.074 A 
ATOM     41  C   UNL A   1      39.001  28.189  28.827  1.00  0.00     0.031 C 
ATOM     42  C   UNL A   1      42.134  32.096  32.754  1.00  0.00     0.029 A 
ATOM     43  C   UNL A   1      41.064  32.607  33.594  1.00  0.00     0.049 A 
ATOM     44  H   UNL A   1      39.267  33.311  32.730  1.00  0.00     0.167 HD
ATOM     45  C   UNL A   1      41.452  27.409  29.147  1.00  0.00     0.031 A 
ATOM     46  C   UNL A   1      40.873  32.264  34.906  1.00  0.00     0.031 A 
ATOM     47  C   UNL A   1      42.425  27.667  30.213  1.00  0.00     0.049 A 
ATOM     48  C   UNL A   1      41.352  30.837  35.141  1.00  0.00     0.074 A 
ATOM     49  C   UNL A   1      43.435  28.605  30.345  1.00  0.00     0.029 A 
ATOM     50  N   UNL A   1      42.097  27.261  31.506  1.00  0.00    -0.354 N 
ATOM     51  N   UNL A   1      41.519  29.965  34.177  1.00  0.00    -0.248 NA
ATOM     52  C   UNL A   1      41.764  30.307  36.438  1.00  0.00     0.031 C 
ATOM     53  C   UNL A   1      43.616  28.846  31.744  1.00  0.00     0.029 A 
ATOM     54  C   UNL A   1      42.746  28.035  32.455  1.00  0.00     0.049 A 
ATOM     55  H   UNL A   1      41.483  26.522  31.717  1.00  0.00     0.167 HD
ATOM     56  C   UNL A   1      42.118  28.838  34.664  1.00  0.00     0.074 A 
ATOM     57  C   UNL A   1      42.230  29.092  36.092  1.00  0.00     0.031 C 
ATOM     58  C   UNL A   1      42.511  27.790  33.879  1.00  0.00     0.031 A 
BRANCH  45  59
ATOM     59  C   UNL A   1      41.779  26.816  27.802  1.00  0.00    -0.014 A 
ATOM     60  C   UNL A   1      42.524  25.625  27.762  1.00  0.00     0.009 A 
ATOM     61  C   UNL A   1      41.477  27.395  26.555  1.00  0.00     0.009 A 
ATOM     62  C   UNL A   1      42.953  25.058  26.554  1.00  0.00     0.001 A 
ATOM     63  C   UNL A   1      41.900  26.832  25.342  1.00  0.00     0.001 A 
ATOM     64  C   UNL A   1      42.641  25.662  25.343  1.00  0.00     0.000 A 
ENDBRANCH  45  59
BRANCH  46  65
ATOM     65  C   UNL A   1      39.706  32.968  35.523  1.00  0.00    -0.014 A 
ATOM     66  C   UNL A   1      38.587  32.154  35.824  1.00  0.00     0.009 A 
ATOM     67  C   UNL A   1      39.827  34.188  36.197  1.00  0.00     0.009 A 
ATOM     68  C   UNL A   1      37.779  32.419  36.933  1.00  0.00     0.001 A 
ATOM     69  C   UNL A   1      38.972  34.478  37.278  1.00  0.00     0.001 A 
ATOM     70  C   UNL A   1      38.003  33.561  37.689  1.00  0.00     0.000 A 
ENDBRANCH  46  65
BRANCH  58  71
ATOM     71  C   UNL A   1      42.785  26.404  34.414  1.00  0.00    -0.014 A 
ATOM     72  C   UNL A   1      41.848  25.650  35.128  1.00  0.00     0.009 A 
ATOM     73  C   UNL A   1      43.986  25.748  34.062  1.00  0.00     0.009 A 
ATOM     74  C   UNL A   1      42.133  24.349  35.555  1.00  0.00     0.001 A 
ATOM     75  C   UNL A   1      44.239  24.422  34.407  1.00  0.00     0.001 A 
ATOM     76  C   UNL A   1      43.323  23.732  35.184  1.00  0.00     0.000 A 
ENDBRANCH  58  71
ENDBRANCH  32  33
ENDBRANCH  25  27
ENDBRANCH  24  25
ENDBRANCH  23  24
ENDBRANCH   1  23
TORSDOF 14
ENDMDL
MODEL 2
REMARK VINA RESULT:     -12.1      5.236     10.120
REMARK SMILES Cc1ccc(C(F)(F)F)cc1-c1ccc(/C=C/C(=O)OCCOC(=O)c2ccc(-c3c4nc(c(-c5ccccc5)c5ccc([nH]5)c(-c5ccccc5)c5nc(c(-c6ccccc6)c6ccc3[nH]6)C=C5)C=C4)cc2)s1
REMARK SMILES IDX 21 1 20 2 18 3 19 4 17 5 16 6 15 7 12 8 13 9 74 10 14 11
REMARK SMILES IDX 11 12 1 13 2 14 3 15 4 16 10 17 5 18 6 19 7 20 8 21 9 22
REMARK SMILES IDX 22 23 23 24 24 25 25 26 26 27 27 28 73 29 28 30 72 31 29 32
REMARK SMILES IDX 30 33 31 34 66 35 32 36 71 37 65 38 67 39 33 40 70 41 64 42
REMARK SMILES IDX 63 43 34 45 56 46 41 47 55 48 42 49 45 50 54 51 68 52 43 53
REMARK SMILES IDX 44 54 53 56 69 57 46 58 35 59 36 60 40 61 37 62 39 63 38 64
REMARK SMILES IDX 57 65 58 66 62 67 59 68 61 69 60 70 47 71 48 72 52 73 49 74
REMARK SMILES IDX 51 75 50 76
REMARK H PARENT 67 44 45 55
REMARK Flexibility Score: inf
ROOT
ATOM      1  C   UNL A   1      41.992  20.174  26.229  1.00  0.00     0.275 C 
ENDROOT
BRANCH   1   2
ATOM      2  O   UNL A   1      40.721  20.737  26.569  1.00  0.00    -0.459 OA
BRANCH   2   3
ATOM      3  C   UNL A   1      39.584  20.266  25.791  1.00  0.00     0.330 C 
ATOM      4  O   UNL A   1      39.796  19.044  25.598  1.00  0.00    -0.247 OA
BRANCH   3   5
ATOM      5  C   UNL A   1      37.944  21.514  25.195  1.00  0.00     0.095 C 
ATOM      6  C   UNL A   1      37.218  22.083  24.143  1.00  0.00     0.026 C 
BRANCH   6   7
ATOM      7  C   UNL A   1      36.051  22.948  24.250  1.00  0.00     0.028 A 
ATOM      8  C   UNL A   1      34.218  24.569  24.872  1.00  0.00     0.035 A 
ATOM      9  C   UNL A   1      34.141  24.153  23.560  1.00  0.00     0.021 A 
ATOM     10  S   UNL A   1      35.571  23.856  25.649  1.00  0.00    -0.136 S 
ATOM     11  C   UNL A   1      35.157  23.213  23.220  1.00  0.00     0.020 A 
BRANCH   8  12
ATOM     12  C   UNL A   1      33.288  25.475  25.580  1.00  0.00    -0.005 A 
ATOM     13  C   UNL A   1      31.350  23.789  25.405  1.00  0.00     0.045 C 
ATOM     14  C   UNL A   1      31.933  25.125  25.786  1.00  0.00    -0.042 A 
ATOM     15  C   UNL A   1      31.045  26.065  26.342  1.00  0.00     0.005 A 
ATOM     16  C   UNL A   1      31.484  27.330  26.720  1.00  0.00     0.013 A 
ATOM     17  C   UNL A   1      33.719  26.757  25.983  1.00  0.00     0.023 A 
ATOM     18  C   UNL A   1      32.826  27.689  26.554  1.00  0.00     0.056 A 
BRANCH  18  19
ATOM     19  C   UNL A   1      33.265  29.073  26.968  1.00  0.00     0.416 C 
ATOM     20  F   UNL A   1      32.284  29.749  27.632  1.00  0.00    -0.166 F 
ATOM     21  F   UNL A   1      34.333  29.050  27.815  1.00  0.00    -0.166 F 
ATOM     22  F   UNL A   1      33.630  29.872  25.928  1.00  0.00    -0.166 F 
ENDBRANCH  18  19
ENDBRANCH   8  12
ENDBRANCH   6   7
ENDBRANCH   3   5
ENDBRANCH   2   3
ENDBRANCH   1   2
BRANCH   1  23
ATOM     23  C   UNL A   1      42.875  21.296  25.666  1.00  0.00     0.275 C 
BRANCH  23  24
ATOM     24  O   UNL A   1      42.249  22.612  25.583  1.00  0.00    -0.458 OA
BRANCH  24  25
ATOM     25  C   UNL A   1      42.533  23.647  26.431  1.00  0.00     0.338 C 
ATOM     26  O   UNL A   1      43.411  23.617  27.277  1.00  0.00    -0.246 OA
BRANCH  25  27
ATOM     27  C   UNL A   1      41.437  24.636  26.536  1.00  0.00     0.060 A 
ATOM     28  C   UNL A   1      41.736  26.144  25.557  1.00  0.00     0.016 A 
ATOM     29  C   UNL A   1      40.596  24.713  28.138  1.00  0.00     0.016 A 
ATOM     30  C   UNL A   1      41.322  27.786  26.271  1.00  0.00     0.010 A 
ATOM     31  C   UNL A   1      40.154  26.348  28.842  1.00  0.00     0.010 A 
ATOM     32  C   UNL A   1      40.589  27.859  27.920  1.00  0.00    -0.014 A 
BRANCH  32  33
ATOM     33  C   UNL A   1      40.801  28.979  28.808  1.00  0.00     0.031 A 
ATOM     34  C   UNL A   1      39.639  29.861  28.928  1.00  0.00     0.074 A 
ATOM     35  C   UNL A   1      41.926  29.028  29.566  1.00  0.00     0.049 A 
ATOM     36  N   UNL A   1      39.690  31.046  29.399  1.00  0.00    -0.248 NA
ATOM     37  C   UNL A   1      38.302  29.512  28.431  1.00  0.00     0.031 C 
ATOM     38  C   UNL A   1      42.214  29.836  30.752  1.00  0.00     0.029 A 
ATOM     39  N   UNL A   1      43.144  28.393  29.372  1.00  0.00    -0.354 N 
ATOM     40  C   UNL A   1      38.396  31.465  29.588  1.00  0.00     0.074 A 
ATOM     41  C   UNL A   1      37.575  30.546  28.852  1.00  0.00     0.031 C 
ATOM     42  C   UNL A   1      43.549  29.888  30.944  1.00  0.00     0.029 A 
ATOM     43  C   UNL A   1      44.184  29.190  29.839  1.00  0.00     0.049 A 
ATOM     44  H   UNL A   1      43.256  27.505  28.963  1.00  0.00     0.167 HD
ATOM     45  C   UNL A   1      38.195  32.453  30.495  1.00  0.00     0.031 A 
ATOM     46  C   UNL A   1      45.086  29.755  28.978  1.00  0.00     0.031 A 
ATOM     47  C   UNL A   1      39.491  33.001  30.906  1.00  0.00     0.049 A 
ATOM     48  C   UNL A   1      44.781  31.238  28.810  1.00  0.00     0.074 A 
ATOM     49  C   UNL A   1      40.313  32.737  31.989  1.00  0.00     0.029 A 
ATOM     50  N   UNL A   1      40.310  33.547  29.919  1.00  0.00    -0.354 N 
ATOM     51  N   UNL A   1      43.620  31.772  29.103  1.00  0.00    -0.248 NA
ATOM     52  C   UNL A   1      45.758  32.241  28.396  1.00  0.00     0.031 C 
ATOM     53  C   UNL A   1      41.657  33.017  31.586  1.00  0.00     0.029 A 
ATOM     54  C   UNL A   1      41.646  33.479  30.279  1.00  0.00     0.049 A 
ATOM     55  H   UNL A   1      39.981  33.931  29.074  1.00  0.00     0.167 HD
ATOM     56  C   UNL A   1      43.698  33.133  29.018  1.00  0.00     0.074 A 
ATOM     57  C   UNL A   1      45.053  33.377  28.548  1.00  0.00     0.031 C 
ATOM     58  C   UNL A   1      42.675  33.973  29.362  1.00  0.00     0.031 A 
BRANCH  45  59
ATOM     59  C   UNL A   1      36.884  32.724  31.184  1.00  0.00    -0.014 A 
ATOM     60  C   UNL A   1      35.927  33.505  30.513  1.00  0.00     0.009 A 
ATOM     61  C   UNL A   1      36.549  32.332  32.494  1.00  0.00     0.009 A 
ATOM     62  C   UNL A   1      34.721  33.884  31.118  1.00  0.00     0.001 A 
ATOM     63  C   UNL A   1      35.343  32.705  33.106  1.00  0.00     0.001 A 
ATOM     64  C   UNL A   1      34.429  33.484  32.416  1.00  0.00     0.000 A 
ENDBRANCH  45  59
BRANCH  46  65
ATOM     65  C   UNL A   1      45.592  28.786  27.955  1.00  0.00    -0.014 A 
ATOM     66  C   UNL A   1      46.096  27.565  28.462  1.00  0.00     0.009 A 
ATOM     67  C   UNL A   1      45.191  28.823  26.615  1.00  0.00     0.009 A 
ATOM     68  C   UNL A   1      45.953  26.372  27.746  1.00  0.00     0.001 A 
ATOM     69  C   UNL A   1      45.105  27.626  25.878  1.00  0.00     0.001 A 
ATOM     70  C   UNL A   1      45.413  26.399  26.469  1.00  0.00     0.000 A 
ENDBRANCH  46  65
BRANCH  58  71
ATOM     71  C   UNL A   1      42.583  35.408  28.901  1.00  0.00    -0.014 A 
ATOM     72  C   UNL A   1      43.149  36.482  29.596  1.00  0.00     0.009 A 
ATOM     73  C   UNL A   1      42.034  35.697  27.631  1.00  0.00     0.009 A 
ATOM     74  C   UNL A   1      43.082  37.787  29.098  1.00  0.00     0.001 A 
ATOM     75  C   UNL A   1      42.046  36.981  27.090  1.00  0.00     0.001 A 
ATOM     76  C   UNL A   1      42.541  38.034  27.841  1.00  0.00     0.000 A 
ENDBRANCH  58  71
ENDBRANCH  32  33
ENDBRANCH  25  27
ENDBRANCH  24  25
ENDBRANCH  23  24
ENDBRANCH   1  23
TORSDOF 14
ENDMDL
MODEL 3
REMARK VINA RESULT:     -12.0      1.492      2.002
REMARK SMILES Cc1ccc(C(F)(F)F)cc1-c1ccc(/C=C/C(=O)OCCOC(=O)c2ccc(-c3c4nc(c(-c5ccccc5)c5ccc([nH]5)c(-c5ccccc5)c5nc(c(-c6ccccc6)c6ccc3[nH]6)C=C5)C=C4)cc2)s1
REMARK SMILES IDX 21 1 20 2 18 3 19 4 17 5 16 6 15 7 12 8 13 9 74 10 14 11
REMARK SMILES IDX 11 12 1 13 2 14 3 15 4 16 10 17 5 18 6 19 7 20 8 21 9 22
REMARK SMILES IDX 22 23 23 24 24 25 25 26 26 27 27 28 73 29 28 30 72 31 29 32
REMARK SMILES IDX 30 33 31 34 66 35 32 36 71 37 65 38 67 39 33 40 70 41 64 42
REMARK SMILES IDX 63 43 34 45 56 46 41 47 55 48 42 49 45 50 54 51 68 52 43 53
REMARK SMILES IDX 44 54 53 56 69 57 46 58 35 59 36 60 40 61 37 62 39 63 38 64
REMARK SMILES IDX 57 65 58 66 62 67 59 68 61 69 60 70 47 71 48 72 52 73 49 74
REMARK SMILES IDX 51 75 50 76
REMARK H PARENT 67 44 45 55
REMARK Flexibility Score: inf
ROOT
ATOM      1  C   UNL A   1      32.932  36.638  30.480  1.00  0.00     0.275 C 
ENDROOT
BRANCH   1   2
ATOM      2  O   UNL A   1      32.577  35.394  29.868  1.00  0.00    -0.459 OA
BRANCH   2   3
ATOM      3  C   UNL A   1      33.427  34.956  28.770  1.00  0.00     0.330 C 
ATOM      4  O   UNL A   1      34.021  35.988  28.376  1.00  0.00    -0.247 OA
BRANCH   3   5
ATOM      5  C   UNL A   1      33.556  32.922  28.097  1.00  0.00     0.095 C 
ATOM      6  C   UNL A   1      34.294  31.734  28.074  1.00  0.00     0.026 C 
BRANCH   6   7
ATOM      7  C   UNL A   1      33.924  30.486  27.421  1.00  0.00     0.028 A 
ATOM      8  C   UNL A   1      32.840  28.528  26.251  1.00  0.00     0.035 A 
ATOM      9  C   UNL A   1      34.209  28.400  26.351  1.00  0.00     0.021 A 
ATOM     10  S   UNL A   1      32.324  30.011  26.943  1.00  0.00    -0.136 S 
ATOM     11  C   UNL A   1      34.816  29.490  27.041  1.00  0.00     0.020 A 
BRANCH   8  12
ATOM     12  C   UNL A   1      31.889  27.556  25.671  1.00  0.00    -0.005 A 
ATOM     13  C   UNL A   1      31.028  29.268  23.951  1.00  0.00     0.045 C 
ATOM     14  C   UNL A   1      31.009  27.921  24.625  1.00  0.00    -0.042 A 
ATOM     15  C   UNL A   1      30.027  27.012  24.189  1.00  0.00     0.005 A 
ATOM     16  C   UNL A   1      29.921  25.744  24.753  1.00  0.00     0.013 A 
ATOM     17  C   UNL A   1      31.777  26.261  26.221  1.00  0.00     0.023 A 
ATOM     18  C   UNL A   1      30.799  25.350  25.769  1.00  0.00     0.056 A 
BRANCH  18  19
ATOM     19  C   UNL A   1      30.650  23.970  26.363  1.00  0.00     0.416 C 
ATOM     20  F   UNL A   1      29.471  23.820  27.031  1.00  0.00    -0.166 F 
ATOM     21  F   UNL A   1      30.663  22.991  25.415  1.00  0.00    -0.166 F 
ATOM     22  F   UNL A   1      31.627  23.643  27.253  1.00  0.00    -0.166 F 
ENDBRANCH  18  19
ENDBRANCH   8  12
ENDBRANCH   6   7
ENDBRANCH   3   5
ENDBRANCH   2   3
ENDBRANCH   1   2
BRANCH   1  23
ATOM     23  C   UNL A   1      33.238  36.371  31.960  1.00  0.00     0.275 C 
BRANCH  23  24
ATOM     24  O   UNL A   1      33.716  35.027  32.274  1.00  0.00    -0.458 OA
BRANCH  24  25
ATOM     25  C   UNL A   1      35.038  34.684  32.345  1.00  0.00     0.338 C 
ATOM     26  O   UNL A   1      35.918  35.431  32.739  1.00  0.00    -0.246 OA
BRANCH  25  27
ATOM     27  C   UNL A   1      35.382  33.504  31.522  1.00  0.00     0.060 A 
ATOM     28  C   UNL A   1      35.431  31.952  32.477  1.00  0.00     0.016 A 
ATOM     29  C   UNL A   1      36.542  33.802  30.163  1.00  0.00     0.016 A 
ATOM     30  C   UNL A   1      36.774  30.738  32.166  1.00  0.00     0.010 A 
ATOM     31  C   UNL A   1      37.867  32.578  29.829  1.00  0.00     0.010 A 
ATOM     32  C   UNL A   1      37.996  31.098  30.886  1.00  0.00    -0.014 A 
BRANCH  32  33
ATOM     33  C   UNL A   1      39.357  30.620  30.964  1.00  0.00     0.031 A 
ATOM     34  C   UNL A   1      39.613  29.441  30.136  1.00  0.00     0.074 A 
ATOM     35  C   UNL A   1      40.291  31.364  31.611  1.00  0.00     0.049 A 
ATOM     36  N   UNL A   1      40.627  28.679  30.277  1.00  0.00    -0.248 NA
ATOM     37  C   UNL A   1      38.679  28.949  29.116  1.00  0.00     0.031 C 
ATOM     38  C   UNL A   1      41.751  31.286  31.544  1.00  0.00     0.029 A 
ATOM     39  N   UNL A   1      40.119  32.338  32.583  1.00  0.00    -0.354 N 
ATOM     40  C   UNL A   1      40.663  27.845  29.186  1.00  0.00     0.074 A 
ATOM     41  C   UNL A   1      39.373  27.951  28.568  1.00  0.00     0.031 C 
ATOM     42  C   UNL A   1      42.282  31.901  32.622  1.00  0.00     0.029 A 
ATOM     43  C   UNL A   1      41.185  32.324  33.476  1.00  0.00     0.049 A 
ATOM     44  H   UNL A   1      39.351  32.953  32.632  1.00  0.00     0.167 HD
ATOM     45  C   UNL A   1      41.864  27.300  28.867  1.00  0.00     0.031 A 
ATOM     46  C   UNL A   1      41.015  31.929  34.776  1.00  0.00     0.031 A 
ATOM     47  C   UNL A   1      42.821  27.579  29.942  1.00  0.00     0.049 A 
ATOM     48  C   UNL A   1      41.573  30.525  34.966  1.00  0.00     0.074 A 
ATOM     49  C   UNL A   1      43.776  28.568  30.105  1.00  0.00     0.029 A 
ATOM     50  N   UNL A   1      42.517  27.115  31.221  1.00  0.00    -0.354 N 
ATOM     51  N   UNL A   1      41.789  29.695  33.975  1.00  0.00    -0.248 NA
ATOM     52  C   UNL A   1      42.016  29.978  36.247  1.00  0.00     0.031 C 
ATOM     53  C   UNL A   1      43.945  28.774  31.511  1.00  0.00     0.029 A 
ATOM     54  C   UNL A   1      43.122  27.893  32.194  1.00  0.00     0.049 A 
ATOM     55  H   UNL A   1      41.946  26.335  31.407  1.00  0.00     0.167 HD
ATOM     56  C   UNL A   1      42.451  28.589  34.427  1.00  0.00     0.074 A 
ATOM     57  C   UNL A   1      42.549  28.803  35.863  1.00  0.00     0.031 C 
ATOM     58  C   UNL A   1      42.902  27.589  33.610  1.00  0.00     0.031 A 
BRANCH  45  59
ATOM     59  C   UNL A   1      42.224  26.770  27.504  1.00  0.00    -0.014 A 
ATOM     60  C   UNL A   1      43.003  25.604  27.427  1.00  0.00     0.009 A 
ATOM     61  C   UNL A   1      41.918  27.388  26.277  1.00  0.00     0.009 A 
ATOM     62  C   UNL A   1      43.462  25.096  26.203  1.00  0.00     0.001 A 
ATOM     63  C   UNL A   1      42.372  26.886  25.048  1.00  0.00     0.001 A 
ATOM     64  C   UNL A   1      43.146  25.738  25.013  1.00  0.00     0.000 A 
ENDBRANCH  45  59
BRANCH  46  65
ATOM     65  C   UNL A   1      39.809  32.546  35.414  1.00  0.00    -0.014 A 
ATOM     66  C   UNL A   1      39.707  33.953  35.301  1.00  0.00     0.009 A 
ATOM     67  C   UNL A   1      38.641  31.825  35.679  1.00  0.00     0.009 A 
ATOM     68  C   UNL A   1      38.463  34.580  35.189  1.00  0.00     0.001 A 
ATOM     69  C   UNL A   1      37.391  32.472  35.623  1.00  0.00     0.001 A 
ATOM     70  C   UNL A   1      37.303  33.828  35.304  1.00  0.00     0.000 A 
ENDBRANCH  46  65
BRANCH  58  71
ATOM     71  C   UNL A   1      43.254  26.205  34.101  1.00  0.00    -0.014 A 
ATOM     72  C   UNL A   1      44.544  25.669  34.046  1.00  0.00     0.009 A 
ATOM     73  C   UNL A   1      42.284  25.446  34.793  1.00  0.00     0.009 A 
ATOM     74  C   UNL A   1      44.829  24.401  34.563  1.00  0.00     0.001 A 
ATOM     75  C   UNL A   1      42.583  24.223  35.390  1.00  0.00     0.001 A 
ATOM     76  C   UNL A   1      43.851  23.685  35.245  1.00  0.00     0.000 A 
ENDBRANCH  58  71
ENDBRANCH  32  33
ENDBRANCH  25  27
ENDBRANCH  24  25
ENDBRANCH  23  24
ENDBRANCH   1  23
TORSDOF 14
ENDMDL
