MODEL 1
REMARK VINA RESULT:      -9.9      0.000      0.000
REMARK SMILES CC(C)C[C@@H](CNC(=O)C[C@H]1CCS(=O)(=O)C1)C(=O)OCCOC(=O)c1ccc(-c2c3nc(c(-c4ccccc4)c4ccc([nH]4)c(-c4ccccc4)c4nc(c(-c5ccccc5)c5ccc2[nH]5)C=C4)C=C3)cc1
REMARK SMILES IDX 21 1 20 2 18 3 19 4 5 5 4 6 2 7 1 8 3 9 6 10 7 11 8 12 9 14
REMARK SMILES IDX 10 15 11 16 12 17 17 18 13 19 14 20 15 21 16 22 22 23 23 24
REMARK SMILES IDX 24 25 25 26 26 27 27 28 73 29 28 30 72 31 29 32 30 33 31 34
REMARK SMILES IDX 66 35 32 36 71 37 65 38 67 39 33 40 70 41 64 42 63 43 34 45
REMARK SMILES IDX 56 46 41 47 55 48 42 49 45 50 54 51 68 52 43 53 44 54 53 56
REMARK SMILES IDX 69 57 46 58 35 59 36 60 40 61 37 62 39 63 38 64 57 65 58 66
REMARK SMILES IDX 62 67 59 68 61 69 60 70 47 71 48 72 52 73 49 74 51 75 50 76
REMARK H PARENT 7 13 67 44 45 55
REMARK Flexibility Score: inf
ROOT
ATOM      1  C   UNL A   1      38.209  21.146  25.556  1.00  0.00     0.274 C 
ENDROOT
BRANCH   1   2
ATOM      2  O   UNL A   1      36.797  20.845  25.497  1.00  0.00    -0.462 OA
BRANCH   2   3
ATOM      3  C   UNL A   1      36.055  21.659  24.707  1.00  0.00     0.310 C 
ATOM      4  O   UNL A   1      36.496  22.310  23.767  1.00  0.00    -0.252 OA
BRANCH   3   5
ATOM      5  C   UNL A   1      34.604  21.766  25.112  1.00  0.00     0.118 C 
BRANCH   5   6
ATOM      6  C   UNL A   1      33.872  20.416  25.097  1.00  0.00     0.020 C 
BRANCH   6   7
ATOM      7  C   UNL A   1      32.581  20.391  24.242  1.00  0.00    -0.017 C 
ATOM      8  C   UNL A   1      32.480  21.559  23.254  1.00  0.00     0.007 C 
ATOM      9  C   UNL A   1      32.509  19.076  23.461  1.00  0.00     0.007 C 
ENDBRANCH   6   7
ENDBRANCH   5   6
BRANCH   5  10
ATOM     10  C   UNL A   1      34.434  22.600  26.386  1.00  0.00     0.131 C 
BRANCH  10  11
ATOM     11  N   UNL A   1      33.064  22.746  26.847  1.00  0.00    -0.355 N 
ATOM     12  C   UNL A   1      32.229  23.823  26.757  1.00  0.00     0.220 C 
ATOM     13  H   UNL A   1      32.683  21.953  27.288  1.00  0.00     0.163 HD
ATOM     14  O   UNL A   1      31.099  23.739  27.238  1.00  0.00    -0.275 OA
BRANCH  12  15
ATOM     15  C   UNL A   1      32.704  25.114  26.106  1.00  0.00     0.104 C 
BRANCH  15  16
ATOM     16  C   UNL A   1      32.531  25.075  24.585  1.00  0.00     0.014 C 
ATOM     17  C   UNL A   1      31.417  26.005  24.072  1.00  0.00     0.021 C 
ATOM     18  C   UNL A   1      33.775  25.505  23.803  1.00  0.00     0.141 C 
ATOM     19  C   UNL A   1      31.467  25.969  22.544  1.00  0.00     0.137 C 
ATOM     20  S   UNL A   1      33.185  25.720  22.126  1.00  0.00     0.150 S 
ATOM     21  O   UNL A   1      33.323  24.463  21.425  1.00  0.00    -0.229 OA
ATOM     22  O   UNL A   1      33.723  26.962  21.599  1.00  0.00    -0.229 OA
ENDBRANCH  15  16
ENDBRANCH  12  15
ENDBRANCH  10  11
ENDBRANCH   5  10
ENDBRANCH   3   5
ENDBRANCH   2   3
ENDBRANCH   1   2
BRANCH   1  23
ATOM     23  C   UNL A   1      39.107  19.938  25.261  1.00  0.00     0.275 C 
BRANCH  23  24
ATOM     24  O   UNL A   1      39.941  19.583  26.380  1.00  0.00    -0.458 OA
BRANCH  24  25
ATOM     25  C   UNL A   1      41.272  19.635  26.140  1.00  0.00     0.338 C 
ATOM     26  O   UNL A   1      41.940  18.829  25.513  1.00  0.00    -0.246 OA
BRANCH  25  27
ATOM     27  C   UNL A   1      41.824  20.921  26.602  1.00  0.00     0.060 A 
ATOM     28  C   UNL A   1      41.693  21.227  27.961  1.00  0.00     0.016 A 
ATOM     29  C   UNL A   1      42.372  21.848  25.716  1.00  0.00     0.016 A 
ATOM     30  C   UNL A   1      42.100  22.464  28.446  1.00  0.00     0.010 A 
ATOM     31  C   UNL A   1      42.761  23.103  26.199  1.00  0.00     0.010 A 
ATOM     32  C   UNL A   1      42.606  23.421  27.560  1.00  0.00    -0.014 A 
BRANCH  32  33
ATOM     33  C   UNL A   1      42.851  24.793  28.056  1.00  0.00     0.031 A 
ATOM     34  C   UNL A   1      44.255  25.212  28.385  1.00  0.00     0.074 A 
ATOM     35  C   UNL A   1      41.839  25.673  28.152  1.00  0.00     0.049 A 
ATOM     36  N   UNL A   1      44.687  26.350  28.861  1.00  0.00    -0.248 NA
ATOM     37  C   UNL A   1      45.312  24.219  28.136  1.00  0.00     0.031 C 
ATOM     38  C   UNL A   1      40.446  25.404  27.793  1.00  0.00     0.029 A 
ATOM     39  N   UNL A   1      41.833  26.975  28.580  1.00  0.00    -0.354 N 
ATOM     40  C   UNL A   1      46.063  26.206  28.987  1.00  0.00     0.074 A 
ATOM     41  C   UNL A   1      46.392  24.866  28.547  1.00  0.00     0.031 C 
ATOM     42  C   UNL A   1      39.718  26.510  28.021  1.00  0.00     0.029 A 
ATOM     43  C   UNL A   1      40.584  27.547  28.578  1.00  0.00     0.049 A 
ATOM     44  H   UNL A   1      42.645  27.455  28.862  1.00  0.00     0.167 HD
ATOM     45  C   UNL A   1      46.971  27.106  29.431  1.00  0.00     0.031 A 
ATOM     46  C   UNL A   1      40.184  28.759  29.003  1.00  0.00     0.031 A 
ATOM     47  C   UNL A   1      46.642  28.433  29.876  1.00  0.00     0.049 A 
ATOM     48  C   UNL A   1      41.200  29.712  29.570  1.00  0.00     0.074 A 
ATOM     49  C   UNL A   1      47.489  29.420  30.350  1.00  0.00     0.029 A 
ATOM     50  N   UNL A   1      45.360  28.957  29.908  1.00  0.00    -0.354 N 
ATOM     51  N   UNL A   1      42.497  29.563  29.691  1.00  0.00    -0.248 NA
ATOM     52  C   UNL A   1      40.695  31.003  30.060  1.00  0.00     0.031 C 
ATOM     53  C   UNL A   1      46.712  30.525  30.713  1.00  0.00     0.029 A 
ATOM     54  C   UNL A   1      45.388  30.245  30.414  1.00  0.00     0.049 A 
ATOM     55  H   UNL A   1      44.548  28.483  29.615  1.00  0.00     0.167 HD
ATOM     56  C   UNL A   1      42.965  30.746  30.250  1.00  0.00     0.074 A 
ATOM     57  C   UNL A   1      41.816  31.609  30.427  1.00  0.00     0.031 C 
ATOM     58  C   UNL A   1      44.233  31.088  30.584  1.00  0.00     0.031 A 
BRANCH  45  59
ATOM     59  C   UNL A   1      48.404  26.662  29.499  1.00  0.00    -0.014 A 
ATOM     60  C   UNL A   1      48.918  26.019  30.636  1.00  0.00     0.009 A 
ATOM     61  C   UNL A   1      49.247  26.875  28.397  1.00  0.00     0.009 A 
ATOM     62  C   UNL A   1      50.256  25.624  30.677  1.00  0.00     0.001 A 
ATOM     63  C   UNL A   1      50.578  26.457  28.432  1.00  0.00     0.001 A 
ATOM     64  C   UNL A   1      51.084  25.841  29.575  1.00  0.00     0.000 A 
ENDBRANCH  45  59
BRANCH  46  65
ATOM     65  C   UNL A   1      38.747  29.131  28.943  1.00  0.00    -0.014 A 
ATOM     66  C   UNL A   1      38.196  29.684  27.778  1.00  0.00     0.009 A 
ATOM     67  C   UNL A   1      37.921  28.947  30.064  1.00  0.00     0.009 A 
ATOM     68  C   UNL A   1      36.853  30.065  27.743  1.00  0.00     0.001 A 
ATOM     69  C   UNL A   1      36.572  29.303  30.017  1.00  0.00     0.001 A 
ATOM     70  C   UNL A   1      36.041  29.869  28.860  1.00  0.00     0.000 A 
ENDBRANCH  46  65
BRANCH  58  71
ATOM     71  C   UNL A   1      44.446  32.466  31.144  1.00  0.00    -0.014 A 
ATOM     72  C   UNL A   1      44.415  32.703  32.527  1.00  0.00     0.009 A 
ATOM     73  C   UNL A   1      44.718  33.533  30.274  1.00  0.00     0.009 A 
ATOM     74  C   UNL A   1      44.620  33.991  33.025  1.00  0.00     0.001 A 
ATOM     75  C   UNL A   1      44.949  34.814  30.777  1.00  0.00     0.001 A 
ATOM     76  C   UNL A   1      44.891  35.044  32.150  1.00  0.00     0.000 A 
ENDBRANCH  58  71
ENDBRANCH  32  33
ENDBRANCH  25  27
ENDBRANCH  24  25
ENDBRANCH  23  24
ENDBRANCH   1  23
TORSDOF 17
ENDMDL
MODEL 2
REMARK VINA RESULT:      -9.9      2.011      2.531
REMARK SMILES CC(C)C[C@@H](CNC(=O)C[C@H]1CCS(=O)(=O)C1)C(=O)OCCOC(=O)c1ccc(-c2c3nc(c(-c4ccccc4)c4ccc([nH]4)c(-c4ccccc4)c4nc(c(-c5ccccc5)c5ccc2[nH]5)C=C4)C=C3)cc1
REMARK SMILES IDX 21 1 20 2 18 3 19 4 5 5 4 6 2 7 1 8 3 9 6 10 7 11 8 12 9 14
REMARK SMILES IDX 10 15 11 16 12 17 17 18 13 19 14 20 15 21 16 22 22 23 23 24
REMARK SMILES IDX 24 25 25 26 26 27 27 28 73 29 28 30 72 31 29 32 30 33 31 34
REMARK SMILES IDX 66 35 32 36 71 37 65 38 67 39 33 40 70 41 64 42 63 43 34 45
REMARK SMILES IDX 56 46 41 47 55 48 42 49 45 50 54 51 68 52 43 53 44 54 53 56
REMARK SMILES IDX 69 57 46 58 35 59 36 60 40 61 37 62 39 63 38 64 57 65 58 66
REMARK SMILES IDX 62 67 59 68 61 69 60 70 47 71 48 72 52 73 49 74 51 75 50 76
REMARK H PARENT 7 13 67 44 45 55
REMARK Flexibility Score: inf
ROOT
ATOM      1  C   UNL A   1      37.780  20.555  24.928  1.00  0.00     0.274 C 
ENDROOT
BRANCH   1   2
ATOM      2  O   UNL A   1      36.371  20.233  24.930  1.00  0.00    -0.462 OA
BRANCH   2   3
ATOM      3  C   UNL A   1      35.527  21.291  24.997  1.00  0.00     0.310 C 
ATOM      4  O   UNL A   1      35.863  22.461  24.858  1.00  0.00    -0.252 OA
BRANCH   3   5
ATOM      5  C   UNL A   1      34.098  20.927  25.327  1.00  0.00     0.118 C 
BRANCH   5   6
ATOM      6  C   UNL A   1      33.686  19.548  24.792  1.00  0.00     0.020 C 
BRANCH   6   7
ATOM      7  C   UNL A   1      32.402  19.548  23.928  1.00  0.00    -0.017 C 
ATOM      8  C   UNL A   1      32.213  20.834  23.115  1.00  0.00     0.007 C 
ATOM      9  C   UNL A   1      32.432  18.357  22.966  1.00  0.00     0.007 C 
ENDBRANCH   6   7
ENDBRANCH   5   6
BRANCH   5  10
ATOM     10  C   UNL A   1      33.776  21.191  26.802  1.00  0.00     0.131 C 
BRANCH  10  11
ATOM     11  N   UNL A   1      32.547  21.927  27.041  1.00  0.00    -0.355 N 
ATOM     12  C   UNL A   1      32.302  23.266  26.928  1.00  0.00     0.220 C 
ATOM     13  H   UNL A   1      31.779  21.381  27.325  1.00  0.00     0.163 HD
ATOM     14  O   UNL A   1      31.179  23.690  27.202  1.00  0.00    -0.275 OA
BRANCH  12  15
ATOM     15  C   UNL A   1      33.412  24.220  26.507  1.00  0.00     0.104 C 
BRANCH  15  16
ATOM     16  C   UNL A   1      32.975  25.112  25.342  1.00  0.00     0.014 C 
ATOM     17  C   UNL A   1      33.835  26.380  25.188  1.00  0.00     0.021 C 
ATOM     18  C   UNL A   1      33.051  24.434  23.972  1.00  0.00     0.141 C 
ATOM     19  C   UNL A   1      33.378  27.081  23.908  1.00  0.00     0.137 C 
ATOM     20  S   UNL A   1      32.855  25.778  22.805  1.00  0.00     0.150 S 
ATOM     21  O   UNL A   1      31.448  25.939  22.519  1.00  0.00    -0.229 OA
ATOM     22  O   UNL A   1      33.847  25.629  21.754  1.00  0.00    -0.229 OA
ENDBRANCH  15  16
ENDBRANCH  12  15
ENDBRANCH  10  11
ENDBRANCH   5  10
ENDBRANCH   3   5
ENDBRANCH   2   3
ENDBRANCH   1   2
BRANCH   1  23
ATOM     23  C   UNL A   1      38.679  19.378  25.326  1.00  0.00     0.275 C 
BRANCH  23  24
ATOM     24  O   UNL A   1      39.430  19.636  26.527  1.00  0.00    -0.458 OA
BRANCH  24  25
ATOM     25  C   UNL A   1      40.720  19.990  26.329  1.00  0.00     0.338 C 
ATOM     26  O   UNL A   1      41.572  19.362  25.721  1.00  0.00    -0.246 OA
BRANCH  25  27
ATOM     27  C   UNL A   1      40.953  21.362  26.811  1.00  0.00     0.060 A 
ATOM     28  C   UNL A   1      40.347  22.406  26.103  1.00  0.00     0.016 A 
ATOM     29  C   UNL A   1      41.818  21.634  27.871  1.00  0.00     0.016 A 
ATOM     30  C   UNL A   1      40.605  23.729  26.441  1.00  0.00     0.010 A 
ATOM     31  C   UNL A   1      42.097  22.966  28.197  1.00  0.00     0.010 A 
ATOM     32  C   UNL A   1      41.508  24.016  27.469  1.00  0.00    -0.014 A 
BRANCH  32  33
ATOM     33  C   UNL A   1      41.920  25.420  27.687  1.00  0.00     0.031 A 
ATOM     34  C   UNL A   1      43.213  25.902  27.096  1.00  0.00     0.074 A 
ATOM     35  C   UNL A   1      41.118  26.269  28.353  1.00  0.00     0.049 A 
ATOM     36  N   UNL A   1      43.778  27.078  27.191  1.00  0.00    -0.248 NA
ATOM     37  C   UNL A   1      43.966  24.932  26.284  1.00  0.00     0.031 C 
ATOM     38  C   UNL A   1      39.807  25.935  28.909  1.00  0.00     0.029 A 
ATOM     39  N   UNL A   1      41.294  27.592  28.669  1.00  0.00    -0.354 N 
ATOM     40  C   UNL A   1      44.960  26.986  26.467  1.00  0.00     0.074 A 
ATOM     41  C   UNL A   1      45.037  25.636  25.949  1.00  0.00     0.031 C 
ATOM     42  C   UNL A   1      39.298  27.027  29.505  1.00  0.00     0.029 A 
ATOM     43  C   UNL A   1      40.262  28.121  29.405  1.00  0.00     0.049 A 
ATOM     44  H   UNL A   1      42.083  28.113  28.395  1.00  0.00     0.167 HD
ATOM     45  C   UNL A   1      45.898  27.938  26.256  1.00  0.00     0.031 A 
ATOM     46  C   UNL A   1      40.127  29.340  29.958  1.00  0.00     0.031 A 
ATOM     47  C   UNL A   1      45.825  29.275  26.780  1.00  0.00     0.049 A 
ATOM     48  C   UNL A   1      41.222  30.355  29.779  1.00  0.00     0.074 A 
ATOM     49  C   UNL A   1      46.728  30.313  26.627  1.00  0.00     0.029 A 
ATOM     50  N   UNL A   1      44.790  29.757  27.565  1.00  0.00    -0.354 N 
ATOM     51  N   UNL A   1      42.339  30.256  29.099  1.00  0.00    -0.248 NA
ATOM     52  C   UNL A   1      41.037  31.653  30.445  1.00  0.00     0.031 C 
ATOM     53  C   UNL A   1      46.260  31.410  27.359  1.00  0.00     0.029 A 
ATOM     54  C   UNL A   1      45.041  31.071  27.923  1.00  0.00     0.049 A 
ATOM     55  H   UNL A   1      43.994  29.242  27.829  1.00  0.00     0.167 HD
ATOM     56  C   UNL A   1      42.979  31.481  29.237  1.00  0.00     0.074 A 
ATOM     57  C   UNL A   1      42.117  32.314  30.051  1.00  0.00     0.031 C 
ATOM     58  C   UNL A   1      44.172  31.882  28.734  1.00  0.00     0.031 A 
BRANCH  45  59
ATOM     59  C   UNL A   1      47.109  27.546  25.458  1.00  0.00    -0.014 A 
ATOM     60  C   UNL A   1      47.163  27.740  24.069  1.00  0.00     0.009 A 
ATOM     61  C   UNL A   1      48.220  26.994  26.113  1.00  0.00     0.009 A 
ATOM     62  C   UNL A   1      48.297  27.358  23.348  1.00  0.00     0.001 A 
ATOM     63  C   UNL A   1      49.361  26.636  25.393  1.00  0.00     0.001 A 
ATOM     64  C   UNL A   1      49.395  26.810  24.011  1.00  0.00     0.000 A 
ENDBRANCH  45  59
BRANCH  46  65
ATOM     65  C   UNL A   1      38.922  29.660  30.767  1.00  0.00    -0.014 A 
ATOM     66  C   UNL A   1      37.796  30.249  30.174  1.00  0.00     0.009 A 
ATOM     67  C   UNL A   1      38.902  29.391  32.145  1.00  0.00     0.009 A 
ATOM     68  C   UNL A   1      36.682  30.580  30.948  1.00  0.00     0.001 A 
ATOM     69  C   UNL A   1      37.776  29.697  32.911  1.00  0.00     0.001 A 
ATOM     70  C   UNL A   1      36.671  30.300  32.314  1.00  0.00     0.000 A 
ENDBRANCH  46  65
BRANCH  58  71
ATOM     71  C   UNL A   1      44.596  33.294  29.022  1.00  0.00    -0.014 A 
ATOM     72  C   UNL A   1      44.211  34.355  28.187  1.00  0.00     0.009 A 
ATOM     73  C   UNL A   1      45.360  33.570  30.166  1.00  0.00     0.009 A 
ATOM     74  C   UNL A   1      44.613  35.660  28.476  1.00  0.00     0.001 A 
ATOM     75  C   UNL A   1      45.737  34.879  30.467  1.00  0.00     0.001 A 
ATOM     76  C   UNL A   1      45.371  35.921  29.617  1.00  0.00     0.000 A 
ENDBRANCH  58  71
ENDBRANCH  32  33
ENDBRANCH  25  27
ENDBRANCH  24  25
ENDBRANCH  23  24
ENDBRANCH   1  23
TORSDOF 17
ENDMDL
MODEL 3
REMARK VINA RESULT:      -9.7      0.890      6.093
REMARK SMILES CC(C)C[C@@H](CNC(=O)C[C@H]1CCS(=O)(=O)C1)C(=O)OCCOC(=O)c1ccc(-c2c3nc(c(-c4ccccc4)c4ccc([nH]4)c(-c4ccccc4)c4nc(c(-c5ccccc5)c5ccc2[nH]5)C=C4)C=C3)cc1
REMARK SMILES IDX 21 1 20 2 18 3 19 4 5 5 4 6 2 7 1 8 3 9 6 10 7 11 8 12 9 14
REMARK SMILES IDX 10 15 11 16 12 17 17 18 13 19 14 20 15 21 16 22 22 23 23 24
REMARK SMILES IDX 24 25 25 26 26 27 27 28 73 29 28 30 72 31 29 32 30 33 31 34
REMARK SMILES IDX 66 35 32 36 71 37 65 38 67 39 33 40 70 41 64 42 63 43 34 45
REMARK SMILES IDX 56 46 41 47 55 48 42 49 45 50 54 51 68 52 43 53 44 54 53 56
REMARK SMILES IDX 69 57 46 58 35 59 36 60 40 61 37 62 39 63 38 64 57 65 58 66
REMARK SMILES IDX 62 67 59 68 61 69 60 70 47 71 48 72 52 73 49 74 51 75 50 76
REMARK H PARENT 7 13 67 44 45 55
REMARK Flexibility Score: inf
ROOT
ATOM      1  C   UNL A   1      37.968  20.887  25.185  1.00  0.00     0.274 C 
ENDROOT
BRANCH   1   2
ATOM      2  O   UNL A   1      36.565  20.609  24.981  1.00  0.00    -0.462 OA
BRANCH   2   3
ATOM      3  C   UNL A   1      35.706  21.544  25.455  1.00  0.00     0.310 C 
ATOM      4  O   UNL A   1      36.041  22.630  25.913  1.00  0.00    -0.252 OA
BRANCH   3   5
ATOM      5  C   UNL A   1      34.255  21.123  25.438  1.00  0.00     0.118 C 
BRANCH   5   6
ATOM      6  C   UNL A   1      34.029  19.766  24.757  1.00  0.00     0.020 C 
BRANCH   6   7
ATOM      7  C   UNL A   1      32.668  19.626  24.031  1.00  0.00    -0.017 C 
ATOM      8  C   UNL A   1      32.355  20.796  23.091  1.00  0.00     0.007 C 
ATOM      9  C   UNL A   1      32.650  18.326  23.223  1.00  0.00     0.007 C 
ENDBRANCH   6   7
ENDBRANCH   5   6
BRANCH   5  10
ATOM     10  C   UNL A   1      33.603  21.294  26.814  1.00  0.00     0.131 C 
BRANCH  10  11
ATOM     11  N   UNL A   1      32.299  21.933  26.800  1.00  0.00    -0.355 N 
ATOM     12  C   UNL A   1      31.982  23.255  26.660  1.00  0.00     0.220 C 
ATOM     13  H   UNL A   1      31.532  21.326  26.907  1.00  0.00     0.163 HD
ATOM     14  O   UNL A   1      30.798  23.589  26.699  1.00  0.00    -0.275 OA
BRANCH  12  15
ATOM     15  C   UNL A   1      33.080  24.297  26.498  1.00  0.00     0.104 C 
BRANCH  15  16
ATOM     16  C   UNL A   1      32.802  25.228  25.315  1.00  0.00     0.014 C 
ATOM     17  C   UNL A   1      33.817  26.378  25.190  1.00  0.00     0.021 C 
ATOM     18  C   UNL A   1      32.843  24.535  23.951  1.00  0.00     0.141 C 
ATOM     19  C   UNL A   1      33.499  27.121  23.892  1.00  0.00     0.137 C 
ATOM     20  S   UNL A   1      32.860  25.885  22.773  1.00  0.00     0.150 S 
ATOM     21  O   UNL A   1      31.495  26.216  22.433  1.00  0.00    -0.229 OA
ATOM     22  O   UNL A   1      33.864  25.606  21.762  1.00  0.00    -0.229 OA
ENDBRANCH  15  16
ENDBRANCH  12  15
ENDBRANCH  10  11
ENDBRANCH   5  10
ENDBRANCH   3   5
ENDBRANCH   2   3
ENDBRANCH   1   2
BRANCH   1  23
ATOM     23  C   UNL A   1      38.873  19.667  24.969  1.00  0.00     0.275 C 
BRANCH  23  24
ATOM     24  O   UNL A   1      39.651  19.342  26.136  1.00  0.00    -0.458 OA
BRANCH  24  25
ATOM     25  C   UNL A   1      40.962  19.667  26.057  1.00  0.00     0.338 C 
ATOM     26  O   UNL A   1      41.845  19.037  25.498  1.00  0.00    -0.246 OA
BRANCH  25  27
ATOM     27  C   UNL A   1      41.188  21.015  26.608  1.00  0.00     0.060 A 
ATOM     28  C   UNL A   1      41.545  22.027  25.709  1.00  0.00     0.016 A 
ATOM     29  C   UNL A   1      41.145  21.268  27.979  1.00  0.00     0.016 A 
ATOM     30  C   UNL A   1      41.871  23.295  26.172  1.00  0.00     0.010 A 
ATOM     31  C   UNL A   1      41.496  22.539  28.448  1.00  0.00     0.010 A 
ATOM     32  C   UNL A   1      41.879  23.549  27.547  1.00  0.00    -0.014 A 
BRANCH  32  33
ATOM     33  C   UNL A   1      42.415  24.840  28.032  1.00  0.00     0.031 A 
ATOM     34  C   UNL A   1      41.459  25.954  28.349  1.00  0.00     0.074 A 
ATOM     35  C   UNL A   1      43.733  24.994  28.244  1.00  0.00     0.049 A 
ATOM     36  N   UNL A   1      41.714  27.171  28.754  1.00  0.00    -0.248 NA
ATOM     37  C   UNL A   1      40.027  25.654  28.198  1.00  0.00     0.031 C 
ATOM     38  C   UNL A   1      44.749  23.961  28.041  1.00  0.00     0.029 A 
ATOM     39  N   UNL A   1      44.440  26.084  28.681  1.00  0.00    -0.354 N 
ATOM     40  C   UNL A   1      40.477  27.789  28.889  1.00  0.00     0.074 A 
ATOM     41  C   UNL A   1      39.473  26.816  28.512  1.00  0.00     0.031 C 
ATOM     42  C   UNL A   1      45.954  24.471  28.350  1.00  0.00     0.029 A 
ATOM     43  C   UNL A   1      45.796  25.873  28.733  1.00  0.00     0.049 A 
ATOM     44  H   UNL A   1      44.018  26.936  28.934  1.00  0.00     0.167 HD
ATOM     45  C   UNL A   1      40.202  29.053  29.287  1.00  0.00     0.031 A 
ATOM     46  C   UNL A   1      46.797  26.723  29.028  1.00  0.00     0.031 A 
ATOM     47  C   UNL A   1      41.201  30.021  29.651  1.00  0.00     0.049 A 
ATOM     48  C   UNL A   1      46.470  28.147  29.388  1.00  0.00     0.074 A 
ATOM     49  C   UNL A   1      41.024  31.330  30.064  1.00  0.00     0.029 A 
ATOM     50  N   UNL A   1      42.566  29.785  29.640  1.00  0.00    -0.354 N 
ATOM     51  N   UNL A   1      45.297  28.722  29.506  1.00  0.00    -0.248 NA
ATOM     52  C   UNL A   1      47.607  29.039  29.656  1.00  0.00     0.031 C 
ATOM     53  C   UNL A   1      42.287  31.901  30.258  1.00  0.00     0.029 A 
ATOM     54  C   UNL A   1      43.246  30.931  30.017  1.00  0.00     0.049 A 
ATOM     55  H   UNL A   1      42.990  28.930  29.399  1.00  0.00     0.167 HD
ATOM     56  C   UNL A   1      45.554  30.035  29.881  1.00  0.00     0.074 A 
ATOM     57  C   UNL A   1      46.993  30.166  29.988  1.00  0.00     0.031 C 
ATOM     58  C   UNL A   1      44.678  31.041  30.117  1.00  0.00     0.031 A 
BRANCH  45  59
ATOM     59  C   UNL A   1      38.759  29.470  29.303  1.00  0.00    -0.014 A 
ATOM     60  C   UNL A   1      38.156  30.060  28.181  1.00  0.00     0.009 A 
ATOM     61  C   UNL A   1      37.989  29.250  30.455  1.00  0.00     0.009 A 
ATOM     62  C   UNL A   1      36.815  30.448  28.225  1.00  0.00     0.001 A 
ATOM     63  C   UNL A   1      36.642  29.617  30.487  1.00  0.00     0.001 A 
ATOM     64  C   UNL A   1      36.060  30.223  29.376  1.00  0.00     0.000 A 
ENDBRANCH  45  59
BRANCH  46  65
ATOM     65  C   UNL A   1      48.207  26.263  28.962  1.00  0.00    -0.014 A 
ATOM     66  C   UNL A   1      48.935  26.349  27.766  1.00  0.00     0.009 A 
ATOM     67  C   UNL A   1      48.829  25.718  30.097  1.00  0.00     0.009 A 
ATOM     68  C   UNL A   1      50.248  25.881  27.703  1.00  0.00     0.001 A 
ATOM     69  C   UNL A   1      50.152  25.276  30.038  1.00  0.00     0.001 A 
ATOM     70  C   UNL A   1      50.857  25.349  28.840  1.00  0.00     0.000 A 
ENDBRANCH  46  65
BRANCH  58  71
ATOM     71  C   UNL A   1      45.252  32.361  30.548  1.00  0.00    -0.014 A 
ATOM     72  C   UNL A   1      45.545  33.368  29.615  1.00  0.00     0.009 A 
ATOM     73  C   UNL A   1      45.465  32.613  31.912  1.00  0.00     0.009 A 
ATOM     74  C   UNL A   1      46.073  34.589  30.038  1.00  0.00     0.001 A 
ATOM     75  C   UNL A   1      45.968  33.844  32.334  1.00  0.00     0.001 A 
ATOM     76  C   UNL A   1      46.279  34.827  31.397  1.00  0.00     0.000 A 
ENDBRANCH  58  71
ENDBRANCH  32  33
ENDBRANCH  25  27
ENDBRANCH  24  25
ENDBRANCH  23  24
ENDBRANCH   1  23
TORSDOF 17
ENDMDL
