MODEL 1
REMARK VINA RESULT:     -11.2      0.000      0.000
REMARK SMILES C[C@@](NC(=O)[C@H]1COc2ccccc21)(C(=O)OCCOC(=O)c1ccc(-c2c3nc(c(-c4ccccc4)c4ccc([nH]4)c(-c4ccccc4)c4nc(c(-c5ccccc5)c5ccc2[nH]5)C=C4)C=C3)cc1)C(F)(F)F
REMARK SMILES IDX 18 1 17 2 15 3 16 4 2 5 1 6 3 7 4 8 5 10 6 11 7 12 14 13
REMARK SMILES IDX 8 14 9 15 13 16 10 17 12 18 11 19 71 20 72 21 73 22 74 23
REMARK SMILES IDX 19 24 20 25 21 26 22 27 23 28 24 29 70 30 25 31 69 32 26 33
REMARK SMILES IDX 27 34 28 35 63 36 29 37 68 38 62 39 64 40 30 41 67 42 61 43
REMARK SMILES IDX 60 44 31 46 53 47 38 48 52 49 39 50 42 51 51 52 65 53 40 54
REMARK SMILES IDX 41 55 50 57 66 58 43 59 32 60 33 61 37 62 34 63 36 64 35 65
REMARK SMILES IDX 54 66 55 67 59 68 56 69 58 70 57 71 44 72 45 73 49 74 46 75
REMARK SMILES IDX 48 76 47 77
REMARK H PARENT 3 9 64 45 42 56
REMARK Flexibility Score: inf
ROOT
ATOM      1  C   UNL A   1      35.349  20.476  25.021  1.00  0.00     0.274 C 
ENDROOT
BRANCH   1   2
ATOM      2  O   UNL A   1      34.942  21.826  25.355  1.00  0.00    -0.460 OA
BRANCH   2   3
ATOM      3  C   UNL A   1      33.870  22.292  24.659  1.00  0.00     0.341 C 
ATOM      4  O   UNL A   1      33.229  21.584  23.901  1.00  0.00    -0.249 OA
BRANCH   3   5
ATOM      5  C   UNL A   1      33.692  23.807  24.709  1.00  0.00     0.231 C 
ATOM      6  C   UNL A   1      34.992  24.490  25.172  1.00  0.00     0.058 C 
BRANCH   5   7
ATOM      7  N   UNL A   1      33.293  24.388  23.372  1.00  0.00    -0.332 N 
ATOM      8  C   UNL A   1      33.460  25.659  22.870  1.00  0.00     0.232 C 
ATOM      9  H   UNL A   1      32.844  23.758  22.762  1.00  0.00     0.164 HD
ATOM     10  O   UNL A   1      33.849  25.732  21.704  1.00  0.00    -0.274 OA
BRANCH   8  11
ATOM     11  C   UNL A   1      33.007  26.874  23.674  1.00  0.00     0.150 C 
ATOM     12  C   UNL A   1      33.724  28.181  23.299  1.00  0.00     0.248 C 
ATOM     13  C   UNL A   1      31.597  27.306  23.436  1.00  0.00     0.010 A 
ATOM     14  O   UNL A   1      32.819  29.106  22.656  1.00  0.00    -0.492 OA
ATOM     15  C   UNL A   1      31.583  28.588  22.914  1.00  0.00     0.123 A 
ATOM     16  C   UNL A   1      30.408  26.648  23.705  1.00  0.00     0.008 A 
ATOM     17  C   UNL A   1      30.412  29.279  22.679  1.00  0.00     0.047 A 
ATOM     18  C   UNL A   1      29.207  27.325  23.466  1.00  0.00     0.001 A 
ATOM     19  C   UNL A   1      29.209  28.640  22.970  1.00  0.00     0.004 A 
ENDBRANCH   8  11
ENDBRANCH   5   7
BRANCH   5  20
ATOM     20  C   UNL A   1      32.632  24.091  25.794  1.00  0.00     0.422 C 
ATOM     21  F   UNL A   1      31.377  24.077  25.291  1.00  0.00    -0.168 F 
ATOM     22  F   UNL A   1      32.671  23.131  26.754  1.00  0.00    -0.168 F 
ATOM     23  F   UNL A   1      32.817  25.270  26.422  1.00  0.00    -0.168 F 
ENDBRANCH   5  20
ENDBRANCH   3   5
ENDBRANCH   2   3
ENDBRANCH   1   2
BRANCH   1  24
ATOM     24  C   UNL A   1      36.863  20.264  24.889  1.00  0.00     0.275 C 
BRANCH  24  25
ATOM     25  O   UNL A   1      37.627  21.436  25.242  1.00  0.00    -0.458 OA
BRANCH  25  26
ATOM     26  C   UNL A   1      38.792  21.187  25.882  1.00  0.00     0.338 C 
ATOM     27  O   UNL A   1      39.449  20.157  25.826  1.00  0.00    -0.246 OA
BRANCH  26  28
ATOM     28  C   UNL A   1      39.300  22.388  26.566  1.00  0.00     0.060 A 
ATOM     29  C   UNL A   1      38.753  23.608  26.177  1.00  0.00     0.016 A 
ATOM     30  C   UNL A   1      40.424  22.367  27.390  1.00  0.00     0.016 A 
ATOM     31  C   UNL A   1      39.338  24.809  26.547  1.00  0.00     0.010 A 
ATOM     32  C   UNL A   1      41.008  23.583  27.790  1.00  0.00     0.010 A 
ATOM     33  C   UNL A   1      40.490  24.812  27.336  1.00  0.00    -0.014 A 
BRANCH  33  34
ATOM     34  C   UNL A   1      41.194  26.106  27.526  1.00  0.00     0.031 A 
ATOM     35  C   UNL A   1      40.630  27.126  28.479  1.00  0.00     0.074 A 
ATOM     36  C   UNL A   1      42.408  26.310  26.978  1.00  0.00     0.049 A 
ATOM     37  N   UNL A   1      41.074  28.324  28.771  1.00  0.00    -0.248 NA
ATOM     38  C   UNL A   1      39.409  26.746  29.209  1.00  0.00     0.031 C 
ATOM     39  C   UNL A   1      43.121  25.357  26.123  1.00  0.00     0.029 A 
ATOM     40  N   UNL A   1      43.275  27.368  27.093  1.00  0.00    -0.354 N 
ATOM     41  C   UNL A   1      40.169  28.851  29.682  1.00  0.00     0.074 A 
ATOM     42  C   UNL A   1      39.147  27.849  29.894  1.00  0.00     0.031 C 
ATOM     43  C   UNL A   1      44.330  25.858  25.824  1.00  0.00     0.029 A 
ATOM     44  C   UNL A   1      44.453  27.190  26.410  1.00  0.00     0.049 A 
ATOM     45  H   UNL A   1      43.072  28.176  27.617  1.00  0.00     0.167 HD
ATOM     46  C   UNL A   1      40.183  30.062  30.288  1.00  0.00     0.031 A 
ATOM     47  C   UNL A   1      45.504  28.017  26.250  1.00  0.00     0.031 A 
ATOM     48  C   UNL A   1      41.211  31.051  30.101  1.00  0.00     0.049 A 
ATOM     49  C   UNL A   1      45.473  29.375  26.892  1.00  0.00     0.074 A 
ATOM     50  C   UNL A   1      41.289  32.329  30.628  1.00  0.00     0.029 A 
ATOM     51  N   UNL A   1      42.355  30.861  29.341  1.00  0.00    -0.354 N 
ATOM     52  N   UNL A   1      44.560  29.900  27.672  1.00  0.00    -0.248 NA
ATOM     53  C   UNL A   1      46.615  30.260  26.619  1.00  0.00     0.031 C 
ATOM     54  C   UNL A   1      42.467  32.923  30.162  1.00  0.00     0.029 A 
ATOM     55  C   UNL A   1      43.142  31.999  29.381  1.00  0.00     0.049 A 
ATOM     56  H   UNL A   1      42.574  30.039  28.846  1.00  0.00     0.167 HD
ATOM     57  C   UNL A   1      45.014  31.174  27.982  1.00  0.00     0.074 A 
ATOM     58  C   UNL A   1      46.302  31.331  27.336  1.00  0.00     0.031 C 
ATOM     59  C   UNL A   1      44.414  32.138  28.722  1.00  0.00     0.031 A 
BRANCH  46  60
ATOM     60  C   UNL A   1      39.018  30.401  31.174  1.00  0.00    -0.014 A 
ATOM     61  C   UNL A   1      39.046  30.146  32.554  1.00  0.00     0.009 A 
ATOM     62  C   UNL A   1      37.879  30.999  30.616  1.00  0.00     0.009 A 
ATOM     63  C   UNL A   1      37.941  30.456  33.350  1.00  0.00     0.001 A 
ATOM     64  C   UNL A   1      36.785  31.331  31.419  1.00  0.00     0.001 A 
ATOM     65  C   UNL A   1      36.815  31.051  32.784  1.00  0.00     0.000 A 
ENDBRANCH  46  60
BRANCH  47  66
ATOM     66  C   UNL A   1      46.650  27.609  25.394  1.00  0.00    -0.014 A 
ATOM     67  C   UNL A   1      46.712  27.979  24.042  1.00  0.00     0.009 A 
ATOM     68  C   UNL A   1      47.683  26.824  25.930  1.00  0.00     0.009 A 
ATOM     69  C   UNL A   1      47.774  27.553  23.241  1.00  0.00     0.001 A 
ATOM     70  C   UNL A   1      48.759  26.426  25.136  1.00  0.00     0.001 A 
ATOM     71  C   UNL A   1      48.800  26.783  23.789  1.00  0.00     0.000 A 
ENDBRANCH  47  66
BRANCH  59  72
ATOM     72  C   UNL A   1      45.154  33.435  28.874  1.00  0.00    -0.014 A 
ATOM     73  C   UNL A   1      46.048  33.637  29.937  1.00  0.00     0.009 A 
ATOM     74  C   UNL A   1      44.962  34.463  27.939  1.00  0.00     0.009 A 
ATOM     75  C   UNL A   1      46.706  34.859  30.083  1.00  0.00     0.001 A 
ATOM     76  C   UNL A   1      45.640  35.676  28.074  1.00  0.00     0.001 A 
ATOM     77  C   UNL A   1      46.502  35.876  29.151  1.00  0.00     0.000 A 
ENDBRANCH  59  72
ENDBRANCH  33  34
ENDBRANCH  26  28
ENDBRANCH  25  26
ENDBRANCH  24  25
ENDBRANCH   1  24
TORSDOF 14
ENDMDL
MODEL 2
REMARK VINA RESULT:     -11.2      0.432      5.993
REMARK SMILES C[C@@](NC(=O)[C@H]1COc2ccccc21)(C(=O)OCCOC(=O)c1ccc(-c2c3nc(c(-c4ccccc4)c4ccc([nH]4)c(-c4ccccc4)c4nc(c(-c5ccccc5)c5ccc2[nH]5)C=C4)C=C3)cc1)C(F)(F)F
REMARK SMILES IDX 18 1 17 2 15 3 16 4 2 5 1 6 3 7 4 8 5 10 6 11 7 12 14 13
REMARK SMILES IDX 8 14 9 15 13 16 10 17 12 18 11 19 71 20 72 21 73 22 74 23
REMARK SMILES IDX 19 24 20 25 21 26 22 27 23 28 24 29 70 30 25 31 69 32 26 33
REMARK SMILES IDX 27 34 28 35 63 36 29 37 68 38 62 39 64 40 30 41 67 42 61 43
REMARK SMILES IDX 60 44 31 46 53 47 38 48 52 49 39 50 42 51 51 52 65 53 40 54
REMARK SMILES IDX 41 55 50 57 66 58 43 59 32 60 33 61 37 62 34 63 36 64 35 65
REMARK SMILES IDX 54 66 55 67 59 68 56 69 58 70 57 71 44 72 45 73 49 74 46 75
REMARK SMILES IDX 48 76 47 77
REMARK H PARENT 3 9 64 45 42 56
REMARK Flexibility Score: inf
ROOT
ATOM      1  C   UNL A   1      35.835  20.796  25.157  1.00  0.00     0.274 C 
ENDROOT
BRANCH   1   2
ATOM      2  O   UNL A   1      35.485  21.932  24.330  1.00  0.00    -0.460 OA
BRANCH   2   3
ATOM      3  C   UNL A   1      34.154  22.213  24.271  1.00  0.00     0.341 C 
ATOM      4  O   UNL A   1      33.329  21.382  23.931  1.00  0.00    -0.249 OA
BRANCH   3   5
ATOM      5  C   UNL A   1      33.812  23.693  24.416  1.00  0.00     0.231 C 
ATOM      6  C   UNL A   1      35.049  24.493  24.866  1.00  0.00     0.058 C 
BRANCH   5   7
ATOM      7  N   UNL A   1      33.290  24.296  23.132  1.00  0.00    -0.332 N 
ATOM      8  C   UNL A   1      33.398  25.578  22.644  1.00  0.00     0.232 C 
ATOM      9  H   UNL A   1      32.794  23.672  22.552  1.00  0.00     0.164 HD
ATOM     10  O   UNL A   1      33.681  25.679  21.450  1.00  0.00    -0.274 OA
BRANCH   8  11
ATOM     11  C   UNL A   1      33.006  26.771  23.510  1.00  0.00     0.150 C 
ATOM     12  C   UNL A   1      33.727  28.079  23.144  1.00  0.00     0.248 C 
ATOM     13  C   UNL A   1      31.595  27.234  23.358  1.00  0.00     0.010 A 
ATOM     14  O   UNL A   1      32.808  29.040  22.579  1.00  0.00    -0.492 OA
ATOM     15  C   UNL A   1      31.577  28.534  22.881  1.00  0.00     0.123 A 
ATOM     16  C   UNL A   1      30.408  26.586  23.664  1.00  0.00     0.008 A 
ATOM     17  C   UNL A   1      30.408  29.251  22.729  1.00  0.00     0.047 A 
ATOM     18  C   UNL A   1      29.210  27.290  23.508  1.00  0.00     0.001 A 
ATOM     19  C   UNL A   1      29.210  28.620  23.057  1.00  0.00     0.004 A 
ENDBRANCH   8  11
ENDBRANCH   5   7
BRANCH   5  20
ATOM     20  C   UNL A   1      32.779  23.796  25.557  1.00  0.00     0.422 C 
ATOM     21  F   UNL A   1      33.029  22.910  26.547  1.00  0.00    -0.168 F 
ATOM     22  F   UNL A   1      32.824  25.029  26.125  1.00  0.00    -0.168 F 
ATOM     23  F   UNL A   1      31.508  23.611  25.143  1.00  0.00    -0.168 F 
ENDBRANCH   5  20
ENDBRANCH   3   5
ENDBRANCH   2   3
ENDBRANCH   1   2
BRANCH   1  24
ATOM     24  C   UNL A   1      37.275  20.290  24.997  1.00  0.00     0.275 C 
BRANCH  24  25
ATOM     25  O   UNL A   1      38.257  21.338  25.136  1.00  0.00    -0.458 OA
BRANCH  25  26
ATOM     26  C   UNL A   1      39.274  21.060  25.981  1.00  0.00     0.338 C 
ATOM     27  O   UNL A   1      39.904  20.013  26.044  1.00  0.00    -0.246 OA
BRANCH  26  28
ATOM     28  C   UNL A   1      39.677  22.248  26.752  1.00  0.00     0.060 A 
ATOM     29  C   UNL A   1      39.060  23.450  26.417  1.00  0.00     0.016 A 
ATOM     30  C   UNL A   1      40.774  22.252  27.613  1.00  0.00     0.016 A 
ATOM     31  C   UNL A   1      39.549  24.663  26.877  1.00  0.00     0.010 A 
ATOM     32  C   UNL A   1      41.259  23.477  28.104  1.00  0.00     0.010 A 
ATOM     33  C   UNL A   1      40.672  24.695  27.705  1.00  0.00    -0.014 A 
BRANCH  33  34
ATOM     34  C   UNL A   1      41.280  26.019  27.997  1.00  0.00     0.031 A 
ATOM     35  C   UNL A   1      42.578  26.401  27.338  1.00  0.00     0.074 A 
ATOM     36  C   UNL A   1      40.605  26.936  28.717  1.00  0.00     0.049 A 
ATOM     37  N   UNL A   1      43.288  27.494  27.475  1.00  0.00    -0.248 NA
ATOM     38  C   UNL A   1      43.152  25.429  26.392  1.00  0.00     0.031 C 
ATOM     39  C   UNL A   1      39.286  26.734  29.320  1.00  0.00     0.029 A 
ATOM     40  N   UNL A   1      40.918  28.236  29.027  1.00  0.00    -0.354 N 
ATOM     41  C   UNL A   1      44.404  27.324  26.667  1.00  0.00     0.074 A 
ATOM     42  C   UNL A   1      44.285  26.023  26.047  1.00  0.00     0.031 C 
ATOM     43  C   UNL A   1      38.887  27.881  29.894  1.00  0.00     0.029 A 
ATOM     44  C   UNL A   1      39.947  28.876  29.756  1.00  0.00     0.049 A 
ATOM     45  H   UNL A   1      41.759  28.668  28.752  1.00  0.00     0.167 HD
ATOM     46  C   UNL A   1      45.439  28.173  26.460  1.00  0.00     0.031 A 
ATOM     47  C   UNL A   1      39.920  30.118  30.277  1.00  0.00     0.031 A 
ATOM     48  C   UNL A   1      45.548  29.479  27.054  1.00  0.00     0.049 A 
ATOM     49  C   UNL A   1      41.104  31.023  30.076  1.00  0.00     0.074 A 
ATOM     50  C   UNL A   1      46.583  30.393  26.950  1.00  0.00     0.029 A 
ATOM     51  N   UNL A   1      44.575  30.065  27.848  1.00  0.00    -0.354 N 
ATOM     52  N   UNL A   1      42.200  30.810  29.391  1.00  0.00    -0.248 NA
ATOM     53  C   UNL A   1      41.048  32.337  30.733  1.00  0.00     0.031 C 
ATOM     54  C   UNL A   1      46.246  31.522  27.707  1.00  0.00     0.029 A 
ATOM     55  C   UNL A   1      44.985  31.326  28.245  1.00  0.00     0.049 A 
ATOM     56  H   UNL A   1      43.718  29.646  28.093  1.00  0.00     0.167 HD
ATOM     57  C   UNL A   1      42.966  31.958  29.535  1.00  0.00     0.074 A 
ATOM     58  C   UNL A   1      42.192  32.880  30.342  1.00  0.00     0.031 C 
ATOM     59  C   UNL A   1      44.206  32.223  29.056  1.00  0.00     0.031 A 
BRANCH  46  60
ATOM     60  C   UNL A   1      46.563  27.687  25.590  1.00  0.00    -0.014 A 
ATOM     61  C   UNL A   1      46.631  28.015  24.227  1.00  0.00     0.009 A 
ATOM     62  C   UNL A   1      47.578  26.899  26.152  1.00  0.00     0.009 A 
ATOM     63  C   UNL A   1      47.679  27.535  23.439  1.00  0.00     0.001 A 
ATOM     64  C   UNL A   1      48.638  26.441  25.367  1.00  0.00     0.001 A 
ATOM     65  C   UNL A   1      48.682  26.753  24.008  1.00  0.00     0.000 A 
ENDBRANCH  46  60
BRANCH  47  66
ATOM     66  C   UNL A   1      38.760  30.559  31.096  1.00  0.00    -0.014 A 
ATOM     67  C   UNL A   1      38.721  30.331  32.480  1.00  0.00     0.009 A 
ATOM     68  C   UNL A   1      37.669  31.196  30.484  1.00  0.00     0.009 A 
ATOM     69  C   UNL A   1      37.606  30.714  33.228  1.00  0.00     0.001 A 
ATOM     70  C   UNL A   1      36.569  31.606  31.238  1.00  0.00     0.001 A 
ATOM     71  C   UNL A   1      36.534  31.356  32.609  1.00  0.00     0.000 A 
ENDBRANCH  47  66
BRANCH  59  72
ATOM     72  C   UNL A   1      44.787  33.566  29.389  1.00  0.00    -0.014 A 
ATOM     73  C   UNL A   1      45.573  33.750  30.537  1.00  0.00     0.009 A 
ATOM     74  C   UNL A   1      44.553  34.659  28.541  1.00  0.00     0.009 A 
ATOM     75  C   UNL A   1      46.082  35.011  30.850  1.00  0.00     0.001 A 
ATOM     76  C   UNL A   1      45.083  35.914  28.844  1.00  0.00     0.001 A 
ATOM     77  C   UNL A   1      45.837  36.091  30.002  1.00  0.00     0.000 A 
ENDBRANCH  59  72
ENDBRANCH  33  34
ENDBRANCH  26  28
ENDBRANCH  25  26
ENDBRANCH  24  25
ENDBRANCH   1  24
TORSDOF 14
ENDMDL
MODEL 3
REMARK VINA RESULT:     -11.0      3.759      6.943
REMARK SMILES C[C@@](NC(=O)[C@H]1COc2ccccc21)(C(=O)OCCOC(=O)c1ccc(-c2c3nc(c(-c4ccccc4)c4ccc([nH]4)c(-c4ccccc4)c4nc(c(-c5ccccc5)c5ccc2[nH]5)C=C4)C=C3)cc1)C(F)(F)F
REMARK SMILES IDX 18 1 17 2 15 3 16 4 2 5 1 6 3 7 4 8 5 10 6 11 7 12 14 13
REMARK SMILES IDX 8 14 9 15 13 16 10 17 12 18 11 19 71 20 72 21 73 22 74 23
REMARK SMILES IDX 19 24 20 25 21 26 22 27 23 28 24 29 70 30 25 31 69 32 26 33
REMARK SMILES IDX 27 34 28 35 63 36 29 37 68 38 62 39 64 40 30 41 67 42 61 43
REMARK SMILES IDX 60 44 31 46 53 47 38 48 52 49 39 50 42 51 51 52 65 53 40 54
REMARK SMILES IDX 41 55 50 57 66 58 43 59 32 60 33 61 37 62 34 63 36 64 35 65
REMARK SMILES IDX 54 66 55 67 59 68 56 69 58 70 57 71 44 72 45 73 49 74 46 75
REMARK SMILES IDX 48 76 47 77
REMARK H PARENT 3 9 64 45 42 56
REMARK Flexibility Score: inf
ROOT
ATOM      1  C   UNL A   1      31.490  30.080  25.106  1.00  0.00     0.274 C 
ENDROOT
BRANCH   1   2
ATOM      2  O   UNL A   1      32.185  28.853  25.437  1.00  0.00    -0.460 OA
BRANCH   2   3
ATOM      3  C   UNL A   1      31.687  27.732  24.847  1.00  0.00     0.341 C 
ATOM      4  O   UNL A   1      30.580  27.703  24.338  1.00  0.00    -0.249 OA
BRANCH   3   5
ATOM      5  C   UNL A   1      32.507  26.469  25.094  1.00  0.00     0.231 C 
ATOM      6  C   UNL A   1      33.622  26.739  26.122  1.00  0.00     0.058 C 
BRANCH   5   7
ATOM      7  N   UNL A   1      31.662  25.318  25.591  1.00  0.00    -0.332 N 
ATOM      8  C   UNL A   1      32.012  24.219  26.341  1.00  0.00     0.232 C 
ATOM      9  H   UNL A   1      30.711  25.362  25.338  1.00  0.00     0.164 HD
ATOM     10  O   UNL A   1      31.241  23.922  27.254  1.00  0.00    -0.274 OA
BRANCH   8  11
ATOM     11  C   UNL A   1      33.188  23.340  25.925  1.00  0.00     0.150 C 
ATOM     12  C   UNL A   1      33.869  22.605  27.092  1.00  0.00     0.248 C 
ATOM     13  C   UNL A   1      32.835  22.160  25.082  1.00  0.00     0.010 A 
ATOM     14  O   UNL A   1      33.642  21.181  27.013  1.00  0.00    -0.492 OA
ATOM     15  C   UNL A   1      33.171  20.992  25.746  1.00  0.00     0.123 A 
ATOM     16  C   UNL A   1      32.307  22.107  23.802  1.00  0.00     0.008 A 
ATOM     17  C   UNL A   1      33.041  19.747  25.167  1.00  0.00     0.047 A 
ATOM     18  C   UNL A   1      32.155  20.855  23.198  1.00  0.00     0.001 A 
ATOM     19  C   UNL A   1      32.535  19.681  23.871  1.00  0.00     0.004 A 
ENDBRANCH   8  11
ENDBRANCH   5   7
BRANCH   5  20
ATOM     20  C   UNL A   1      33.206  26.131  23.761  1.00  0.00     0.422 C 
ATOM     21  F   UNL A   1      33.444  27.236  23.020  1.00  0.00    -0.168 F 
ATOM     22  F   UNL A   1      34.415  25.558  23.994  1.00  0.00    -0.168 F 
ATOM     23  F   UNL A   1      32.510  25.261  23.001  1.00  0.00    -0.168 F 
ENDBRANCH   5  20
ENDBRANCH   3   5
ENDBRANCH   2   3
ENDBRANCH   1   2
BRANCH   1  24
ATOM     24  C   UNL A   1      31.451  31.131  26.224  1.00  0.00     0.275 C 
BRANCH  24  25
ATOM     25  O   UNL A   1      32.462  30.918  27.231  1.00  0.00    -0.458 OA
BRANCH  25  26
ATOM     26  C   UNL A   1      33.243  31.990  27.491  1.00  0.00     0.338 C 
ATOM     27  O   UNL A   1      32.872  33.147  27.628  1.00  0.00    -0.246 OA
BRANCH  26  28
ATOM     28  C   UNL A   1      34.635  31.591  27.763  1.00  0.00     0.060 A 
ATOM     29  C   UNL A   1      34.862  30.239  28.009  1.00  0.00     0.016 A 
ATOM     30  C   UNL A   1      35.652  32.515  27.997  1.00  0.00     0.016 A 
ATOM     31  C   UNL A   1      36.064  29.795  28.539  1.00  0.00     0.010 A 
ATOM     32  C   UNL A   1      36.883  32.068  28.510  1.00  0.00     0.010 A 
ATOM     33  C   UNL A   1      37.081  30.708  28.822  1.00  0.00    -0.014 A 
BRANCH  33  34
ATOM     34  C   UNL A   1      38.260  30.216  29.580  1.00  0.00     0.031 A 
ATOM     35  C   UNL A   1      38.382  30.527  31.048  1.00  0.00     0.074 A 
ATOM     36  C   UNL A   1      39.136  29.368  29.006  1.00  0.00     0.049 A 
ATOM     37  N   UNL A   1      39.340  30.215  31.886  1.00  0.00    -0.248 NA
ATOM     38  C   UNL A   1      37.275  31.281  31.659  1.00  0.00     0.031 C 
ATOM     39  C   UNL A   1      39.072  28.896  27.621  1.00  0.00     0.029 A 
ATOM     40  N   UNL A   1      40.225  28.718  29.530  1.00  0.00    -0.354 N 
ATOM     41  C   UNL A   1      38.971  30.766  33.105  1.00  0.00     0.074 A 
ATOM     42  C   UNL A   1      37.705  31.437  32.902  1.00  0.00     0.031 C 
ATOM     43  C   UNL A   1      40.055  28.004  27.417  1.00  0.00     0.029 A 
ATOM     44  C   UNL A   1      40.855  27.891  28.633  1.00  0.00     0.049 A 
ATOM     45  H   UNL A   1      40.526  28.835  30.460  1.00  0.00     0.167 HD
ATOM     46  C   UNL A   1      39.627  30.721  34.290  1.00  0.00     0.031 A 
ATOM     47  C   UNL A   1      41.967  27.142  28.765  1.00  0.00     0.031 A 
ATOM     48  C   UNL A   1      40.872  30.033  34.503  1.00  0.00     0.049 A 
ATOM     49  C   UNL A   1      42.705  27.150  30.075  1.00  0.00     0.074 A 
ATOM     50  C   UNL A   1      41.643  29.973  35.651  1.00  0.00     0.029 A 
ATOM     51  N   UNL A   1      41.517  29.264  33.547  1.00  0.00    -0.354 N 
ATOM     52  N   UNL A   1      42.396  27.759  31.194  1.00  0.00    -0.248 NA
ATOM     53  C   UNL A   1      43.952  26.374  30.135  1.00  0.00     0.031 C 
ATOM     54  C   UNL A   1      42.771  29.191  35.380  1.00  0.00     0.029 A 
ATOM     55  C   UNL A   1      42.680  28.729  34.077  1.00  0.00     0.049 A 
ATOM     56  H   UNL A   1      41.197  29.120  32.627  1.00  0.00     0.167 HD
ATOM     57  C   UNL A   1      43.409  27.444  32.088  1.00  0.00     0.074 A 
ATOM     58  C   UNL A   1      44.323  26.559  31.394  1.00  0.00     0.031 C 
ATOM     59  C   UNL A   1      43.580  27.861  33.366  1.00  0.00     0.031 A 
BRANCH  46  60
ATOM     60  C   UNL A   1      39.027  31.486  35.436  1.00  0.00    -0.014 A 
ATOM     61  C   UNL A   1      39.292  32.851  35.627  1.00  0.00     0.009 A 
ATOM     62  C   UNL A   1      38.170  30.827  36.330  1.00  0.00     0.009 A 
ATOM     63  C   UNL A   1      38.734  33.532  36.711  1.00  0.00     0.001 A 
ATOM     64  C   UNL A   1      37.593  31.517  37.399  1.00  0.00     0.001 A 
ATOM     65  C   UNL A   1      37.883  32.867  37.592  1.00  0.00     0.000 A 
ENDBRANCH  46  60
BRANCH  47  66
ATOM     66  C   UNL A   1      42.490  26.373  27.606  1.00  0.00    -0.014 A 
ATOM     67  C   UNL A   1      43.391  26.950  26.699  1.00  0.00     0.009 A 
ATOM     68  C   UNL A   1      42.068  25.050  27.392  1.00  0.00     0.009 A 
ATOM     69  C   UNL A   1      43.841  26.227  25.591  1.00  0.00     0.001 A 
ATOM     70  C   UNL A   1      42.543  24.319  26.303  1.00  0.00     0.001 A 
ATOM     71  C   UNL A   1      43.423  24.911  25.398  1.00  0.00     0.000 A 
ENDBRANCH  47  66
BRANCH  59  72
ATOM     72  C   UNL A   1      44.794  27.352  34.088  1.00  0.00    -0.014 A 
ATOM     73  C   UNL A   1      45.992  28.082  34.092  1.00  0.00     0.009 A 
ATOM     74  C   UNL A   1      44.735  26.133  34.779  1.00  0.00     0.009 A 
ATOM     75  C   UNL A   1      47.121  27.582  34.742  1.00  0.00     0.001 A 
ATOM     76  C   UNL A   1      45.860  25.646  35.449  1.00  0.00     0.001 A 
ATOM     77  C   UNL A   1      47.053  26.365  35.420  1.00  0.00     0.000 A 
ENDBRANCH  59  72
ENDBRANCH  33  34
ENDBRANCH  26  28
ENDBRANCH  25  26
ENDBRANCH  24  25
ENDBRANCH   1  24
TORSDOF 14
ENDMDL
