MODEL 1
REMARK VINA RESULT:      -9.5      0.000      0.000
REMARK SMILES O=C(OCCOC(=O)c1ccc(N2CNC(c3ccccc3)=[NH+]C2=S)cc1)c1ccc(-c2c3nc(c(-c4ccccc4)c4ccc([nH]4)c(-c4ccccc4)c4nc(c(-c5ccccc5)c5ccc2[nH]5)C=C4)C=C3)cc1
REMARK SMILES IDX 4 1 3 2 2 3 1 4 28 5 29 6 75 7 30 8 74 9 31 10 32 11 33 12
REMARK SMILES IDX 68 13 34 14 73 15 67 16 69 17 35 18 72 19 66 20 65 21 36 23
REMARK SMILES IDX 58 24 43 25 57 26 44 27 47 28 56 29 70 30 45 31 46 32 55 34
REMARK SMILES IDX 71 35 48 36 37 37 38 38 42 39 39 40 41 41 40 42 59 43 60 44
REMARK SMILES IDX 64 45 61 46 63 47 62 48 49 49 50 50 54 51 51 52 53 53 52 54
REMARK SMILES IDX 5 55 6 56 7 57 8 58 9 59 10 60 27 61 11 62 26 63 12 64 13 65
REMARK SMILES IDX 14 66 24 67 15 68 23 69 25 70 16 71 17 74 18 75 22 76 19 77
REMARK SMILES IDX 21 78 20 79
REMARK H PARENT 69 22 47 33 15 72 23 73
REMARK Flexibility Score: inf
ROOT
ATOM      1  C   UNL A   1      33.259  36.540  29.235  1.00  0.00     0.275 C 
ENDROOT
BRANCH   1   2
ATOM      2  O   UNL A   1      32.689  35.230  29.082  1.00  0.00    -0.458 OA
BRANCH   2   3
ATOM      3  C   UNL A   1      33.200  34.113  28.515  1.00  0.00     0.338 C 
ATOM      4  O   UNL A   1      32.518  33.516  27.683  1.00  0.00    -0.246 OA
BRANCH   3   5
ATOM      5  C   UNL A   1      34.502  33.488  28.918  1.00  0.00     0.060 A 
ATOM      6  C   UNL A   1      34.701  32.581  29.961  1.00  0.00     0.016 A 
ATOM      7  C   UNL A   1      35.623  33.850  28.151  1.00  0.00     0.016 A 
ATOM      8  C   UNL A   1      35.944  31.981  30.179  1.00  0.00     0.010 A 
ATOM      9  C   UNL A   1      36.869  33.259  28.373  1.00  0.00     0.010 A 
ATOM     10  C   UNL A   1      37.034  32.306  29.378  1.00  0.00    -0.014 A 
BRANCH  10  11
ATOM     11  C   UNL A   1      38.361  31.746  29.703  1.00  0.00     0.031 A 
ATOM     12  C   UNL A   1      39.264  32.532  30.603  1.00  0.00     0.074 A 
ATOM     13  C   UNL A   1      38.705  30.513  29.285  1.00  0.00     0.049 A 
ATOM     14  N   UNL A   1      40.401  32.177  31.137  1.00  0.00    -0.248 NA
ATOM     15  C   UNL A   1      38.802  33.875  30.993  1.00  0.00     0.031 C 
ATOM     16  C   UNL A   1      37.861  29.631  28.479  1.00  0.00     0.029 A 
ATOM     17  N   UNL A   1      39.844  29.778  29.489  1.00  0.00    -0.354 N 
ATOM     18  C   UNL A   1      40.765  33.232  31.961  1.00  0.00     0.074 A 
ATOM     19  C   UNL A   1      39.770  34.268  31.804  1.00  0.00     0.031 C 
ATOM     20  C   UNL A   1      38.522  28.491  28.223  1.00  0.00     0.029 A 
ATOM     21  C   UNL A   1      39.834  28.557  28.857  1.00  0.00     0.049 A 
ATOM     22  H   UNL A   1      40.598  30.094  30.036  1.00  0.00     0.167 HD
ATOM     23  C   UNL A   1      41.818  33.313  32.805  1.00  0.00     0.031 A 
ATOM     24  C   UNL A   1      40.778  27.599  28.804  1.00  0.00     0.031 A 
ATOM     25  C   UNL A   1      42.835  32.306  32.904  1.00  0.00     0.049 A 
ATOM     26  C   UNL A   1      42.022  27.785  29.629  1.00  0.00     0.074 A 
ATOM     27  C   UNL A   1      43.977  32.303  33.682  1.00  0.00     0.029 A 
ATOM     28  N   UNL A   1      42.836  31.122  32.179  1.00  0.00    -0.354 N 
ATOM     29  N   UNL A   1      42.335  28.771  30.435  1.00  0.00    -0.248 NA
ATOM     30  C   UNL A   1      43.022  26.711  29.571  1.00  0.00     0.031 C 
ATOM     31  C   UNL A   1      44.696  31.140  33.386  1.00  0.00     0.029 A 
ATOM     32  C   UNL A   1      43.971  30.389  32.473  1.00  0.00     0.049 A 
ATOM     33  H   UNL A   1      42.132  30.846  31.548  1.00  0.00     0.167 HD
ATOM     34  C   UNL A   1      43.546  28.420  31.013  1.00  0.00     0.074 A 
ATOM     35  C   UNL A   1      43.902  27.121  30.473  1.00  0.00     0.031 C 
ATOM     36  C   UNL A   1      44.296  29.102  31.914  1.00  0.00     0.031 A 
BRANCH  23  37
ATOM     37  C   UNL A   1      41.908  34.551  33.649  1.00  0.00    -0.014 A 
ATOM     38  C   UNL A   1      42.625  35.675  33.204  1.00  0.00     0.009 A 
ATOM     39  C   UNL A   1      41.302  34.586  34.912  1.00  0.00     0.009 A 
ATOM     40  C   UNL A   1      42.767  36.795  34.026  1.00  0.00     0.001 A 
ATOM     41  C   UNL A   1      41.423  35.718  35.721  1.00  0.00     0.001 A 
ATOM     42  C   UNL A   1      42.163  36.816  35.282  1.00  0.00     0.000 A 
ENDBRANCH  23  37
BRANCH  24  43
ATOM     43  C   UNL A   1      40.591  26.392  27.952  1.00  0.00    -0.014 A 
ATOM     44  C   UNL A   1      39.891  25.269  28.418  1.00  0.00     0.009 A 
ATOM     45  C   UNL A   1      41.161  26.345  26.669  1.00  0.00     0.009 A 
ATOM     46  C   UNL A   1      39.801  24.113  27.636  1.00  0.00     0.001 A 
ATOM     47  C   UNL A   1      41.045  25.200  25.878  1.00  0.00     0.001 A 
ATOM     48  C   UNL A   1      40.377  24.079  26.368  1.00  0.00     0.000 A 
ENDBRANCH  24  43
BRANCH  36  49
ATOM     49  C   UNL A   1      45.551  28.432  32.394  1.00  0.00    -0.014 A 
ATOM     50  C   UNL A   1      45.547  27.591  33.517  1.00  0.00     0.009 A 
ATOM     51  C   UNL A   1      46.749  28.623  31.687  1.00  0.00     0.009 A 
ATOM     52  C   UNL A   1      46.730  26.987  33.947  1.00  0.00     0.001 A 
ATOM     53  C   UNL A   1      47.921  27.989  32.098  1.00  0.00     0.001 A 
ATOM     54  C   UNL A   1      47.913  27.182  33.235  1.00  0.00     0.000 A 
ENDBRANCH  36  49
ENDBRANCH  10  11
ENDBRANCH   3   5
ENDBRANCH   2   3
ENDBRANCH   1   2
BRANCH   1  55
ATOM     55  C   UNL A   1      32.891  37.258  30.540  1.00  0.00     0.275 C 
BRANCH  55  56
ATOM     56  O   UNL A   1      33.638  36.825  31.691  1.00  0.00    -0.458 OA
BRANCH  56  57
ATOM     57  C   UNL A   1      33.156  35.711  32.307  1.00  0.00     0.338 C 
ATOM     58  O   UNL A   1      31.985  35.383  32.400  1.00  0.00    -0.246 OA
BRANCH  57  59
ATOM     59  C   UNL A   1      34.273  34.866  32.784  1.00  0.00     0.060 A 
ATOM     60  C   UNL A   1      33.997  33.571  33.233  1.00  0.00     0.019 A 
ATOM     61  C   UNL A   1      35.582  35.341  32.826  1.00  0.00     0.019 A 
ATOM     62  C   UNL A   1      35.035  32.733  33.670  1.00  0.00     0.044 A 
ATOM     63  C   UNL A   1      36.611  34.511  33.304  1.00  0.00     0.044 A 
ATOM     64  C   UNL A   1      36.359  33.186  33.703  1.00  0.00     0.103 A 
BRANCH  64  65
ATOM     65  N   UNL A   1      37.425  32.363  34.208  1.00  0.00    -0.219 N 
ATOM     66  C   UNL A   1      37.702  31.153  33.467  1.00  0.00     0.405 C 
ATOM     67  C   UNL A   1      38.105  32.557  35.428  1.00  0.00     0.297 C 
ATOM     68  N   UNL A   1      39.070  30.774  33.633  1.00  0.00    -0.274 N 
ATOM     69  N   UNL A   1      39.152  31.722  35.747  1.00  0.00    -0.236 N 
ATOM     70  S   UNL A   1      37.721  33.729  36.587  1.00  0.00    -0.005 S 
ATOM     71  C   UNL A   1      39.643  30.933  34.855  1.00  0.00     0.229 C 
ATOM     72  H   UNL A   1      39.585  30.407  32.879  1.00  0.00     0.260 HD
ATOM     73  H   UNL A   1      39.527  31.730  36.657  1.00  0.00     0.268 HD
BRANCH  71  74
ATOM     74  C   UNL A   1      40.875  30.175  35.197  1.00  0.00     0.047 A 
ATOM     75  C   UNL A   1      41.134  28.946  34.583  1.00  0.00     0.015 A 
ATOM     76  C   UNL A   1      41.743  30.675  36.172  1.00  0.00     0.015 A 
ATOM     77  C   UNL A   1      42.276  28.224  34.935  1.00  0.00     0.001 A 
ATOM     78  C   UNL A   1      42.875  29.942  36.531  1.00  0.00     0.001 A 
ATOM     79  C   UNL A   1      43.143  28.720  35.911  1.00  0.00     0.000 A 
ENDBRANCH  71  74
ENDBRANCH  64  65
ENDBRANCH  57  59
ENDBRANCH  56  57
ENDBRANCH  55  56
ENDBRANCH   1  55
TORSDOF 13
ENDMDL
MODEL 2
REMARK VINA RESULT:      -9.0      4.795      7.944
REMARK SMILES O=C(OCCOC(=O)c1ccc(N2CNC(c3ccccc3)=[NH+]C2=S)cc1)c1ccc(-c2c3nc(c(-c4ccccc4)c4ccc([nH]4)c(-c4ccccc4)c4nc(c(-c5ccccc5)c5ccc2[nH]5)C=C4)C=C3)cc1
REMARK SMILES IDX 4 1 3 2 2 3 1 4 28 5 29 6 75 7 30 8 74 9 31 10 32 11 33 12
REMARK SMILES IDX 68 13 34 14 73 15 67 16 69 17 35 18 72 19 66 20 65 21 36 23
REMARK SMILES IDX 58 24 43 25 57 26 44 27 47 28 56 29 70 30 45 31 46 32 55 34
REMARK SMILES IDX 71 35 48 36 37 37 38 38 42 39 39 40 41 41 40 42 59 43 60 44
REMARK SMILES IDX 64 45 61 46 63 47 62 48 49 49 50 50 54 51 51 52 53 53 52 54
REMARK SMILES IDX 5 55 6 56 7 57 8 58 9 59 10 60 27 61 11 62 26 63 12 64 13 65
REMARK SMILES IDX 14 66 24 67 15 68 23 69 25 70 16 71 17 74 18 75 22 76 19 77
REMARK SMILES IDX 21 78 20 79
REMARK H PARENT 69 22 47 33 15 72 23 73
REMARK Flexibility Score: inf
ROOT
ATOM      1  C   UNL A   1      31.263  32.216  27.041  1.00  0.00     0.275 C 
ENDROOT
BRANCH   1   2
ATOM      2  O   UNL A   1      32.140  33.354  27.036  1.00  0.00    -0.458 OA
BRANCH   2   3
ATOM      3  C   UNL A   1      32.872  33.899  28.034  1.00  0.00     0.338 C 
ATOM      4  O   UNL A   1      32.458  34.927  28.568  1.00  0.00    -0.246 OA
BRANCH   3   5
ATOM      5  C   UNL A   1      34.218  33.395  28.460  1.00  0.00     0.060 A 
ATOM      6  C   UNL A   1      35.451  33.740  27.900  1.00  0.00     0.016 A 
ATOM      7  C   UNL A   1      34.227  32.496  29.540  1.00  0.00     0.016 A 
ATOM      8  C   UNL A   1      36.653  33.287  28.448  1.00  0.00     0.010 A 
ATOM      9  C   UNL A   1      35.427  32.034  30.084  1.00  0.00     0.010 A 
ATOM     10  C   UNL A   1      36.651  32.441  29.552  1.00  0.00    -0.014 A 
BRANCH  10  11
ATOM     11  C   UNL A   1      37.930  31.886  30.039  1.00  0.00     0.031 A 
ATOM     12  C   UNL A   1      38.623  32.582  31.170  1.00  0.00     0.074 A 
ATOM     13  C   UNL A   1      38.405  30.726  29.547  1.00  0.00     0.049 A 
ATOM     14  N   UNL A   1      39.668  32.199  31.852  1.00  0.00    -0.248 NA
ATOM     15  C   UNL A   1      38.031  33.851  31.627  1.00  0.00     0.031 C 
ATOM     16  C   UNL A   1      37.759  29.926  28.508  1.00  0.00     0.029 A 
ATOM     17  N   UNL A   1      39.528  30.007  29.862  1.00  0.00    -0.354 N 
ATOM     18  C   UNL A   1      39.830  33.154  32.845  1.00  0.00     0.074 A 
ATOM     19  C   UNL A   1      38.823  34.170  32.636  1.00  0.00     0.031 C 
ATOM     20  C   UNL A   1      38.513  28.847  28.241  1.00  0.00     0.029 A 
ATOM     21  C   UNL A   1      39.691  28.874  29.100  1.00  0.00     0.049 A 
ATOM     22  H   UNL A   1      40.159  30.276  30.567  1.00  0.00     0.167 HD
ATOM     23  C   UNL A   1      40.716  33.162  33.865  1.00  0.00     0.031 A 
ATOM     24  C   UNL A   1      40.679  27.960  29.103  1.00  0.00     0.031 A 
ATOM     25  C   UNL A   1      41.752  32.182  34.024  1.00  0.00     0.049 A 
ATOM     26  C   UNL A   1      41.751  28.081  30.151  1.00  0.00     0.074 A 
ATOM     27  C   UNL A   1      42.742  32.118  34.986  1.00  0.00     0.029 A 
ATOM     28  N   UNL A   1      41.939  31.098  33.177  1.00  0.00    -0.354 N 
ATOM     29  N   UNL A   1      41.869  28.968  31.109  1.00  0.00    -0.248 NA
ATOM     30  C   UNL A   1      42.801  27.053  30.145  1.00  0.00     0.031 C 
ATOM     31  C   UNL A   1      43.561  31.024  34.688  1.00  0.00     0.029 A 
ATOM     32  C   UNL A   1      43.044  30.371  33.579  1.00  0.00     0.049 A 
ATOM     33  H   UNL A   1      41.370  30.881  32.403  1.00  0.00     0.167 HD
ATOM     34  C   UNL A   1      42.980  28.586  31.847  1.00  0.00     0.074 A 
ATOM     35  C   UNL A   1      43.490  27.376  31.231  1.00  0.00     0.031 C 
ATOM     36  C   UNL A   1      43.527  29.173  32.940  1.00  0.00     0.031 A 
BRANCH  23  37
ATOM     37  C   UNL A   1      40.595  34.288  34.850  1.00  0.00    -0.014 A 
ATOM     38  C   UNL A   1      41.275  35.501  34.645  1.00  0.00     0.009 A 
ATOM     39  C   UNL A   1      39.824  34.127  36.010  1.00  0.00     0.009 A 
ATOM     40  C   UNL A   1      41.217  36.515  35.603  1.00  0.00     0.001 A 
ATOM     41  C   UNL A   1      39.747  35.154  36.953  1.00  0.00     0.001 A 
ATOM     42  C   UNL A   1      40.451  36.342  36.754  1.00  0.00     0.000 A 
ENDBRANCH  23  37
BRANCH  24  43
ATOM     43  C   UNL A   1      40.704  26.863  28.097  1.00  0.00    -0.014 A 
ATOM     44  C   UNL A   1      41.277  27.048  26.828  1.00  0.00     0.009 A 
ATOM     45  C   UNL A   1      40.107  25.626  28.391  1.00  0.00     0.009 A 
ATOM     46  C   UNL A   1      41.213  26.035  25.867  1.00  0.00     0.001 A 
ATOM     47  C   UNL A   1      40.071  24.606  27.439  1.00  0.00     0.001 A 
ATOM     48  C   UNL A   1      40.612  24.815  26.172  1.00  0.00     0.000 A 
ENDBRANCH  24  43
BRANCH  36  49
ATOM     49  C   UNL A   1      44.714  28.488  33.553  1.00  0.00    -0.014 A 
ATOM     50  C   UNL A   1      46.022  28.788  33.145  1.00  0.00     0.009 A 
ATOM     51  C   UNL A   1      44.516  27.553  34.581  1.00  0.00     0.009 A 
ATOM     52  C   UNL A   1      47.108  28.131  33.726  1.00  0.00     0.001 A 
ATOM     53  C   UNL A   1      45.604  26.926  35.186  1.00  0.00     0.001 A 
ATOM     54  C   UNL A   1      46.898  27.206  34.749  1.00  0.00     0.000 A 
ENDBRANCH  36  49
ENDBRANCH  10  11
ENDBRANCH   3   5
ENDBRANCH   2   3
ENDBRANCH   1   2
BRANCH   1  55
ATOM     55  C   UNL A   1      31.710  31.050  26.150  1.00  0.00     0.275 C 
BRANCH  55  56
ATOM     56  O   UNL A   1      31.738  29.771  26.809  1.00  0.00    -0.458 OA
BRANCH  56  57
ATOM     57  C   UNL A   1      32.968  29.201  26.914  1.00  0.00     0.338 C 
ATOM     58  O   UNL A   1      33.988  29.743  27.310  1.00  0.00    -0.246 OA
BRANCH  57  59
ATOM     59  C   UNL A   1      32.900  27.764  26.567  1.00  0.00     0.060 A 
ATOM     60  C   UNL A   1      34.014  27.156  25.982  1.00  0.00     0.019 A 
ATOM     61  C   UNL A   1      31.744  27.016  26.781  1.00  0.00     0.019 A 
ATOM     62  C   UNL A   1      33.993  25.789  25.663  1.00  0.00     0.044 A 
ATOM     63  C   UNL A   1      31.715  25.659  26.421  1.00  0.00     0.044 A 
ATOM     64  C   UNL A   1      32.847  25.016  25.886  1.00  0.00     0.103 A 
BRANCH  64  65
ATOM     65  N   UNL A   1      32.786  23.631  25.506  1.00  0.00    -0.219 N 
ATOM     66  C   UNL A   1      32.179  23.349  24.224  1.00  0.00     0.405 C 
ATOM     67  C   UNL A   1      33.121  22.537  26.329  1.00  0.00     0.297 C 
ATOM     68  N   UNL A   1      32.707  22.136  23.684  1.00  0.00    -0.274 N 
ATOM     69  N   UNL A   1      33.074  21.266  25.801  1.00  0.00    -0.236 N 
ATOM     70  S   UNL A   1      33.551  22.637  27.963  1.00  0.00    -0.005 S 
ATOM     71  C   UNL A   1      32.949  21.100  24.530  1.00  0.00     0.229 C 
ATOM     72  H   UNL A   1      32.892  22.052  22.721  1.00  0.00     0.260 HD
ATOM     73  H   UNL A   1      33.137  20.484  26.396  1.00  0.00     0.268 HD
BRANCH  71  74
ATOM     74  C   UNL A   1      33.070  19.720  23.992  1.00  0.00     0.047 A 
ATOM     75  C   UNL A   1      34.008  18.836  24.536  1.00  0.00     0.015 A 
ATOM     76  C   UNL A   1      32.277  19.330  22.909  1.00  0.00     0.015 A 
ATOM     77  C   UNL A   1      34.140  17.553  24.002  1.00  0.00     0.001 A 
ATOM     78  C   UNL A   1      32.423  18.050  22.370  1.00  0.00     0.001 A 
ATOM     79  C   UNL A   1      33.350  17.163  22.919  1.00  0.00     0.000 A 
ENDBRANCH  71  74
ENDBRANCH  64  65
ENDBRANCH  57  59
ENDBRANCH  56  57
ENDBRANCH  55  56
ENDBRANCH   1  55
TORSDOF 13
ENDMDL
MODEL 3
REMARK VINA RESULT:      -8.9      1.907      3.050
REMARK SMILES O=C(OCCOC(=O)c1ccc(N2CNC(c3ccccc3)=[NH+]C2=S)cc1)c1ccc(-c2c3nc(c(-c4ccccc4)c4ccc([nH]4)c(-c4ccccc4)c4nc(c(-c5ccccc5)c5ccc2[nH]5)C=C4)C=C3)cc1
REMARK SMILES IDX 4 1 3 2 2 3 1 4 28 5 29 6 75 7 30 8 74 9 31 10 32 11 33 12
REMARK SMILES IDX 68 13 34 14 73 15 67 16 69 17 35 18 72 19 66 20 65 21 36 23
REMARK SMILES IDX 58 24 43 25 57 26 44 27 47 28 56 29 70 30 45 31 46 32 55 34
REMARK SMILES IDX 71 35 48 36 37 37 38 38 42 39 39 40 41 41 40 42 59 43 60 44
REMARK SMILES IDX 64 45 61 46 63 47 62 48 49 49 50 50 54 51 51 52 53 53 52 54
REMARK SMILES IDX 5 55 6 56 7 57 8 58 9 59 10 60 27 61 11 62 26 63 12 64 13 65
REMARK SMILES IDX 14 66 24 67 15 68 23 69 25 70 16 71 17 74 18 75 22 76 19 77
REMARK SMILES IDX 21 78 20 79
REMARK H PARENT 69 22 47 33 15 72 23 73
REMARK Flexibility Score: inf
ROOT
ATOM      1  C   UNL A   1      33.631  33.206  27.673  1.00  0.00     0.275 C 
ENDROOT
BRANCH   1   2
ATOM      2  O   UNL A   1      33.908  31.997  28.397  1.00  0.00    -0.458 OA
BRANCH   2   3
ATOM      3  C   UNL A   1      34.429  30.822  27.973  1.00  0.00     0.338 C 
ATOM      4  O   UNL A   1      33.721  30.082  27.291  1.00  0.00    -0.246 OA
BRANCH   3   5
ATOM      5  C   UNL A   1      35.779  30.310  28.374  1.00  0.00     0.060 A 
ATOM      6  C   UNL A   1      36.122  29.744  29.605  1.00  0.00     0.016 A 
ATOM      7  C   UNL A   1      36.789  30.401  27.400  1.00  0.00     0.016 A 
ATOM      8  C   UNL A   1      37.389  29.203  29.831  1.00  0.00     0.010 A 
ATOM      9  C   UNL A   1      38.060  29.870  27.627  1.00  0.00     0.010 A 
ATOM     10  C   UNL A   1      38.364  29.250  28.839  1.00  0.00    -0.014 A 
BRANCH  10  11
ATOM     11  C   UNL A   1      39.729  28.776  29.145  1.00  0.00     0.031 A 
ATOM     12  C   UNL A   1      40.631  29.670  29.939  1.00  0.00     0.074 A 
ATOM     13  C   UNL A   1      40.113  27.530  28.808  1.00  0.00     0.049 A 
ATOM     14  N   UNL A   1      41.806  29.408  30.446  1.00  0.00    -0.248 NA
ATOM     15  C   UNL A   1      40.123  31.019  30.245  1.00  0.00     0.031 C 
ATOM     16  C   UNL A   1      39.278  26.552  28.113  1.00  0.00     0.029 A 
ATOM     17  N   UNL A   1      41.292  26.864  29.016  1.00  0.00    -0.354 N 
ATOM     18  C   UNL A   1      42.154  30.541  31.169  1.00  0.00     0.074 A 
ATOM     19  C   UNL A   1      41.105  31.516  30.978  1.00  0.00     0.031 C 
ATOM     20  C   UNL A   1      39.981  25.424  27.915  1.00  0.00     0.029 A 
ATOM     21  C   UNL A   1      41.314  25.598  28.481  1.00  0.00     0.049 A 
ATOM     22  H   UNL A   1      42.053  27.255  29.501  1.00  0.00     0.167 HD
ATOM     23  C   UNL A   1      43.236  30.734  31.954  1.00  0.00     0.031 A 
ATOM     24  C   UNL A   1      42.298  24.681  28.459  1.00  0.00     0.031 A 
ATOM     25  C   UNL A   1      44.303  29.783  32.084  1.00  0.00     0.049 A 
ATOM     26  C   UNL A   1      43.566  24.986  29.208  1.00  0.00     0.074 A 
ATOM     27  C   UNL A   1      45.477  29.892  32.806  1.00  0.00     0.029 A 
ATOM     28  N   UNL A   1      44.329  28.547  31.453  1.00  0.00    -0.354 N 
ATOM     29  N   UNL A   1      43.867  26.045  29.921  1.00  0.00    -0.248 NA
ATOM     30  C   UNL A   1      44.612  23.955  29.188  1.00  0.00     0.031 C 
ATOM     31  C   UNL A   1      46.237  28.742  32.568  1.00  0.00     0.029 A 
ATOM     32  C   UNL A   1      45.509  27.890  31.750  1.00  0.00     0.049 A 
ATOM     33  H   UNL A   1      43.613  28.191  30.878  1.00  0.00     0.167 HD
ATOM     34  C   UNL A   1      45.116  25.795  30.468  1.00  0.00     0.074 A 
ATOM     35  C   UNL A   1      45.510  24.474  30.014  1.00  0.00     0.031 C 
ATOM     36  C   UNL A   1      45.870  26.578  31.278  1.00  0.00     0.031 A 
BRANCH  23  37
ATOM     37  C   UNL A   1      43.304  32.038  32.695  1.00  0.00    -0.014 A 
ATOM     38  C   UNL A   1      43.642  33.229  32.028  1.00  0.00     0.009 A 
ATOM     39  C   UNL A   1      43.062  32.076  34.075  1.00  0.00     0.009 A 
ATOM     40  C   UNL A   1      43.775  34.424  32.737  1.00  0.00     0.001 A 
ATOM     41  C   UNL A   1      43.170  33.278  34.777  1.00  0.00     0.001 A 
ATOM     42  C   UNL A   1      43.536  34.447  34.110  1.00  0.00     0.000 A 
ENDBRANCH  23  37
BRANCH  24  43
ATOM     43  C   UNL A   1      42.133  23.403  27.712  1.00  0.00    -0.014 A 
ATOM     44  C   UNL A   1      42.545  23.278  26.377  1.00  0.00     0.009 A 
ATOM     45  C   UNL A   1      41.511  22.305  28.330  1.00  0.00     0.009 A 
ATOM     46  C   UNL A   1      42.302  22.099  25.666  1.00  0.00     0.001 A 
ATOM     47  C   UNL A   1      41.296  21.118  27.627  1.00  0.00     0.001 A 
ATOM     48  C   UNL A   1      41.679  21.020  26.291  1.00  0.00     0.000 A 
ENDBRANCH  24  43
BRANCH  36  49
ATOM     49  C   UNL A   1      47.175  26.004  31.750  1.00  0.00    -0.014 A 
ATOM     50  C   UNL A   1      48.323  26.038  30.944  1.00  0.00     0.009 A 
ATOM     51  C   UNL A   1      47.260  25.452  33.038  1.00  0.00     0.009 A 
ATOM     52  C   UNL A   1      49.522  25.491  31.405  1.00  0.00     0.001 A 
ATOM     53  C   UNL A   1      48.468  24.940  33.510  1.00  0.00     0.001 A 
ATOM     54  C   UNL A   1      49.594  24.948  32.688  1.00  0.00     0.000 A 
ENDBRANCH  36  49
ENDBRANCH  10  11
ENDBRANCH   3   5
ENDBRANCH   2   3
ENDBRANCH   1   2
BRANCH   1  55
ATOM     55  C   UNL A   1      33.246  34.408  28.545  1.00  0.00     0.275 C 
BRANCH  55  56
ATOM     56  O   UNL A   1      34.273  34.842  29.454  1.00  0.00    -0.458 OA
BRANCH  56  57
ATOM     57  C   UNL A   1      34.000  34.643  30.771  1.00  0.00     0.338 C 
ATOM     58  O   UNL A   1      33.012  35.028  31.374  1.00  0.00    -0.246 OA
BRANCH  57  59
ATOM     59  C   UNL A   1      35.040  33.788  31.388  1.00  0.00     0.060 A 
ATOM     60  C   UNL A   1      34.847  33.323  32.691  1.00  0.00     0.019 A 
ATOM     61  C   UNL A   1      36.214  33.466  30.712  1.00  0.00     0.019 A 
ATOM     62  C   UNL A   1      35.801  32.491  33.298  1.00  0.00     0.044 A 
ATOM     63  C   UNL A   1      37.184  32.667  31.339  1.00  0.00     0.044 A 
ATOM     64  C   UNL A   1      36.980  32.141  32.628  1.00  0.00     0.103 A 
BRANCH  64  65
ATOM     65  N   UNL A   1      37.997  31.343  33.258  1.00  0.00    -0.219 N 
ATOM     66  C   UNL A   1      37.779  29.913  33.252  1.00  0.00     0.405 C 
ATOM     67  C   UNL A   1      39.088  31.839  34.001  1.00  0.00     0.297 C 
ATOM     68  N   UNL A   1      39.030  29.224  33.302  1.00  0.00    -0.274 N 
ATOM     69  N   UNL A   1      40.019  30.951  34.490  1.00  0.00    -0.236 N 
ATOM     70  S   UNL A   1      39.348  33.465  34.391  1.00  0.00    -0.005 S 
ATOM     71  C   UNL A   1      40.018  29.727  34.088  1.00  0.00     0.229 C 
ATOM     72  H   UNL A   1      39.173  28.402  32.779  1.00  0.00     0.260 HD
ATOM     73  H   UNL A   1      40.687  31.252  35.147  1.00  0.00     0.268 HD
BRANCH  71  74
ATOM     74  C   UNL A   1      41.140  28.852  34.516  1.00  0.00     0.047 A 
ATOM     75  C   UNL A   1      41.785  29.084  35.735  1.00  0.00     0.015 A 
ATOM     76  C   UNL A   1      41.577  27.828  33.669  1.00  0.00     0.015 A 
ATOM     77  C   UNL A   1      42.860  28.279  36.113  1.00  0.00     0.001 A 
ATOM     78  C   UNL A   1      42.663  27.036  34.046  1.00  0.00     0.001 A 
ATOM     79  C   UNL A   1      43.300  27.259  35.268  1.00  0.00     0.000 A 
ENDBRANCH  71  74
ENDBRANCH  64  65
ENDBRANCH  57  59
ENDBRANCH  56  57
ENDBRANCH  55  56
ENDBRANCH   1  55
TORSDOF 13
ENDMDL
