MODEL 1
REMARK VINA RESULT:     -10.2      0.000      0.000
REMARK SMILES O=C1C[C@@H]([N@@H+]2CCO[C@@H](CC(=O)OCCOC(=O)c3ccc(-c4c5nc(c(-c6ccccc6)c6ccc([nH]6)c(-c6ccccc6)c6nc(c(-c7ccccc7)c7ccc4[nH]7)C=C6)C=C5)cc3)C2)C(=O)N1
REMARK SMILES IDX 14 1 13 2 11 3 12 4 10 5 9 6 5 7 6 8 67 9 7 11 8 12 4 13
REMARK SMILES IDX 1 14 2 15 3 16 70 17 68 18 69 20 15 21 16 22 17 23 18 24
REMARK SMILES IDX 19 25 20 26 66 27 21 28 65 29 22 30 23 31 24 32 59 33 25 34
REMARK SMILES IDX 64 35 58 36 60 37 26 38 63 39 57 40 56 41 27 43 49 44 34 45
REMARK SMILES IDX 48 46 35 47 38 48 47 49 61 50 36 51 37 52 46 54 62 55 39 56
REMARK SMILES IDX 28 57 29 58 33 59 30 60 32 61 31 62 50 63 51 64 55 65 52 66
REMARK SMILES IDX 54 67 53 68 40 69 41 70 45 71 42 72 44 73 43 74
REMARK H PARENT 5 10 70 19 60 42 38 53
REMARK Flexibility Score: inf
ROOT
ATOM      1  C   UNL A   1      33.696  34.073  28.169  1.00  0.00     0.274 C 
ENDROOT
BRANCH   1   2
ATOM      2  O   UNL A   1      34.027  35.146  29.073  1.00  0.00    -0.462 OA
BRANCH   2   3
ATOM      3  C   UNL A   1      32.995  35.891  29.544  1.00  0.00     0.308 C 
ATOM      4  O   UNL A   1      32.200  36.505  28.845  1.00  0.00    -0.252 OA
BRANCH   3   5
ATOM      5  C   UNL A   1      32.965  35.920  31.049  1.00  0.00     0.160 C 
BRANCH   5   6
ATOM      6  C   UNL A   1      33.975  34.998  31.733  1.00  0.00     0.184 C 
ATOM      7  N   UNL A   1      35.890  34.951  33.418  1.00  0.00    -0.320 N 
ATOM      8  C   UNL A   1      35.092  33.969  34.160  1.00  0.00     0.291 C 
ATOM      9  C   UNL A   1      35.040  35.775  32.545  1.00  0.00     0.295 C 
ATOM     10  H   UNL A   1      36.274  35.548  34.150  1.00  0.00     0.348 HD
ATOM     11  C   UNL A   1      34.038  33.229  33.325  1.00  0.00     0.222 C 
ATOM     12  O   UNL A   1      33.204  34.143  32.605  1.00  0.00    -0.366 OA
BRANCH   7  13
ATOM     13  C   UNL A   1      37.160  34.513  32.812  1.00  0.00     0.284 C 
ATOM     14  O   UNL A   1      38.176  31.091  32.906  1.00  0.00    -0.274 OA
ATOM     15  C   UNL A   1      38.035  32.298  33.014  1.00  0.00     0.233 C 
ATOM     16  C   UNL A   1      37.229  33.165  32.096  1.00  0.00     0.176 C 
ATOM     17  N   UNL A   1      38.621  33.074  33.955  1.00  0.00    -0.291 N 
ATOM     18  C   UNL A   1      38.239  34.376  33.888  1.00  0.00     0.285 C 
ATOM     19  H   UNL A   1      39.260  32.729  34.619  1.00  0.00     0.173 HD
ATOM     20  O   UNL A   1      38.677  35.258  34.611  1.00  0.00    -0.268 OA
ENDBRANCH   7  13
ENDBRANCH   5   6
ENDBRANCH   3   5
ENDBRANCH   2   3
ENDBRANCH   1   2
BRANCH   1  21
ATOM     21  C   UNL A   1      34.819  33.036  28.070  1.00  0.00     0.275 C 
BRANCH  21  22
ATOM     22  O   UNL A   1      34.553  31.882  28.891  1.00  0.00    -0.458 OA
BRANCH  22  23
ATOM     23  C   UNL A   1      34.652  30.690  28.259  1.00  0.00     0.338 C 
ATOM     24  O   UNL A   1      33.810  30.163  27.551  1.00  0.00    -0.246 OA
BRANCH  23  25
ATOM     25  C   UNL A   1      36.008  30.141  28.433  1.00  0.00     0.060 A 
ATOM     26  C   UNL A   1      36.364  29.644  29.690  1.00  0.00     0.016 A 
ATOM     27  C   UNL A   1      36.936  30.168  27.392  1.00  0.00     0.016 A 
ATOM     28  C   UNL A   1      37.655  29.172  29.914  1.00  0.00     0.010 A 
ATOM     29  C   UNL A   1      38.232  29.691  27.617  1.00  0.00     0.010 A 
ATOM     30  C   UNL A   1      38.601  29.198  28.881  1.00  0.00    -0.014 A 
BRANCH  30  31
ATOM     31  C   UNL A   1      39.984  28.729  29.134  1.00  0.00     0.031 A 
ATOM     32  C   UNL A   1      40.974  29.634  29.809  1.00  0.00     0.074 A 
ATOM     33  C   UNL A   1      40.346  27.486  28.769  1.00  0.00     0.049 A 
ATOM     34  N   UNL A   1      42.239  29.425  30.072  1.00  0.00    -0.248 NA
ATOM     35  C   UNL A   1      40.476  30.948  30.246  1.00  0.00     0.031 C 
ATOM     36  C   UNL A   1      39.468  26.498  28.142  1.00  0.00     0.029 A 
ATOM     37  N   UNL A   1      41.554  26.843  28.873  1.00  0.00    -0.354 N 
ATOM     38  C   UNL A   1      42.693  30.582  30.691  1.00  0.00     0.074 A 
ATOM     39  C   UNL A   1      41.574  31.498  30.748  1.00  0.00     0.031 C 
ATOM     40  C   UNL A   1      40.166  25.372  27.919  1.00  0.00     0.029 A 
ATOM     41  C   UNL A   1      41.547  25.573  28.350  1.00  0.00     0.049 A 
ATOM     42  H   UNL A   1      42.350  27.252  29.285  1.00  0.00     0.167 HD
ATOM     43  C   UNL A   1      43.930  30.854  31.172  1.00  0.00     0.031 A 
ATOM     44  C   UNL A   1      42.546  24.682  28.212  1.00  0.00     0.031 A 
ATOM     45  C   UNL A   1      45.044  29.946  31.114  1.00  0.00     0.049 A 
ATOM     46  C   UNL A   1      43.925  25.036  28.693  1.00  0.00     0.074 A 
ATOM     47  C   UNL A   1      46.331  30.130  31.590  1.00  0.00     0.029 A 
ATOM     48  N   UNL A   1      45.005  28.684  30.544  1.00  0.00    -0.354 N 
ATOM     49  N   UNL A   1      44.336  26.129  29.289  1.00  0.00    -0.248 NA
ATOM     50  C   UNL A   1      44.977  24.031  28.484  1.00  0.00     0.031 C 
ATOM     51  C   UNL A   1      47.084  28.997  31.263  1.00  0.00     0.029 A 
ATOM     52  C   UNL A   1      46.252  28.087  30.633  1.00  0.00     0.049 A 
ATOM     53  H   UNL A   1      44.209  28.272  30.136  1.00  0.00     0.167 HD
ATOM     54  C   UNL A   1      45.687  25.933  29.547  1.00  0.00     0.074 A 
ATOM     55  C   UNL A   1      46.022  24.613  29.057  1.00  0.00     0.031 C 
ATOM     56  C   UNL A   1      46.570  26.773  30.139  1.00  0.00     0.031 A 
BRANCH  43  57
ATOM     57  C   UNL A   1      44.153  32.211  31.777  1.00  0.00    -0.014 A 
ATOM     58  C   UNL A   1      43.980  32.433  33.152  1.00  0.00     0.009 A 
ATOM     59  C   UNL A   1      44.585  33.271  30.965  1.00  0.00     0.009 A 
ATOM     60  C   UNL A   1      44.211  33.699  33.697  1.00  0.00     0.001 A 
ATOM     61  C   UNL A   1      44.838  34.529  31.517  1.00  0.00     0.001 A 
ATOM     62  C   UNL A   1      44.644  34.743  32.880  1.00  0.00     0.000 A 
ENDBRANCH  43  57
BRANCH  44  63
ATOM     63  C   UNL A   1      42.287  23.369  27.565  1.00  0.00    -0.014 A 
ATOM     64  C   UNL A   1      41.714  22.314  28.290  1.00  0.00     0.009 A 
ATOM     65  C   UNL A   1      42.632  23.160  26.219  1.00  0.00     0.009 A 
ATOM     66  C   UNL A   1      41.514  21.069  27.689  1.00  0.00     0.001 A 
ATOM     67  C   UNL A   1      42.406  21.923  25.613  1.00  0.00     0.001 A 
ATOM     68  C   UNL A   1      41.857  20.876  26.351  1.00  0.00     0.000 A 
ENDBRANCH  44  63
BRANCH  56  69
ATOM     69  C   UNL A   1      47.976  26.274  30.319  1.00  0.00    -0.014 A 
ATOM     70  C   UNL A   1      48.918  26.361  29.283  1.00  0.00     0.009 A 
ATOM     71  C   UNL A   1      48.371  25.741  31.557  1.00  0.00     0.009 A 
ATOM     72  C   UNL A   1      50.221  25.896  29.473  1.00  0.00     0.001 A 
ATOM     73  C   UNL A   1      49.681  25.302  31.752  1.00  0.00     0.001 A 
ATOM     74  C   UNL A   1      50.601  25.371  30.708  1.00  0.00     0.000 A 
ENDBRANCH  56  69
ENDBRANCH  30  31
ENDBRANCH  23  25
ENDBRANCH  22  23
ENDBRANCH  21  22
ENDBRANCH   1  21
TORSDOF 13
ENDMDL
MODEL 2
REMARK VINA RESULT:      -9.7      3.949      6.887
REMARK SMILES O=C1C[C@@H]([N@@H+]2CCO[C@@H](CC(=O)OCCOC(=O)c3ccc(-c4c5nc(c(-c6ccccc6)c6ccc([nH]6)c(-c6ccccc6)c6nc(c(-c7ccccc7)c7ccc4[nH]7)C=C6)C=C5)cc3)C2)C(=O)N1
REMARK SMILES IDX 14 1 13 2 11 3 12 4 10 5 9 6 5 7 6 8 67 9 7 11 8 12 4 13
REMARK SMILES IDX 1 14 2 15 3 16 70 17 68 18 69 20 15 21 16 22 17 23 18 24
REMARK SMILES IDX 19 25 20 26 66 27 21 28 65 29 22 30 23 31 24 32 59 33 25 34
REMARK SMILES IDX 64 35 58 36 60 37 26 38 63 39 57 40 56 41 27 43 49 44 34 45
REMARK SMILES IDX 48 46 35 47 38 48 47 49 61 50 36 51 37 52 46 54 62 55 39 56
REMARK SMILES IDX 28 57 29 58 33 59 30 60 32 61 31 62 50 63 51 64 55 65 52 66
REMARK SMILES IDX 54 67 53 68 40 69 41 70 45 71 42 72 44 73 43 74
REMARK H PARENT 5 10 70 19 60 42 38 53
REMARK Flexibility Score: inf
ROOT
ATOM      1  C   UNL A   1      33.678  28.351  25.630  1.00  0.00     0.274 C 
ENDROOT
BRANCH   1   2
ATOM      2  O   UNL A   1      33.301  27.251  26.481  1.00  0.00    -0.462 OA
BRANCH   2   3
ATOM      3  C   UNL A   1      32.004  26.854  26.433  1.00  0.00     0.308 C 
ATOM      4  O   UNL A   1      31.144  27.175  27.242  1.00  0.00    -0.252 OA
BRANCH   3   5
ATOM      5  C   UNL A   1      31.746  25.920  25.281  1.00  0.00     0.160 C 
BRANCH   5   6
ATOM      6  C   UNL A   1      32.156  24.467  25.523  1.00  0.00     0.184 C 
ATOM      7  N   UNL A   1      34.167  22.901  25.650  1.00  0.00    -0.320 N 
ATOM      8  C   UNL A   1      33.715  22.582  27.009  1.00  0.00     0.291 C 
ATOM      9  C   UNL A   1      33.651  24.207  25.213  1.00  0.00     0.295 C 
ATOM     10  H   UNL A   1      35.179  22.969  25.745  1.00  0.00     0.348 HD
ATOM     11  C   UNL A   1      32.232  22.865  27.282  1.00  0.00     0.222 C 
ATOM     12  O   UNL A   1      31.878  24.202  26.915  1.00  0.00    -0.366 OA
BRANCH   7  13
ATOM     13  C   UNL A   1      34.119  21.842  24.626  1.00  0.00     0.284 C 
ATOM     14  O   UNL A   1      32.153  18.898  25.092  1.00  0.00    -0.274 OA
ATOM     15  C   UNL A   1      33.019  19.743  24.934  1.00  0.00     0.233 C 
ATOM     16  C   UNL A   1      32.805  21.109  24.358  1.00  0.00     0.176 C 
ATOM     17  N   UNL A   1      34.334  19.577  25.206  1.00  0.00    -0.291 N 
ATOM     18  C   UNL A   1      35.068  20.702  25.001  1.00  0.00     0.285 C 
ATOM     19  H   UNL A   1      34.719  18.727  25.520  1.00  0.00     0.173 HD
ATOM     20  O   UNL A   1      36.280  20.766  25.141  1.00  0.00    -0.268 OA
ENDBRANCH   7  13
ENDBRANCH   5   6
ENDBRANCH   3   5
ENDBRANCH   2   3
ENDBRANCH   1   2
BRANCH   1  21
ATOM     21  C   UNL A   1      33.293  29.705  26.235  1.00  0.00     0.275 C 
BRANCH  21  22
ATOM     22  O   UNL A   1      33.636  29.782  27.632  1.00  0.00    -0.458 OA
BRANCH  22  23
ATOM     23  C   UNL A   1      34.503  30.768  27.959  1.00  0.00     0.338 C 
ATOM     24  O   UNL A   1      34.244  31.948  28.123  1.00  0.00    -0.246 OA
BRANCH  23  25
ATOM     25  C   UNL A   1      35.834  30.196  28.228  1.00  0.00     0.060 A 
ATOM     26  C   UNL A   1      36.096  29.704  29.510  1.00  0.00     0.016 A 
ATOM     27  C   UNL A   1      36.831  30.198  27.251  1.00  0.00     0.016 A 
ATOM     28  C   UNL A   1      37.361  29.212  29.824  1.00  0.00     0.010 A 
ATOM     29  C   UNL A   1      38.100  29.701  27.567  1.00  0.00     0.010 A 
ATOM     30  C   UNL A   1      38.375  29.212  28.857  1.00  0.00    -0.014 A 
BRANCH  30  31
ATOM     31  C   UNL A   1      39.728  28.722  29.207  1.00  0.00     0.031 A 
ATOM     32  C   UNL A   1      40.664  29.592  29.994  1.00  0.00     0.074 A 
ATOM     33  C   UNL A   1      40.112  27.489  28.828  1.00  0.00     0.049 A 
ATOM     34  N   UNL A   1      41.902  29.362  30.353  1.00  0.00    -0.248 NA
ATOM     35  C   UNL A   1      40.140  30.895  30.436  1.00  0.00     0.031 C 
ATOM     36  C   UNL A   1      39.283  26.533  28.094  1.00  0.00     0.029 A 
ATOM     37  N   UNL A   1      41.303  26.832  29.008  1.00  0.00    -0.354 N 
ATOM     38  C   UNL A   1      42.310  30.492  31.050  1.00  0.00     0.074 A 
ATOM     39  C   UNL A   1      41.196  31.416  31.047  1.00  0.00     0.031 C 
ATOM     40  C   UNL A   1      39.990  25.409  27.888  1.00  0.00     0.029 A 
ATOM     41  C   UNL A   1      41.331  25.582  28.440  1.00  0.00     0.049 A 
ATOM     42  H   UNL A   1      42.065  27.218  29.499  1.00  0.00     0.167 HD
ATOM     43  C   UNL A   1      43.504  30.736  31.641  1.00  0.00     0.031 A 
ATOM     44  C   UNL A   1      42.333  24.687  28.352  1.00  0.00     0.031 A 
ATOM     45  C   UNL A   1      44.614  29.819  31.642  1.00  0.00     0.049 A 
ATOM     46  C   UNL A   1      43.669  25.011  28.958  1.00  0.00     0.074 A 
ATOM     47  C   UNL A   1      45.858  29.974  32.230  1.00  0.00     0.029 A 
ATOM     48  N   UNL A   1      44.615  28.579  31.025  1.00  0.00    -0.354 N 
ATOM     49  N   UNL A   1      44.036  26.078  29.626  1.00  0.00    -0.248 NA
ATOM     50  C   UNL A   1      44.728  24.005  28.800  1.00  0.00     0.031 C 
ATOM     51  C   UNL A   1      46.629  28.847  31.925  1.00  0.00     0.029 A 
ATOM     52  C   UNL A   1      45.846  27.968  31.195  1.00  0.00     0.049 A 
ATOM     53  H   UNL A   1      43.853  28.190  30.538  1.00  0.00     0.167 HD
ATOM     54  C   UNL A   1      45.359  25.860  29.988  1.00  0.00     0.074 A 
ATOM     55  C   UNL A   1      45.726  24.555  29.479  1.00  0.00     0.031 C 
ATOM     56  C   UNL A   1      46.196  26.670  30.681  1.00  0.00     0.031 A 
BRANCH  43  57
ATOM     57  C   UNL A   1      43.685  32.068  32.312  1.00  0.00    -0.014 A 
ATOM     58  C   UNL A   1      43.488  32.220  33.693  1.00  0.00     0.009 A 
ATOM     59  C   UNL A   1      44.101  33.175  31.557  1.00  0.00     0.009 A 
ATOM     60  C   UNL A   1      43.680  33.465  34.300  1.00  0.00     0.001 A 
ATOM     61  C   UNL A   1      44.315  34.411  32.170  1.00  0.00     0.001 A 
ATOM     62  C   UNL A   1      44.096  34.556  33.538  1.00  0.00     0.000 A 
ENDBRANCH  43  57
BRANCH  44  63
ATOM     63  C   UNL A   1      42.120  23.401  27.638  1.00  0.00    -0.014 A 
ATOM     64  C   UNL A   1      42.489  23.259  26.293  1.00  0.00     0.009 A 
ATOM     65  C   UNL A   1      41.527  22.312  28.299  1.00  0.00     0.009 A 
ATOM     66  C   UNL A   1      42.246  22.062  25.615  1.00  0.00     0.001 A 
ATOM     67  C   UNL A   1      41.310  21.108  27.627  1.00  0.00     0.001 A 
ATOM     68  C   UNL A   1      41.661  20.987  26.283  1.00  0.00     0.000 A 
ENDBRANCH  44  63
BRANCH  56  69
ATOM     69  C   UNL A   1      47.579  26.152  30.959  1.00  0.00    -0.014 A 
ATOM     70  C   UNL A   1      48.596  26.242  29.997  1.00  0.00     0.009 A 
ATOM     71  C   UNL A   1      47.874  25.598  32.215  1.00  0.00     0.009 A 
ATOM     72  C   UNL A   1      49.876  25.758  30.278  1.00  0.00     0.001 A 
ATOM     73  C   UNL A   1      49.161  25.140  32.501  1.00  0.00     0.001 A 
ATOM     74  C   UNL A   1      50.157  25.211  31.529  1.00  0.00     0.000 A 
ENDBRANCH  56  69
ENDBRANCH  30  31
ENDBRANCH  23  25
ENDBRANCH  22  23
ENDBRANCH  21  22
ENDBRANCH   1  21
TORSDOF 13
ENDMDL
MODEL 3
REMARK VINA RESULT:      -9.7      4.967     10.425
REMARK SMILES O=C1C[C@@H]([N@@H+]2CCO[C@@H](CC(=O)OCCOC(=O)c3ccc(-c4c5nc(c(-c6ccccc6)c6ccc([nH]6)c(-c6ccccc6)c6nc(c(-c7ccccc7)c7ccc4[nH]7)C=C6)C=C5)cc3)C2)C(=O)N1
REMARK SMILES IDX 14 1 13 2 11 3 12 4 10 5 9 6 5 7 6 8 67 9 7 11 8 12 4 13
REMARK SMILES IDX 1 14 2 15 3 16 70 17 68 18 69 20 15 21 16 22 17 23 18 24
REMARK SMILES IDX 19 25 20 26 66 27 21 28 65 29 22 30 23 31 24 32 59 33 25 34
REMARK SMILES IDX 64 35 58 36 60 37 26 38 63 39 57 40 56 41 27 43 49 44 34 45
REMARK SMILES IDX 48 46 35 47 38 48 47 49 61 50 36 51 37 52 46 54 62 55 39 56
REMARK SMILES IDX 28 57 29 58 33 59 30 60 32 61 31 62 50 63 51 64 55 65 52 66
REMARK SMILES IDX 54 67 53 68 40 69 41 70 45 71 42 72 44 73 43 74
REMARK H PARENT 5 10 70 19 60 42 38 53
REMARK Flexibility Score: inf
ROOT
ATOM      1  C   UNL A   1      37.797  20.097  24.966  1.00  0.00     0.274 C 
ENDROOT
BRANCH   1   2
ATOM      2  O   UNL A   1      37.004  21.263  24.663  1.00  0.00    -0.462 OA
BRANCH   2   3
ATOM      3  C   UNL A   1      35.809  21.372  25.296  1.00  0.00     0.308 C 
ATOM      4  O   UNL A   1      35.667  21.520  26.503  1.00  0.00    -0.252 OA
BRANCH   3   5
ATOM      5  C   UNL A   1      34.654  21.241  24.340  1.00  0.00     0.160 C 
BRANCH   5   6
ATOM      6  C   UNL A   1      33.693  22.430  24.319  1.00  0.00     0.184 C 
ATOM      7  N   UNL A   1      32.124  23.769  22.816  1.00  0.00    -0.320 N 
ATOM      8  C   UNL A   1      31.071  23.445  23.784  1.00  0.00     0.291 C 
ATOM      9  C   UNL A   1      33.227  22.798  22.889  1.00  0.00     0.295 C 
ATOM     10  H   UNL A   1      31.661  23.663  21.914  1.00  0.00     0.348 HD
ATOM     11  C   UNL A   1      31.571  23.073  25.185  1.00  0.00     0.222 C 
ATOM     12  O   UNL A   1      32.563  22.043  25.131  1.00  0.00    -0.366 OA
BRANCH   7  13
ATOM     13  C   UNL A   1      32.544  25.175  22.677  1.00  0.00     0.284 C 
ATOM     14  O   UNL A   1      30.150  27.797  22.299  1.00  0.00    -0.274 OA
ATOM     15  C   UNL A   1      31.042  26.970  22.197  1.00  0.00     0.233 C 
ATOM     16  C   UNL A   1      31.719  26.278  23.340  1.00  0.00     0.176 C 
ATOM     17  N   UNL A   1      31.608  26.568  21.036  1.00  0.00    -0.291 N 
ATOM     18  C   UNL A   1      32.532  25.586  21.204  1.00  0.00     0.285 C 
ATOM     19  H   UNL A   1      31.375  26.950  20.159  1.00  0.00     0.173 HD
ATOM     20  O   UNL A   1      33.197  25.107  20.298  1.00  0.00    -0.268 OA
ENDBRANCH   7  13
ENDBRANCH   5   6
ENDBRANCH   3   5
ENDBRANCH   2   3
ENDBRANCH   1   2
BRANCH   1  21
ATOM     21  C   UNL A   1      39.160  20.467  25.559  1.00  0.00     0.275 C 
BRANCH  21  22
ATOM     22  O   UNL A   1      39.963  19.299  25.819  1.00  0.00    -0.458 OA
BRANCH  22  23
ATOM     23  C   UNL A   1      41.288  19.532  25.964  1.00  0.00     0.338 C 
ATOM     24  O   UNL A   1      42.203  18.815  25.595  1.00  0.00    -0.246 OA
BRANCH  23  25
ATOM     25  C   UNL A   1      41.503  20.873  26.534  1.00  0.00     0.060 A 
ATOM     26  C   UNL A   1      42.005  21.874  25.698  1.00  0.00     0.016 A 
ATOM     27  C   UNL A   1      41.270  21.128  27.886  1.00  0.00     0.016 A 
ATOM     28  C   UNL A   1      42.280  23.140  26.212  1.00  0.00     0.010 A 
ATOM     29  C   UNL A   1      41.544  22.400  28.401  1.00  0.00     0.010 A 
ATOM     30  C   UNL A   1      42.058  23.411  27.568  1.00  0.00    -0.014 A 
BRANCH  30  31
ATOM     31  C   UNL A   1      42.387  24.747  28.117  1.00  0.00     0.031 A 
ATOM     32  C   UNL A   1      43.792  25.061  28.542  1.00  0.00     0.074 A 
ATOM     33  C   UNL A   1      41.425  25.682  28.222  1.00  0.00     0.049 A 
ATOM     34  N   UNL A   1      44.265  26.151  29.091  1.00  0.00    -0.248 NA
ATOM     35  C   UNL A   1      44.799  24.010  28.324  1.00  0.00     0.031 C 
ATOM     36  C   UNL A   1      40.032  25.514  27.808  1.00  0.00     0.029 A 
ATOM     37  N   UNL A   1      41.477  26.963  28.713  1.00  0.00    -0.354 N 
ATOM     38  C   UNL A   1      45.618  25.915  29.296  1.00  0.00     0.074 A 
ATOM     39  C   UNL A   1      45.888  24.571  28.831  1.00  0.00     0.031 C 
ATOM     40  C   UNL A   1      39.361  26.651  28.060  1.00  0.00     0.029 A 
ATOM     41  C   UNL A   1      40.267  27.609  28.688  1.00  0.00     0.049 A 
ATOM     42  H   UNL A   1      42.304  27.379  29.050  1.00  0.00     0.167 HD
ATOM     43  C   UNL A   1      46.552  26.745  29.820  1.00  0.00     0.031 A 
ATOM     44  C   UNL A   1      39.920  28.828  29.143  1.00  0.00     0.031 A 
ATOM     45  C   UNL A   1      46.284  28.080  30.285  1.00  0.00     0.049 A 
ATOM     46  C   UNL A   1      40.961  29.702  29.782  1.00  0.00     0.074 A 
ATOM     47  C   UNL A   1      47.172  29.001  30.818  1.00  0.00     0.029 A 
ATOM     48  N   UNL A   1      45.038  28.685  30.277  1.00  0.00    -0.354 N 
ATOM     49  N   UNL A   1      42.240  29.471  29.956  1.00  0.00    -0.248 NA
ATOM     50  C   UNL A   1      40.511  31.008  30.286  1.00  0.00     0.031 C 
ATOM     51  C   UNL A   1      46.451  30.145  31.176  1.00  0.00     0.029 A 
ATOM     52  C   UNL A   1      45.127  29.957  30.817  1.00  0.00     0.049 A 
ATOM     53  H   UNL A   1      44.212  28.272  29.935  1.00  0.00     0.167 HD
ATOM     54  C   UNL A   1      42.751  30.610  30.566  1.00  0.00     0.074 A 
ATOM     55  C   UNL A   1      41.647  31.536  30.719  1.00  0.00     0.031 C 
ATOM     56  C   UNL A   1      44.021  30.866  30.963  1.00  0.00     0.031 A 
BRANCH  43  57
ATOM     57  C   UNL A   1      47.952  26.216  29.950  1.00  0.00    -0.014 A 
ATOM     58  C   UNL A   1      48.861  26.294  28.883  1.00  0.00     0.009 A 
ATOM     59  C   UNL A   1      48.379  25.674  31.172  1.00  0.00     0.009 A 
ATOM     60  C   UNL A   1      50.165  25.812  29.032  1.00  0.00     0.001 A 
ATOM     61  C   UNL A   1      49.689  25.217  31.324  1.00  0.00     0.001 A 
ATOM     62  C   UNL A   1      50.578  25.279  30.253  1.00  0.00     0.000 A 
ENDBRANCH  43  57
BRANCH  44  63
ATOM     63  C   UNL A   1      38.511  29.290  29.034  1.00  0.00    -0.014 A 
ATOM     64  C   UNL A   1      37.632  29.167  30.119  1.00  0.00     0.009 A 
ATOM     65  C   UNL A   1      38.036  29.839  27.832  1.00  0.00     0.009 A 
ATOM     66  C   UNL A   1      36.297  29.562  29.996  1.00  0.00     0.001 A 
ATOM     67  C   UNL A   1      36.709  30.259  27.720  1.00  0.00     0.001 A 
ATOM     68  C   UNL A   1      35.838  30.110  28.798  1.00  0.00     0.000 A 
ENDBRANCH  44  63
BRANCH  56  69
ATOM     69  C   UNL A   1      44.291  32.214  31.570  1.00  0.00    -0.014 A 
ATOM     70  C   UNL A   1      44.212  32.417  32.956  1.00  0.00     0.009 A 
ATOM     71  C   UNL A   1      44.665  33.285  30.744  1.00  0.00     0.009 A 
ATOM     72  C   UNL A   1      44.472  33.677  33.500  1.00  0.00     0.001 A 
ATOM     73  C   UNL A   1      44.951  34.536  31.293  1.00  0.00     0.001 A 
ATOM     74  C   UNL A   1      44.845  34.733  32.668  1.00  0.00     0.000 A 
ENDBRANCH  56  69
ENDBRANCH  30  31
ENDBRANCH  23  25
ENDBRANCH  22  23
ENDBRANCH  21  22
ENDBRANCH   1  21
TORSDOF 13
ENDMDL
