MODEL 1
REMARK VINA RESULT:     -11.5      0.000      0.000
REMARK SMILES CCN1C(=O)[C@@H](CC(=O)Nc2cccc(C(=O)OCCOC(=O)c3ccc(-c4c5nc(c(-c6ccccc6)c6ccc([nH]6)c(-c6ccccc6)c6nc(c(-c7ccccc7)c7ccc4[nH]7)C=C6)C=C5)cc3)c2)S/C1=[NH+]\c1cc(Cl)c(O)c(Cl)c1
REMARK SMILES IDX 18 1 16 2 17 3 15 4 11 5 12 6 72 7 13 8 14 9 10 10 8 11 9 12
REMARK SMILES IDX 7 14 6 15 3 16 4 17 74 18 5 19 73 20 75 21 2 23 1 24 76 25
REMARK SMILES IDX 77 26 84 27 78 28 82 29 79 30 80 31 83 32 81 33 19 35 20 36
REMARK SMILES IDX 21 37 22 38 23 39 24 40 25 41 71 42 26 43 70 44 27 45 28 46
REMARK SMILES IDX 29 47 64 48 30 49 69 50 63 51 65 52 31 53 68 54 62 55 61 56
REMARK SMILES IDX 32 58 54 59 39 60 53 61 40 62 43 63 52 64 66 65 41 66 42 67
REMARK SMILES IDX 51 69 67 70 44 71 33 72 34 73 38 74 35 75 37 76 36 77 55 78
REMARK SMILES IDX 56 79 60 80 57 81 59 82 58 83 45 84 46 85 50 86 47 87 49 88
REMARK SMILES IDX 48 89
REMARK H PARENT 10 13 75 22 81 34 65 57 43 68
REMARK Flexibility Score: inf
ROOT
ATOM      1  O   UNL A   1      32.365  29.721  27.346  1.00  0.00    -0.458 OA
ENDROOT
BRANCH   1   2
ATOM      2  C   UNL A   1      32.193  28.899  26.290  1.00  0.00     0.338 C 
ATOM      3  O   UNL A   1      32.417  27.700  26.318  1.00  0.00    -0.246 OA
BRANCH   2   4
ATOM      4  C   UNL A   1      31.887  29.513  24.990  1.00  0.00     0.062 A 
ATOM      5  C   UNL A   1      32.040  28.716  22.749  1.00  0.00     0.042 A 
ATOM      6  C   UNL A   1      30.742  29.144  22.478  1.00  0.00     0.026 A 
ATOM      7  C   UNL A   1      32.664  29.043  23.947  1.00  0.00     0.041 A 
ATOM      8  C   UNL A   1      30.022  29.800  23.471  1.00  0.00     0.003 A 
ATOM      9  C   UNL A   1      30.576  29.939  24.745  1.00  0.00     0.016 A 
BRANCH   5  10
ATOM     10  N   UNL A   1      32.696  27.911  21.821  1.00  0.00    -0.326 N 
ATOM     11  C   UNL A   1      32.905  26.564  21.911  1.00  0.00     0.226 C 
ATOM     12  O   UNL A   1      34.027  26.138  21.617  1.00  0.00    -0.275 OA
ATOM     13  H   UNL A   1      33.042  28.359  21.016  1.00  0.00     0.169 HD
BRANCH  11  14
ATOM     14  C   UNL A   1      31.722  25.577  22.058  1.00  0.00     0.128 C 
BRANCH  14  15
ATOM     15  C   UNL A   1      31.591  24.545  23.184  1.00  0.00     0.183 C 
ATOM     16  N   UNL A   1      30.956  24.355  25.499  1.00  0.00    -0.190 N 
ATOM     17  C   UNL A   1      30.590  24.907  24.263  1.00  0.00     0.324 C 
ATOM     18  C   UNL A   1      32.206  23.733  25.621  1.00  0.00     0.319 C 
ATOM     19  O   UNL A   1      29.540  25.497  24.027  1.00  0.00    -0.245 OA
ATOM     20  S   UNL A   1      33.096  24.176  24.160  1.00  0.00    -0.022 SA
ATOM     21  N   UNL A   1      32.567  23.011  26.659  1.00  0.00    -0.235 N 
ATOM     22  H   UNL A   1      31.996  23.104  27.456  1.00  0.00     0.313 HD
BRANCH  16  23
ATOM     23  C   UNL A   1      29.982  24.418  26.580  1.00  0.00     0.243 C 
ATOM     24  C   UNL A   1      29.490  23.033  26.956  1.00  0.00     0.054 C 
ENDBRANCH  16  23
BRANCH  21  25
ATOM     25  C   UNL A   1      33.707  22.083  26.802  1.00  0.00     0.128 A 
ATOM     26  C   UNL A   1      33.418  20.457  25.994  1.00  0.00     0.076 A 
ATOM     27  C   UNL A   1      35.402  22.735  26.871  1.00  0.00     0.076 A 
ATOM     28  C   UNL A   1      34.712  19.522  25.004  1.00  0.00     0.088 A 
ATOM     29  C   UNL A   1      36.763  21.957  25.955  1.00  0.00     0.088 A 
ATOM     30  Cl  UNL A   1      33.798  18.048  24.418  1.00  0.00    -0.080 Cl
ATOM     31  C   UNL A   1      36.563  20.421  24.912  1.00  0.00     0.153 A 
ATOM     32  Cl  UNL A   1      38.371  22.471  26.339  1.00  0.00    -0.080 Cl
BRANCH  31  33
ATOM     33  O   UNL A   1      37.767  20.253  24.246  1.00  0.00    -0.505 OA
ATOM     34  H   UNL A   1      37.836  19.623  23.556  1.00  0.00     0.293 HD
ENDBRANCH  31  33
ENDBRANCH  21  25
ENDBRANCH  14  15
ENDBRANCH  11  14
ENDBRANCH   5  10
ENDBRANCH   2   4
ENDBRANCH   1   2
BRANCH   1  35
ATOM     35  C   UNL A   1      33.552  30.545  27.207  1.00  0.00     0.275 C 
BRANCH  35  36
ATOM     36  C   UNL A   1      33.432  31.850  28.003  1.00  0.00     0.275 C 
BRANCH  36  37
ATOM     37  O   UNL A   1      34.718  32.305  28.444  1.00  0.00    -0.458 OA
BRANCH  37  38
ATOM     38  C   UNL A   1      35.007  32.072  29.742  1.00  0.00     0.338 C 
ATOM     39  O   UNL A   1      34.417  32.433  30.741  1.00  0.00    -0.246 OA
BRANCH  38  40
ATOM     40  C   UNL A   1      36.205  31.257  29.764  1.00  0.00     0.060 A 
ATOM     41  C   UNL A   1      36.785  30.553  31.220  1.00  0.00     0.016 A 
ATOM     42  C   UNL A   1      36.854  30.792  28.271  1.00  0.00     0.016 A 
ATOM     43  C   UNL A   1      38.232  29.110  31.112  1.00  0.00     0.010 A 
ATOM     44  C   UNL A   1      38.101  29.597  28.106  1.00  0.00     0.010 A 
ATOM     45  C   UNL A   1      38.889  28.782  29.433  1.00  0.00    -0.014 A 
BRANCH  45  46
ATOM     46  C   UNL A   1      40.306  28.358  29.073  1.00  0.00     0.031 A 
ATOM     47  C   UNL A   1      40.707  26.916  28.595  1.00  0.00     0.074 A 
ATOM     48  C   UNL A   1      41.268  29.286  29.156  1.00  0.00     0.049 A 
ATOM     49  N   UNL A   1      41.910  26.416  28.354  1.00  0.00    -0.248 NA
ATOM     50  C   UNL A   1      39.666  25.903  28.343  1.00  0.00     0.031 C 
ATOM     51  C   UNL A   1      41.053  30.665  29.577  1.00  0.00     0.029 A 
ATOM     52  N   UNL A   1      42.611  29.211  28.899  1.00  0.00    -0.354 N 
ATOM     53  C   UNL A   1      41.732  25.074  27.967  1.00  0.00     0.074 A 
ATOM     54  C   UNL A   1      40.328  24.816  27.989  1.00  0.00     0.031 C 
ATOM     55  C   UNL A   1      42.207  31.334  29.480  1.00  0.00     0.029 A 
ATOM     56  C   UNL A   1      43.267  30.387  29.155  1.00  0.00     0.049 A 
ATOM     57  H   UNL A   1      43.058  28.399  28.566  1.00  0.00     0.167 HD
ATOM     58  C   UNL A   1      42.632  24.109  27.647  1.00  0.00     0.031 A 
ATOM     59  C   UNL A   1      44.581  30.666  29.222  1.00  0.00     0.031 A 
ATOM     60  C   UNL A   1      44.049  24.326  27.662  1.00  0.00     0.049 A 
ATOM     61  C   UNL A   1      45.570  29.568  28.982  1.00  0.00     0.074 A 
ATOM     62  C   UNL A   1      45.069  23.435  27.377  1.00  0.00     0.029 A 
ATOM     63  N   UNL A   1      44.641  25.530  28.002  1.00  0.00    -0.354 N 
ATOM     64  N   UNL A   1      45.356  28.315  28.662  1.00  0.00    -0.248 NA
ATOM     65  C   UNL A   1      46.985  29.925  29.128  1.00  0.00     0.031 C 
ATOM     66  C   UNL A   1      46.281  24.081  27.624  1.00  0.00     0.029 A 
ATOM     67  C   UNL A   1      46.014  25.398  27.967  1.00  0.00     0.049 A 
ATOM     68  H   UNL A   1      44.156  26.354  28.235  1.00  0.00     0.167 HD
ATOM     69  C   UNL A   1      46.613  27.737  28.547  1.00  0.00     0.074 A 
ATOM     70  C   UNL A   1      47.578  28.783  28.814  1.00  0.00     0.031 C 
ATOM     71  C   UNL A   1      46.944  26.458  28.243  1.00  0.00     0.031 A 
BRANCH  58  72
ATOM     72  C   UNL A   1      42.134  22.708  27.331  1.00  0.00    -0.014 A 
ATOM     73  C   UNL A   1      41.692  21.823  28.328  1.00  0.00     0.009 A 
ATOM     74  C   UNL A   1      42.057  22.285  25.990  1.00  0.00     0.009 A 
ATOM     75  C   UNL A   1      41.216  20.546  27.996  1.00  0.00     0.001 A 
ATOM     76  C   UNL A   1      41.551  21.024  25.657  1.00  0.00     0.001 A 
ATOM     77  C   UNL A   1      41.139  20.150  26.661  1.00  0.00     0.000 A 
ENDBRANCH  58  72
BRANCH  59  78
ATOM     78  C   UNL A   1      45.001  32.030  29.637  1.00  0.00    -0.014 A 
ATOM     79  C   UNL A   1      45.233  32.336  30.984  1.00  0.00     0.009 A 
ATOM     80  C   UNL A   1      45.248  33.015  28.663  1.00  0.00     0.009 A 
ATOM     81  C   UNL A   1      45.706  33.599  31.345  1.00  0.00     0.001 A 
ATOM     82  C   UNL A   1      45.766  34.257  29.023  1.00  0.00     0.001 A 
ATOM     83  C   UNL A   1      45.988  34.551  30.365  1.00  0.00     0.000 A 
ENDBRANCH  59  78
BRANCH  71  84
ATOM     84  C   UNL A   1      48.404  26.143  28.119  1.00  0.00    -0.014 A 
ATOM     85  C   UNL A   1      49.166  25.741  29.224  1.00  0.00     0.009 A 
ATOM     86  C   UNL A   1      49.013  26.228  26.857  1.00  0.00     0.009 A 
ATOM     87  C   UNL A   1      50.527  25.476  29.075  1.00  0.00     0.001 A 
ATOM     88  C   UNL A   1      50.364  25.925  26.704  1.00  0.00     0.001 A 
ATOM     89  C   UNL A   1      51.122  25.563  27.817  1.00  0.00     0.000 A 
ENDBRANCH  71  84
ENDBRANCH  45  46
ENDBRANCH  38  40
ENDBRANCH  37  38
ENDBRANCH  36  37
ENDBRANCH  35  36
ENDBRANCH   1  35
TORSDOF 17
ENDMDL
MODEL 2
REMARK VINA RESULT:     -11.4      0.705      5.619
REMARK SMILES CCN1C(=O)[C@@H](CC(=O)Nc2cccc(C(=O)OCCOC(=O)c3ccc(-c4c5nc(c(-c6ccccc6)c6ccc([nH]6)c(-c6ccccc6)c6nc(c(-c7ccccc7)c7ccc4[nH]7)C=C6)C=C5)cc3)c2)S/C1=[NH+]\c1cc(Cl)c(O)c(Cl)c1
REMARK SMILES IDX 18 1 16 2 17 3 15 4 11 5 12 6 72 7 13 8 14 9 10 10 8 11 9 12
REMARK SMILES IDX 7 14 6 15 3 16 4 17 74 18 5 19 73 20 75 21 2 23 1 24 76 25
REMARK SMILES IDX 77 26 84 27 78 28 82 29 79 30 80 31 83 32 81 33 19 35 20 36
REMARK SMILES IDX 21 37 22 38 23 39 24 40 25 41 71 42 26 43 70 44 27 45 28 46
REMARK SMILES IDX 29 47 64 48 30 49 69 50 63 51 65 52 31 53 68 54 62 55 61 56
REMARK SMILES IDX 32 58 54 59 39 60 53 61 40 62 43 63 52 64 66 65 41 66 42 67
REMARK SMILES IDX 51 69 67 70 44 71 33 72 34 73 38 74 35 75 37 76 36 77 55 78
REMARK SMILES IDX 56 79 60 80 57 81 59 82 58 83 45 84 46 85 50 86 47 87 49 88
REMARK SMILES IDX 48 89
REMARK H PARENT 10 13 75 22 81 34 65 57 43 68
REMARK Flexibility Score: inf
ROOT
ATOM      1  O   UNL A   1      33.595  29.466  27.426  1.00  0.00    -0.458 OA
ENDROOT
BRANCH   1   2
ATOM      2  C   UNL A   1      33.277  28.722  26.346  1.00  0.00     0.338 C 
ATOM      3  O   UNL A   1      33.593  27.552  26.210  1.00  0.00    -0.246 OA
BRANCH   2   4
ATOM      4  C   UNL A   1      32.668  29.409  25.199  1.00  0.00     0.062 A 
ATOM      5  C   UNL A   1      32.257  28.744  22.947  1.00  0.00     0.042 A 
ATOM      6  C   UNL A   1      30.937  29.183  23.028  1.00  0.00     0.026 A 
ATOM      7  C   UNL A   1      33.160  29.002  23.971  1.00  0.00     0.041 A 
ATOM      8  C   UNL A   1      30.491  29.778  24.203  1.00  0.00     0.003 A 
ATOM      9  C   UNL A   1      31.342  29.845  25.308  1.00  0.00     0.016 A 
BRANCH   5  10
ATOM     10  N   UNL A   1      32.654  27.996  21.842  1.00  0.00    -0.326 N 
ATOM     11  C   UNL A   1      32.758  26.635  21.770  1.00  0.00     0.226 C 
ATOM     12  O   UNL A   1      33.764  26.166  21.228  1.00  0.00    -0.275 OA
ATOM     13  H   UNL A   1      32.883  28.499  21.028  1.00  0.00     0.169 HD
BRANCH  11  14
ATOM     14  C   UNL A   1      31.541  25.723  22.056  1.00  0.00     0.128 C 
BRANCH  14  15
ATOM     15  C   UNL A   1      31.465  24.718  23.211  1.00  0.00     0.183 C 
ATOM     16  N   UNL A   1      30.888  24.570  25.544  1.00  0.00    -0.190 N 
ATOM     17  C   UNL A   1      30.479  25.079  24.303  1.00  0.00     0.324 C 
ATOM     18  C   UNL A   1      32.158  23.988  25.653  1.00  0.00     0.319 C 
ATOM     19  O   UNL A   1      29.406  25.632  24.077  1.00  0.00    -0.245 OA
ATOM     20  S   UNL A   1      33.002  24.417  24.161  1.00  0.00    -0.022 SA
ATOM     21  N   UNL A   1      32.563  23.304  26.701  1.00  0.00    -0.235 N 
ATOM     22  H   UNL A   1      32.008  23.402  27.509  1.00  0.00     0.313 HD
BRANCH  16  23
ATOM     23  C   UNL A   1      29.938  24.634  26.646  1.00  0.00     0.243 C 
ATOM     24  C   UNL A   1      29.392  23.259  26.978  1.00  0.00     0.054 C 
ENDBRANCH  16  23
BRANCH  21  25
ATOM     25  C   UNL A   1      33.733  22.414  26.841  1.00  0.00     0.128 A 
ATOM     26  C   UNL A   1      33.471  20.757  26.088  1.00  0.00     0.076 A 
ATOM     27  C   UNL A   1      35.409  23.115  26.848  1.00  0.00     0.076 A 
ATOM     28  C   UNL A   1      34.767  19.830  25.093  1.00  0.00     0.088 A 
ATOM     29  C   UNL A   1      36.769  22.349  25.920  1.00  0.00     0.088 A 
ATOM     30  Cl  UNL A   1      33.882  18.314  24.573  1.00  0.00    -0.080 Cl
ATOM     31  C   UNL A   1      36.588  20.778  24.927  1.00  0.00     0.153 A 
ATOM     32  Cl  UNL A   1      38.371  22.919  26.248  1.00  0.00    -0.080 Cl
BRANCH  31  33
ATOM     33  O   UNL A   1      37.780  20.624  24.236  1.00  0.00    -0.505 OA
ATOM     34  H   UNL A   1      38.587  20.553  24.705  1.00  0.00     0.293 HD
ENDBRANCH  31  33
ENDBRANCH  21  25
ENDBRANCH  14  15
ENDBRANCH  11  14
ENDBRANCH   5  10
ENDBRANCH   2   4
ENDBRANCH   1   2
BRANCH   1  35
ATOM     35  C   UNL A   1      34.387  30.629  27.070  1.00  0.00     0.275 C 
BRANCH  35  36
ATOM     36  C   UNL A   1      34.140  31.799  28.032  1.00  0.00     0.275 C 
BRANCH  36  37
ATOM     37  O   UNL A   1      34.508  31.450  29.373  1.00  0.00    -0.458 OA
BRANCH  37  38
ATOM     38  C   UNL A   1      35.505  32.183  29.914  1.00  0.00     0.338 C 
ATOM     39  O   UNL A   1      35.486  33.325  30.329  1.00  0.00    -0.246 OA
BRANCH  38  40
ATOM     40  C   UNL A   1      36.680  31.335  29.940  1.00  0.00     0.060 A 
ATOM     41  C   UNL A   1      36.968  30.241  31.233  1.00  0.00     0.016 A 
ATOM     42  C   UNL A   1      37.610  31.254  28.527  1.00  0.00     0.016 A 
ATOM     43  C   UNL A   1      38.416  28.811  31.013  1.00  0.00     0.010 A 
ATOM     44  C   UNL A   1      38.871  30.087  28.283  1.00  0.00     0.010 A 
ATOM     45  C   UNL A   1      39.389  28.911  29.463  1.00  0.00    -0.014 A 
BRANCH  45  46
ATOM     46  C   UNL A   1      40.851  28.530  29.277  1.00  0.00     0.031 A 
ATOM     47  C   UNL A   1      42.058  29.514  29.483  1.00  0.00     0.074 A 
ATOM     48  C   UNL A   1      41.118  27.265  28.929  1.00  0.00     0.049 A 
ATOM     49  N   UNL A   1      43.348  29.318  29.254  1.00  0.00    -0.248 NA
ATOM     50  C   UNL A   1      41.828  30.871  30.010  1.00  0.00     0.031 C 
ATOM     51  C   UNL A   1      40.110  26.237  28.707  1.00  0.00     0.029 A 
ATOM     52  N   UNL A   1      42.311  26.632  28.696  1.00  0.00    -0.354 N 
ATOM     53  C   UNL A   1      44.015  30.513  29.585  1.00  0.00     0.074 A 
ATOM     54  C   UNL A   1      43.021  31.435  30.035  1.00  0.00     0.031 C 
ATOM     55  C   UNL A   1      40.721  25.077  28.443  1.00  0.00     0.029 A 
ATOM     56  C   UNL A   1      42.152  25.326  28.312  1.00  0.00     0.049 A 
ATOM     57  H   UNL A   1      43.188  27.069  28.795  1.00  0.00     0.167 HD
ATOM     58  C   UNL A   1      45.326  30.857  29.502  1.00  0.00     0.031 A 
ATOM     59  C   UNL A   1      43.034  24.442  27.811  1.00  0.00     0.031 A 
ATOM     60  C   UNL A   1      46.338  29.970  29.011  1.00  0.00     0.049 A 
ATOM     61  C   UNL A   1      44.456  24.866  27.614  1.00  0.00     0.074 A 
ATOM     62  C   UNL A   1      47.695  30.196  28.860  1.00  0.00     0.029 A 
ATOM     63  N   UNL A   1      46.086  28.682  28.571  1.00  0.00    -0.354 N 
ATOM     64  N   UNL A   1      45.027  26.012  27.900  1.00  0.00    -0.248 NA
ATOM     65  C   UNL A   1      45.352  23.875  27.010  1.00  0.00     0.031 C 
ATOM     66  C   UNL A   1      48.250  29.068  28.252  1.00  0.00     0.029 A 
ATOM     67  C   UNL A   1      47.257  28.110  28.117  1.00  0.00     0.049 A 
ATOM     68  H   UNL A   1      45.206  28.242  28.580  1.00  0.00     0.167 HD
ATOM     69  C   UNL A   1      46.357  25.871  27.530  1.00  0.00     0.074 A 
ATOM     70  C   UNL A   1      46.506  24.525  27.017  1.00  0.00     0.031 C 
ATOM     71  C   UNL A   1      47.368  26.770  27.609  1.00  0.00     0.031 A 
BRANCH  58  72
ATOM     72  C   UNL A   1      45.744  32.271  29.873  1.00  0.00    -0.014 A 
ATOM     73  C   UNL A   1      46.262  32.596  31.139  1.00  0.00     0.009 A 
ATOM     74  C   UNL A   1      45.666  33.294  28.909  1.00  0.00     0.009 A 
ATOM     75  C   UNL A   1      46.660  33.907  31.437  1.00  0.00     0.001 A 
ATOM     76  C   UNL A   1      46.094  34.594  29.197  1.00  0.00     0.001 A 
ATOM     77  C   UNL A   1      46.583  34.903  30.464  1.00  0.00     0.000 A 
ENDBRANCH  58  72
BRANCH  59  78
ATOM     78  C   UNL A   1      42.539  23.111  27.373  1.00  0.00    -0.014 A 
ATOM     79  C   UNL A   1      42.322  22.082  28.298  1.00  0.00     0.009 A 
ATOM     80  C   UNL A   1      42.206  22.894  26.023  1.00  0.00     0.009 A 
ATOM     81  C   UNL A   1      41.779  20.865  27.880  1.00  0.00     0.001 A 
ATOM     82  C   UNL A   1      41.618  21.697  25.619  1.00  0.00     0.001 A 
ATOM     83  C   UNL A   1      41.412  20.681  26.546  1.00  0.00     0.000 A 
ENDBRANCH  59  78
BRANCH  71  84
ATOM     84  C   UNL A   1      48.730  26.301  27.195  1.00  0.00    -0.014 A 
ATOM     85  C   UNL A   1      49.600  25.679  28.102  1.00  0.00     0.009 A 
ATOM     86  C   UNL A   1      49.131  26.466  25.860  1.00  0.00     0.009 A 
ATOM     87  C   UNL A   1      50.869  25.275  27.687  1.00  0.00     0.001 A 
ATOM     88  C   UNL A   1      50.383  26.024  25.440  1.00  0.00     0.001 A 
ATOM     89  C   UNL A   1      51.256  25.443  26.358  1.00  0.00     0.000 A 
ENDBRANCH  71  84
ENDBRANCH  45  46
ENDBRANCH  38  40
ENDBRANCH  37  38
ENDBRANCH  36  37
ENDBRANCH  35  36
ENDBRANCH   1  35
TORSDOF 17
ENDMDL
MODEL 3
REMARK VINA RESULT:     -11.3      4.528      6.723
REMARK SMILES CCN1C(=O)[C@@H](CC(=O)Nc2cccc(C(=O)OCCOC(=O)c3ccc(-c4c5nc(c(-c6ccccc6)c6ccc([nH]6)c(-c6ccccc6)c6nc(c(-c7ccccc7)c7ccc4[nH]7)C=C6)C=C5)cc3)c2)S/C1=[NH+]\c1cc(Cl)c(O)c(Cl)c1
REMARK SMILES IDX 18 1 16 2 17 3 15 4 11 5 12 6 72 7 13 8 14 9 10 10 8 11 9 12
REMARK SMILES IDX 7 14 6 15 3 16 4 17 74 18 5 19 73 20 75 21 2 23 1 24 76 25
REMARK SMILES IDX 77 26 84 27 78 28 82 29 79 30 80 31 83 32 81 33 19 35 20 36
REMARK SMILES IDX 21 37 22 38 23 39 24 40 25 41 71 42 26 43 70 44 27 45 28 46
REMARK SMILES IDX 29 47 64 48 30 49 69 50 63 51 65 52 31 53 68 54 62 55 61 56
REMARK SMILES IDX 32 58 54 59 39 60 53 61 40 62 43 63 52 64 66 65 41 66 42 67
REMARK SMILES IDX 51 69 67 70 44 71 33 72 34 73 38 74 35 75 37 76 36 77 55 78
REMARK SMILES IDX 56 79 60 80 57 81 59 82 58 83 45 84 46 85 50 86 47 87 49 88
REMARK SMILES IDX 48 89
REMARK H PARENT 10 13 75 22 81 34 65 57 43 68
REMARK Flexibility Score: inf
ROOT
ATOM      1  O   UNL A   1      32.646  28.272  27.617  1.00  0.00    -0.458 OA
ENDROOT
BRANCH   1   2
ATOM      2  C   UNL A   1      32.835  27.486  26.537  1.00  0.00     0.338 C 
ATOM      3  O   UNL A   1      33.922  27.293  26.018  1.00  0.00    -0.246 OA
BRANCH   2   4
ATOM      4  C   UNL A   1      31.642  26.975  25.847  1.00  0.00     0.062 A 
ATOM      5  C   UNL A   1      31.333  25.846  23.771  1.00  0.00     0.042 A 
ATOM      6  C   UNL A   1      30.545  24.874  24.384  1.00  0.00     0.026 A 
ATOM      7  C   UNL A   1      31.744  26.976  24.467  1.00  0.00     0.041 A 
ATOM      8  C   UNL A   1      30.274  24.979  25.744  1.00  0.00     0.003 A 
ATOM      9  C   UNL A   1      30.865  26.002  26.487  1.00  0.00     0.016 A 
BRANCH   5  10
ATOM     10  N   UNL A   1      31.748  25.651  22.456  1.00  0.00    -0.326 N 
ATOM     11  C   UNL A   1      32.756  24.832  22.030  1.00  0.00     0.226 C 
ATOM     12  O   UNL A   1      33.536  25.280  21.183  1.00  0.00    -0.275 OA
ATOM     13  H   UNL A   1      31.264  26.153  21.762  1.00  0.00     0.169 HD
BRANCH  11  14
ATOM     14  C   UNL A   1      32.742  23.317  22.339  1.00  0.00     0.128 C 
BRANCH  14  15
ATOM     15  C   UNL A   1      33.729  22.617  23.281  1.00  0.00     0.183 C 
ATOM     16  N   UNL A   1      34.071  22.105  25.609  1.00  0.00    -0.190 N 
ATOM     17  C   UNL A   1      33.123  22.113  24.575  1.00  0.00     0.324 C 
ATOM     18  C   UNL A   1      35.323  22.692  25.386  1.00  0.00     0.319 C 
ATOM     19  O   UNL A   1      31.986  21.656  24.646  1.00  0.00    -0.245 OA
ATOM     20  S   UNL A   1      35.156  23.598  23.877  1.00  0.00    -0.022 SA
ATOM     21  N   UNL A   1      36.348  22.566  26.200  1.00  0.00    -0.235 N 
ATOM     22  H   UNL A   1      36.133  22.215  27.095  1.00  0.00     0.313 HD
BRANCH  16  23
ATOM     23  C   UNL A   1      33.709  21.435  26.850  1.00  0.00     0.243 C 
ATOM     24  C   UNL A   1      33.063  22.400  27.826  1.00  0.00     0.054 C 
ENDBRANCH  16  23
BRANCH  21  25
ATOM     25  C   UNL A   1      37.772  22.877  25.966  1.00  0.00     0.128 A 
ATOM     26  C   UNL A   1      38.308  24.445  26.761  1.00  0.00     0.076 A 
ATOM     27  C   UNL A   1      38.977  21.526  25.798  1.00  0.00     0.076 A 
ATOM     28  C   UNL A   1      39.949  24.677  27.646  1.00  0.00     0.088 A 
ATOM     29  C   UNL A   1      40.600  21.589  26.609  1.00  0.00     0.088 A 
ATOM     30  Cl  UNL A   1      39.846  26.397  28.263  1.00  0.00    -0.080 Cl
ATOM     31  C   UNL A   1      41.190  23.033  27.634  1.00  0.00     0.153 A 
ATOM     32  Cl  UNL A   1      41.770  20.405  26.129  1.00  0.00    -0.080 Cl
BRANCH  31  33
ATOM     33  O   UNL A   1      42.381  22.627  28.216  1.00  0.00    -0.505 OA
ATOM     34  H   UNL A   1      42.813  21.855  27.907  1.00  0.00     0.293 HD
ENDBRANCH  31  33
ENDBRANCH  21  25
ENDBRANCH  14  15
ENDBRANCH  11  14
ENDBRANCH   5  10
ENDBRANCH   2   4
ENDBRANCH   1   2
BRANCH   1  35
ATOM     35  C   UNL A   1      31.923  29.486  27.286  1.00  0.00     0.275 C 
BRANCH  35  36
ATOM     36  C   UNL A   1      32.845  30.546  26.672  1.00  0.00     0.275 C 
BRANCH  36  37
ATOM     37  O   UNL A   1      33.909  30.888  27.571  1.00  0.00    -0.458 OA
BRANCH  37  38
ATOM     38  C   UNL A   1      33.943  32.177  27.972  1.00  0.00     0.338 C 
ATOM     39  O   UNL A   1      33.127  33.061  27.801  1.00  0.00    -0.246 OA
BRANCH  38  40
ATOM     40  C   UNL A   1      35.183  32.354  28.701  1.00  0.00     0.060 A 
ATOM     41  C   UNL A   1      36.389  33.453  28.165  1.00  0.00     0.016 A 
ATOM     42  C   UNL A   1      35.286  31.655  30.240  1.00  0.00     0.016 A 
ATOM     43  C   UNL A   1      37.918  33.940  29.436  1.00  0.00     0.010 A 
ATOM     44  C   UNL A   1      36.566  31.999  31.359  1.00  0.00     0.010 A 
ATOM     45  C   UNL A   1      37.932  33.034  31.029  1.00  0.00    -0.014 A 
BRANCH  45  46
ATOM     46  C   UNL A   1      39.156  32.629  31.839  1.00  0.00     0.031 A 
ATOM     47  C   UNL A   1      40.218  31.570  31.373  1.00  0.00     0.074 A 
ATOM     48  C   UNL A   1      39.341  33.234  33.019  1.00  0.00     0.049 A 
ATOM     49  N   UNL A   1      41.254  31.075  32.033  1.00  0.00    -0.248 NA
ATOM     50  C   UNL A   1      40.142  30.989  30.020  1.00  0.00     0.031 C 
ATOM     51  C   UNL A   1      38.450  34.238  33.584  1.00  0.00     0.029 A 
ATOM     52  N   UNL A   1      40.331  33.088  33.955  1.00  0.00    -0.354 N 
ATOM     53  C   UNL A   1      41.884  30.146  31.182  1.00  0.00     0.074 A 
ATOM     54  C   UNL A   1      41.144  30.131  29.960  1.00  0.00     0.031 C 
ATOM     55  C   UNL A   1      38.966  34.679  34.736  1.00  0.00     0.029 A 
ATOM     56  C   UNL A   1      40.131  33.866  35.065  1.00  0.00     0.049 A 
ATOM     57  H   UNL A   1      41.105  32.488  33.842  1.00  0.00     0.167 HD
ATOM     58  C   UNL A   1      42.958  29.339  31.378  1.00  0.00     0.031 A 
ATOM     59  C   UNL A   1      40.744  33.868  36.262  1.00  0.00     0.031 A 
ATOM     60  C   UNL A   1      43.690  29.298  32.609  1.00  0.00     0.049 A 
ATOM     61  C   UNL A   1      41.854  32.894  36.512  1.00  0.00     0.074 A 
ATOM     62  C   UNL A   1      44.783  28.519  32.946  1.00  0.00     0.029 A 
ATOM     63  N   UNL A   1      43.380  30.068  33.717  1.00  0.00    -0.354 N 
ATOM     64  N   UNL A   1      42.382  32.013  35.697  1.00  0.00    -0.248 NA
ATOM     65  C   UNL A   1      42.440  32.908  37.855  1.00  0.00     0.031 C 
ATOM     66  C   UNL A   1      45.083  28.762  34.288  1.00  0.00     0.029 A 
ATOM     67  C   UNL A   1      44.240  29.760  34.751  1.00  0.00     0.049 A 
ATOM     68  H   UNL A   1      42.656  30.733  33.759  1.00  0.00     0.167 HD
ATOM     69  C   UNL A   1      43.381  31.381  36.424  1.00  0.00     0.074 A 
ATOM     70  C   UNL A   1      43.392  31.995  37.737  1.00  0.00     0.031 C 
ATOM     71  C   UNL A   1      44.219  30.386  36.045  1.00  0.00     0.031 A 
BRANCH  58  72
ATOM     72  C   UNL A   1      43.369  28.374  30.278  1.00  0.00    -0.014 A 
ATOM     73  C   UNL A   1      42.894  27.053  30.218  1.00  0.00     0.009 A 
ATOM     74  C   UNL A   1      44.213  28.819  29.243  1.00  0.00     0.009 A 
ATOM     75  C   UNL A   1      43.277  26.198  29.175  1.00  0.00     0.001 A 
ATOM     76  C   UNL A   1      44.568  27.977  28.184  1.00  0.00     0.001 A 
ATOM     77  C   UNL A   1      44.106  26.663  28.154  1.00  0.00     0.000 A 
ENDBRANCH  58  72
BRANCH  59  78
ATOM     78  C   UNL A   1      40.227  34.765  37.328  1.00  0.00    -0.014 A 
ATOM     79  C   UNL A   1      39.329  34.294  38.295  1.00  0.00     0.009 A 
ATOM     80  C   UNL A   1      40.698  36.087  37.424  1.00  0.00     0.009 A 
ATOM     81  C   UNL A   1      38.919  35.129  39.337  1.00  0.00     0.001 A 
ATOM     82  C   UNL A   1      40.324  36.900  38.492  1.00  0.00     0.001 A 
ATOM     83  C   UNL A   1      39.429  36.424  39.443  1.00  0.00     0.000 A 
ENDBRANCH  59  78
BRANCH  71  84
ATOM     84  C   UNL A   1      45.256  29.953  37.036  1.00  0.00    -0.014 A 
ATOM     85  C   UNL A   1      45.036  28.873  37.904  1.00  0.00     0.009 A 
ATOM     86  C   UNL A   1      46.486  30.628  37.075  1.00  0.00     0.009 A 
ATOM     87  C   UNL A   1      46.015  28.511  38.829  1.00  0.00     0.001 A 
ATOM     88  C   UNL A   1      47.476  30.238  37.973  1.00  0.00     0.001 A 
ATOM     89  C   UNL A   1      47.234  29.189  38.858  1.00  0.00     0.000 A 
ENDBRANCH  71  84
ENDBRANCH  45  46
ENDBRANCH  38  40
ENDBRANCH  37  38
ENDBRANCH  36  37
ENDBRANCH  35  36
ENDBRANCH   1  35
TORSDOF 17
ENDMDL
