MODEL 1
REMARK VINA RESULT:      -9.5      0.000      0.000
REMARK SMILES C[NH2+]CC(=O)NC[C@H]1CC[C@H](C(=O)OCCOC(=O)c2ccc(-c3c4nc(c(-c5ccccc5)c5ccc([nH]5)c(-c5ccccc5)c5nc(c(-c6ccccc6)c6ccc3[nH]6)C=C5)C=C4)cc2)O1
REMARK SMILES IDX 15 1 14 2 12 3 13 4 11 5 8 6 9 7 68 8 10 9 7 10 6 11 4 12
REMARK SMILES IDX 5 13 3 15 2 16 1 17 16 20 17 21 18 22 19 23 20 24 21 25
REMARK SMILES IDX 67 26 22 27 66 28 23 29 24 30 25 31 60 32 26 33 65 34 59 35
REMARK SMILES IDX 61 36 27 37 64 38 58 39 57 40 28 42 50 43 35 44 49 45 36 46
REMARK SMILES IDX 39 47 48 48 62 49 37 50 38 51 47 53 63 54 40 55 29 56 30 57
REMARK SMILES IDX 34 58 31 59 33 60 32 61 51 62 52 63 56 64 53 65 55 66 54 67
REMARK SMILES IDX 41 68 42 69 46 70 43 71 45 72 44 73
REMARK H PARENT 6 14 2 18 2 19 61 41 39 52
REMARK Flexibility Score: inf
ROOT
ATOM      1  C   UNL A   1      34.646  35.642  33.442  1.00  0.00     0.274 C 
ENDROOT
BRANCH   1   2
ATOM      2  O   UNL A   1      33.457  35.381  32.676  1.00  0.00    -0.460 OA
BRANCH   2   3
ATOM      3  C   UNL A   1      33.225  36.206  31.617  1.00  0.00     0.335 C 
ATOM      4  O   UNL A   1      33.220  37.431  31.675  1.00  0.00    -0.249 OA
BRANCH   3   5
ATOM      5  C   UNL A   1      32.992  35.428  30.314  1.00  0.00     0.228 C 
ATOM      6  C   UNL A   1      34.525  34.581  28.759  1.00  0.00     0.138 C 
ATOM      7  C   UNL A   1      34.223  36.017  28.375  1.00  0.00     0.037 C 
ATOM      8  O   UNL A   1      33.971  34.407  30.077  1.00  0.00    -0.361 OA
ATOM      9  C   UNL A   1      32.919  36.303  29.070  1.00  0.00     0.047 C 
BRANCH   6  10
ATOM     10  C   UNL A   1      33.969  33.502  27.802  1.00  0.00     0.148 C 
BRANCH  10  11
ATOM     11  N   UNL A   1      34.806  32.317  27.700  1.00  0.00    -0.349 N 
ATOM     12  C   UNL A   1      34.467  31.003  27.564  1.00  0.00     0.275 C 
ATOM     13  O   UNL A   1      35.370  30.166  27.613  1.00  0.00    -0.269 OA
ATOM     14  H   UNL A   1      35.774  32.492  27.733  1.00  0.00     0.163 HD
BRANCH  12  15
ATOM     15  C   UNL A   1      32.997  30.598  27.406  1.00  0.00     0.361 C 
BRANCH  15  16
ATOM     16  N   UNL A   1      32.825  29.154  27.625  1.00  0.00    -0.341 N 
ATOM     17  C   UNL A   1      32.803  28.393  26.390  1.00  0.00     0.331 C 
ATOM     18  H   UNL A   1      33.597  28.819  28.202  1.00  0.00     0.346 HD
ATOM     19  H   UNL A   1      31.923  29.021  28.082  1.00  0.00     0.346 HD
ENDBRANCH  15  16
ENDBRANCH  12  15
ENDBRANCH  10  11
ENDBRANCH   6  10
ENDBRANCH   3   5
ENDBRANCH   2   3
ENDBRANCH   1   2
BRANCH   1  20
ATOM     20  C   UNL A   1      35.860  34.936  32.829  1.00  0.00     0.275 C 
BRANCH  20  21
ATOM     21  O   UNL A   1      36.037  33.621  33.391  1.00  0.00    -0.458 OA
BRANCH  21  22
ATOM     22  C   UNL A   1      35.562  32.596  32.646  1.00  0.00     0.338 C 
ATOM     23  O   UNL A   1      34.398  32.266  32.491  1.00  0.00    -0.246 OA
BRANCH  22  24
ATOM     24  C   UNL A   1      36.669  31.981  31.900  1.00  0.00     0.060 A 
ATOM     25  C   UNL A   1      37.615  31.241  32.616  1.00  0.00     0.016 A 
ATOM     26  C   UNL A   1      36.818  32.185  30.528  1.00  0.00     0.016 A 
ATOM     27  C   UNL A   1      38.707  30.681  31.959  1.00  0.00     0.010 A 
ATOM     28  C   UNL A   1      37.922  31.631  29.870  1.00  0.00     0.010 A 
ATOM     29  C   UNL A   1      38.872  30.877  30.583  1.00  0.00    -0.014 A 
BRANCH  29  30
ATOM     30  C   UNL A   1      40.067  30.332  29.899  1.00  0.00     0.031 A 
ATOM     31  C   UNL A   1      41.299  31.178  29.757  1.00  0.00     0.074 A 
ATOM     32  C   UNL A   1      40.053  29.075  29.421  1.00  0.00     0.049 A 
ATOM     33  N   UNL A   1      42.410  30.918  29.117  1.00  0.00    -0.248 NA
ATOM     34  C   UNL A   1      41.276  32.488  30.426  1.00  0.00     0.031 C 
ATOM     35  C   UNL A   1      38.940  28.134  29.550  1.00  0.00     0.029 A 
ATOM     36  N   UNL A   1      41.008  28.375  28.731  1.00  0.00    -0.354 N 
ATOM     37  C   UNL A   1      43.214  32.038  29.290  1.00  0.00     0.074 A 
ATOM     38  C   UNL A   1      42.458  32.983  30.085  1.00  0.00     0.031 C 
ATOM     39  C   UNL A   1      39.279  26.975  28.959  1.00  0.00     0.029 A 
ATOM     40  C   UNL A   1      40.610  27.110  28.374  1.00  0.00     0.049 A 
ATOM     41  H   UNL A   1      41.895  28.743  28.513  1.00  0.00     0.167 HD
ATOM     42  C   UNL A   1      44.467  32.257  28.827  1.00  0.00     0.031 A 
ATOM     43  C   UNL A   1      41.237  26.177  27.635  1.00  0.00     0.031 A 
ATOM     44  C   UNL A   1      45.217  31.319  28.035  1.00  0.00     0.049 A 
ATOM     45  C   UNL A   1      42.596  26.475  27.067  1.00  0.00     0.074 A 
ATOM     46  C   UNL A   1      46.492  31.455  27.514  1.00  0.00     0.029 A 
ATOM     47  N   UNL A   1      44.760  30.067  27.654  1.00  0.00    -0.354 N 
ATOM     48  N   UNL A   1      43.335  27.547  27.214  1.00  0.00    -0.248 NA
ATOM     49  C   UNL A   1      43.202  25.435  26.223  1.00  0.00     0.031 C 
ATOM     50  C   UNL A   1      46.790  30.300  26.783  1.00  0.00     0.029 A 
ATOM     51  C   UNL A   1      45.718  29.429  26.887  1.00  0.00     0.049 A 
ATOM     52  H   UNL A   1      43.882  29.690  27.894  1.00  0.00     0.167 HD
ATOM     53  C   UNL A   1      44.499  27.306  26.496  1.00  0.00     0.074 A 
ATOM     54  C   UNL A   1      44.374  25.980  25.925  1.00  0.00     0.031 C 
ATOM     55  C   UNL A   1      45.574  28.112  26.324  1.00  0.00     0.031 A 
BRANCH  42  56
ATOM     56  C   UNL A   1      45.088  33.589  29.134  1.00  0.00    -0.014 A 
ATOM     57  C   UNL A   1      45.876  33.778  30.280  1.00  0.00     0.009 A 
ATOM     58  C   UNL A   1      44.903  34.662  28.248  1.00  0.00     0.009 A 
ATOM     59  C   UNL A   1      46.440  35.027  30.548  1.00  0.00     0.001 A 
ATOM     60  C   UNL A   1      45.486  35.902  28.508  1.00  0.00     0.001 A 
ATOM     61  C   UNL A   1      46.248  36.087  29.661  1.00  0.00     0.000 A 
ENDBRANCH  42  56
BRANCH  43  62
ATOM     62  C   UNL A   1      40.568  24.879  27.357  1.00  0.00    -0.014 A 
ATOM     63  C   UNL A   1      41.060  23.690  27.915  1.00  0.00     0.009 A 
ATOM     64  C   UNL A   1      39.439  24.826  26.525  1.00  0.00     0.009 A 
ATOM     65  C   UNL A   1      40.442  22.470  27.632  1.00  0.00     0.001 A 
ATOM     66  C   UNL A   1      38.808  23.608  26.265  1.00  0.00     0.001 A 
ATOM     67  C   UNL A   1      39.314  22.430  26.812  1.00  0.00     0.000 A 
ENDBRANCH  43  62
BRANCH  55  68
ATOM     68  C   UNL A   1      46.709  27.569  25.505  1.00  0.00    -0.014 A 
ATOM     69  C   UNL A   1      46.819  27.860  24.137  1.00  0.00     0.009 A 
ATOM     70  C   UNL A   1      47.699  26.787  26.119  1.00  0.00     0.009 A 
ATOM     71  C   UNL A   1      47.886  27.352  23.392  1.00  0.00     0.001 A 
ATOM     72  C   UNL A   1      48.775  26.300  25.377  1.00  0.00     0.001 A 
ATOM     73  C   UNL A   1      48.864  26.577  24.013  1.00  0.00     0.000 A 
ENDBRANCH  55  68
ENDBRANCH  29  30
ENDBRANCH  22  24
ENDBRANCH  21  22
ENDBRANCH  20  21
ENDBRANCH   1  20
TORSDOF 15
ENDMDL
MODEL 2
REMARK VINA RESULT:      -9.4      2.963      4.569
REMARK SMILES C[NH2+]CC(=O)NC[C@H]1CC[C@H](C(=O)OCCOC(=O)c2ccc(-c3c4nc(c(-c5ccccc5)c5ccc([nH]5)c(-c5ccccc5)c5nc(c(-c6ccccc6)c6ccc3[nH]6)C=C5)C=C4)cc2)O1
REMARK SMILES IDX 15 1 14 2 12 3 13 4 11 5 8 6 9 7 68 8 10 9 7 10 6 11 4 12
REMARK SMILES IDX 5 13 3 15 2 16 1 17 16 20 17 21 18 22 19 23 20 24 21 25
REMARK SMILES IDX 67 26 22 27 66 28 23 29 24 30 25 31 60 32 26 33 65 34 59 35
REMARK SMILES IDX 61 36 27 37 64 38 58 39 57 40 28 42 50 43 35 44 49 45 36 46
REMARK SMILES IDX 39 47 48 48 62 49 37 50 38 51 47 53 63 54 40 55 29 56 30 57
REMARK SMILES IDX 34 58 31 59 33 60 32 61 51 62 52 63 56 64 53 65 55 66 54 67
REMARK SMILES IDX 41 68 42 69 46 70 43 71 45 72 44 73
REMARK H PARENT 6 14 2 18 2 19 61 41 39 52
REMARK Flexibility Score: inf
ROOT
ATOM      1  C   UNL A   1      33.703  34.309  28.478  1.00  0.00     0.274 C 
ENDROOT
BRANCH   1   2
ATOM      2  O   UNL A   1      33.160  34.237  29.809  1.00  0.00    -0.460 OA
BRANCH   2   3
ATOM      3  C   UNL A   1      33.701  35.082  30.729  1.00  0.00     0.335 C 
ATOM      4  O   UNL A   1      33.253  36.190  31.008  1.00  0.00    -0.249 OA
BRANCH   3   5
ATOM      5  C   UNL A   1      34.939  34.483  31.412  1.00  0.00     0.228 C 
ATOM      6  C   UNL A   1      35.130  32.674  32.887  1.00  0.00     0.138 C 
ATOM      7  C   UNL A   1      34.833  33.911  33.711  1.00  0.00     0.037 C 
ATOM      8  O   UNL A   1      34.896  33.054  31.518  1.00  0.00    -0.361 OA
ATOM      9  C   UNL A   1      35.219  35.045  32.799  1.00  0.00     0.047 C 
BRANCH   6  10
ATOM     10  C   UNL A   1      36.554  32.093  33.041  1.00  0.00     0.148 C 
BRANCH  10  11
ATOM     11  N   UNL A   1      36.607  30.640  32.997  1.00  0.00    -0.349 N 
ATOM     12  C   UNL A   1      37.525  29.771  33.508  1.00  0.00     0.275 C 
ATOM     13  O   UNL A   1      37.402  28.575  33.237  1.00  0.00    -0.269 OA
ATOM     14  H   UNL A   1      35.856  30.215  32.521  1.00  0.00     0.163 HD
BRANCH  12  15
ATOM     15  C   UNL A   1      38.695  30.293  34.351  1.00  0.00     0.361 C 
BRANCH  15  16
ATOM     16  N   UNL A   1      38.370  30.245  35.784  1.00  0.00    -0.341 N 
ATOM     17  C   UNL A   1      38.259  31.562  36.383  1.00  0.00     0.331 C 
ATOM     18  H   UNL A   1      37.480  29.758  35.900  1.00  0.00     0.346 HD
ATOM     19  H   UNL A   1      39.133  29.759  36.254  1.00  0.00     0.346 HD
ENDBRANCH  15  16
ENDBRANCH  12  15
ENDBRANCH  10  11
ENDBRANCH   6  10
ENDBRANCH   3   5
ENDBRANCH   2   3
ENDBRANCH   1   2
BRANCH   1  20
ATOM     20  C   UNL A   1      33.710  32.929  27.813  1.00  0.00     0.275 C 
BRANCH  20  21
ATOM     21  O   UNL A   1      34.417  31.965  28.618  1.00  0.00    -0.458 OA
BRANCH  21  22
ATOM     22  C   UNL A   1      34.490  30.714  28.108  1.00  0.00     0.338 C 
ATOM     23  O   UNL A   1      33.642  30.127  27.458  1.00  0.00    -0.246 OA
BRANCH  22  24
ATOM     24  C   UNL A   1      35.839  30.174  28.330  1.00  0.00     0.060 A 
ATOM     25  C   UNL A   1      36.131  29.626  29.583  1.00  0.00     0.016 A 
ATOM     26  C   UNL A   1      36.826  30.267  27.348  1.00  0.00     0.016 A 
ATOM     27  C   UNL A   1      37.410  29.147  29.855  1.00  0.00     0.010 A 
ATOM     28  C   UNL A   1      38.113  29.795  27.626  1.00  0.00     0.010 A 
ATOM     29  C   UNL A   1      38.411  29.234  28.881  1.00  0.00    -0.014 A 
BRANCH  29  30
ATOM     30  C   UNL A   1      39.786  28.779  29.194  1.00  0.00     0.031 A 
ATOM     31  C   UNL A   1      40.716  29.680  29.953  1.00  0.00     0.074 A 
ATOM     32  C   UNL A   1      40.191  27.555  28.814  1.00  0.00     0.049 A 
ATOM     33  N   UNL A   1      41.979  29.504  30.247  1.00  0.00    -0.248 NA
ATOM     34  C   UNL A   1      40.149  30.944  30.448  1.00  0.00     0.031 C 
ATOM     35  C   UNL A   1      39.362  26.565  28.126  1.00  0.00     0.029 A 
ATOM     36  N   UNL A   1      41.407  26.936  28.957  1.00  0.00    -0.354 N 
ATOM     37  C   UNL A   1      42.364  30.641  30.945  1.00  0.00     0.074 A 
ATOM     38  C   UNL A   1      41.205  31.505  31.020  1.00  0.00     0.031 C 
ATOM     39  C   UNL A   1      40.094  25.459  27.909  1.00  0.00     0.029 A 
ATOM     40  C   UNL A   1      41.451  25.682  28.401  1.00  0.00     0.049 A 
ATOM     41  H   UNL A   1      42.173  27.352  29.414  1.00  0.00     0.167 HD
ATOM     42  C   UNL A   1      43.575  30.937  31.474  1.00  0.00     0.031 A 
ATOM     43  C   UNL A   1      42.478  24.821  28.277  1.00  0.00     0.031 A 
ATOM     44  C   UNL A   1      44.728  30.080  31.396  1.00  0.00     0.049 A 
ATOM     45  C   UNL A   1      43.833  25.207  28.803  1.00  0.00     0.074 A 
ATOM     46  C   UNL A   1      46.000  30.298  31.896  1.00  0.00     0.029 A 
ATOM     47  N   UNL A   1      44.746  28.838  30.782  1.00  0.00    -0.354 N 
ATOM     48  N   UNL A   1      44.192  26.296  29.437  1.00  0.00    -0.248 NA
ATOM     49  C   UNL A   1      44.924  24.246  28.587  1.00  0.00     0.031 C 
ATOM     50  C   UNL A   1      46.799  29.202  31.548  1.00  0.00     0.029 A 
ATOM     51  C   UNL A   1      46.011  28.286  30.871  1.00  0.00     0.049 A 
ATOM     52  H   UNL A   1      43.972  28.412  30.347  1.00  0.00     0.167 HD
ATOM     53  C   UNL A   1      45.545  26.145  29.711  1.00  0.00     0.074 A 
ATOM     54  C   UNL A   1      45.939  24.854  29.186  1.00  0.00     0.031 C 
ATOM     55  C   UNL A   1      46.386  27.002  30.339  1.00  0.00     0.031 A 
BRANCH  42  56
ATOM     56  C   UNL A   1      43.721  32.270  32.148  1.00  0.00    -0.014 A 
ATOM     57  C   UNL A   1      44.122  33.409  31.431  1.00  0.00     0.009 A 
ATOM     58  C   UNL A   1      43.427  32.393  33.515  1.00  0.00     0.009 A 
ATOM     59  C   UNL A   1      44.254  34.638  32.080  1.00  0.00     0.001 A 
ATOM     60  C   UNL A   1      43.539  33.628  34.155  1.00  0.00     0.001 A 
ATOM     61  C   UNL A   1      43.960  34.748  33.439  1.00  0.00     0.000 A 
ENDBRANCH  42  56
BRANCH  43  62
ATOM     62  C   UNL A   1      42.275  23.518  27.593  1.00  0.00    -0.014 A 
ATOM     63  C   UNL A   1      42.619  23.361  26.242  1.00  0.00     0.009 A 
ATOM     64  C   UNL A   1      41.729  22.428  28.289  1.00  0.00     0.009 A 
ATOM     65  C   UNL A   1      42.405  22.141  25.598  1.00  0.00     0.001 A 
ATOM     66  C   UNL A   1      41.540  21.202  27.648  1.00  0.00     0.001 A 
ATOM     67  C   UNL A   1      41.871  21.062  26.301  1.00  0.00     0.000 A 
ENDBRANCH  43  62
BRANCH  55  68
ATOM     68  C   UNL A   1      47.809  26.555  30.514  1.00  0.00    -0.014 A 
ATOM     69  C   UNL A   1      48.204  25.822  31.644  1.00  0.00     0.009 A 
ATOM     70  C   UNL A   1      48.755  26.841  29.519  1.00  0.00     0.009 A 
ATOM     71  C   UNL A   1      49.530  25.408  31.786  1.00  0.00     0.001 A 
ATOM     72  C   UNL A   1      50.074  26.407  29.654  1.00  0.00     0.001 A 
ATOM     73  C   UNL A   1      50.462  25.698  30.790  1.00  0.00     0.000 A 
ENDBRANCH  55  68
ENDBRANCH  29  30
ENDBRANCH  22  24
ENDBRANCH  21  22
ENDBRANCH  20  21
ENDBRANCH   1  20
TORSDOF 15
ENDMDL
MODEL 3
REMARK VINA RESULT:      -9.3      5.746     11.390
REMARK SMILES C[NH2+]CC(=O)NC[C@H]1CC[C@H](C(=O)OCCOC(=O)c2ccc(-c3c4nc(c(-c5ccccc5)c5ccc([nH]5)c(-c5ccccc5)c5nc(c(-c6ccccc6)c6ccc3[nH]6)C=C5)C=C4)cc2)O1
REMARK SMILES IDX 15 1 14 2 12 3 13 4 11 5 8 6 9 7 68 8 10 9 7 10 6 11 4 12
REMARK SMILES IDX 5 13 3 15 2 16 1 17 16 20 17 21 18 22 19 23 20 24 21 25
REMARK SMILES IDX 67 26 22 27 66 28 23 29 24 30 25 31 60 32 26 33 65 34 59 35
REMARK SMILES IDX 61 36 27 37 64 38 58 39 57 40 28 42 50 43 35 44 49 45 36 46
REMARK SMILES IDX 39 47 48 48 62 49 37 50 38 51 47 53 63 54 40 55 29 56 30 57
REMARK SMILES IDX 34 58 31 59 33 60 32 61 51 62 52 63 56 64 53 65 55 66 54 67
REMARK SMILES IDX 41 68 42 69 46 70 43 71 45 72 44 73
REMARK H PARENT 6 14 2 18 2 19 61 41 39 52
REMARK Flexibility Score: inf
ROOT
ATOM      1  C   UNL A   1      44.794  21.349  24.995  1.00  0.00     0.274 C 
ENDROOT
BRANCH   1   2
ATOM      2  O   UNL A   1      43.749  21.161  25.967  1.00  0.00    -0.460 OA
BRANCH   2   3
ATOM      3  C   UNL A   1      42.917  20.103  25.764  1.00  0.00     0.335 C 
ATOM      4  O   UNL A   1      43.274  19.002  25.357  1.00  0.00    -0.249 OA
BRANCH   3   5
ATOM      5  C   UNL A   1      41.461  20.429  26.128  1.00  0.00     0.228 C 
ATOM      6  C   UNL A   1      40.471  22.462  26.740  1.00  0.00     0.138 C 
ATOM      7  C   UNL A   1      41.016  21.816  28.000  1.00  0.00     0.037 C 
ATOM      8  O   UNL A   1      41.026  21.708  25.646  1.00  0.00    -0.361 OA
ATOM      9  C   UNL A   1      41.162  20.367  27.619  1.00  0.00     0.047 C 
BRANCH   6  10
ATOM     10  C   UNL A   1      38.930  22.509  26.625  1.00  0.00     0.148 C 
BRANCH  10  11
ATOM     11  N   UNL A   1      38.433  22.307  25.273  1.00  0.00    -0.349 N 
ATOM     12  C   UNL A   1      37.165  22.383  24.776  1.00  0.00     0.275 C 
ATOM     13  O   UNL A   1      36.986  22.055  23.601  1.00  0.00    -0.269 OA
ATOM     14  H   UNL A   1      39.124  22.079  24.610  1.00  0.00     0.163 HD
BRANCH  12  15
ATOM     15  C   UNL A   1      36.007  22.820  25.679  1.00  0.00     0.361 C 
BRANCH  15  16
ATOM     16  N   UNL A   1      35.545  21.702  26.516  1.00  0.00    -0.341 N 
ATOM     17  C   UNL A   1      34.202  21.896  27.029  1.00  0.00     0.331 C 
ATOM     18  H   UNL A   1      35.560  20.849  25.956  1.00  0.00     0.346 HD
ATOM     19  H   UNL A   1      36.173  21.642  27.318  1.00  0.00     0.346 HD
ENDBRANCH  15  16
ENDBRANCH  12  15
ENDBRANCH  10  11
ENDBRANCH   6  10
ENDBRANCH   3   5
ENDBRANCH   2   3
ENDBRANCH   1   2
BRANCH   1  20
ATOM     20  C   UNL A   1      44.405  22.422  23.973  1.00  0.00     0.275 C 
BRANCH  20  21
ATOM     21  O   UNL A   1      43.768  23.546  24.613  1.00  0.00    -0.458 OA
BRANCH  21  22
ATOM     22  C   UNL A   1      44.595  24.538  25.016  1.00  0.00     0.338 C 
ATOM     23  O   UNL A   1      45.677  24.843  24.543  1.00  0.00    -0.246 OA
BRANCH  22  24
ATOM     24  C   UNL A   1      43.932  25.331  26.062  1.00  0.00     0.060 A 
ATOM     25  C   UNL A   1      44.201  26.702  26.119  1.00  0.00     0.016 A 
ATOM     26  C   UNL A   1      43.113  24.727  27.017  1.00  0.00     0.016 A 
ATOM     27  C   UNL A   1      43.634  27.484  27.121  1.00  0.00     0.010 A 
ATOM     28  C   UNL A   1      42.553  25.512  28.031  1.00  0.00     0.010 A 
ATOM     29  C   UNL A   1      42.812  26.894  28.088  1.00  0.00    -0.014 A 
BRANCH  29  30
ATOM     30  C   UNL A   1      42.261  27.717  29.189  1.00  0.00     0.031 A 
ATOM     31  C   UNL A   1      42.998  27.813  30.493  1.00  0.00     0.074 A 
ATOM     32  C   UNL A   1      41.111  28.392  29.012  1.00  0.00     0.049 A 
ATOM     33  N   UNL A   1      42.640  28.406  31.603  1.00  0.00    -0.248 NA
ATOM     34  C   UNL A   1      44.313  27.156  30.554  1.00  0.00     0.031 C 
ATOM     35  C   UNL A   1      40.333  28.428  27.773  1.00  0.00     0.029 A 
ATOM     36  N   UNL A   1      40.398  29.177  29.881  1.00  0.00    -0.354 N 
ATOM     37  C   UNL A   1      43.674  28.180  32.501  1.00  0.00     0.074 A 
ATOM     38  C   UNL A   1      44.668  27.386  31.810  1.00  0.00     0.031 C 
ATOM     39  C   UNL A   1      39.250  29.202  27.961  1.00  0.00     0.029 A 
ATOM     40  C   UNL A   1      39.237  29.674  29.343  1.00  0.00     0.049 A 
ATOM     41  H   UNL A   1      40.691  29.367  30.802  1.00  0.00     0.167 HD
ATOM     42  C   UNL A   1      43.784  28.596  33.785  1.00  0.00     0.031 A 
ATOM     43  C   UNL A   1      38.258  30.405  29.909  1.00  0.00     0.031 A 
ATOM     44  C   UNL A   1      42.795  29.383  34.472  1.00  0.00     0.049 A 
ATOM     45  C   UNL A   1      38.367  30.787  31.359  1.00  0.00     0.074 A 
ATOM     46  C   UNL A   1      42.815  29.846  35.776  1.00  0.00     0.029 A 
ATOM     47  N   UNL A   1      41.609  29.825  33.907  1.00  0.00    -0.354 N 
ATOM     48  N   UNL A   1      39.337  30.545  32.205  1.00  0.00    -0.248 NA
ATOM     49  C   UNL A   1      37.240  31.538  31.930  1.00  0.00     0.031 C 
ATOM     50  C   UNL A   1      41.620  30.536  36.012  1.00  0.00     0.029 A 
ATOM     51  C   UNL A   1      40.879  30.538  34.841  1.00  0.00     0.049 A 
ATOM     52  H   UNL A   1      41.328  29.656  32.978  1.00  0.00     0.167 HD
ATOM     53  C   UNL A   1      38.946  31.126  33.405  1.00  0.00     0.074 A 
ATOM     54  C   UNL A   1      37.657  31.744  33.172  1.00  0.00     0.031 C 
ATOM     55  C   UNL A   1      39.597  31.143  34.593  1.00  0.00     0.031 A 
BRANCH  42  56
ATOM     56  C   UNL A   1      45.007  28.166  34.542  1.00  0.00    -0.014 A 
ATOM     57  C   UNL A   1      46.179  28.936  34.530  1.00  0.00     0.009 A 
ATOM     58  C   UNL A   1      44.973  26.985  35.301  1.00  0.00     0.009 A 
ATOM     59  C   UNL A   1      47.306  28.515  35.239  1.00  0.00     0.001 A 
ATOM     60  C   UNL A   1      46.094  26.579  36.026  1.00  0.00     0.001 A 
ATOM     61  C   UNL A   1      47.262  27.339  35.989  1.00  0.00     0.000 A 
ENDBRANCH  42  56
BRANCH  43  62
ATOM     62  C   UNL A   1      37.067  30.794  29.111  1.00  0.00    -0.014 A 
ATOM     63  C   UNL A   1      36.903  32.116  28.674  1.00  0.00     0.009 A 
ATOM     64  C   UNL A   1      36.086  29.843  28.790  1.00  0.00     0.009 A 
ATOM     65  C   UNL A   1      35.771  32.482  27.943  1.00  0.00     0.001 A 
ATOM     66  C   UNL A   1      34.967  30.207  28.038  1.00  0.00     0.001 A 
ATOM     67  C   UNL A   1      34.807  31.527  27.622  1.00  0.00     0.000 A 
ENDBRANCH  43  62
BRANCH  55  68
ATOM     68  C   UNL A   1      38.933  31.876  35.723  1.00  0.00    -0.014 A 
ATOM     69  C   UNL A   1      38.165  31.192  36.677  1.00  0.00     0.009 A 
ATOM     70  C   UNL A   1      39.111  33.261  35.854  1.00  0.00     0.009 A 
ATOM     71  C   UNL A   1      37.561  31.889  37.726  1.00  0.00     0.001 A 
ATOM     72  C   UNL A   1      38.524  33.951  36.915  1.00  0.00     0.001 A 
ATOM     73  C   UNL A   1      37.745  33.266  37.846  1.00  0.00     0.000 A 
ENDBRANCH  55  68
ENDBRANCH  29  30
ENDBRANCH  22  24
ENDBRANCH  21  22
ENDBRANCH  20  21
ENDBRANCH   1  20
TORSDOF 15
ENDMDL
