MODEL 1
REMARK VINA RESULT:     -10.9      0.000      0.000
REMARK SMILES CCOc1cccc(-c2ccc([C@@H](C)C(=O)OCCOC(=O)c3ccc(-c4c5nc(c(-c6ccccc6)c6ccc([nH]6)c(-c6ccccc6)c6nc(c(-c7ccccc7)c7ccc4[nH]7)C=C6)C=C5)cc3)cc2F)c1
REMARK SMILES IDX 18 1 17 2 15 3 16 4 13 5 14 6 12 7 9 8 10 9 72 10 11 11
REMARK SMILES IDX 71 12 73 13 8 14 4 15 5 16 74 17 6 18 7 19 3 20 2 21 1 22
REMARK SMILES IDX 19 23 20 24 21 25 22 26 23 27 24 28 70 29 25 30 69 31 26 32
REMARK SMILES IDX 27 33 28 34 63 35 29 36 68 37 62 38 64 39 30 40 67 41 61 42
REMARK SMILES IDX 60 43 31 45 53 46 38 47 52 48 39 49 42 50 51 51 65 52 40 53
REMARK SMILES IDX 41 54 50 56 66 57 43 58 32 59 33 60 37 61 34 62 36 63 35 64
REMARK SMILES IDX 54 65 55 66 59 67 56 68 58 69 57 70 44 71 45 72 49 73 46 74
REMARK SMILES IDX 48 75 47 76
REMARK H PARENT 64 44 42 55
REMARK Flexibility Score: inf
ROOT
ATOM      1  C   UNL A   1      45.095  20.451  24.993  1.00  0.00     0.274 C 
ENDROOT
BRANCH   1   2
ATOM      2  O   UNL A   1      43.691  20.208  24.779  1.00  0.00    -0.462 OA
BRANCH   2   3
ATOM      3  C   UNL A   1      43.112  19.253  25.553  1.00  0.00     0.313 C 
ATOM      4  O   UNL A   1      43.222  18.046  25.358  1.00  0.00    -0.252 OA
BRANCH   3   5
ATOM      5  C   UNL A   1      42.249  19.813  26.677  1.00  0.00     0.126 C 
ATOM      6  C   UNL A   1      42.174  18.811  27.827  1.00  0.00     0.025 C 
BRANCH   5   7
ATOM      7  C   UNL A   1      40.881  20.339  26.275  1.00  0.00    -0.031 A 
ATOM      8  C   UNL A   1      38.313  21.274  25.449  1.00  0.00     0.018 A 
ATOM      9  C   UNL A   1      39.243  22.133  26.057  1.00  0.00     0.012 A 
ATOM     10  C   UNL A   1      38.699  19.938  25.278  1.00  0.00     0.131 A 
ATOM     11  C   UNL A   1      40.505  21.676  26.460  1.00  0.00     0.005 A 
ATOM     12  C   UNL A   1      39.953  19.476  25.677  1.00  0.00     0.044 A 
ATOM     13  F   UNL A   1      37.871  19.058  24.695  1.00  0.00    -0.206 F 
BRANCH   8  14
ATOM     14  C   UNL A   1      36.994  21.766  25.005  1.00  0.00    -0.012 A 
ATOM     15  C   UNL A   1      34.560  21.726  25.140  1.00  0.00     0.119 A 
ATOM     16  C   UNL A   1      34.466  22.660  24.114  1.00  0.00     0.046 A 
ATOM     17  C   UNL A   1      35.807  21.269  25.568  1.00  0.00     0.055 A 
ATOM     18  C   UNL A   1      35.629  23.170  23.541  1.00  0.00     0.004 A 
ATOM     19  C   UNL A   1      36.879  22.729  23.986  1.00  0.00     0.009 A 
BRANCH  15  20
ATOM     20  O   UNL A   1      33.408  21.183  25.634  1.00  0.00    -0.494 OA
BRANCH  20  21
ATOM     21  C   UNL A   1      33.299  19.780  25.360  1.00  0.00     0.226 C 
ATOM     22  C   UNL A   1      32.394  19.524  24.166  1.00  0.00     0.049 C 
ENDBRANCH  20  21
ENDBRANCH  15  20
ENDBRANCH   8  14
ENDBRANCH   5   7
ENDBRANCH   3   5
ENDBRANCH   2   3
ENDBRANCH   1   2
BRANCH   1  23
ATOM     23  C   UNL A   1      45.338  21.812  25.649  1.00  0.00     0.275 C 
BRANCH  23  24
ATOM     24  O   UNL A   1      44.155  22.632  25.614  1.00  0.00    -0.458 OA
BRANCH  24  25
ATOM     25  C   UNL A   1      44.372  23.936  25.327  1.00  0.00     0.338 C 
ATOM     26  O   UNL A   1      44.959  24.398  24.366  1.00  0.00    -0.246 OA
BRANCH  25  27
ATOM     27  C   UNL A   1      43.671  24.778  26.307  1.00  0.00     0.060 A 
ATOM     28  C   UNL A   1      43.974  26.140  26.333  1.00  0.00     0.016 A 
ATOM     29  C   UNL A   1      42.797  24.227  27.245  1.00  0.00     0.016 A 
ATOM     30  C   UNL A   1      43.423  26.961  27.312  1.00  0.00     0.010 A 
ATOM     31  C   UNL A   1      42.236  25.053  28.224  1.00  0.00     0.010 A 
ATOM     32  C   UNL A   1      42.558  26.421  28.272  1.00  0.00    -0.014 A 
BRANCH  32  33
ATOM     33  C   UNL A   1      42.037  27.289  29.352  1.00  0.00     0.031 A 
ATOM     34  C   UNL A   1      42.781  27.399  30.653  1.00  0.00     0.074 A 
ATOM     35  C   UNL A   1      40.917  28.007  29.154  1.00  0.00     0.049 A 
ATOM     36  N   UNL A   1      42.467  28.071  31.730  1.00  0.00    -0.248 NA
ATOM     37  C   UNL A   1      44.046  26.654  30.752  1.00  0.00     0.031 C 
ATOM     38  C   UNL A   1      40.131  28.024  27.920  1.00  0.00     0.029 A 
ATOM     39  N   UNL A   1      40.250  28.865  29.989  1.00  0.00    -0.354 N 
ATOM     40  C   UNL A   1      43.482  27.817  32.643  1.00  0.00     0.074 A 
ATOM     41  C   UNL A   1      44.415  26.919  31.999  1.00  0.00     0.031 C 
ATOM     42  C   UNL A   1      39.090  28.859  28.077  1.00  0.00     0.029 A 
ATOM     43  C   UNL A   1      39.115  29.403  29.432  1.00  0.00     0.049 A 
ATOM     44  H   UNL A   1      40.554  29.077  30.901  1.00  0.00     0.167 HD
ATOM     45  C   UNL A   1      43.623  28.291  33.904  1.00  0.00     0.031 A 
ATOM     46  C   UNL A   1      38.189  30.224  29.961  1.00  0.00     0.031 A 
ATOM     47  C   UNL A   1      42.699  29.188  34.544  1.00  0.00     0.049 A 
ATOM     48  C   UNL A   1      38.342  30.690  31.381  1.00  0.00     0.074 A 
ATOM     49  C   UNL A   1      42.763  29.728  35.818  1.00  0.00     0.029 A 
ATOM     50  N   UNL A   1      41.542  29.678  33.960  1.00  0.00    -0.354 N 
ATOM     51  N   UNL A   1      39.304  30.437  32.234  1.00  0.00    -0.248 NA
ATOM     52  C   UNL A   1      37.277  31.556  31.909  1.00  0.00     0.031 C 
ATOM     53  C   UNL A   1      41.622  30.514  36.017  1.00  0.00     0.029 A 
ATOM     54  C   UNL A   1      40.873  30.498  34.852  1.00  0.00     0.049 A 
ATOM     55  H   UNL A   1      41.241  29.473  33.045  1.00  0.00     0.167 HD
ATOM     56  C   UNL A   1      38.970  31.124  33.394  1.00  0.00     0.074 A 
ATOM     57  C   UNL A   1      37.726  31.817  33.129  1.00  0.00     0.031 C 
ATOM     58  C   UNL A   1      39.634  31.175  34.574  1.00  0.00     0.031 A 
BRANCH  45  59
ATOM     59  C   UNL A   1      44.811  27.814  34.687  1.00  0.00    -0.014 A 
ATOM     60  C   UNL A   1      46.021  28.525  34.681  1.00  0.00     0.009 A 
ATOM     61  C   UNL A   1      44.706  26.652  35.468  1.00  0.00     0.009 A 
ATOM     62  C   UNL A   1      47.113  28.063  35.421  1.00  0.00     0.001 A 
ATOM     63  C   UNL A   1      45.792  26.206  36.223  1.00  0.00     0.001 A 
ATOM     64  C   UNL A   1      46.996  26.907  36.193  1.00  0.00     0.000 A 
ENDBRANCH  45  59
BRANCH  46  65
ATOM     65  C   UNL A   1      37.016  30.636  29.150  1.00  0.00    -0.014 A 
ATOM     66  C   UNL A   1      36.014  29.712  28.820  1.00  0.00     0.009 A 
ATOM     67  C   UNL A   1      36.900  31.959  28.694  1.00  0.00     0.009 A 
ATOM     68  C   UNL A   1      34.927  30.101  28.035  1.00  0.00     0.001 A 
ATOM     69  C   UNL A   1      35.799  32.350  27.930  1.00  0.00     0.001 A 
ATOM     70  C   UNL A   1      34.819  31.420  27.595  1.00  0.00     0.000 A 
ENDBRANCH  46  65
BRANCH  58  71
ATOM     71  C   UNL A   1      39.038  32.027  35.656  1.00  0.00    -0.014 A 
ATOM     72  C   UNL A   1      39.302  33.403  35.722  1.00  0.00     0.009 A 
ATOM     73  C   UNL A   1      38.175  31.450  36.601  1.00  0.00     0.009 A 
ATOM     74  C   UNL A   1      38.736  34.181  36.734  1.00  0.00     0.001 A 
ATOM     75  C   UNL A   1      37.593  32.235  37.597  1.00  0.00     0.001 A 
ATOM     76  C   UNL A   1      37.880  33.597  37.668  1.00  0.00     0.000 A 
ENDBRANCH  58  71
ENDBRANCH  32  33
ENDBRANCH  25  27
ENDBRANCH  24  25
ENDBRANCH  23  24
ENDBRANCH   1  23
TORSDOF 15
ENDMDL
MODEL 2
REMARK VINA RESULT:     -10.9      1.021      1.469
REMARK SMILES CCOc1cccc(-c2ccc([C@@H](C)C(=O)OCCOC(=O)c3ccc(-c4c5nc(c(-c6ccccc6)c6ccc([nH]6)c(-c6ccccc6)c6nc(c(-c7ccccc7)c7ccc4[nH]7)C=C6)C=C5)cc3)cc2F)c1
REMARK SMILES IDX 18 1 17 2 15 3 16 4 13 5 14 6 12 7 9 8 10 9 72 10 11 11
REMARK SMILES IDX 71 12 73 13 8 14 4 15 5 16 74 17 6 18 7 19 3 20 2 21 1 22
REMARK SMILES IDX 19 23 20 24 21 25 22 26 23 27 24 28 70 29 25 30 69 31 26 32
REMARK SMILES IDX 27 33 28 34 63 35 29 36 68 37 62 38 64 39 30 40 67 41 61 42
REMARK SMILES IDX 60 43 31 45 53 46 38 47 52 48 39 49 42 50 51 51 65 52 40 53
REMARK SMILES IDX 41 54 50 56 66 57 43 58 32 59 33 60 37 61 34 62 36 63 35 64
REMARK SMILES IDX 54 65 55 66 59 67 56 68 58 69 57 70 44 71 45 72 49 73 46 74
REMARK SMILES IDX 48 75 47 76
REMARK H PARENT 64 44 42 55
REMARK Flexibility Score: inf
ROOT
ATOM      1  C   UNL A   1      43.923  21.239  25.564  1.00  0.00     0.274 C 
ENDROOT
BRANCH   1   2
ATOM      2  O   UNL A   1      42.775  20.405  25.313  1.00  0.00    -0.462 OA
BRANCH   2   3
ATOM      3  C   UNL A   1      41.899  20.247  26.339  1.00  0.00     0.313 C 
ATOM      4  O   UNL A   1      41.743  19.199  26.959  1.00  0.00    -0.252 OA
BRANCH   3   5
ATOM      5  C   UNL A   1      41.064  21.488  26.631  1.00  0.00     0.126 C 
ATOM      6  C   UNL A   1      41.123  21.818  28.121  1.00  0.00     0.025 C 
BRANCH   5   7
ATOM      7  C   UNL A   1      39.643  21.483  26.093  1.00  0.00    -0.031 A 
ATOM      8  C   UNL A   1      36.949  21.525  25.148  1.00  0.00     0.018 A 
ATOM      9  C   UNL A   1      37.753  20.381  25.017  1.00  0.00     0.012 A 
ATOM     10  C   UNL A   1      37.535  22.647  25.752  1.00  0.00     0.131 A 
ATOM     11  C   UNL A   1      39.074  20.357  25.483  1.00  0.00     0.005 A 
ATOM     12  C   UNL A   1      38.849  22.631  26.218  1.00  0.00     0.044 A 
ATOM     13  F   UNL A   1      36.829  23.775  25.925  1.00  0.00    -0.206 F 
BRANCH   8  14
ATOM     14  C   UNL A   1      35.550  21.537  24.677  1.00  0.00    -0.012 A 
ATOM     15  C   UNL A   1      33.347  20.502  24.549  1.00  0.00     0.119 A 
ATOM     16  C   UNL A   1      32.890  21.525  23.725  1.00  0.00     0.046 A 
ATOM     17  C   UNL A   1      34.666  20.497  25.005  1.00  0.00     0.055 A 
ATOM     18  C   UNL A   1      33.748  22.569  23.388  1.00  0.00     0.004 A 
ATOM     19  C   UNL A   1      35.063  22.576  23.863  1.00  0.00     0.009 A 
BRANCH  15  20
ATOM     20  O   UNL A   1      32.513  19.449  24.804  1.00  0.00    -0.494 OA
BRANCH  20  21
ATOM     21  C   UNL A   1      32.491  18.494  23.736  1.00  0.00     0.226 C 
ATOM     22  C   UNL A   1      33.478  17.366  23.990  1.00  0.00     0.049 C 
ENDBRANCH  20  21
ENDBRANCH  15  20
ENDBRANCH   8  14
ENDBRANCH   5   7
ENDBRANCH   3   5
ENDBRANCH   2   3
ENDBRANCH   1   2
BRANCH   1  23
ATOM     23  C   UNL A   1      44.163  22.227  24.420  1.00  0.00     0.275 C 
BRANCH  23  24
ATOM     24  O   UNL A   1      43.478  23.473  24.649  1.00  0.00    -0.458 OA
BRANCH  24  25
ATOM     25  C   UNL A   1      44.268  24.493  25.054  1.00  0.00     0.338 C 
ATOM     26  O   UNL A   1      45.356  24.813  24.609  1.00  0.00    -0.246 OA
BRANCH  25  27
ATOM     27  C   UNL A   1      43.564  25.287  26.072  1.00  0.00     0.060 A 
ATOM     28  C   UNL A   1      43.988  26.600  26.284  1.00  0.00     0.016 A 
ATOM     29  C   UNL A   1      42.565  24.725  26.868  1.00  0.00     0.016 A 
ATOM     30  C   UNL A   1      43.431  27.358  27.309  1.00  0.00     0.010 A 
ATOM     31  C   UNL A   1      41.999  25.490  27.893  1.00  0.00     0.010 A 
ATOM     32  C   UNL A   1      42.440  26.804  28.129  1.00  0.00    -0.014 A 
BRANCH  32  33
ATOM     33  C   UNL A   1      41.908  27.594  29.263  1.00  0.00     0.031 A 
ATOM     34  C   UNL A   1      42.615  27.575  30.588  1.00  0.00     0.074 A 
ATOM     35  C   UNL A   1      40.813  28.357  29.093  1.00  0.00     0.049 A 
ATOM     36  N   UNL A   1      42.285  28.165  31.709  1.00  0.00    -0.248 NA
ATOM     37  C   UNL A   1      43.857  26.790  30.661  1.00  0.00     0.031 C 
ATOM     38  C   UNL A   1      40.066  28.498  27.843  1.00  0.00     0.029 A 
ATOM     39  N   UNL A   1      40.143  29.161  29.979  1.00  0.00    -0.354 N 
ATOM     40  C   UNL A   1      43.265  27.808  32.626  1.00  0.00     0.074 A 
ATOM     41  C   UNL A   1      44.195  26.940  31.935  1.00  0.00     0.031 C 
ATOM     42  C   UNL A   1      39.043  29.345  28.040  1.00  0.00     0.029 A 
ATOM     43  C   UNL A   1      39.040  29.774  29.436  1.00  0.00     0.049 A 
ATOM     44  H   UNL A   1      40.424  29.289  30.913  1.00  0.00     0.167 HD
ATOM     45  C   UNL A   1      43.380  28.172  33.925  1.00  0.00     0.031 A 
ATOM     46  C   UNL A   1      38.119  30.574  30.005  1.00  0.00     0.031 A 
ATOM     47  C   UNL A   1      42.460  29.038  34.612  1.00  0.00     0.049 A 
ATOM     48  C   UNL A   1      38.241  30.917  31.463  1.00  0.00     0.074 A 
ATOM     49  C   UNL A   1      42.498  29.469  35.927  1.00  0.00     0.029 A 
ATOM     50  N   UNL A   1      41.334  29.607  34.038  1.00  0.00    -0.354 N 
ATOM     51  N   UNL A   1      39.170  30.568  32.319  1.00  0.00    -0.248 NA
ATOM     52  C   UNL A   1      37.182  31.765  32.031  1.00  0.00     0.031 C 
ATOM     53  C   UNL A   1      41.372  30.267  36.159  1.00  0.00     0.029 A 
ATOM     54  C   UNL A   1      40.659  30.368  34.976  1.00  0.00     0.049 A 
ATOM     55  H   UNL A   1      41.056  29.487  33.101  1.00  0.00     0.167 HD
ATOM     56  C   UNL A   1      38.818  31.166  33.522  1.00  0.00     0.074 A 
ATOM     57  C   UNL A   1      37.600  31.912  33.281  1.00  0.00     0.031 C 
ATOM     58  C   UNL A   1      39.446  31.100  34.721  1.00  0.00     0.031 A 
BRANCH  45  59
ATOM     59  C   UNL A   1      44.531  27.599  34.699  1.00  0.00    -0.014 A 
ATOM     60  C   UNL A   1      45.751  28.284  34.805  1.00  0.00     0.009 A 
ATOM     61  C   UNL A   1      44.379  26.369  35.359  1.00  0.00     0.009 A 
ATOM     62  C   UNL A   1      46.808  27.733  35.534  1.00  0.00     0.001 A 
ATOM     63  C   UNL A   1      45.430  25.832  36.104  1.00  0.00     0.001 A 
ATOM     64  C   UNL A   1      46.646  26.509  36.184  1.00  0.00     0.000 A 
ENDBRANCH  45  59
BRANCH  46  65
ATOM     65  C   UNL A   1      36.982  31.084  29.198  1.00  0.00    -0.014 A 
ATOM     66  C   UNL A   1      35.914  30.244  28.857  1.00  0.00     0.009 A 
ATOM     67  C   UNL A   1      36.968  32.417  28.759  1.00  0.00     0.009 A 
ATOM     68  C   UNL A   1      34.860  30.724  28.076  1.00  0.00     0.001 A 
ATOM     69  C   UNL A   1      35.901  32.901  28.000  1.00  0.00     0.001 A 
ATOM     70  C   UNL A   1      34.853  32.052  27.652  1.00  0.00     0.000 A 
ENDBRANCH  46  65
BRANCH  58  71
ATOM     71  C   UNL A   1      38.839  31.876  35.852  1.00  0.00    -0.014 A 
ATOM     72  C   UNL A   1      37.952  31.269  36.754  1.00  0.00     0.009 A 
ATOM     73  C   UNL A   1      39.185  33.224  36.037  1.00  0.00     0.009 A 
ATOM     74  C   UNL A   1      37.399  32.005  37.802  1.00  0.00     0.001 A 
ATOM     75  C   UNL A   1      38.648  33.951  37.100  1.00  0.00     0.001 A 
ATOM     76  C   UNL A   1      37.749  33.345  37.977  1.00  0.00     0.000 A 
ENDBRANCH  58  71
ENDBRANCH  32  33
ENDBRANCH  25  27
ENDBRANCH  24  25
ENDBRANCH  23  24
ENDBRANCH   1  23
TORSDOF 15
ENDMDL
MODEL 3
REMARK VINA RESULT:     -10.9      1.086      6.122
REMARK SMILES CCOc1cccc(-c2ccc([C@@H](C)C(=O)OCCOC(=O)c3ccc(-c4c5nc(c(-c6ccccc6)c6ccc([nH]6)c(-c6ccccc6)c6nc(c(-c7ccccc7)c7ccc4[nH]7)C=C6)C=C5)cc3)cc2F)c1
REMARK SMILES IDX 18 1 17 2 15 3 16 4 13 5 14 6 12 7 9 8 10 9 72 10 11 11
REMARK SMILES IDX 71 12 73 13 8 14 4 15 5 16 74 17 6 18 7 19 3 20 2 21 1 22
REMARK SMILES IDX 19 23 20 24 21 25 22 26 23 27 24 28 70 29 25 30 69 31 26 32
REMARK SMILES IDX 27 33 28 34 63 35 29 36 68 37 62 38 64 39 30 40 67 41 61 42
REMARK SMILES IDX 60 43 31 45 53 46 38 47 52 48 39 49 42 50 51 51 65 52 40 53
REMARK SMILES IDX 41 54 50 56 66 57 43 58 32 59 33 60 37 61 34 62 36 63 35 64
REMARK SMILES IDX 54 65 55 66 59 67 56 68 58 69 57 70 44 71 45 72 49 73 46 74
REMARK SMILES IDX 48 75 47 76
REMARK H PARENT 64 44 42 55
REMARK Flexibility Score: inf
ROOT
ATOM      1  C   UNL A   1      43.818  21.579  25.623  1.00  0.00     0.274 C 
ENDROOT
BRANCH   1   2
ATOM      2  O   UNL A   1      42.863  20.554  25.286  1.00  0.00    -0.462 OA
BRANCH   2   3
ATOM      3  C   UNL A   1      41.901  20.289  26.208  1.00  0.00     0.313 C 
ATOM      4  O   UNL A   1      41.677  19.174  26.671  1.00  0.00    -0.252 OA
BRANCH   3   5
ATOM      5  C   UNL A   1      41.065  21.503  26.592  1.00  0.00     0.126 C 
ATOM      6  C   UNL A   1      41.138  21.734  28.100  1.00  0.00     0.025 C 
BRANCH   5   7
ATOM      7  C   UNL A   1      39.638  21.528  26.069  1.00  0.00    -0.031 A 
ATOM      8  C   UNL A   1      36.934  21.625  25.156  1.00  0.00     0.018 A 
ATOM      9  C   UNL A   1      37.721  20.473  24.991  1.00  0.00     0.012 A 
ATOM     10  C   UNL A   1      37.541  22.726  25.776  1.00  0.00     0.131 A 
ATOM     11  C   UNL A   1      39.047  20.423  25.442  1.00  0.00     0.005 A 
ATOM     12  C   UNL A   1      38.860  22.683  26.227  1.00  0.00     0.044 A 
ATOM     13  F   UNL A   1      36.852  23.859  25.980  1.00  0.00    -0.206 F 
BRANCH   8  14
ATOM     14  C   UNL A   1      35.531  21.664  24.700  1.00  0.00    -0.012 A 
ATOM     15  C   UNL A   1      33.270  20.753  24.716  1.00  0.00     0.119 A 
ATOM     16  C   UNL A   1      32.859  21.698  23.782  1.00  0.00     0.046 A 
ATOM     17  C   UNL A   1      34.594  20.723  25.156  1.00  0.00     0.055 A 
ATOM     18  C   UNL A   1      33.770  22.644  23.317  1.00  0.00     0.004 A 
ATOM     19  C   UNL A   1      35.090  22.628  23.775  1.00  0.00     0.009 A 
BRANCH  15  20
ATOM     20  O   UNL A   1      32.382  19.788  25.100  1.00  0.00    -0.494 OA
BRANCH  20  21
ATOM     21  C   UNL A   1      32.562  18.558  24.388  1.00  0.00     0.226 C 
ATOM     22  C   UNL A   1      32.754  17.393  25.345  1.00  0.00     0.049 C 
ENDBRANCH  20  21
ENDBRANCH  15  20
ENDBRANCH   8  14
ENDBRANCH   5   7
ENDBRANCH   3   5
ENDBRANCH   2   3
ENDBRANCH   1   2
BRANCH   1  23
ATOM     23  C   UNL A   1      44.061  22.531  24.449  1.00  0.00     0.275 C 
BRANCH  23  24
ATOM     24  O   UNL A   1      43.367  23.780  24.632  1.00  0.00    -0.458 OA
BRANCH  24  25
ATOM     25  C   UNL A   1      44.137  24.801  25.071  1.00  0.00     0.338 C 
ATOM     26  O   UNL A   1      45.209  25.170  24.625  1.00  0.00    -0.246 OA
BRANCH  25  27
ATOM     27  C   UNL A   1      43.429  25.529  26.135  1.00  0.00     0.060 A 
ATOM     28  C   UNL A   1      43.913  26.786  26.499  1.00  0.00     0.016 A 
ATOM     29  C   UNL A   1      42.364  24.949  26.825  1.00  0.00     0.016 A 
ATOM     30  C   UNL A   1      43.349  27.468  27.573  1.00  0.00     0.010 A 
ATOM     31  C   UNL A   1      41.792  25.638  27.900  1.00  0.00     0.010 A 
ATOM     32  C   UNL A   1      42.291  26.894  28.288  1.00  0.00    -0.014 A 
BRANCH  32  33
ATOM     33  C   UNL A   1      41.749  27.595  29.474  1.00  0.00     0.031 A 
ATOM     34  C   UNL A   1      40.464  28.366  29.369  1.00  0.00     0.074 A 
ATOM     35  C   UNL A   1      42.390  27.512  30.654  1.00  0.00     0.049 A 
ATOM     36  N   UNL A   1      39.851  29.078  30.279  1.00  0.00    -0.248 NA
ATOM     37  C   UNL A   1      39.779  28.329  28.067  1.00  0.00     0.031 C 
ATOM     38  C   UNL A   1      43.619  26.756  30.897  1.00  0.00     0.029 A 
ATOM     39  N   UNL A   1      42.090  28.066  31.872  1.00  0.00    -0.354 N 
ATOM     40  C   UNL A   1      38.719  29.590  29.658  1.00  0.00     0.074 A 
ATOM     41  C   UNL A   1      38.736  29.118  28.290  1.00  0.00     0.031 C 
ATOM     42  C   UNL A   1      43.964  26.889  32.189  1.00  0.00     0.029 A 
ATOM     43  C   UNL A   1      43.006  27.768  32.851  1.00  0.00     0.049 A 
ATOM     44  H   UNL A   1      41.294  28.624  32.030  1.00  0.00     0.167 HD
ATOM     45  C   UNL A   1      37.751  30.380  30.182  1.00  0.00     0.031 A 
ATOM     46  C   UNL A   1      43.075  28.175  34.132  1.00  0.00     0.031 A 
ATOM     47  C   UNL A   1      37.729  30.846  31.542  1.00  0.00     0.049 A 
ATOM     48  C   UNL A   1      42.018  29.097  34.671  1.00  0.00     0.074 A 
ATOM     49  C   UNL A   1      36.786  31.646  32.165  1.00  0.00     0.029 A 
ATOM     50  N   UNL A   1      38.695  30.554  32.491  1.00  0.00    -0.354 N 
ATOM     51  N   UNL A   1      40.956  29.577  34.071  1.00  0.00    -0.248 NA
ATOM     52  C   UNL A   1      42.173  29.532  36.067  1.00  0.00     0.031 C 
ATOM     53  C   UNL A   1      37.203  31.869  33.482  1.00  0.00     0.029 A 
ATOM     54  C   UNL A   1      38.382  31.173  33.690  1.00  0.00     0.049 A 
ATOM     55  H   UNL A   1      39.487  29.989  32.336  1.00  0.00     0.167 HD
ATOM     56  C   UNL A   1      40.308  30.358  35.019  1.00  0.00     0.074 A 
ATOM     57  C   UNL A   1      41.087  30.273  36.238  1.00  0.00     0.031 C 
ATOM     58  C   UNL A   1      39.170  31.083  34.890  1.00  0.00     0.031 A 
BRANCH  45  59
ATOM     59  C   UNL A   1      36.652  30.821  29.260  1.00  0.00    -0.014 A 
ATOM     60  C   UNL A   1      36.523  32.163  28.870  1.00  0.00     0.009 A 
ATOM     61  C   UNL A   1      35.752  29.873  28.750  1.00  0.00     0.009 A 
ATOM     62  C   UNL A   1      35.494  32.551  28.008  1.00  0.00     0.001 A 
ATOM     63  C   UNL A   1      34.738  30.260  27.873  1.00  0.00     0.001 A 
ATOM     64  C   UNL A   1      34.605  31.599  27.508  1.00  0.00     0.000 A 
ENDBRANCH  45  59
BRANCH  46  65
ATOM     65  C   UNL A   1      44.205  27.734  34.988  1.00  0.00    -0.014 A 
ATOM     66  C   UNL A   1      45.382  28.491  35.064  1.00  0.00     0.009 A 
ATOM     67  C   UNL A   1      44.111  26.545  35.728  1.00  0.00     0.009 A 
ATOM     68  C   UNL A   1      46.451  28.057  35.851  1.00  0.00     0.001 A 
ATOM     69  C   UNL A   1      45.171  26.126  36.533  1.00  0.00     0.001 A 
ATOM     70  C   UNL A   1      46.342  26.878  36.588  1.00  0.00     0.000 A 
ENDBRANCH  46  65
BRANCH  58  71
ATOM     71  C   UNL A   1      38.690  31.819  36.106  1.00  0.00    -0.014 A 
ATOM     72  C   UNL A   1      37.811  31.215  37.018  1.00  0.00     0.009 A 
ATOM     73  C   UNL A   1      39.148  33.121  36.358  1.00  0.00     0.009 A 
ATOM     74  C   UNL A   1      37.377  31.914  38.146  1.00  0.00     0.001 A 
ATOM     75  C   UNL A   1      38.729  33.809  37.498  1.00  0.00     0.001 A 
ATOM     76  C   UNL A   1      37.838  33.208  38.387  1.00  0.00     0.000 A 
ENDBRANCH  58  71
ENDBRANCH  32  33
ENDBRANCH  25  27
ENDBRANCH  24  25
ENDBRANCH  23  24
ENDBRANCH   1  23
TORSDOF 15
ENDMDL
