MODEL 1
REMARK VINA RESULT:      -9.8      0.000      0.000
REMARK SMILES CCN(c1ncc([N+](=O)[O-])cc1Br)[C@@H](C)CC(=O)OCCOC(=O)c1ccc(-c2c3nc(c(-c4ccccc4)c4ccc([nH]4)c(-c4ccccc4)c4nc(c(-c5ccccc5)c5ccc2[nH]5)C=C4)C=C3)cc1
REMARK SMILES IDX 20 1 19 2 17 3 18 4 16 5 14 6 15 7 3 8 2 9 1 10 4 11 5 12
REMARK SMILES IDX 12 13 6 14 11 15 13 16 7 17 8 18 9 19 10 20 21 21 22 22
REMARK SMILES IDX 23 23 24 24 25 25 26 26 72 27 27 28 71 29 28 30 29 31 30 32
REMARK SMILES IDX 65 33 31 34 70 35 64 36 66 37 32 38 69 39 63 40 62 41 33 43
REMARK SMILES IDX 55 44 40 45 54 46 41 47 44 48 53 49 67 50 42 51 43 52 52 54
REMARK SMILES IDX 68 55 45 56 34 57 35 58 39 59 36 60 38 61 37 62 56 63 57 64
REMARK SMILES IDX 61 65 58 66 60 67 59 68 46 69 47 70 51 71 48 72 50 73 49 74
REMARK H PARENT 66 42 44 53
REMARK Flexibility Score: inf
ROOT
ATOM      1  C   UNL A   1      31.767  30.704  26.387  1.00  0.00     0.274 C 
ENDROOT
BRANCH   1   2
ATOM      2  O   UNL A   1      32.480  29.788  27.235  1.00  0.00    -0.462 OA
BRANCH   2   3
ATOM      3  C   UNL A   1      32.040  28.517  27.310  1.00  0.00     0.307 C 
ATOM      4  O   UNL A   1      31.076  28.154  27.977  1.00  0.00    -0.252 OA
BRANCH   3   5
ATOM      5  C   UNL A   1      32.845  27.530  26.495  1.00  0.00     0.147 C 
BRANCH   5   6
ATOM      6  C   UNL A   1      32.114  26.348  25.856  1.00  0.00     0.091 C 
ATOM      7  C   UNL A   1      32.744  25.036  26.354  1.00  0.00     0.031 C 
BRANCH   6   8
ATOM      8  N   UNL A   1      32.079  26.326  24.377  1.00  0.00    -0.353 N 
BRANCH   8   9
ATOM      9  C   UNL A   1      32.802  25.354  23.556  1.00  0.00     0.115 C 
ATOM     10  C   UNL A   1      32.215  25.149  22.166  1.00  0.00     0.027 C 
ENDBRANCH   8   9
BRANCH   8  11
ATOM     11  C   UNL A   1      31.179  27.217  23.798  1.00  0.00     0.143 A 
ATOM     12  N   UNL A   1      29.878  26.828  23.826  1.00  0.00    -0.231 NA
ATOM     13  C   UNL A   1      31.514  28.439  23.182  1.00  0.00     0.067 A 
ATOM     14  C   UNL A   1      28.910  27.626  23.316  1.00  0.00     0.199 A 
ATOM     15  C   UNL A   1      30.502  29.280  22.694  1.00  0.00     0.107 A 
ATOM     16  Br  UNL A   1      33.294  28.992  22.782  1.00  0.00    -0.047 Br
ATOM     17  C   UNL A   1      29.177  28.862  22.775  1.00  0.00     0.288 A 
BRANCH  17  18
ATOM     18  N   UNL A   1      28.088  29.694  22.288  1.00  0.00     0.064 N 
ATOM     19  O   UNL A   1      27.222  30.047  23.099  1.00  0.00    -0.258 OA
ATOM     20  O   UNL A   1      28.104  30.012  21.090  1.00  0.00    -0.258 OA
ENDBRANCH  17  18
ENDBRANCH   8  11
ENDBRANCH   6   8
ENDBRANCH   5   6
ENDBRANCH   3   5
ENDBRANCH   2   3
ENDBRANCH   1   2
BRANCH   1  21
ATOM     21  C   UNL A   1      31.525  32.021  27.119  1.00  0.00     0.275 C 
BRANCH  21  22
ATOM     22  O   UNL A   1      32.631  32.907  26.886  1.00  0.00    -0.458 OA
BRANCH  22  23
ATOM     23  C   UNL A   1      33.024  33.653  27.941  1.00  0.00     0.338 C 
ATOM     24  O   UNL A   1      32.463  34.605  28.452  1.00  0.00    -0.246 OA
BRANCH  23  25
ATOM     25  C   UNL A   1      34.313  33.132  28.410  1.00  0.00     0.060 A 
ATOM     26  C   UNL A   1      34.342  32.180  29.430  1.00  0.00     0.016 A 
ATOM     27  C   UNL A   1      35.494  33.645  27.876  1.00  0.00     0.016 A 
ATOM     28  C   UNL A   1      35.561  31.755  29.948  1.00  0.00     0.010 A 
ATOM     29  C   UNL A   1      36.717  33.185  28.365  1.00  0.00     0.010 A 
ATOM     30  C   UNL A   1      36.759  32.253  29.418  1.00  0.00    -0.014 A 
BRANCH  30  31
ATOM     31  C   UNL A   1      38.062  31.834  29.983  1.00  0.00     0.031 A 
ATOM     32  C   UNL A   1      38.742  30.606  29.455  1.00  0.00     0.074 A 
ATOM     33  C   UNL A   1      38.623  32.545  30.978  1.00  0.00     0.049 A 
ATOM     34  N   UNL A   1      39.802  29.987  29.908  1.00  0.00    -0.248 NA
ATOM     35  C   UNL A   1      38.145  29.986  28.262  1.00  0.00     0.031 C 
ATOM     36  C   UNL A   1      38.080  33.778  31.549  1.00  0.00     0.029 A 
ATOM     37  N   UNL A   1      39.773  32.322  31.691  1.00  0.00    -0.354 N 
ATOM     38  C   UNL A   1      39.977  28.885  29.081  1.00  0.00     0.074 A 
ATOM     39  C   UNL A   1      38.910  28.915  28.103  1.00  0.00     0.031 C 
ATOM     40  C   UNL A   1      38.899  34.206  32.523  1.00  0.00     0.029 A 
ATOM     41  C   UNL A   1      39.988  33.248  32.681  1.00  0.00     0.049 A 
ATOM     42  H   UNL A   1      40.385  31.572  31.510  1.00  0.00     0.167 HD
ATOM     43  C   UNL A   1      40.937  27.932  29.136  1.00  0.00     0.031 A 
ATOM     44  C   UNL A   1      40.935  33.300  33.635  1.00  0.00     0.031 A 
ATOM     45  C   UNL A   1      41.997  27.908  30.108  1.00  0.00     0.049 A 
ATOM     46  C   UNL A   1      41.968  32.211  33.703  1.00  0.00     0.074 A 
ATOM     47  C   UNL A   1      43.020  26.987  30.250  1.00  0.00     0.029 A 
ATOM     48  N   UNL A   1      42.172  28.858  31.103  1.00  0.00    -0.354 N 
ATOM     49  N   UNL A   1      42.105  31.158  32.935  1.00  0.00    -0.248 NA
ATOM     50  C   UNL A   1      42.968  32.316  34.775  1.00  0.00     0.031 C 
ATOM     51  C   UNL A   1      43.795  27.362  31.355  1.00  0.00     0.029 A 
ATOM     52  C   UNL A   1      43.277  28.539  31.873  1.00  0.00     0.049 A 
ATOM     53  H   UNL A   1      41.594  29.644  31.242  1.00  0.00     0.167 HD
ATOM     54  C   UNL A   1      43.210  30.475  33.423  1.00  0.00     0.074 A 
ATOM     55  C   UNL A   1      43.717  31.246  34.542  1.00  0.00     0.031 C 
ATOM     56  C   UNL A   1      43.755  29.314  32.988  1.00  0.00     0.031 A 
BRANCH  43  57
ATOM     57  C   UNL A   1      40.848  26.814  28.137  1.00  0.00    -0.014 A 
ATOM     58  C   UNL A   1      41.476  26.899  26.886  1.00  0.00     0.009 A 
ATOM     59  C   UNL A   1      40.119  25.656  28.455  1.00  0.00     0.009 A 
ATOM     60  C   UNL A   1      41.347  25.862  25.959  1.00  0.00     0.001 A 
ATOM     61  C   UNL A   1      40.011  24.612  27.535  1.00  0.00     0.001 A 
ATOM     62  C   UNL A   1      40.616  24.720  26.284  1.00  0.00     0.000 A 
ENDBRANCH  43  57
BRANCH  44  63
ATOM     63  C   UNL A   1      40.917  34.406  34.625  1.00  0.00    -0.014 A 
ATOM     64  C   UNL A   1      40.226  34.270  35.836  1.00  0.00     0.009 A 
ATOM     65  C   UNL A   1      41.627  35.592  34.374  1.00  0.00     0.009 A 
ATOM     66  C   UNL A   1      40.241  35.303  36.776  1.00  0.00     0.001 A 
ATOM     67  C   UNL A   1      41.660  36.612  35.325  1.00  0.00     0.001 A 
ATOM     68  C   UNL A   1      40.964  36.470  36.523  1.00  0.00     0.000 A 
ENDBRANCH  44  63
BRANCH  56  69
ATOM     69  C   UNL A   1      44.969  28.819  33.718  1.00  0.00    -0.014 A 
ATOM     70  C   UNL A   1      46.256  29.235  33.345  1.00  0.00     0.009 A 
ATOM     71  C   UNL A   1      44.819  27.951  34.810  1.00  0.00     0.009 A 
ATOM     72  C   UNL A   1      47.375  28.766  34.036  1.00  0.00     0.001 A 
ATOM     73  C   UNL A   1      45.939  27.501  35.512  1.00  0.00     0.001 A 
ATOM     74  C   UNL A   1      47.215  27.903  35.119  1.00  0.00     0.000 A 
ENDBRANCH  56  69
ENDBRANCH  30  31
ENDBRANCH  23  25
ENDBRANCH  22  23
ENDBRANCH  21  22
ENDBRANCH   1  21
TORSDOF 16
ENDMDL
MODEL 2
REMARK VINA RESULT:      -9.5      1.082      6.161
REMARK SMILES CCN(c1ncc([N+](=O)[O-])cc1Br)[C@@H](C)CC(=O)OCCOC(=O)c1ccc(-c2c3nc(c(-c4ccccc4)c4ccc([nH]4)c(-c4ccccc4)c4nc(c(-c5ccccc5)c5ccc2[nH]5)C=C4)C=C3)cc1
REMARK SMILES IDX 20 1 19 2 17 3 18 4 16 5 14 6 15 7 3 8 2 9 1 10 4 11 5 12
REMARK SMILES IDX 12 13 6 14 11 15 13 16 7 17 8 18 9 19 10 20 21 21 22 22
REMARK SMILES IDX 23 23 24 24 25 25 26 26 72 27 27 28 71 29 28 30 29 31 30 32
REMARK SMILES IDX 65 33 31 34 70 35 64 36 66 37 32 38 69 39 63 40 62 41 33 43
REMARK SMILES IDX 55 44 40 45 54 46 41 47 44 48 53 49 67 50 42 51 43 52 52 54
REMARK SMILES IDX 68 55 45 56 34 57 35 58 39 59 36 60 38 61 37 62 56 63 57 64
REMARK SMILES IDX 61 65 58 66 60 67 59 68 46 69 47 70 51 71 48 72 50 73 49 74
REMARK H PARENT 66 42 44 53
REMARK Flexibility Score: inf
ROOT
ATOM      1  C   UNL A   1      32.141  31.605  27.154  1.00  0.00     0.274 C 
ENDROOT
BRANCH   1   2
ATOM      2  O   UNL A   1      33.112  30.621  26.756  1.00  0.00    -0.462 OA
BRANCH   2   3
ATOM      3  C   UNL A   1      32.757  29.323  26.802  1.00  0.00     0.307 C 
ATOM      4  O   UNL A   1      31.809  28.883  27.445  1.00  0.00    -0.252 OA
BRANCH   3   5
ATOM      5  C   UNL A   1      33.640  28.406  25.985  1.00  0.00     0.147 C 
BRANCH   5   6
ATOM      6  C   UNL A   1      33.016  27.154  25.368  1.00  0.00     0.091 C 
ATOM      7  C   UNL A   1      33.922  25.945  25.655  1.00  0.00     0.031 C 
BRANCH   6   8
ATOM      8  N   UNL A   1      32.742  27.209  23.916  1.00  0.00    -0.353 N 
BRANCH   8   9
ATOM      9  C   UNL A   1      33.595  26.591  22.899  1.00  0.00     0.115 C 
ATOM     10  C   UNL A   1      32.833  25.840  21.816  1.00  0.00     0.027 C 
ENDBRANCH   8   9
BRANCH   8  11
ATOM     11  C   UNL A   1      31.518  27.774  23.570  1.00  0.00     0.143 A 
ATOM     12  N   UNL A   1      31.590  28.990  22.968  1.00  0.00    -0.231 NA
ATOM     13  C   UNL A   1      30.252  27.207  23.815  1.00  0.00     0.067 A 
ATOM     14  C   UNL A   1      30.465  29.625  22.562  1.00  0.00     0.199 A 
ATOM     15  C   UNL A   1      29.092  27.850  23.353  1.00  0.00     0.107 A 
ATOM     16  Br  UNL A   1      29.951  25.674  24.908  1.00  0.00    -0.047 Br
ATOM     17  C   UNL A   1      29.211  29.077  22.707  1.00  0.00     0.288 A 
BRANCH  17  18
ATOM     18  N   UNL A   1      28.045  29.786  22.206  1.00  0.00     0.064 N 
ATOM     19  O   UNL A   1      27.147  30.067  23.011  1.00  0.00    -0.258 OA
ATOM     20  O   UNL A   1      28.028  30.080  21.002  1.00  0.00    -0.258 OA
ENDBRANCH  17  18
ENDBRANCH   8  11
ENDBRANCH   6   8
ENDBRANCH   5   6
ENDBRANCH   3   5
ENDBRANCH   2   3
ENDBRANCH   1   2
BRANCH   1  21
ATOM     21  C   UNL A   1      32.721  33.008  27.004  1.00  0.00     0.275 C 
BRANCH  21  22
ATOM     22  O   UNL A   1      32.194  33.854  28.039  1.00  0.00    -0.458 OA
BRANCH  22  23
ATOM     23  C   UNL A   1      33.071  34.707  28.610  1.00  0.00     0.338 C 
ATOM     24  O   UNL A   1      32.987  35.915  28.736  1.00  0.00    -0.246 OA
BRANCH  23  25
ATOM     25  C   UNL A   1      34.223  33.927  29.077  1.00  0.00     0.060 A 
ATOM     26  C   UNL A   1      34.053  32.991  30.098  1.00  0.00     0.016 A 
ATOM     27  C   UNL A   1      35.484  34.180  28.542  1.00  0.00     0.016 A 
ATOM     28  C   UNL A   1      35.157  32.320  30.615  1.00  0.00     0.010 A 
ATOM     29  C   UNL A   1      36.585  33.474  29.029  1.00  0.00     0.010 A 
ATOM     30  C   UNL A   1      36.432  32.555  30.082  1.00  0.00    -0.014 A 
BRANCH  30  31
ATOM     31  C   UNL A   1      37.618  31.872  30.646  1.00  0.00     0.031 A 
ATOM     32  C   UNL A   1      38.321  32.458  31.835  1.00  0.00     0.074 A 
ATOM     33  C   UNL A   1      38.072  30.738  30.081  1.00  0.00     0.049 A 
ATOM     34  N   UNL A   1      39.454  32.104  32.384  1.00  0.00    -0.248 NA
ATOM     35  C   UNL A   1      37.664  33.601  32.488  1.00  0.00     0.031 C 
ATOM     36  C   UNL A   1      37.454  30.048  28.948  1.00  0.00     0.029 A 
ATOM     37  N   UNL A   1      39.170  29.972  30.382  1.00  0.00    -0.354 N 
ATOM     38  C   UNL A   1      39.666  33.002  33.422  1.00  0.00     0.074 A 
ATOM     39  C   UNL A   1      38.548  33.922  33.421  1.00  0.00     0.031 C 
ATOM     40  C   UNL A   1      38.180  28.959  28.651  1.00  0.00     0.029 A 
ATOM     41  C   UNL A   1      39.341  28.908  29.532  1.00  0.00     0.049 A 
ATOM     42  H   UNL A   1      39.776  30.167  31.133  1.00  0.00     0.167 HD
ATOM     43  C   UNL A   1      40.700  33.057  34.293  1.00  0.00     0.031 A 
ATOM     44  C   UNL A   1      40.341  28.012  29.448  1.00  0.00     0.031 A 
ATOM     45  C   UNL A   1      41.807  32.139  34.292  1.00  0.00     0.049 A 
ATOM     46  C   UNL A   1      41.500  28.115  30.398  1.00  0.00     0.074 A 
ATOM     47  C   UNL A   1      42.907  32.107  35.131  1.00  0.00     0.029 A 
ATOM     48  N   UNL A   1      41.950  31.081  33.406  1.00  0.00    -0.354 N 
ATOM     49  N   UNL A   1      41.704  28.986  31.356  1.00  0.00    -0.248 NA
ATOM     50  C   UNL A   1      42.567  27.116  30.249  1.00  0.00     0.031 C 
ATOM     51  C   UNL A   1      43.733  31.050  34.730  1.00  0.00     0.029 A 
ATOM     52  C   UNL A   1      43.125  30.399  33.668  1.00  0.00     0.049 A 
ATOM     53  H   UNL A   1      41.308  30.850  32.695  1.00  0.00     0.167 HD
ATOM     54  C   UNL A   1      42.919  28.640  31.930  1.00  0.00     0.074 A 
ATOM     55  C   UNL A   1      43.395  27.467  31.225  1.00  0.00     0.031 C 
ATOM     56  C   UNL A   1      43.584  29.241  32.946  1.00  0.00     0.031 A 
BRANCH  43  57
ATOM     57  C   UNL A   1      40.697  34.182  35.288  1.00  0.00    -0.014 A 
ATOM     58  C   UNL A   1      40.087  34.045  36.544  1.00  0.00     0.009 A 
ATOM     59  C   UNL A   1      41.313  35.401  34.961  1.00  0.00     0.009 A 
ATOM     60  C   UNL A   1      40.063  35.119  37.438  1.00  0.00     0.001 A 
ATOM     61  C   UNL A   1      41.308  36.464  35.866  1.00  0.00     0.001 A 
ATOM     62  C   UNL A   1      40.673  36.325  37.099  1.00  0.00     0.000 A 
ENDBRANCH  43  57
BRANCH  44  63
ATOM     63  C   UNL A   1      40.300  26.966  28.395  1.00  0.00    -0.014 A 
ATOM     64  C   UNL A   1      39.654  25.745  28.627  1.00  0.00     0.009 A 
ATOM     65  C   UNL A   1      40.876  27.205  27.137  1.00  0.00     0.009 A 
ATOM     66  C   UNL A   1      39.591  24.778  27.620  1.00  0.00     0.001 A 
ATOM     67  C   UNL A   1      40.791  26.247  26.126  1.00  0.00     0.001 A 
ATOM     68  C   UNL A   1      40.152  25.034  26.369  1.00  0.00     0.000 A 
ENDBRANCH  44  63
BRANCH  56  69
ATOM     69  C   UNL A   1      44.888  28.626  33.360  1.00  0.00    -0.014 A 
ATOM     70  C   UNL A   1      44.933  27.608  34.324  1.00  0.00     0.009 A 
ATOM     71  C   UNL A   1      46.081  29.051  32.756  1.00  0.00     0.009 A 
ATOM     72  C   UNL A   1      46.155  27.045  34.697  1.00  0.00     0.001 A 
ATOM     73  C   UNL A   1      47.299  28.472  33.116  1.00  0.00     0.001 A 
ATOM     74  C   UNL A   1      47.335  27.475  34.091  1.00  0.00     0.000 A 
ENDBRANCH  56  69
ENDBRANCH  30  31
ENDBRANCH  23  25
ENDBRANCH  22  23
ENDBRANCH  21  22
ENDBRANCH   1  21
TORSDOF 16
ENDMDL
MODEL 3
REMARK VINA RESULT:      -9.4      4.929      9.172
REMARK SMILES CCN(c1ncc([N+](=O)[O-])cc1Br)[C@@H](C)CC(=O)OCCOC(=O)c1ccc(-c2c3nc(c(-c4ccccc4)c4ccc([nH]4)c(-c4ccccc4)c4nc(c(-c5ccccc5)c5ccc2[nH]5)C=C4)C=C3)cc1
REMARK SMILES IDX 20 1 19 2 17 3 18 4 16 5 14 6 15 7 3 8 2 9 1 10 4 11 5 12
REMARK SMILES IDX 12 13 6 14 11 15 13 16 7 17 8 18 9 19 10 20 21 21 22 22
REMARK SMILES IDX 23 23 24 24 25 25 26 26 72 27 27 28 71 29 28 30 29 31 30 32
REMARK SMILES IDX 65 33 31 34 70 35 64 36 66 37 32 38 69 39 63 40 62 41 33 43
REMARK SMILES IDX 55 44 40 45 54 46 41 47 44 48 53 49 67 50 42 51 43 52 52 54
REMARK SMILES IDX 68 55 45 56 34 57 35 58 39 59 36 60 38 61 37 62 56 63 57 64
REMARK SMILES IDX 61 65 58 66 60 67 59 68 46 69 47 70 51 71 48 72 50 73 49 74
REMARK H PARENT 66 42 44 53
REMARK Flexibility Score: inf
ROOT
ATOM      1  C   UNL A   1      37.862  21.546  25.124  1.00  0.00     0.274 C 
ENDROOT
BRANCH   1   2
ATOM      2  O   UNL A   1      37.649  22.925  24.781  1.00  0.00    -0.462 OA
BRANCH   2   3
ATOM      3  C   UNL A   1      36.622  23.225  23.962  1.00  0.00     0.307 C 
ATOM      4  O   UNL A   1      36.584  22.952  22.766  1.00  0.00    -0.252 OA
BRANCH   3   5
ATOM      5  C   UNL A   1      35.481  23.955  24.635  1.00  0.00     0.147 C 
BRANCH   5   6
ATOM      6  C   UNL A   1      34.160  24.096  23.878  1.00  0.00     0.091 C 
ATOM      7  C   UNL A   1      33.912  25.582  23.567  1.00  0.00     0.031 C 
BRANCH   6   8
ATOM      8  N   UNL A   1      32.962  23.545  24.547  1.00  0.00    -0.353 N 
BRANCH   8   9
ATOM      9  C   UNL A   1      31.809  24.349  24.954  1.00  0.00     0.115 C 
ATOM     10  C   UNL A   1      31.873  24.855  26.388  1.00  0.00     0.027 C 
ENDBRANCH   8   9
BRANCH   8  11
ATOM     11  C   UNL A   1      32.930  22.156  24.643  1.00  0.00     0.143 A 
ATOM     12  N   UNL A   1      32.392  21.513  23.574  1.00  0.00    -0.231 NA
ATOM     13  C   UNL A   1      33.374  21.397  25.743  1.00  0.00     0.067 A 
ATOM     14  C   UNL A   1      32.331  20.161  23.542  1.00  0.00     0.199 A 
ATOM     15  C   UNL A   1      33.348  19.995  25.686  1.00  0.00     0.107 A 
ATOM     16  Br  UNL A   1      33.866  22.133  27.432  1.00  0.00    -0.047 Br
ATOM     17  C   UNL A   1      32.824  19.373  24.557  1.00  0.00     0.288 A 
BRANCH  17  18
ATOM     18  N   UNL A   1      32.774  17.924  24.443  1.00  0.00     0.064 N 
ATOM     19  O   UNL A   1      31.912  17.321  25.095  1.00  0.00    -0.258 OA
ATOM     20  O   UNL A   1      33.592  17.383  23.686  1.00  0.00    -0.258 OA
ENDBRANCH  17  18
ENDBRANCH   8  11
ENDBRANCH   6   8
ENDBRANCH   5   6
ENDBRANCH   3   5
ENDBRANCH   2   3
ENDBRANCH   1   2
BRANCH   1  21
ATOM     21  C   UNL A   1      39.112  21.404  25.987  1.00  0.00     0.275 C 
BRANCH  21  22
ATOM     22  O   UNL A   1      39.641  20.075  25.846  1.00  0.00    -0.458 OA
BRANCH  22  23
ATOM     23  C   UNL A   1      40.982  19.958  25.949  1.00  0.00     0.338 C 
ATOM     24  O   UNL A   1      41.691  19.021  25.631  1.00  0.00    -0.246 OA
BRANCH  23  25
ATOM     25  C   UNL A   1      41.500  21.193  26.549  1.00  0.00     0.060 A 
ATOM     26  C   UNL A   1      41.478  21.348  27.935  1.00  0.00     0.016 A 
ATOM     27  C   UNL A   1      41.943  22.222  25.721  1.00  0.00     0.016 A 
ATOM     28  C   UNL A   1      41.874  22.554  28.505  1.00  0.00     0.010 A 
ATOM     29  C   UNL A   1      42.382  23.416  26.295  1.00  0.00     0.010 A 
ATOM     30  C   UNL A   1      42.331  23.597  27.689  1.00  0.00    -0.014 A 
BRANCH  30  31
ATOM     31  C   UNL A   1      42.723  24.897  28.281  1.00  0.00     0.031 A 
ATOM     32  C   UNL A   1      41.682  25.948  28.526  1.00  0.00     0.074 A 
ATOM     33  C   UNL A   1      44.012  25.137  28.581  1.00  0.00     0.049 A 
ATOM     34  N   UNL A   1      41.834  27.195  28.891  1.00  0.00    -0.248 NA
ATOM     35  C   UNL A   1      40.281  25.544  28.325  1.00  0.00     0.031 C 
ATOM     36  C   UNL A   1      45.112  24.182  28.426  1.00  0.00     0.029 A 
ATOM     37  N   UNL A   1      44.616  26.267  29.071  1.00  0.00    -0.354 N 
ATOM     38  C   UNL A   1      40.555  27.735  28.928  1.00  0.00     0.074 A 
ATOM     39  C   UNL A   1      39.639  26.683  28.540  1.00  0.00     0.031 C 
ATOM     40  C   UNL A   1      46.255  24.766  28.817  1.00  0.00     0.029 A 
ATOM     41  C   UNL A   1      45.978  26.148  29.192  1.00  0.00     0.049 A 
ATOM     42  H   UNL A   1      44.121  27.083  29.311  1.00  0.00     0.167 HD
ATOM     43  C   UNL A   1      40.180  28.995  29.250  1.00  0.00     0.031 A 
ATOM     44  C   UNL A   1      46.906  27.061  29.532  1.00  0.00     0.031 A 
ATOM     45  C   UNL A   1      41.093  30.036  29.638  1.00  0.00     0.049 A 
ATOM     46  C   UNL A   1      46.472  28.464  29.847  1.00  0.00     0.074 A 
ATOM     47  C   UNL A   1      40.816  31.347  29.985  1.00  0.00     0.029 A 
ATOM     48  N   UNL A   1      42.468  29.879  29.736  1.00  0.00    -0.354 N 
ATOM     49  N   UNL A   1      45.264  28.972  29.849  1.00  0.00    -0.248 NA
ATOM     50  C   UNL A   1      47.532  29.420  30.199  1.00  0.00     0.031 C 
ATOM     51  C   UNL A   1      42.028  31.992  30.259  1.00  0.00     0.029 A 
ATOM     52  C   UNL A   1      43.055  31.070  30.124  1.00  0.00     0.049 A 
ATOM     53  H   UNL A   1      42.955  29.041  29.557  1.00  0.00     0.167 HD
ATOM     54  C   UNL A   1      45.413  30.304  30.207  1.00  0.00     0.074 A 
ATOM     55  C   UNL A   1      46.828  30.520  30.434  1.00  0.00     0.031 C 
ATOM     56  C   UNL A   1      44.466  31.264  30.333  1.00  0.00     0.031 A 
BRANCH  43  57
ATOM     57  C   UNL A   1      38.717  29.320  29.148  1.00  0.00    -0.014 A 
ATOM     58  C   UNL A   1      37.867  29.223  30.261  1.00  0.00     0.009 A 
ATOM     59  C   UNL A   1      38.181  29.727  27.916  1.00  0.00     0.009 A 
ATOM     60  C   UNL A   1      36.503  29.493  30.132  1.00  0.00     0.001 A 
ATOM     61  C   UNL A   1      36.820  30.019  27.797  1.00  0.00     0.001 A 
ATOM     62  C   UNL A   1      35.981  29.891  28.903  1.00  0.00     0.000 A 
ENDBRANCH  43  57
BRANCH  44  63
ATOM     63  C   UNL A   1      48.339  26.677  29.549  1.00  0.00    -0.014 A 
ATOM     64  C   UNL A   1      48.910  26.100  30.692  1.00  0.00     0.009 A 
ATOM     65  C   UNL A   1      49.133  26.851  28.404  1.00  0.00     0.009 A 
ATOM     66  C   UNL A   1      50.251  25.710  30.690  1.00  0.00     0.001 A 
ATOM     67  C   UNL A   1      50.467  26.439  28.397  1.00  0.00     0.001 A 
ATOM     68  C   UNL A   1      51.026  25.873  29.540  1.00  0.00     0.000 A 
ENDBRANCH  44  63
BRANCH  56  69
ATOM     69  C   UNL A   1      44.934  32.628  30.749  1.00  0.00    -0.014 A 
ATOM     70  C   UNL A   1      45.278  33.596  29.794  1.00  0.00     0.009 A 
ATOM     71  C   UNL A   1      45.002  32.955  32.111  1.00  0.00     0.009 A 
ATOM     72  C   UNL A   1      45.709  34.861  30.198  1.00  0.00     0.001 A 
ATOM     73  C   UNL A   1      45.414  34.227  32.512  1.00  0.00     0.001 A 
ATOM     74  C   UNL A   1      45.775  35.175  31.555  1.00  0.00     0.000 A 
ENDBRANCH  56  69
ENDBRANCH  30  31
ENDBRANCH  23  25
ENDBRANCH  22  23
ENDBRANCH  21  22
ENDBRANCH   1  21
TORSDOF 16
ENDMDL
