MODEL 1
REMARK VINA RESULT:     -10.7      0.000      0.000
REMARK SMILES O=C(OCCOC(=O)c1cc(=O)[nH]c2ccc(C(F)(F)F)cc12)c1ccc(-c2c3nc(c(-c4ccccc4)c4ccc([nH]4)c(-c4ccccc4)c4nc(c(-c5ccccc5)c5ccc2[nH]5)C=C4)C=C3)cc1
REMARK SMILES IDX 4 1 3 2 2 3 1 4 24 5 25 6 71 7 26 8 70 9 27 10 28 11 29 12
REMARK SMILES IDX 64 13 30 14 69 15 63 16 65 17 31 18 68 19 62 20 61 21 32 23
REMARK SMILES IDX 54 24 39 25 53 26 40 27 43 28 52 29 66 30 41 31 42 32 51 34
REMARK SMILES IDX 67 35 44 36 33 37 34 38 38 39 35 40 37 41 36 42 55 43 56 44
REMARK SMILES IDX 60 45 57 46 59 47 58 48 45 49 46 50 50 51 47 52 49 53 48 54
REMARK SMILES IDX 5 55 6 56 7 57 8 58 9 59 10 60 23 61 11 62 14 63 22 64 12 65
REMARK SMILES IDX 13 66 15 67 17 68 16 70 18 71 19 72 20 73 21 74
REMARK H PARENT 65 22 43 33 13 69
REMARK Flexibility Score: inf
ROOT
ATOM      1  C   UNL A   1      32.733  29.578  27.226  1.00  0.00     0.275 C 
ENDROOT
BRANCH   1   2
ATOM      2  O   UNL A   1      33.918  30.392  27.171  1.00  0.00    -0.458 OA
BRANCH   2   3
ATOM      3  C   UNL A   1      34.718  30.814  28.178  1.00  0.00     0.338 C 
ATOM      4  O   UNL A   1      34.454  31.867  28.755  1.00  0.00    -0.246 OA
BRANCH   3   5
ATOM      5  C   UNL A   1      36.020  30.162  28.500  1.00  0.00     0.060 A 
ATOM      6  C   UNL A   1      36.390  29.661  29.748  1.00  0.00     0.016 A 
ATOM      7  C   UNL A   1      36.964  30.108  27.458  1.00  0.00     0.016 A 
ATOM      8  C   UNL A   1      37.639  29.066  29.932  1.00  0.00     0.010 A 
ATOM      9  C   UNL A   1      38.204  29.488  27.626  1.00  0.00     0.010 A 
ATOM     10  C   UNL A   1      38.557  28.988  28.879  1.00  0.00    -0.014 A 
BRANCH  10  11
ATOM     11  C   UNL A   1      39.944  28.579  29.183  1.00  0.00     0.031 A 
ATOM     12  C   UNL A   1      40.367  27.183  28.828  1.00  0.00     0.074 A 
ATOM     13  C   UNL A   1      40.835  29.470  29.652  1.00  0.00     0.049 A 
ATOM     14  N   UNL A   1      41.568  26.670  28.796  1.00  0.00    -0.248 NA
ATOM     15  C   UNL A   1      39.299  26.249  28.433  1.00  0.00     0.031 C 
ATOM     16  C   UNL A   1      40.536  30.858  29.997  1.00  0.00     0.029 A 
ATOM     17  N   UNL A   1      42.178  29.346  29.893  1.00  0.00    -0.354 N 
ATOM     18  C   UNL A   1      41.402  25.368  28.344  1.00  0.00     0.074 A 
ATOM     19  C   UNL A   1      39.984  25.147  28.178  1.00  0.00     0.031 C 
ATOM     20  C   UNL A   1      41.666  31.464  30.400  1.00  0.00     0.029 A 
ATOM     21  C   UNL A   1      42.767  30.509  30.330  1.00  0.00     0.049 A 
ATOM     22  H   UNL A   1      42.675  28.505  29.764  1.00  0.00     0.167 HD
ATOM     23  C   UNL A   1      42.349  24.445  28.064  1.00  0.00     0.031 A 
ATOM     24  C   UNL A   1      44.055  30.771  30.618  1.00  0.00     0.031 A 
ATOM     25  C   UNL A   1      43.754  24.654  28.269  1.00  0.00     0.049 A 
ATOM     26  C   UNL A   1      45.080  29.693  30.391  1.00  0.00     0.074 A 
ATOM     27  C   UNL A   1      44.802  23.786  28.032  1.00  0.00     0.029 A 
ATOM     28  N   UNL A   1      44.302  25.822  28.781  1.00  0.00    -0.354 N 
ATOM     29  N   UNL A   1      44.918  28.490  29.898  1.00  0.00    -0.248 NA
ATOM     30  C   UNL A   1      46.471  30.023  30.734  1.00  0.00     0.031 C 
ATOM     31  C   UNL A   1      45.983  24.411  28.448  1.00  0.00     0.029 A 
ATOM     32  C   UNL A   1      45.673  25.688  28.894  1.00  0.00     0.049 A 
ATOM     33  H   UNL A   1      43.790  26.627  29.026  1.00  0.00     0.167 HD
ATOM     34  C   UNL A   1      46.188  27.932  29.830  1.00  0.00     0.074 A 
ATOM     35  C   UNL A   1      47.110  28.934  30.329  1.00  0.00     0.031 C 
ATOM     36  C   UNL A   1      46.563  26.706  29.388  1.00  0.00     0.031 A 
BRANCH  23  37
ATOM     37  C   UNL A   1      41.866  23.124  27.540  1.00  0.00    -0.014 A 
ATOM     38  C   UNL A   1      41.504  22.086  28.414  1.00  0.00     0.009 A 
ATOM     39  C   UNL A   1      41.814  22.899  26.157  1.00  0.00     0.009 A 
ATOM     40  C   UNL A   1      41.142  20.833  27.913  1.00  0.00     0.001 A 
ATOM     41  C   UNL A   1      41.428  21.653  25.659  1.00  0.00     0.001 A 
ATOM     42  C   UNL A   1      41.105  20.618  26.536  1.00  0.00     0.000 A 
ENDBRANCH  23  37
BRANCH  24  43
ATOM     43  C   UNL A   1      44.456  32.115  31.115  1.00  0.00    -0.014 A 
ATOM     44  C   UNL A   1      44.782  33.148  30.223  1.00  0.00     0.009 A 
ATOM     45  C   UNL A   1      44.537  32.365  32.495  1.00  0.00     0.009 A 
ATOM     46  C   UNL A   1      45.208  34.391  30.699  1.00  0.00     0.001 A 
ATOM     47  C   UNL A   1      44.940  33.616  32.968  1.00  0.00     0.001 A 
ATOM     48  C   UNL A   1      45.286  34.624  32.071  1.00  0.00     0.000 A 
ENDBRANCH  24  43
BRANCH  36  49
ATOM     49  C   UNL A   1      48.034  26.402  29.384  1.00  0.00    -0.014 A 
ATOM     50  C   UNL A   1      48.857  26.792  28.317  1.00  0.00     0.009 A 
ATOM     51  C   UNL A   1      48.608  25.753  30.488  1.00  0.00     0.009 A 
ATOM     52  C   UNL A   1      50.223  26.507  28.343  1.00  0.00     0.001 A 
ATOM     53  C   UNL A   1      49.978  25.495  30.524  1.00  0.00     0.001 A 
ATOM     54  C   UNL A   1      50.782  25.863  29.447  1.00  0.00     0.000 A 
ENDBRANCH  36  49
ENDBRANCH  10  11
ENDBRANCH   3   5
ENDBRANCH   2   3
ENDBRANCH   1   2
BRANCH   1  55
ATOM     55  C   UNL A   1      32.661  28.488  26.157  1.00  0.00     0.275 C 
BRANCH  55  56
ATOM     56  O   UNL A   1      33.354  27.287  26.521  1.00  0.00    -0.458 OA
BRANCH  56  57
ATOM     57  C   UNL A   1      33.466  26.363  25.528  1.00  0.00     0.339 C 
ATOM     58  O   UNL A   1      33.923  26.560  24.412  1.00  0.00    -0.246 OA
BRANCH  57  59
ATOM     59  C   UNL A   1      33.020  25.034  26.004  1.00  0.00     0.074 A 
ATOM     60  C   UNL A   1      31.741  24.928  26.400  1.00  0.00     0.088 A 
ATOM     61  C   UNL A   1      33.904  23.852  26.033  1.00  0.00     0.013 A 
ATOM     62  C   UNL A   1      31.187  23.644  26.872  1.00  0.00     0.249 A 
ATOM     63  C   UNL A   1      33.385  22.648  26.534  1.00  0.00     0.049 A 
ATOM     64  C   UNL A   1      35.261  23.897  25.676  1.00  0.00     0.024 A 
ATOM     65  O   UNL A   1      30.011  23.558  27.205  1.00  0.00    -0.270 OA
ATOM     66  N   UNL A   1      32.045  22.584  26.930  1.00  0.00    -0.322 N 
ATOM     67  C   UNL A   1      34.191  21.519  26.678  1.00  0.00     0.027 A 
ATOM     68  C   UNL A   1      36.096  22.777  25.847  1.00  0.00     0.056 A 
ATOM     69  H   UNL A   1      31.700  21.725  27.268  1.00  0.00     0.170 HD
ATOM     70  C   UNL A   1      35.545  21.588  26.347  1.00  0.00     0.015 A 
BRANCH  68  71
ATOM     71  C   UNL A   1      37.583  22.885  25.590  1.00  0.00     0.416 C 
ATOM     72  F   UNL A   1      37.988  22.230  24.470  1.00  0.00    -0.166 F 
ATOM     73  F   UNL A   1      37.980  24.178  25.449  1.00  0.00    -0.166 F 
ATOM     74  F   UNL A   1      38.331  22.379  26.611  1.00  0.00    -0.166 F 
ENDBRANCH  68  71
ENDBRANCH  57  59
ENDBRANCH  56  57
ENDBRANCH  55  56
ENDBRANCH   1  55
TORSDOF 12
ENDMDL
MODEL 2
REMARK VINA RESULT:     -10.7      3.173      8.021
REMARK SMILES O=C(OCCOC(=O)c1cc(=O)[nH]c2ccc(C(F)(F)F)cc12)c1ccc(-c2c3nc(c(-c4ccccc4)c4ccc([nH]4)c(-c4ccccc4)c4nc(c(-c5ccccc5)c5ccc2[nH]5)C=C4)C=C3)cc1
REMARK SMILES IDX 4 1 3 2 2 3 1 4 24 5 25 6 71 7 26 8 70 9 27 10 28 11 29 12
REMARK SMILES IDX 64 13 30 14 69 15 63 16 65 17 31 18 68 19 62 20 61 21 32 23
REMARK SMILES IDX 54 24 39 25 53 26 40 27 43 28 52 29 66 30 41 31 42 32 51 34
REMARK SMILES IDX 67 35 44 36 33 37 34 38 38 39 35 40 37 41 36 42 55 43 56 44
REMARK SMILES IDX 60 45 57 46 59 47 58 48 45 49 46 50 50 51 47 52 49 53 48 54
REMARK SMILES IDX 5 55 6 56 7 57 8 58 9 59 10 60 23 61 11 62 14 63 22 64 12 65
REMARK SMILES IDX 13 66 15 67 17 68 16 70 18 71 19 72 20 73 21 74
REMARK H PARENT 65 22 43 33 13 69
REMARK Flexibility Score: inf
ROOT
ATOM      1  C   UNL A   1      36.996  22.409  25.716  1.00  0.00     0.275 C 
ENDROOT
BRANCH   1   2
ATOM      2  O   UNL A   1      38.415  22.536  25.514  1.00  0.00    -0.458 OA
BRANCH   2   3
ATOM      3  C   UNL A   1      39.387  22.819  26.411  1.00  0.00     0.338 C 
ATOM      4  O   UNL A   1      39.978  21.898  26.970  1.00  0.00    -0.246 OA
BRANCH   3   5
ATOM      5  C   UNL A   1      39.652  24.203  26.903  1.00  0.00     0.060 A 
ATOM      6  C   UNL A   1      40.353  25.190  26.212  1.00  0.00     0.016 A 
ATOM      7  C   UNL A   1      39.197  24.499  28.201  1.00  0.00     0.016 A 
ATOM      8  C   UNL A   1      40.537  26.455  26.772  1.00  0.00     0.010 A 
ATOM      9  C   UNL A   1      39.351  25.771  28.758  1.00  0.00     0.010 A 
ATOM     10  C   UNL A   1      40.050  26.749  28.050  1.00  0.00    -0.014 A 
BRANCH  10  11
ATOM     11  C   UNL A   1      40.481  28.007  28.695  1.00  0.00     0.031 A 
ATOM     12  C   UNL A   1      39.501  29.142  28.762  1.00  0.00     0.074 A 
ATOM     13  C   UNL A   1      41.672  28.088  29.313  1.00  0.00     0.049 A 
ATOM     14  N   UNL A   1      39.568  30.248  29.455  1.00  0.00    -0.248 NA
ATOM     15  C   UNL A   1      38.274  29.004  27.960  1.00  0.00     0.031 C 
ATOM     16  C   UNL A   1      42.682  27.032  29.339  1.00  0.00     0.029 A 
ATOM     17  N   UNL A   1      42.223  29.096  30.061  1.00  0.00    -0.354 N 
ATOM     18  C   UNL A   1      38.378  30.916  29.200  1.00  0.00     0.074 A 
ATOM     19  C   UNL A   1      37.639  30.129  28.241  1.00  0.00     0.031 C 
ATOM     20  C   UNL A   1      43.730  27.444  30.072  1.00  0.00     0.029 A 
ATOM     21  C   UNL A   1      43.459  28.786  30.576  1.00  0.00     0.049 A 
ATOM     22  H   UNL A   1      41.774  29.960  30.216  1.00  0.00     0.167 HD
ATOM     23  C   UNL A   1      37.927  32.071  29.740  1.00  0.00     0.031 A 
ATOM     24  C   UNL A   1      44.265  29.502  31.381  1.00  0.00     0.031 A 
ATOM     25  C   UNL A   1      38.682  32.870  30.663  1.00  0.00     0.049 A 
ATOM     26  C   UNL A   1      43.781  30.832  31.890  1.00  0.00     0.074 A 
ATOM     27  C   UNL A   1      38.330  34.063  31.265  1.00  0.00     0.029 A 
ATOM     28  N   UNL A   1      39.960  32.555  31.103  1.00  0.00    -0.354 N 
ATOM     29  N   UNL A   1      42.625  31.420  31.697  1.00  0.00    -0.248 NA
ATOM     30  C   UNL A   1      44.703  31.583  32.755  1.00  0.00     0.031 C 
ATOM     31  C   UNL A   1      39.418  34.496  32.031  1.00  0.00     0.029 A 
ATOM     32  C   UNL A   1      40.424  33.545  31.948  1.00  0.00     0.049 A 
ATOM     33  H   UNL A   1      40.461  31.745  30.851  1.00  0.00     0.167 HD
ATOM     34  C   UNL A   1      42.663  32.588  32.448  1.00  0.00     0.074 A 
ATOM     35  C   UNL A   1      43.955  32.621  33.104  1.00  0.00     0.031 C 
ATOM     36  C   UNL A   1      41.713  33.545  32.590  1.00  0.00     0.031 A 
BRANCH  23  37
ATOM     37  C   UNL A   1      36.567  32.531  29.303  1.00  0.00    -0.014 A 
ATOM     38  C   UNL A   1      36.412  33.397  28.209  1.00  0.00     0.009 A 
ATOM     39  C   UNL A   1      35.431  32.128  30.020  1.00  0.00     0.009 A 
ATOM     40  C   UNL A   1      35.150  33.888  27.870  1.00  0.00     0.001 A 
ATOM     41  C   UNL A   1      34.167  32.601  29.662  1.00  0.00     0.001 A 
ATOM     42  C   UNL A   1      34.029  33.490  28.597  1.00  0.00     0.000 A 
ENDBRANCH  23  37
BRANCH  24  43
ATOM     43  C   UNL A   1      45.593  28.966  31.785  1.00  0.00    -0.014 A 
ATOM     44  C   UNL A   1      46.736  29.205  31.006  1.00  0.00     0.009 A 
ATOM     45  C   UNL A   1      45.720  28.189  32.948  1.00  0.00     0.009 A 
ATOM     46  C   UNL A   1      47.969  28.653  31.365  1.00  0.00     0.001 A 
ATOM     47  C   UNL A   1      46.958  27.660  33.318  1.00  0.00     0.001 A 
ATOM     48  C   UNL A   1      48.079  27.882  32.521  1.00  0.00     0.000 A 
ENDBRANCH  24  43
BRANCH  36  49
ATOM     49  C   UNL A   1      42.022  34.681  33.524  1.00  0.00    -0.014 A 
ATOM     50  C   UNL A   1      41.669  34.627  34.881  1.00  0.00     0.009 A 
ATOM     51  C   UNL A   1      42.717  35.801  33.042  1.00  0.00     0.009 A 
ATOM     52  C   UNL A   1      41.978  35.691  35.729  1.00  0.00     0.001 A 
ATOM     53  C   UNL A   1      43.049  36.849  33.899  1.00  0.00     0.001 A 
ATOM     54  C   UNL A   1      42.671  36.798  35.239  1.00  0.00     0.000 A 
ENDBRANCH  36  49
ENDBRANCH  10  11
ENDBRANCH   3   5
ENDBRANCH   2   3
ENDBRANCH   1   2
BRANCH   1  55
ATOM     55  C   UNL A   1      36.140  23.106  24.658  1.00  0.00     0.275 C 
BRANCH  55  56
ATOM     56  O   UNL A   1      35.703  24.414  25.050  1.00  0.00    -0.458 OA
BRANCH  56  57
ATOM     57  C   UNL A   1      34.354  24.568  25.142  1.00  0.00     0.339 C 
ATOM     58  O   UNL A   1      33.632  24.078  25.998  1.00  0.00    -0.246 OA
BRANCH  57  59
ATOM     59  C   UNL A   1      33.865  25.486  24.088  1.00  0.00     0.074 A 
ATOM     60  C   UNL A   1      33.723  24.975  22.854  1.00  0.00     0.088 A 
ATOM     61  C   UNL A   1      33.515  26.896  24.349  1.00  0.00     0.013 A 
ATOM     62  C   UNL A   1      33.222  25.796  21.735  1.00  0.00     0.249 A 
ATOM     63  C   UNL A   1      33.092  27.686  23.269  1.00  0.00     0.049 A 
ATOM     64  C   UNL A   1      33.678  27.510  25.602  1.00  0.00     0.024 A 
ATOM     65  O   UNL A   1      33.074  25.307  20.621  1.00  0.00    -0.270 OA
ATOM     66  N   UNL A   1      32.954  27.108  22.002  1.00  0.00    -0.322 N 
ATOM     67  C   UNL A   1      32.836  29.048  23.426  1.00  0.00     0.027 A 
ATOM     68  C   UNL A   1      33.458  28.889  25.769  1.00  0.00     0.056 A 
ATOM     69  H   UNL A   1      32.645  27.679  21.262  1.00  0.00     0.170 HD
ATOM     70  C   UNL A   1      33.031  29.649  24.670  1.00  0.00     0.015 A 
BRANCH  68  71
ATOM     71  C   UNL A   1      33.773  29.560  27.089  1.00  0.00     0.416 C 
ATOM     72  F   UNL A   1      34.602  30.630  26.969  1.00  0.00    -0.166 F 
ATOM     73  F   UNL A   1      32.649  30.006  27.712  1.00  0.00    -0.166 F 
ATOM     74  F   UNL A   1      34.376  28.718  27.976  1.00  0.00    -0.166 F 
ENDBRANCH  68  71
ENDBRANCH  57  59
ENDBRANCH  56  57
ENDBRANCH  55  56
ENDBRANCH   1  55
TORSDOF 12
ENDMDL
MODEL 3
REMARK VINA RESULT:     -10.6      2.548      7.138
REMARK SMILES O=C(OCCOC(=O)c1cc(=O)[nH]c2ccc(C(F)(F)F)cc12)c1ccc(-c2c3nc(c(-c4ccccc4)c4ccc([nH]4)c(-c4ccccc4)c4nc(c(-c5ccccc5)c5ccc2[nH]5)C=C4)C=C3)cc1
REMARK SMILES IDX 4 1 3 2 2 3 1 4 24 5 25 6 71 7 26 8 70 9 27 10 28 11 29 12
REMARK SMILES IDX 64 13 30 14 69 15 63 16 65 17 31 18 68 19 62 20 61 21 32 23
REMARK SMILES IDX 54 24 39 25 53 26 40 27 43 28 52 29 66 30 41 31 42 32 51 34
REMARK SMILES IDX 67 35 44 36 33 37 34 38 38 39 35 40 37 41 36 42 55 43 56 44
REMARK SMILES IDX 60 45 57 46 59 47 58 48 45 49 46 50 50 51 47 52 49 53 48 54
REMARK SMILES IDX 5 55 6 56 7 57 8 58 9 59 10 60 23 61 11 62 14 63 22 64 12 65
REMARK SMILES IDX 13 66 15 67 17 68 16 70 18 71 19 72 20 73 21 74
REMARK H PARENT 65 22 43 33 13 69
REMARK Flexibility Score: inf
ROOT
ATOM      1  C   UNL A   1      38.204  20.334  24.892  1.00  0.00     0.275 C 
ENDROOT
BRANCH   1   2
ATOM      2  O   UNL A   1      39.120  19.567  25.695  1.00  0.00    -0.458 OA
BRANCH   2   3
ATOM      3  C   UNL A   1      40.449  19.741  25.885  1.00  0.00     0.338 C 
ATOM      4  O   UNL A   1      41.217  18.810  25.650  1.00  0.00    -0.246 OA
BRANCH   3   5
ATOM      5  C   UNL A   1      41.016  20.950  26.549  1.00  0.00     0.060 A 
ATOM      6  C   UNL A   1      41.054  21.178  27.924  1.00  0.00     0.016 A 
ATOM      7  C   UNL A   1      41.499  21.960  25.696  1.00  0.00     0.016 A 
ATOM      8  C   UNL A   1      41.615  22.350  28.434  1.00  0.00     0.010 A 
ATOM      9  C   UNL A   1      42.088  23.122  26.199  1.00  0.00     0.010 A 
ATOM     10  C   UNL A   1      42.123  23.332  27.577  1.00  0.00    -0.014 A 
BRANCH  10  11
ATOM     11  C   UNL A   1      42.475  24.649  28.147  1.00  0.00     0.031 A 
ATOM     12  C   UNL A   1      43.929  24.984  28.315  1.00  0.00     0.074 A 
ATOM     13  C   UNL A   1      41.524  25.567  28.393  1.00  0.00     0.049 A 
ATOM     14  N   UNL A   1      44.482  26.137  28.583  1.00  0.00    -0.248 NA
ATOM     15  C   UNL A   1      44.886  23.881  28.132  1.00  0.00     0.031 C 
ATOM     16  C   UNL A   1      40.088  25.357  28.231  1.00  0.00     0.029 A 
ATOM     17  N   UNL A   1      41.627  26.870  28.806  1.00  0.00    -0.354 N 
ATOM     18  C   UNL A   1      45.851  25.902  28.566  1.00  0.00     0.074 A 
ATOM     19  C   UNL A   1      46.043  24.491  28.327  1.00  0.00     0.031 C 
ATOM     20  C   UNL A   1      39.439  26.494  28.535  1.00  0.00     0.029 A 
ATOM     21  C   UNL A   1      40.417  27.514  28.901  1.00  0.00     0.049 A 
ATOM     22  H   UNL A   1      42.487  27.304  29.013  1.00  0.00     0.167 HD
ATOM     23  C   UNL A   1      46.860  26.790  28.707  1.00  0.00     0.031 A 
ATOM     24  C   UNL A   1      40.137  28.789  29.225  1.00  0.00     0.031 A 
ATOM     25  C   UNL A   1      46.664  28.185  28.983  1.00  0.00     0.049 A 
ATOM     26  C   UNL A   1      41.279  29.737  29.476  1.00  0.00     0.074 A 
ATOM     27  C   UNL A   1      47.613  29.175  29.158  1.00  0.00     0.029 A 
ATOM     28  N   UNL A   1      45.422  28.782  29.143  1.00  0.00    -0.354 N 
ATOM     29  N   UNL A   1      42.569  29.519  29.388  1.00  0.00    -0.248 NA
ATOM     30  C   UNL A   1      40.924  31.116  29.841  1.00  0.00     0.031 C 
ATOM     31  C   UNL A   1      46.944  30.362  29.474  1.00  0.00     0.029 A 
ATOM     32  C   UNL A   1      45.578  30.122  29.442  1.00  0.00     0.049 A 
ATOM     33  H   UNL A   1      44.557  28.319  29.055  1.00  0.00     0.167 HD
ATOM     34  C   UNL A   1      43.179  30.740  29.644  1.00  0.00     0.074 A 
ATOM     35  C   UNL A   1      42.116  31.695  29.886  1.00  0.00     0.031 C 
ATOM     36  C   UNL A   1      44.499  31.048  29.670  1.00  0.00     0.031 A 
BRANCH  23  37
ATOM     37  C   UNL A   1      48.254  26.247  28.594  1.00  0.00    -0.014 A 
ATOM     38  C   UNL A   1      48.946  25.783  29.725  1.00  0.00     0.009 A 
ATOM     39  C   UNL A   1      48.901  26.238  27.349  1.00  0.00     0.009 A 
ATOM     40  C   UNL A   1      50.274  25.364  29.619  1.00  0.00     0.001 A 
ATOM     41  C   UNL A   1      50.220  25.795  27.243  1.00  0.00     0.001 A 
ATOM     42  C   UNL A   1      50.910  25.371  28.378  1.00  0.00     0.000 A 
ENDBRANCH  23  37
BRANCH  24  43
ATOM     43  C   UNL A   1      38.727  29.256  29.298  1.00  0.00    -0.014 A 
ATOM     44  C   UNL A   1      37.989  29.144  30.485  1.00  0.00     0.009 A 
ATOM     45  C   UNL A   1      38.101  29.800  28.164  1.00  0.00     0.009 A 
ATOM     46  C   UNL A   1      36.648  29.536  30.529  1.00  0.00     0.001 A 
ATOM     47  C   UNL A   1      36.769  30.215  28.217  1.00  0.00     0.001 A 
ATOM     48  C   UNL A   1      36.039  30.072  29.396  1.00  0.00     0.000 A 
ENDBRANCH  24  43
BRANCH  36  49
ATOM     49  C   UNL A   1      44.861  32.484  29.926  1.00  0.00    -0.014 A 
ATOM     50  C   UNL A   1      44.983  33.404  28.874  1.00  0.00     0.009 A 
ATOM     51  C   UNL A   1      45.037  32.927  31.246  1.00  0.00     0.009 A 
ATOM     52  C   UNL A   1      45.309  34.735  29.139  1.00  0.00     0.001 A 
ATOM     53  C   UNL A   1      45.334  34.264  31.509  1.00  0.00     0.001 A 
ATOM     54  C   UNL A   1      45.479  35.164  30.456  1.00  0.00     0.000 A 
ENDBRANCH  36  49
ENDBRANCH  10  11
ENDBRANCH   3   5
ENDBRANCH   2   3
ENDBRANCH   1   2
BRANCH   1  55
ATOM     55  C   UNL A   1      37.505  21.470  25.640  1.00  0.00     0.275 C 
BRANCH  55  56
ATOM     56  O   UNL A   1      37.589  22.732  24.964  1.00  0.00    -0.458 OA
BRANCH  56  57
ATOM     57  C   UNL A   1      36.646  22.935  24.005  1.00  0.00     0.339 C 
ATOM     58  O   UNL A   1      36.806  22.799  22.800  1.00  0.00    -0.246 OA
BRANCH  57  59
ATOM     59  C   UNL A   1      35.346  23.283  24.621  1.00  0.00     0.074 A 
ATOM     60  C   UNL A   1      35.209  24.534  25.088  1.00  0.00     0.088 A 
ATOM     61  C   UNL A   1      34.220  22.331  24.714  1.00  0.00     0.013 A 
ATOM     62  C   UNL A   1      33.947  24.991  25.702  1.00  0.00     0.249 A 
ATOM     63  C   UNL A   1      33.043  22.757  25.349  1.00  0.00     0.049 A 
ATOM     64  C   UNL A   1      34.305  20.996  24.288  1.00  0.00     0.024 A 
ATOM     65  O   UNL A   1      33.831  26.145  26.099  1.00  0.00    -0.270 OA
ATOM     66  N   UNL A   1      32.945  24.072  25.815  1.00  0.00    -0.322 N 
ATOM     67  C   UNL A   1      31.977  21.881  25.555  1.00  0.00     0.027 A 
ATOM     68  C   UNL A   1      33.252  20.091  24.519  1.00  0.00     0.056 A 
ATOM     69  H   UNL A   1      32.105  24.351  26.246  1.00  0.00     0.170 HD
ATOM     70  C   UNL A   1      32.087  20.550  25.153  1.00  0.00     0.015 A 
BRANCH  68  71
ATOM     71  C   UNL A   1      33.415  18.625  24.181  1.00  0.00     0.416 C 
ATOM     72  F   UNL A   1      32.814  17.793  25.072  1.00  0.00    -0.166 F 
ATOM     73  F   UNL A   1      32.895  18.327  22.959  1.00  0.00    -0.166 F 
ATOM     74  F   UNL A   1      34.721  18.239  24.129  1.00  0.00    -0.166 F 
ENDBRANCH  68  71
ENDBRANCH  57  59
ENDBRANCH  56  57
ENDBRANCH  55  56
ENDBRANCH   1  55
TORSDOF 12
ENDMDL
