MODEL 1
REMARK VINA RESULT:     -11.7      0.000      0.000
REMARK SMILES COc1ccc(Cl)c2c1N[C@@H](c1ccc(C(=O)OCCOC(=O)c3ccc(-c4c5nc(c(-c6ccccc6)c6ccc([nH]6)c(-c6ccccc6)c6nc(c(-c7ccccc7)c7ccc4[nH]7)C=C6)C=C5)cc3)cc1)[C@@H]1CC=C[C@H]21
REMARK SMILES IDX 19 1 18 2 16 3 17 4 15 5 12 6 13 7 73 8 14 9 72 10 11 11
REMARK SMILES IDX 3 12 4 13 9 14 5 15 8 16 10 17 6 18 78 19 7 21 74 22 77 23
REMARK SMILES IDX 75 24 76 25 2 26 1 27 20 28 21 29 22 30 23 31 24 32 25 33
REMARK SMILES IDX 71 34 26 35 70 36 27 37 28 38 29 39 64 40 30 41 69 42 63 43
REMARK SMILES IDX 65 44 31 45 68 46 62 47 61 48 32 50 54 51 39 52 53 53 40 54
REMARK SMILES IDX 43 55 52 56 66 57 41 58 42 59 51 61 67 62 44 63 33 64 34 65
REMARK SMILES IDX 38 66 35 67 37 68 36 69 55 70 56 71 60 72 57 73 59 74 58 75
REMARK SMILES IDX 45 76 46 77 50 78 47 79 49 80 48 81
REMARK H PARENT 10 20 65 49 43 60
REMARK Flexibility Score: inf
ROOT
ATOM      1  C   UNL A   1      35.323  21.406  26.208  1.00  0.00     0.275 C 
ENDROOT
BRANCH   1   2
ATOM      2  O   UNL A   1      33.956  20.985  26.042  1.00  0.00    -0.458 OA
BRANCH   2   3
ATOM      3  C   UNL A   1      33.318  21.446  24.937  1.00  0.00     0.338 C 
ATOM      4  O   UNL A   1      32.796  20.764  24.073  1.00  0.00    -0.246 OA
BRANCH   3   5
ATOM      5  C   UNL A   1      33.237  22.932  24.951  1.00  0.00     0.060 A 
ATOM      6  C   UNL A   1      33.155  25.745  25.159  1.00  0.00    -0.025 A 
ATOM      7  C   UNL A   1      32.692  24.938  26.210  1.00  0.00     0.007 A 
ATOM      8  C   UNL A   1      33.659  25.121  24.004  1.00  0.00     0.007 A 
ATOM      9  C   UNL A   1      32.722  23.547  26.101  1.00  0.00     0.016 A 
ATOM     10  C   UNL A   1      33.700  23.727  23.899  1.00  0.00     0.016 A 
BRANCH   6  11
ATOM     11  C   UNL A   1      33.051  27.263  25.229  1.00  0.00     0.114 C 
ATOM     12  C   UNL A   1      34.980  29.654  27.359  1.00  0.00     0.142 A 
ATOM     13  C   UNL A   1      34.913  30.945  27.883  1.00  0.00     0.050 A 
ATOM     14  C   UNL A   1      33.894  29.077  26.672  1.00  0.00     0.083 A 
ATOM     15  C   UNL A   1      33.760  31.697  27.696  1.00  0.00     0.025 A 
ATOM     16  C   UNL A   1      32.727  29.841  26.480  1.00  0.00     0.005 A 
ATOM     17  N   UNL A   1      33.965  27.759  26.241  1.00  0.00    -0.375 N 
ATOM     18  C   UNL A   1      32.677  31.153  27.000  1.00  0.00     0.047 A 
ATOM     19  C   UNL A   1      31.531  29.225  25.795  1.00  0.00     0.051 C 
ATOM     20  H   UNL A   1      34.640  27.156  26.626  1.00  0.00     0.161 HD
ATOM     21  Cl  UNL A   1      31.268  32.149  26.852  1.00  0.00    -0.084 Cl
ATOM     22  C   UNL A   1      31.609  27.699  25.560  1.00  0.00     0.031 C 
ATOM     23  C   UNL A   1      31.255  29.725  24.400  1.00  0.00    -0.023 C 
ATOM     24  C   UNL A   1      30.651  27.467  24.376  1.00  0.00     0.034 C 
ATOM     25  C   UNL A   1      30.752  28.756  23.626  1.00  0.00    -0.030 C 
BRANCH  12  26
ATOM     26  O   UNL A   1      36.131  28.939  27.594  1.00  0.00    -0.495 OA
ATOM     27  C   UNL A   1      37.276  29.791  27.518  1.00  0.00     0.278 C 
ENDBRANCH  12  26
ENDBRANCH   6  11
ENDBRANCH   3   5
ENDBRANCH   2   3
ENDBRANCH   1   2
BRANCH   1  28
ATOM     28  C   UNL A   1      36.229  20.690  25.205  1.00  0.00     0.275 C 
BRANCH  28  29
ATOM     29  O   UNL A   1      37.438  21.439  24.974  1.00  0.00    -0.458 OA
BRANCH  29  30
ATOM     30  C   UNL A   1      38.503  21.069  25.720  1.00  0.00     0.338 C 
ATOM     31  O   UNL A   1      38.947  19.944  25.884  1.00  0.00    -0.246 OA
BRANCH  30  32
ATOM     32  C   UNL A   1      39.153  22.268  26.264  1.00  0.00     0.060 A 
ATOM     33  C   UNL A   1      38.632  23.513  25.914  1.00  0.00     0.016 A 
ATOM     34  C   UNL A   1      40.323  22.176  27.019  1.00  0.00     0.016 A 
ATOM     35  C   UNL A   1      39.285  24.681  26.295  1.00  0.00     0.010 A 
ATOM     36  C   UNL A   1      40.975  23.351  27.413  1.00  0.00     0.010 A 
ATOM     37  C   UNL A   1      40.469  24.609  27.037  1.00  0.00    -0.014 A 
BRANCH  37  38
ATOM     38  C   UNL A   1      41.208  25.852  27.355  1.00  0.00     0.031 A 
ATOM     39  C   UNL A   1      40.625  26.837  28.327  1.00  0.00     0.074 A 
ATOM     40  C   UNL A   1      42.427  26.068  26.828  1.00  0.00     0.049 A 
ATOM     41  N   UNL A   1      41.078  28.013  28.678  1.00  0.00    -0.248 NA
ATOM     42  C   UNL A   1      39.377  26.444  29.003  1.00  0.00     0.031 C 
ATOM     43  C   UNL A   1      43.148  25.140  25.956  1.00  0.00     0.029 A 
ATOM     44  N   UNL A   1      43.281  27.134  26.965  1.00  0.00    -0.354 N 
ATOM     45  C   UNL A   1      40.172  28.502  29.611  1.00  0.00     0.074 A 
ATOM     46  C   UNL A   1      39.134  27.505  29.762  1.00  0.00     0.031 C 
ATOM     47  C   UNL A   1      44.345  25.670  25.652  1.00  0.00     0.029 A 
ATOM     48  C   UNL A   1      44.451  26.993  26.260  1.00  0.00     0.049 A 
ATOM     49  H   UNL A   1      43.074  27.923  27.516  1.00  0.00     0.167 HD
ATOM     50  C   UNL A   1      40.207  29.676  30.281  1.00  0.00     0.031 A 
ATOM     51  C   UNL A   1      45.482  27.845  26.102  1.00  0.00     0.031 A 
ATOM     52  C   UNL A   1      41.235  30.668  30.132  1.00  0.00     0.049 A 
ATOM     53  C   UNL A   1      45.434  29.195  26.761  1.00  0.00     0.074 A 
ATOM     54  C   UNL A   1      41.325  31.909  30.737  1.00  0.00     0.029 A 
ATOM     55  N   UNL A   1      42.354  30.529  29.329  1.00  0.00    -0.354 N 
ATOM     56  N   UNL A   1      44.531  29.681  27.575  1.00  0.00    -0.248 NA
ATOM     57  C   UNL A   1      46.540  30.119  26.466  1.00  0.00     0.031 C 
ATOM     58  C   UNL A   1      42.484  32.537  30.274  1.00  0.00     0.029 A 
ATOM     59  C   UNL A   1      43.135  31.668  29.413  1.00  0.00     0.049 A 
ATOM     60  H   UNL A   1      42.562  29.739  28.780  1.00  0.00     0.167 HD
ATOM     61  C   UNL A   1      44.966  30.957  27.905  1.00  0.00     0.074 A 
ATOM     62  C   UNL A   1      46.216  31.171  27.207  1.00  0.00     0.031 C 
ATOM     63  C   UNL A   1      44.377  31.867  28.717  1.00  0.00     0.031 A 
BRANCH  50  64
ATOM     64  C   UNL A   1      39.087  29.974  31.232  1.00  0.00    -0.014 A 
ATOM     65  C   UNL A   1      39.173  29.606  32.583  1.00  0.00     0.009 A 
ATOM     66  C   UNL A   1      37.980  30.718  30.794  1.00  0.00     0.009 A 
ATOM     67  C   UNL A   1      38.167  29.977  33.477  1.00  0.00     0.001 A 
ATOM     68  C   UNL A   1      36.986  31.101  31.694  1.00  0.00     0.001 A 
ATOM     69  C   UNL A   1      37.080  30.731  33.035  1.00  0.00     0.000 A 
ENDBRANCH  50  64
BRANCH  51  70
ATOM     70  C   UNL A   1      46.640  27.448  25.264  1.00  0.00    -0.014 A 
ATOM     71  C   UNL A   1      46.759  27.919  23.948  1.00  0.00     0.009 A 
ATOM     72  C   UNL A   1      47.646  26.617  25.784  1.00  0.00     0.009 A 
ATOM     73  C   UNL A   1      47.862  27.563  23.168  1.00  0.00     0.001 A 
ATOM     74  C   UNL A   1      48.757  26.279  25.009  1.00  0.00     0.001 A 
ATOM     75  C   UNL A   1      48.862  26.750  23.701  1.00  0.00     0.000 A 
ENDBRANCH  51  70
BRANCH  63  76
ATOM     76  C   UNL A   1      45.078  33.177  28.928  1.00  0.00    -0.014 A 
ATOM     77  C   UNL A   1      46.056  33.319  29.922  1.00  0.00     0.009 A 
ATOM     78  C   UNL A   1      44.837  34.242  28.045  1.00  0.00     0.009 A 
ATOM     79  C   UNL A   1      46.776  34.511  30.034  1.00  0.00     0.001 A 
ATOM     80  C   UNL A   1      45.572  35.424  28.147  1.00  0.00     0.001 A 
ATOM     81  C   UNL A   1      46.540  35.557  29.141  1.00  0.00     0.000 A 
ENDBRANCH  63  76
ENDBRANCH  37  38
ENDBRANCH  30  32
ENDBRANCH  29  30
ENDBRANCH  28  29
ENDBRANCH   1  28
TORSDOF 13
ENDMDL
MODEL 2
REMARK VINA RESULT:     -11.6      3.405      8.339
REMARK SMILES COc1ccc(Cl)c2c1N[C@@H](c1ccc(C(=O)OCCOC(=O)c3ccc(-c4c5nc(c(-c6ccccc6)c6ccc([nH]6)c(-c6ccccc6)c6nc(c(-c7ccccc7)c7ccc4[nH]7)C=C6)C=C5)cc3)cc1)[C@@H]1CC=C[C@H]21
REMARK SMILES IDX 19 1 18 2 16 3 17 4 15 5 12 6 13 7 73 8 14 9 72 10 11 11
REMARK SMILES IDX 3 12 4 13 9 14 5 15 8 16 10 17 6 18 78 19 7 21 74 22 77 23
REMARK SMILES IDX 75 24 76 25 2 26 1 27 20 28 21 29 22 30 23 31 24 32 25 33
REMARK SMILES IDX 71 34 26 35 70 36 27 37 28 38 29 39 64 40 30 41 69 42 63 43
REMARK SMILES IDX 65 44 31 45 68 46 62 47 61 48 32 50 54 51 39 52 53 53 40 54
REMARK SMILES IDX 43 55 52 56 66 57 41 58 42 59 51 61 67 62 44 63 33 64 34 65
REMARK SMILES IDX 38 66 35 67 37 68 36 69 55 70 56 71 60 72 57 73 59 74 58 75
REMARK SMILES IDX 45 76 46 77 50 78 47 79 49 80 48 81
REMARK H PARENT 10 20 65 49 43 60
REMARK Flexibility Score: inf
ROOT
ATOM      1  C   UNL A   1      33.776  35.448  31.327  1.00  0.00     0.275 C 
ENDROOT
BRANCH   1   2
ATOM      2  O   UNL A   1      33.326  34.497  30.344  1.00  0.00    -0.458 OA
BRANCH   2   3
ATOM      3  C   UNL A   1      33.769  34.692  29.077  1.00  0.00     0.338 C 
ATOM      4  O   UNL A   1      34.461  35.618  28.692  1.00  0.00    -0.246 OA
BRANCH   3   5
ATOM      5  C   UNL A   1      33.385  33.553  28.199  1.00  0.00     0.060 A 
ATOM      6  C   UNL A   1      32.718  31.274  26.675  1.00  0.00    -0.025 A 
ATOM      7  C   UNL A   1      33.948  31.349  27.346  1.00  0.00     0.007 A 
ATOM      8  C   UNL A   1      31.828  32.357  26.780  1.00  0.00     0.007 A 
ATOM      9  C   UNL A   1      34.282  32.481  28.089  1.00  0.00     0.016 A 
ATOM     10  C   UNL A   1      32.157  33.488  27.534  1.00  0.00     0.016 A 
BRANCH   6  11
ATOM     11  C   UNL A   1      32.375  30.080  25.792  1.00  0.00     0.114 C 
ATOM     12  C   UNL A   1      29.591  29.703  23.326  1.00  0.00     0.142 A 
ATOM     13  C   UNL A   1      28.846  28.728  22.665  1.00  0.00     0.050 A 
ATOM     14  C   UNL A   1      30.515  29.371  24.337  1.00  0.00     0.083 A 
ATOM     15  C   UNL A   1      29.040  27.390  22.985  1.00  0.00     0.025 A 
ATOM     16  C   UNL A   1      30.714  28.015  24.658  1.00  0.00     0.005 A 
ATOM     17  N   UNL A   1      31.174  30.375  25.033  1.00  0.00    -0.375 N 
ATOM     18  C   UNL A   1      29.966  27.034  23.970  1.00  0.00     0.047 A 
ATOM     19  C   UNL A   1      31.657  27.638  25.775  1.00  0.00     0.051 C 
ATOM     20  H   UNL A   1      30.824  31.294  25.013  1.00  0.00     0.161 HD
ATOM     21  Cl  UNL A   1      30.110  25.346  24.329  1.00  0.00    -0.084 Cl
ATOM     22  C   UNL A   1      32.164  28.811  26.644  1.00  0.00     0.031 C 
ATOM     23  C   UNL A   1      32.956  27.009  25.340  1.00  0.00    -0.023 C 
ATOM     24  C   UNL A   1      33.488  28.282  27.227  1.00  0.00     0.034 C 
ATOM     25  C   UNL A   1      33.960  27.352  26.156  1.00  0.00    -0.030 C 
BRANCH  12  26
ATOM     26  O   UNL A   1      29.344  31.015  22.995  1.00  0.00    -0.495 OA
ATOM     27  C   UNL A   1      28.863  31.112  21.653  1.00  0.00     0.278 C 
ENDBRANCH  12  26
ENDBRANCH   6  11
ENDBRANCH   3   5
ENDBRANCH   2   3
ENDBRANCH   1   2
BRANCH   1  28
ATOM     28  C   UNL A   1      34.702  34.772  32.340  1.00  0.00     0.275 C 
BRANCH  28  29
ATOM     29  O   UNL A   1      35.008  33.422  31.941  1.00  0.00    -0.458 OA
BRANCH  29  30
ATOM     30  C   UNL A   1      35.844  32.748  32.761  1.00  0.00     0.338 C 
ATOM     31  O   UNL A   1      35.775  32.641  33.975  1.00  0.00    -0.246 OA
BRANCH  30  32
ATOM     32  C   UNL A   1      36.850  32.043  31.956  1.00  0.00     0.060 A 
ATOM     33  C   UNL A   1      37.777  31.241  32.620  1.00  0.00     0.016 A 
ATOM     34  C   UNL A   1      36.951  32.253  30.580  1.00  0.00     0.016 A 
ATOM     35  C   UNL A   1      38.829  30.657  31.922  1.00  0.00     0.010 A 
ATOM     36  C   UNL A   1      38.002  31.655  29.875  1.00  0.00     0.010 A 
ATOM     37  C   UNL A   1      38.957  30.870  30.545  1.00  0.00    -0.014 A 
BRANCH  37  38
ATOM     38  C   UNL A   1      40.132  30.324  29.828  1.00  0.00     0.031 A 
ATOM     39  C   UNL A   1      41.386  31.142  29.723  1.00  0.00     0.074 A 
ATOM     40  C   UNL A   1      40.099  29.075  29.329  1.00  0.00     0.049 A 
ATOM     41  N   UNL A   1      42.492  30.876  29.076  1.00  0.00    -0.248 NA
ATOM     42  C   UNL A   1      41.408  32.421  30.453  1.00  0.00     0.031 C 
ATOM     43  C   UNL A   1      38.980  28.141  29.458  1.00  0.00     0.029 A 
ATOM     44  N   UNL A   1      41.046  28.371  28.627  1.00  0.00    -0.354 N 
ATOM     45  C   UNL A   1      43.337  31.951  29.316  1.00  0.00     0.074 A 
ATOM     46  C   UNL A   1      42.616  32.883  30.154  1.00  0.00     0.031 C 
ATOM     47  C   UNL A   1      39.313  26.980  28.870  1.00  0.00     0.029 A 
ATOM     48  C   UNL A   1      40.642  27.106  28.278  1.00  0.00     0.049 A 
ATOM     49  H   UNL A   1      41.929  28.739  28.395  1.00  0.00     0.167 HD
ATOM     50  C   UNL A   1      44.602  32.140  28.876  1.00  0.00     0.031 A 
ATOM     51  C   UNL A   1      41.263  26.163  27.544  1.00  0.00     0.031 A 
ATOM     52  C   UNL A   1      45.320  31.217  28.041  1.00  0.00     0.049 A 
ATOM     53  C   UNL A   1      42.619  26.451  26.963  1.00  0.00     0.074 A 
ATOM     54  C   UNL A   1      46.590  31.350  27.508  1.00  0.00     0.029 A 
ATOM     55  N   UNL A   1      44.835  29.988  27.626  1.00  0.00    -0.354 N 
ATOM     56  N   UNL A   1      43.376  27.508  27.126  1.00  0.00    -0.248 NA
ATOM     57  C   UNL A   1      43.198  25.423  26.084  1.00  0.00     0.031 C 
ATOM     58  C   UNL A   1      46.862  30.214  26.742  1.00  0.00     0.029 A 
ATOM     59  C   UNL A   1      45.777  29.357  26.833  1.00  0.00     0.049 A 
ATOM     60  H   UNL A   1      43.953  29.620  27.859  1.00  0.00     0.167 HD
ATOM     61  C   UNL A   1      44.527  27.266  26.389  1.00  0.00     0.074 A 
ATOM     62  C   UNL A   1      44.372  25.963  25.779  1.00  0.00     0.031 C 
ATOM     63  C   UNL A   1      45.614  28.059  26.236  1.00  0.00     0.031 A 
BRANCH  50  64
ATOM     64  C   UNL A   1      45.299  33.408  29.269  1.00  0.00    -0.014 A 
ATOM     65  C   UNL A   1      46.169  33.439  30.368  1.00  0.00     0.009 A 
ATOM     66  C   UNL A   1      45.161  34.554  28.472  1.00  0.00     0.009 A 
ATOM     67  C   UNL A   1      46.887  34.600  30.662  1.00  0.00     0.001 A 
ATOM     68  C   UNL A   1      45.892  35.707  28.759  1.00  0.00     0.001 A 
ATOM     69  C   UNL A   1      46.755  35.729  29.854  1.00  0.00     0.000 A 
ENDBRANCH  50  64
BRANCH  51  70
ATOM     70  C   UNL A   1      40.592  24.863  27.300  1.00  0.00    -0.014 A 
ATOM     71  C   UNL A   1      39.451  24.794  26.486  1.00  0.00     0.009 A 
ATOM     72  C   UNL A   1      41.103  23.680  27.859  1.00  0.00     0.009 A 
ATOM     73  C   UNL A   1      38.835  23.565  26.238  1.00  0.00     0.001 A 
ATOM     74  C   UNL A   1      40.496  22.451  27.593  1.00  0.00     0.001 A 
ATOM     75  C   UNL A   1      39.360  22.395  26.786  1.00  0.00     0.000 A 
ENDBRANCH  51  70
BRANCH  63  76
ATOM     76  C   UNL A   1      46.746  27.544  25.397  1.00  0.00    -0.014 A 
ATOM     77  C   UNL A   1      46.838  27.865  24.035  1.00  0.00     0.009 A 
ATOM     78  C   UNL A   1      47.788  26.826  26.005  1.00  0.00     0.009 A 
ATOM     79  C   UNL A   1      47.954  27.468  23.295  1.00  0.00     0.001 A 
ATOM     80  C   UNL A   1      48.910  26.448  25.267  1.00  0.00     0.001 A 
ATOM     81  C   UNL A   1      48.991  26.769  23.912  1.00  0.00     0.000 A 
ENDBRANCH  63  76
ENDBRANCH  37  38
ENDBRANCH  30  32
ENDBRANCH  29  30
ENDBRANCH  28  29
ENDBRANCH   1  28
TORSDOF 13
ENDMDL
MODEL 3
REMARK VINA RESULT:     -11.6      0.717      5.843
REMARK SMILES COc1ccc(Cl)c2c1N[C@@H](c1ccc(C(=O)OCCOC(=O)c3ccc(-c4c5nc(c(-c6ccccc6)c6ccc([nH]6)c(-c6ccccc6)c6nc(c(-c7ccccc7)c7ccc4[nH]7)C=C6)C=C5)cc3)cc1)[C@@H]1CC=C[C@H]21
REMARK SMILES IDX 19 1 18 2 16 3 17 4 15 5 12 6 13 7 73 8 14 9 72 10 11 11
REMARK SMILES IDX 3 12 4 13 9 14 5 15 8 16 10 17 6 18 78 19 7 21 74 22 77 23
REMARK SMILES IDX 75 24 76 25 2 26 1 27 20 28 21 29 22 30 23 31 24 32 25 33
REMARK SMILES IDX 71 34 26 35 70 36 27 37 28 38 29 39 64 40 30 41 69 42 63 43
REMARK SMILES IDX 65 44 31 45 68 46 62 47 61 48 32 50 54 51 39 52 53 53 40 54
REMARK SMILES IDX 43 55 52 56 66 57 41 58 42 59 51 61 67 62 44 63 33 64 34 65
REMARK SMILES IDX 38 66 35 67 37 68 36 69 55 70 56 71 60 72 57 73 59 74 58 75
REMARK SMILES IDX 45 76 46 77 50 78 47 79 49 80 48 81
REMARK H PARENT 10 20 65 49 43 60
REMARK Flexibility Score: inf
ROOT
ATOM      1  C   UNL A   1      35.971  20.035  25.001  1.00  0.00     0.275 C 
ENDROOT
BRANCH   1   2
ATOM      2  O   UNL A   1      35.437  21.106  25.801  1.00  0.00    -0.458 OA
BRANCH   2   3
ATOM      3  C   UNL A   1      34.129  21.404  25.605  1.00  0.00     0.338 C 
ATOM      4  O   UNL A   1      33.205  20.610  25.592  1.00  0.00    -0.246 OA
BRANCH   3   5
ATOM      5  C   UNL A   1      33.929  22.876  25.507  1.00  0.00     0.060 A 
ATOM      6  C   UNL A   1      33.574  25.675  25.513  1.00  0.00    -0.025 A 
ATOM      7  C   UNL A   1      32.924  24.871  26.463  1.00  0.00     0.007 A 
ATOM      8  C   UNL A   1      34.403  25.055  24.562  1.00  0.00     0.007 A 
ATOM      9  C   UNL A   1      33.091  23.486  26.451  1.00  0.00     0.016 A 
ATOM     10  C   UNL A   1      34.580  23.668  24.557  1.00  0.00     0.016 A 
BRANCH   6  11
ATOM     11  C   UNL A   1      33.335  27.179  25.461  1.00  0.00     0.114 C 
ATOM     12  C   UNL A   1      34.895  29.878  27.524  1.00  0.00     0.142 A 
ATOM     13  C   UNL A   1      34.681  31.191  27.944  1.00  0.00     0.050 A 
ATOM     14  C   UNL A   1      33.914  29.158  26.814  1.00  0.00     0.083 A 
ATOM     15  C   UNL A   1      33.483  31.820  27.626  1.00  0.00     0.025 A 
ATOM     16  C   UNL A   1      32.702  29.798  26.490  1.00  0.00     0.005 A 
ATOM     17  N   UNL A   1      34.128  27.826  26.490  1.00  0.00    -0.375 N 
ATOM     18  C   UNL A   1      32.503  31.133  26.905  1.00  0.00     0.047 A 
ATOM     19  C   UNL A   1      31.615  29.029  25.779  1.00  0.00     0.051 C 
ATOM     20  H   UNL A   1      34.824  27.315  26.962  1.00  0.00     0.161 HD
ATOM     21  Cl  UNL A   1      31.028  31.984  26.592  1.00  0.00    -0.084 Cl
ATOM     22  C   UNL A   1      31.841  27.504  25.665  1.00  0.00     0.031 C 
ATOM     23  C   UNL A   1      31.397  29.404  24.334  1.00  0.00    -0.023 C 
ATOM     24  C   UNL A   1      30.992  27.104  24.443  1.00  0.00     0.034 C 
ATOM     25  C   UNL A   1      31.035  28.341  23.605  1.00  0.00    -0.030 C 
BRANCH  12  26
ATOM     26  O   UNL A   1      36.084  29.289  27.886  1.00  0.00    -0.495 OA
ATOM     27  C   UNL A   1      37.188  29.992  27.313  1.00  0.00     0.278 C 
ENDBRANCH  12  26
ENDBRANCH   6  11
ENDBRANCH   3   5
ENDBRANCH   2   3
ENDBRANCH   1   2
BRANCH   1  28
ATOM     28  C   UNL A   1      37.468  20.238  24.764  1.00  0.00     0.275 C 
BRANCH  28  29
ATOM     29  O   UNL A   1      37.966  21.353  25.529  1.00  0.00    -0.458 OA
BRANCH  29  30
ATOM     30  C   UNL A   1      39.167  21.164  26.120  1.00  0.00     0.338 C 
ATOM     31  O   UNL A   1      39.824  20.136  26.166  1.00  0.00    -0.246 OA
BRANCH  30  32
ATOM     32  C   UNL A   1      39.654  22.444  26.650  1.00  0.00     0.060 A 
ATOM     33  C   UNL A   1      39.107  23.618  26.134  1.00  0.00     0.016 A 
ATOM     34  C   UNL A   1      40.709  22.494  27.563  1.00  0.00     0.016 A 
ATOM     35  C   UNL A   1      39.622  24.856  26.506  1.00  0.00     0.010 A 
ATOM     36  C   UNL A   1      41.220  23.740  27.945  1.00  0.00     0.010 A 
ATOM     37  C   UNL A   1      40.692  24.926  27.405  1.00  0.00    -0.014 A 
BRANCH  37  38
ATOM     38  C   UNL A   1      41.296  26.241  27.720  1.00  0.00     0.031 A 
ATOM     39  C   UNL A   1      42.634  26.602  27.141  1.00  0.00     0.074 A 
ATOM     40  C   UNL A   1      40.621  27.134  28.466  1.00  0.00     0.049 A 
ATOM     41  N   UNL A   1      43.362  27.668  27.357  1.00  0.00    -0.248 NA
ATOM     42  C   UNL A   1      43.224  25.651  26.186  1.00  0.00     0.031 C 
ATOM     43  C   UNL A   1      39.271  26.945  28.996  1.00  0.00     0.029 A 
ATOM     44  N   UNL A   1      40.978  28.389  28.892  1.00  0.00    -0.354 N 
ATOM     45  C   UNL A   1      44.496  27.513  26.569  1.00  0.00     0.074 A 
ATOM     46  C   UNL A   1      44.370  26.247  25.882  1.00  0.00     0.031 C 
ATOM     47  C   UNL A   1      38.906  28.054  29.661  1.00  0.00     0.029 A 
ATOM     48  C   UNL A   1      40.014  29.005  29.650  1.00  0.00     0.049 A 
ATOM     49  H   UNL A   1      41.842  28.807  28.673  1.00  0.00     0.167 HD
ATOM     50  C   UNL A   1      45.545  28.356  26.432  1.00  0.00     0.031 A 
ATOM     51  C   UNL A   1      40.029  30.193  30.285  1.00  0.00     0.031 A 
ATOM     52  C   UNL A   1      45.674  29.614  27.115  1.00  0.00     0.049 A 
ATOM     53  C   UNL A   1      41.260  31.053  30.216  1.00  0.00     0.074 A 
ATOM     54  C   UNL A   1      46.726  30.511  27.071  1.00  0.00     0.029 A 
ATOM     55  N   UNL A   1      44.716  30.156  27.955  1.00  0.00    -0.354 N 
ATOM     56  N   UNL A   1      42.362  30.858  29.535  1.00  0.00    -0.248 NA
ATOM     57  C   UNL A   1      41.255  32.288  31.015  1.00  0.00     0.031 C 
ATOM     58  C   UNL A   1      46.421  31.583  27.913  1.00  0.00     0.029 A 
ATOM     59  C   UNL A   1      45.159  31.371  28.447  1.00  0.00     0.049 A 
ATOM     60  H   UNL A   1      43.851  29.739  28.171  1.00  0.00     0.167 HD
ATOM     61  C   UNL A   1      43.173  31.951  29.807  1.00  0.00     0.074 A 
ATOM     62  C   UNL A   1      42.437  32.808  30.712  1.00  0.00     0.031 C 
ATOM     63  C   UNL A   1      44.418  32.216  29.343  1.00  0.00     0.031 A 
BRANCH  50  64
ATOM     64  C   UNL A   1      46.661  27.943  25.520  1.00  0.00    -0.014 A 
ATOM     65  C   UNL A   1      47.754  27.210  26.008  1.00  0.00     0.009 A 
ATOM     66  C   UNL A   1      46.569  28.203  24.144  1.00  0.00     0.009 A 
ATOM     67  C   UNL A   1      48.736  26.747  25.130  1.00  0.00     0.001 A 
ATOM     68  C   UNL A   1      47.544  27.724  23.269  1.00  0.00     0.001 A 
ATOM     69  C   UNL A   1      48.626  26.997  23.761  1.00  0.00     0.000 A 
ENDBRANCH  50  64
BRANCH  51  70
ATOM     70  C   UNL A   1      38.842  30.626  31.061  1.00  0.00    -0.014 A 
ATOM     71  C   UNL A   1      38.701  30.262  32.408  1.00  0.00     0.009 A 
ATOM     72  C   UNL A   1      37.854  31.428  30.466  1.00  0.00     0.009 A 
ATOM     73  C   UNL A   1      37.594  30.690  33.144  1.00  0.00     0.001 A 
ATOM     74  C   UNL A   1      36.758  31.872  31.209  1.00  0.00     0.001 A 
ATOM     75  C   UNL A   1      36.628  31.499  32.547  1.00  0.00     0.000 A 
ENDBRANCH  51  70
BRANCH  63  76
ATOM     76  C   UNL A   1      45.070  33.496  29.776  1.00  0.00    -0.014 A 
ATOM     77  C   UNL A   1      44.796  34.703  29.118  1.00  0.00     0.009 A 
ATOM     78  C   UNL A   1      45.876  33.508  30.925  1.00  0.00     0.009 A 
ATOM     79  C   UNL A   1      45.325  35.902  29.600  1.00  0.00     0.001 A 
ATOM     80  C   UNL A   1      46.388  34.710  31.416  1.00  0.00     0.001 A 
ATOM     81  C   UNL A   1      46.112  35.905  30.752  1.00  0.00     0.000 A 
ENDBRANCH  63  76
ENDBRANCH  37  38
ENDBRANCH  30  32
ENDBRANCH  29  30
ENDBRANCH  28  29
ENDBRANCH   1  28
TORSDOF 13
ENDMDL
