MODEL 1
REMARK VINA RESULT:     -10.3      0.000      0.000
REMARK SMILES CC(C)C[C@H](C(=O)OCCOC(=O)c1ccc(-c2c3nc(c(-c4ccccc4)c4ccc([nH]4)c(-c4ccccc4)c4nc(c(-c5ccccc5)c5ccc2[nH]5)C=C4)C=C3)cc1)[C@@H]1CCO[C@]2(CCOC2)C1
REMARK SMILES IDX 9 1 8 2 6 3 7 4 5 5 4 6 2 7 1 8 3 9 62 10 63 11 71 12 64 13
REMARK SMILES IDX 66 14 65 15 67 16 70 17 68 18 69 19 10 20 11 21 12 22 13 23
REMARK SMILES IDX 14 24 15 25 61 26 16 27 60 28 17 29 18 30 19 31 54 32 20 33
REMARK SMILES IDX 59 34 53 35 55 36 21 37 58 38 52 39 51 40 22 42 44 43 29 44
REMARK SMILES IDX 43 45 30 46 33 47 42 48 56 49 31 50 32 51 41 53 57 54 34 55
REMARK SMILES IDX 23 56 24 57 28 58 25 59 27 60 26 61 45 62 46 63 50 64 47 65
REMARK SMILES IDX 49 66 48 67 35 68 36 69 40 70 37 71 39 72 38 73
REMARK H PARENT 55 41 33 52
REMARK Flexibility Score: inf
ROOT
ATOM      1  C   UNL A   1      31.604  28.608  24.778  1.00  0.00     0.274 C 
ENDROOT
BRANCH   1   2
ATOM      2  O   UNL A   1      32.543  27.715  25.422  1.00  0.00    -0.462 OA
BRANCH   2   3
ATOM      3  C   UNL A   1      32.039  26.629  26.046  1.00  0.00     0.309 C 
ATOM      4  O   UNL A   1      31.252  26.679  26.986  1.00  0.00    -0.252 OA
BRANCH   3   5
ATOM      5  C   UNL A   1      32.493  25.301  25.437  1.00  0.00     0.103 C 
BRANCH   5   6
ATOM      6  C   UNL A   1      31.260  24.379  25.305  1.00  0.00     0.018 C 
BRANCH   6   7
ATOM      7  C   UNL A   1      31.306  23.062  26.109  1.00  0.00    -0.017 C 
ATOM      8  C   UNL A   1      32.283  23.140  27.282  1.00  0.00     0.007 C 
ATOM      9  C   UNL A   1      29.904  22.726  26.627  1.00  0.00     0.007 C 
ENDBRANCH   6   7
ENDBRANCH   5   6
BRANCH   5  10
ATOM     10  C   UNL A   1      33.498  25.306  24.230  1.00  0.00     0.008 C 
ATOM     11  C   UNL A   1      32.891  25.203  22.817  1.00  0.00     0.033 C 
ATOM     12  C   UNL A   1      34.804  24.484  24.330  1.00  0.00     0.042 C 
ATOM     13  C   UNL A   1      33.031  23.830  22.162  1.00  0.00     0.161 C 
ATOM     14  C   UNL A   1      34.831  23.153  23.567  1.00  0.00     0.094 C 
ATOM     15  O   UNL A   1      34.365  23.345  22.236  1.00  0.00    -0.372 OA
ATOM     16  C   UNL A   1      34.148  22.016  24.309  1.00  0.00     0.066 C 
ATOM     17  C   UNL A   1      36.262  22.603  23.525  1.00  0.00     0.195 C 
ATOM     18  C   UNL A   1      35.207  21.522  25.279  1.00  0.00     0.163 C 
ATOM     19  O   UNL A   1      36.484  21.936  24.775  1.00  0.00    -0.378 OA
ENDBRANCH   5  10
ENDBRANCH   3   5
ENDBRANCH   2   3
ENDBRANCH   1   2
BRANCH   1  20
ATOM     20  C   UNL A   1      31.593  29.941  25.515  1.00  0.00     0.275 C 
BRANCH  20  21
ATOM     21  O   UNL A   1      32.931  30.185  25.971  1.00  0.00    -0.458 OA
BRANCH  21  22
ATOM     22  C   UNL A   1      33.083  31.147  26.904  1.00  0.00     0.338 C 
ATOM     23  O   UNL A   1      32.325  32.065  27.170  1.00  0.00    -0.246 OA
BRANCH  22  24
ATOM     24  C   UNL A   1      34.345  30.895  27.615  1.00  0.00     0.060 A 
ATOM     25  C   UNL A   1      35.210  31.958  27.891  1.00  0.00     0.016 A 
ATOM     26  C   UNL A   1      34.688  29.591  27.964  1.00  0.00     0.016 A 
ATOM     27  C   UNL A   1      36.443  31.715  28.488  1.00  0.00     0.010 A 
ATOM     28  C   UNL A   1      35.888  29.360  28.637  1.00  0.00     0.010 A 
ATOM     29  C   UNL A   1      36.778  30.417  28.898  1.00  0.00    -0.014 A 
BRANCH  29  30
ATOM     30  C   UNL A   1      38.030  30.155  29.648  1.00  0.00     0.031 A 
ATOM     31  C   UNL A   1      39.105  29.295  29.051  1.00  0.00     0.074 A 
ATOM     32  C   UNL A   1      38.168  30.645  30.895  1.00  0.00     0.049 A 
ATOM     33  N   UNL A   1      40.164  28.782  29.625  1.00  0.00    -0.248 NA
ATOM     34  C   UNL A   1      38.966  28.956  27.626  1.00  0.00     0.031 C 
ATOM     35  C   UNL A   1      37.207  31.516  31.576  1.00  0.00     0.029 A 
ATOM     36  N   UNL A   1      39.166  30.467  31.819  1.00  0.00    -0.354 N 
ATOM     37  C   UNL A   1      40.794  28.025  28.644  1.00  0.00     0.074 A 
ATOM     38  C   UNL A   1      40.000  28.147  27.440  1.00  0.00     0.031 C 
ATOM     39  C   UNL A   1      37.667  31.805  32.802  1.00  0.00     0.029 A 
ATOM     40  C   UNL A   1      38.914  31.082  33.021  1.00  0.00     0.049 A 
ATOM     41  H   UNL A   1      39.983  29.949  31.638  1.00  0.00     0.167 HD
ATOM     42  C   UNL A   1      41.927  27.290  28.747  1.00  0.00     0.031 A 
ATOM     43  C   UNL A   1      39.583  31.033  34.186  1.00  0.00     0.031 A 
ATOM     44  C   UNL A   1      42.714  27.181  29.948  1.00  0.00     0.049 A 
ATOM     45  C   UNL A   1      40.813  30.183  34.285  1.00  0.00     0.074 A 
ATOM     46  C   UNL A   1      43.879  26.462  30.155  1.00  0.00     0.029 A 
ATOM     47  N   UNL A   1      42.418  27.817  31.144  1.00  0.00    -0.354 N 
ATOM     48  N   UNL A   1      41.378  29.442  33.363  1.00  0.00    -0.248 NA
ATOM     49  C   UNL A   1      41.492  30.153  35.587  1.00  0.00     0.031 C 
ATOM     50  C   UNL A   1      44.269  26.636  31.489  1.00  0.00     0.029 A 
ATOM     51  C   UNL A   1      43.370  27.497  32.097  1.00  0.00     0.049 A 
ATOM     52  H   UNL A   1      41.645  28.407  31.293  1.00  0.00     0.167 HD
ATOM     53  C   UNL A   1      42.481  28.860  33.970  1.00  0.00     0.074 A 
ATOM     54  C   UNL A   1      42.517  29.352  35.334  1.00  0.00     0.031 C 
ATOM     55  C   UNL A   1      43.379  27.990  33.449  1.00  0.00     0.031 A 
BRANCH  42  56
ATOM     56  C   UNL A   1      42.361  26.514  27.537  1.00  0.00    -0.014 A 
ATOM     57  C   UNL A   1      41.907  25.207  27.306  1.00  0.00     0.009 A 
ATOM     58  C   UNL A   1      43.212  27.114  26.595  1.00  0.00     0.009 A 
ATOM     59  C   UNL A   1      42.319  24.507  26.168  1.00  0.00     0.001 A 
ATOM     60  C   UNL A   1      43.604  26.421  25.449  1.00  0.00     0.001 A 
ATOM     61  C   UNL A   1      43.163  25.116  25.240  1.00  0.00     0.000 A 
ENDBRANCH  42  56
BRANCH  43  62
ATOM     62  C   UNL A   1      39.068  31.783  35.359  1.00  0.00    -0.014 A 
ATOM     63  C   UNL A   1      38.204  31.166  36.275  1.00  0.00     0.009 A 
ATOM     64  C   UNL A   1      39.470  33.109  35.588  1.00  0.00     0.009 A 
ATOM     65  C   UNL A   1      37.747  31.866  37.395  1.00  0.00     0.001 A 
ATOM     66  C   UNL A   1      39.032  33.796  36.721  1.00  0.00     0.001 A 
ATOM     67  C   UNL A   1      38.167  33.176  37.621  1.00  0.00     0.000 A 
ENDBRANCH  43  62
BRANCH  55  68
ATOM     68  C   UNL A   1      44.484  27.540  34.358  1.00  0.00    -0.014 A 
ATOM     69  C   UNL A   1      45.682  28.264  34.454  1.00  0.00     0.009 A 
ATOM     70  C   UNL A   1      44.317  26.384  35.136  1.00  0.00     0.009 A 
ATOM     71  C   UNL A   1      46.706  27.821  35.293  1.00  0.00     0.001 A 
ATOM     72  C   UNL A   1      45.334  25.955  35.989  1.00  0.00     0.001 A 
ATOM     73  C   UNL A   1      46.531  26.669  36.060  1.00  0.00     0.000 A 
ENDBRANCH  55  68
ENDBRANCH  29  30
ENDBRANCH  22  24
ENDBRANCH  21  22
ENDBRANCH  20  21
ENDBRANCH   1  20
TORSDOF 14
ENDMDL
MODEL 2
REMARK VINA RESULT:     -10.2      2.889      6.525
REMARK SMILES CC(C)C[C@H](C(=O)OCCOC(=O)c1ccc(-c2c3nc(c(-c4ccccc4)c4ccc([nH]4)c(-c4ccccc4)c4nc(c(-c5ccccc5)c5ccc2[nH]5)C=C4)C=C3)cc1)[C@@H]1CCO[C@]2(CCOC2)C1
REMARK SMILES IDX 9 1 8 2 6 3 7 4 5 5 4 6 2 7 1 8 3 9 62 10 63 11 71 12 64 13
REMARK SMILES IDX 66 14 65 15 67 16 70 17 68 18 69 19 10 20 11 21 12 22 13 23
REMARK SMILES IDX 14 24 15 25 61 26 16 27 60 28 17 29 18 30 19 31 54 32 20 33
REMARK SMILES IDX 59 34 53 35 55 36 21 37 58 38 52 39 51 40 22 42 44 43 29 44
REMARK SMILES IDX 43 45 30 46 33 47 42 48 56 49 31 50 32 51 41 53 57 54 34 55
REMARK SMILES IDX 23 56 24 57 28 58 25 59 27 60 26 61 45 62 46 63 50 64 47 65
REMARK SMILES IDX 49 66 48 67 35 68 36 69 40 70 37 71 39 72 38 73
REMARK H PARENT 55 41 33 52
REMARK Flexibility Score: inf
ROOT
ATOM      1  C   UNL A   1      31.904  28.128  27.482  1.00  0.00     0.274 C 
ENDROOT
BRANCH   1   2
ATOM      2  O   UNL A   1      32.534  27.171  26.599  1.00  0.00    -0.462 OA
BRANCH   2   3
ATOM      3  C   UNL A   1      31.760  26.185  26.097  1.00  0.00     0.309 C 
ATOM      4  O   UNL A   1      30.543  26.264  25.966  1.00  0.00    -0.252 OA
BRANCH   3   5
ATOM      5  C   UNL A   1      32.547  24.954  25.641  1.00  0.00     0.103 C 
BRANCH   5   6
ATOM      6  C   UNL A   1      31.540  23.836  25.289  1.00  0.00     0.018 C 
BRANCH   6   7
ATOM      7  C   UNL A   1      31.348  22.735  26.355  1.00  0.00    -0.017 C 
ATOM      8  C   UNL A   1      32.444  22.770  27.420  1.00  0.00     0.007 C 
ATOM      9  C   UNL A   1      29.977  22.898  27.020  1.00  0.00     0.007 C 
ENDBRANCH   6   7
ENDBRANCH   5   6
BRANCH   5  10
ATOM     10  C   UNL A   1      33.767  25.132  24.667  1.00  0.00     0.008 C 
ATOM     11  C   UNL A   1      33.464  25.096  23.156  1.00  0.00     0.033 C 
ATOM     12  C   UNL A   1      35.096  24.406  24.980  1.00  0.00     0.042 C 
ATOM     13  C   UNL A   1      33.854  23.795  22.459  1.00  0.00     0.161 C 
ATOM     14  C   UNL A   1      35.394  23.146  24.156  1.00  0.00     0.094 C 
ATOM     15  O   UNL A   1      35.185  23.408  22.772  1.00  0.00    -0.372 OA
ATOM     16  C   UNL A   1      34.683  21.905  24.669  1.00  0.00     0.066 C 
ATOM     17  C   UNL A   1      36.848  22.711  24.372  1.00  0.00     0.195 C 
ATOM     18  C   UNL A   1      35.568  21.416  25.802  1.00  0.00     0.163 C 
ATOM     19  O   UNL A   1      36.877  21.965  25.597  1.00  0.00    -0.378 OA
ENDBRANCH   5  10
ENDBRANCH   3   5
ENDBRANCH   2   3
ENDBRANCH   1   2
BRANCH   1  20
ATOM     20  C   UNL A   1      32.515  29.503  27.253  1.00  0.00     0.275 C 
BRANCH  20  21
ATOM     21  O   UNL A   1      33.939  29.357  27.361  1.00  0.00    -0.458 OA
BRANCH  21  22
ATOM     22  C   UNL A   1      34.620  30.427  27.818  1.00  0.00     0.338 C 
ATOM     23  O   UNL A   1      34.229  31.576  27.935  1.00  0.00    -0.246 OA
BRANCH  22  24
ATOM     24  C   UNL A   1      35.964  29.977  28.207  1.00  0.00     0.060 A 
ATOM     25  C   UNL A   1      36.182  29.461  29.488  1.00  0.00     0.016 A 
ATOM     26  C   UNL A   1      37.021  30.115  27.308  1.00  0.00     0.016 A 
ATOM     27  C   UNL A   1      37.467  29.112  29.889  1.00  0.00     0.010 A 
ATOM     28  C   UNL A   1      38.294  29.686  27.684  1.00  0.00     0.010 A 
ATOM     29  C   UNL A   1      38.530  29.189  28.978  1.00  0.00    -0.014 A 
BRANCH  29  30
ATOM     30  C   UNL A   1      39.882  28.704  29.344  1.00  0.00     0.031 A 
ATOM     31  C   UNL A   1      40.836  29.600  30.079  1.00  0.00     0.074 A 
ATOM     32  C   UNL A   1      40.270  27.473  28.957  1.00  0.00     0.049 A 
ATOM     33  N   UNL A   1      42.116  29.439  30.297  1.00  0.00    -0.248 NA
ATOM     34  C   UNL A   1      40.281  30.848  30.627  1.00  0.00     0.031 C 
ATOM     35  C   UNL A   1      39.428  26.497  28.262  1.00  0.00     0.029 A 
ATOM     36  N   UNL A   1      41.480  26.839  29.081  1.00  0.00    -0.354 N 
ATOM     37  C   UNL A   1      42.529  30.582  30.972  1.00  0.00     0.074 A 
ATOM     38  C   UNL A   1      41.365  31.428  31.126  1.00  0.00     0.031 C 
ATOM     39  C   UNL A   1      40.141  25.385  28.032  1.00  0.00     0.029 A 
ATOM     40  C   UNL A   1      41.508  25.598  28.494  1.00  0.00     0.049 A 
ATOM     41  H   UNL A   1      42.253  27.235  29.545  1.00  0.00     0.167 HD
ATOM     42  C   UNL A   1      43.771  30.897  31.411  1.00  0.00     0.031 A 
ATOM     43  C   UNL A   1      42.528  24.742  28.303  1.00  0.00     0.031 A 
ATOM     44  C   UNL A   1      44.923  30.047  31.259  1.00  0.00     0.049 A 
ATOM     45  C   UNL A   1      43.899  25.130  28.765  1.00  0.00     0.074 A 
ATOM     46  C   UNL A   1      46.225  30.273  31.671  1.00  0.00     0.029 A 
ATOM     47  N   UNL A   1      44.906  28.799  30.653  1.00  0.00    -0.354 N 
ATOM     48  N   UNL A   1      44.286  26.229  29.366  1.00  0.00    -0.248 NA
ATOM     49  C   UNL A   1      44.979  24.166  28.512  1.00  0.00     0.031 C 
ATOM     50  C   UNL A   1      47.004  29.177  31.281  1.00  0.00     0.029 A 
ATOM     51  C   UNL A   1      46.177  28.250  30.667  1.00  0.00     0.049 A 
ATOM     52  H   UNL A   1      44.109  28.369  30.269  1.00  0.00     0.167 HD
ATOM     53  C   UNL A   1      45.651  26.088  29.569  1.00  0.00     0.074 A 
ATOM     54  C   UNL A   1      46.021  24.787  29.046  1.00  0.00     0.031 C 
ATOM     55  C   UNL A   1      46.522  26.960  30.131  1.00  0.00     0.031 A 
BRANCH  42  56
ATOM     56  C   UNL A   1      43.955  32.237  32.064  1.00  0.00    -0.014 A 
ATOM     57  C   UNL A   1      43.835  32.397  33.452  1.00  0.00     0.009 A 
ATOM     58  C   UNL A   1      44.287  33.352  31.278  1.00  0.00     0.009 A 
ATOM     59  C   UNL A   1      44.018  33.653  34.037  1.00  0.00     0.001 A 
ATOM     60  C   UNL A   1      44.491  34.601  31.867  1.00  0.00     0.001 A 
ATOM     61  C   UNL A   1      44.349  34.752  33.245  1.00  0.00     0.000 A 
ENDBRANCH  42  56
BRANCH  43  62
ATOM     62  C   UNL A   1      42.285  23.457  27.601  1.00  0.00    -0.014 A 
ATOM     63  C   UNL A   1      42.489  23.352  26.218  1.00  0.00     0.009 A 
ATOM     64  C   UNL A   1      41.886  22.318  28.320  1.00  0.00     0.009 A 
ATOM     65  C   UNL A   1      42.290  22.131  25.567  1.00  0.00     0.001 A 
ATOM     66  C   UNL A   1      41.714  21.095  27.671  1.00  0.00     0.001 A 
ATOM     67  C   UNL A   1      41.912  21.003  26.294  1.00  0.00     0.000 A 
ENDBRANCH  43  62
BRANCH  55  68
ATOM     68  C   UNL A   1      47.952  26.517  30.224  1.00  0.00    -0.014 A 
ATOM     69  C   UNL A   1      48.856  26.769  29.181  1.00  0.00     0.009 A 
ATOM     70  C   UNL A   1      48.401  25.851  31.374  1.00  0.00     0.009 A 
ATOM     71  C   UNL A   1      50.179  26.335  29.277  1.00  0.00     0.001 A 
ATOM     72  C   UNL A   1      49.729  25.437  31.477  1.00  0.00     0.001 A 
ATOM     73  C   UNL A   1      50.615  25.672  30.424  1.00  0.00     0.000 A 
ENDBRANCH  55  68
ENDBRANCH  29  30
ENDBRANCH  22  24
ENDBRANCH  21  22
ENDBRANCH  20  21
ENDBRANCH   1  20
TORSDOF 14
ENDMDL
MODEL 3
REMARK VINA RESULT:     -10.2      3.504      8.495
REMARK SMILES CC(C)C[C@H](C(=O)OCCOC(=O)c1ccc(-c2c3nc(c(-c4ccccc4)c4ccc([nH]4)c(-c4ccccc4)c4nc(c(-c5ccccc5)c5ccc2[nH]5)C=C4)C=C3)cc1)[C@@H]1CCO[C@]2(CCOC2)C1
REMARK SMILES IDX 9 1 8 2 6 3 7 4 5 5 4 6 2 7 1 8 3 9 62 10 63 11 71 12 64 13
REMARK SMILES IDX 66 14 65 15 67 16 70 17 68 18 69 19 10 20 11 21 12 22 13 23
REMARK SMILES IDX 14 24 15 25 61 26 16 27 60 28 17 29 18 30 19 31 54 32 20 33
REMARK SMILES IDX 59 34 53 35 55 36 21 37 58 38 52 39 51 40 22 42 44 43 29 44
REMARK SMILES IDX 43 45 30 46 33 47 42 48 56 49 31 50 32 51 41 53 57 54 34 55
REMARK SMILES IDX 23 56 24 57 28 58 25 59 27 60 26 61 45 62 46 63 50 64 47 65
REMARK SMILES IDX 49 66 48 67 35 68 36 69 40 70 37 71 39 72 38 73
REMARK H PARENT 55 41 33 52
REMARK Flexibility Score: inf
ROOT
ATOM      1  C   UNL A   1      34.766  20.874  25.616  1.00  0.00     0.274 C 
ENDROOT
BRANCH   1   2
ATOM      2  O   UNL A   1      34.316  22.206  25.275  1.00  0.00    -0.462 OA
BRANCH   2   3
ATOM      3  C   UNL A   1      33.922  23.006  26.288  1.00  0.00     0.309 C 
ATOM      4  O   UNL A   1      34.203  22.813  27.467  1.00  0.00    -0.252 OA
BRANCH   3   5
ATOM      5  C   UNL A   1      33.126  24.231  25.833  1.00  0.00     0.103 C 
BRANCH   5   6
ATOM      6  C   UNL A   1      31.899  24.386  26.760  1.00  0.00     0.018 C 
BRANCH   6   7
ATOM      7  C   UNL A   1      30.517  24.226  26.090  1.00  0.00    -0.017 C 
ATOM      8  C   UNL A   1      29.795  25.564  25.938  1.00  0.00     0.007 C 
ATOM      9  C   UNL A   1      30.685  23.571  24.715  1.00  0.00     0.007 C 
ENDBRANCH   6   7
ENDBRANCH   5   6
BRANCH   5  10
ATOM     10  C   UNL A   1      33.887  25.551  25.451  1.00  0.00     0.008 C 
ATOM     11  C   UNL A   1      33.504  26.827  26.226  1.00  0.00     0.033 C 
ATOM     12  C   UNL A   1      34.147  25.870  23.960  1.00  0.00     0.042 C 
ATOM     13  C   UNL A   1      32.628  27.807  25.447  1.00  0.00     0.161 C 
ATOM     14  C   UNL A   1      33.234  26.924  23.320  1.00  0.00     0.094 C 
ATOM     15  O   UNL A   1      33.158  28.074  24.156  1.00  0.00    -0.372 OA
ATOM     16  C   UNL A   1      31.884  26.375  22.889  1.00  0.00     0.066 C 
ATOM     17  C   UNL A   1      33.788  27.333  21.950  1.00  0.00     0.195 C 
ATOM     18  C   UNL A   1      32.159  25.741  21.537  1.00  0.00     0.163 C 
ATOM     19  O   UNL A   1      33.356  26.335  21.015  1.00  0.00    -0.378 OA
ENDBRANCH   5  10
ENDBRANCH   3   5
ENDBRANCH   2   3
ENDBRANCH   1   2
BRANCH   1  20
ATOM     20  C   UNL A   1      36.158  20.650  25.039  1.00  0.00     0.275 C 
BRANCH  20  21
ATOM     21  O   UNL A   1      37.031  21.608  25.655  1.00  0.00    -0.458 OA
BRANCH  21  22
ATOM     22  C   UNL A   1      38.321  21.242  25.795  1.00  0.00     0.338 C 
ATOM     23  O   UNL A   1      38.824  20.154  25.573  1.00  0.00    -0.246 OA
BRANCH  22  24
ATOM     24  C   UNL A   1      39.080  22.417  26.249  1.00  0.00     0.060 A 
ATOM     25  C   UNL A   1      40.261  22.243  26.976  1.00  0.00     0.016 A 
ATOM     26  C   UNL A   1      38.586  23.695  25.990  1.00  0.00     0.016 A 
ATOM     27  C   UNL A   1      40.938  23.349  27.479  1.00  0.00     0.010 A 
ATOM     28  C   UNL A   1      39.311  24.804  26.425  1.00  0.00     0.010 A 
ATOM     29  C   UNL A   1      40.487  24.642  27.178  1.00  0.00    -0.014 A 
BRANCH  29  30
ATOM     30  C   UNL A   1      41.261  25.834  27.598  1.00  0.00     0.031 A 
ATOM     31  C   UNL A   1      40.646  26.857  28.507  1.00  0.00     0.074 A 
ATOM     32  C   UNL A   1      42.501  26.024  27.106  1.00  0.00     0.049 A 
ATOM     33  N   UNL A   1      41.076  28.055  28.812  1.00  0.00    -0.248 NA
ATOM     34  C   UNL A   1      39.373  26.491  29.147  1.00  0.00     0.031 C 
ATOM     35  C   UNL A   1      43.221  25.091  26.235  1.00  0.00     0.029 A 
ATOM     36  N   UNL A   1      43.370  27.075  27.256  1.00  0.00    -0.354 N 
ATOM     37  C   UNL A   1      40.108  28.602  29.645  1.00  0.00     0.074 A 
ATOM     38  C   UNL A   1      39.068  27.606  29.798  1.00  0.00     0.031 C 
ATOM     39  C   UNL A   1      44.424  25.605  25.939  1.00  0.00     0.029 A 
ATOM     40  C   UNL A   1      44.530  26.931  26.534  1.00  0.00     0.049 A 
ATOM     41  H   UNL A   1      43.181  27.855  27.825  1.00  0.00     0.167 HD
ATOM     42  C   UNL A   1      40.088  29.828  30.220  1.00  0.00     0.031 A 
ATOM     43  C   UNL A   1      45.547  27.788  26.332  1.00  0.00     0.031 A 
ATOM     44  C   UNL A   1      41.129  30.811  30.068  1.00  0.00     0.049 A 
ATOM     45  C   UNL A   1      45.483  29.152  26.949  1.00  0.00     0.074 A 
ATOM     46  C   UNL A   1      41.204  32.082  30.610  1.00  0.00     0.029 A 
ATOM     47  N   UNL A   1      42.284  30.625  29.323  1.00  0.00    -0.354 N 
ATOM     48  N   UNL A   1      44.545  29.672  27.702  1.00  0.00    -0.248 NA
ATOM     49  C   UNL A   1      46.612  30.053  26.678  1.00  0.00     0.031 C 
ATOM     50  C   UNL A   1      42.389  32.679  30.163  1.00  0.00     0.029 A 
ATOM     51  C   UNL A   1      43.071  31.762  29.380  1.00  0.00     0.049 A 
ATOM     52  H   UNL A   1      42.510  29.805  28.827  1.00  0.00     0.167 HD
ATOM     53  C   UNL A   1      44.971  30.958  28.001  1.00  0.00     0.074 A 
ATOM     54  C   UNL A   1      46.262  31.131  27.364  1.00  0.00     0.031 C 
ATOM     55  C   UNL A   1      44.346  31.914  28.730  1.00  0.00     0.031 A 
BRANCH  42  56
ATOM     56  C   UNL A   1      38.879  30.191  31.036  1.00  0.00    -0.014 A 
ATOM     57  C   UNL A   1      37.746  30.769  30.446  1.00  0.00     0.009 A 
ATOM     58  C   UNL A   1      38.864  29.917  32.413  1.00  0.00     0.009 A 
ATOM     59  C   UNL A   1      36.630  31.091  31.225  1.00  0.00     0.001 A 
ATOM     60  C   UNL A   1      37.741  30.219  33.184  1.00  0.00     0.001 A 
ATOM     61  C   UNL A   1      36.628  30.812  32.591  1.00  0.00     0.000 A 
ENDBRANCH  42  56
BRANCH  43  62
ATOM     62  C   UNL A   1      46.685  27.384  25.469  1.00  0.00    -0.014 A 
ATOM     63  C   UNL A   1      46.775  27.843  24.148  1.00  0.00     0.009 A 
ATOM     64  C   UNL A   1      47.708  26.567  25.978  1.00  0.00     0.009 A 
ATOM     65  C   UNL A   1      47.865  27.487  23.350  1.00  0.00     0.001 A 
ATOM     66  C   UNL A   1      48.808  26.234  25.186  1.00  0.00     0.001 A 
ATOM     67  C   UNL A   1      48.884  26.690  23.871  1.00  0.00     0.000 A 
ENDBRANCH  43  62
BRANCH  55  68
ATOM     68  C   UNL A   1      45.069  33.218  28.890  1.00  0.00    -0.014 A 
ATOM     69  C   UNL A   1      44.896  34.258  27.964  1.00  0.00     0.009 A 
ATOM     70  C   UNL A   1      45.921  33.412  29.988  1.00  0.00     0.009 A 
ATOM     71  C   UNL A   1      45.589  35.460  28.120  1.00  0.00     0.001 A 
ATOM     72  C   UNL A   1      46.596  34.621  30.152  1.00  0.00     0.001 A 
ATOM     73  C   UNL A   1      46.436  35.641  29.213  1.00  0.00     0.000 A 
ENDBRANCH  55  68
ENDBRANCH  29  30
ENDBRANCH  22  24
ENDBRANCH  21  22
ENDBRANCH  20  21
ENDBRANCH   1  20
TORSDOF 14
ENDMDL
