MODEL 1
REMARK VINA RESULT:     -10.0      0.000      0.000
REMARK SMILES NS(=O)(=O)c1ccc(-c2coc(=O)n2-c2ccc(C(=O)OCCOC(=O)c3ccc(-c4c5nc(c(-c6ccccc6)c6ccc([nH]6)c(-c6ccccc6)c6nc(c(-c7ccccc7)c7ccc4[nH]7)C=C6)C=C5)cc3)cc2)cc1
REMARK SMILES IDX 22 1 21 2 19 3 20 4 18 5 15 6 16 7 76 8 17 9 75 10 14 11
REMARK SMILES IDX 9 12 10 13 11 14 12 15 13 16 8 17 5 18 6 19 78 20 7 21 77 22
REMARK SMILES IDX 2 23 3 24 4 25 1 26 23 29 24 30 25 31 26 32 27 33 28 34
REMARK SMILES IDX 74 35 29 36 73 37 30 38 31 39 32 40 67 41 33 42 72 43 66 44
REMARK SMILES IDX 68 45 34 46 71 47 65 48 64 49 35 51 57 52 42 53 56 54 43 55
REMARK SMILES IDX 46 56 55 57 69 58 44 59 45 60 54 62 70 63 47 64 36 65 37 66
REMARK SMILES IDX 41 67 38 68 40 69 39 70 58 71 59 72 63 73 60 74 62 75 61 76
REMARK SMILES IDX 48 77 49 78 53 79 50 80 52 81 51 82
REMARK H PARENT 1 27 1 28 68 50 46 61
REMARK Flexibility Score: inf
ROOT
ATOM      1  C   UNL A   1      33.961  34.623  29.434  1.00  0.00     0.275 C 
ENDROOT
BRANCH   1   2
ATOM      2  O   UNL A   1      34.816  34.048  30.434  1.00  0.00    -0.458 OA
BRANCH   2   3
ATOM      3  C   UNL A   1      34.394  34.188  31.718  1.00  0.00     0.338 C 
ATOM      4  O   UNL A   1      33.352  34.706  32.089  1.00  0.00    -0.246 OA
BRANCH   3   5
ATOM      5  C   UNL A   1      35.341  33.521  32.642  1.00  0.00     0.060 A 
ATOM      6  C   UNL A   1      37.289  32.405  34.317  1.00  0.00     0.053 A 
ATOM      7  C   UNL A   1      36.764  33.667  34.606  1.00  0.00     0.028 A 
ATOM      8  C   UNL A   1      36.753  31.668  33.248  1.00  0.00     0.028 A 
ATOM      9  C   UNL A   1      35.811  34.234  33.755  1.00  0.00     0.018 A 
ATOM     10  C   UNL A   1      35.777  32.215  32.419  1.00  0.00     0.018 A 
BRANCH   6  11
ATOM     11  N   UNL A   1      38.423  31.921  35.009  1.00  0.00    -0.242 N 
ATOM     12  C   UNL A   1      39.735  32.030  34.633  1.00  0.00     0.095 A 
ATOM     13  C   UNL A   1      40.444  31.435  35.585  1.00  0.00     0.228 A 
ATOM     14  O   UNL A   1      39.678  30.914  36.626  1.00  0.00    -0.415 OA
ATOM     15  C   UNL A   1      38.384  31.270  36.240  1.00  0.00     0.424 A 
ATOM     16  O   UNL A   1      37.403  30.996  36.918  1.00  0.00    -0.223 OA
BRANCH  12  17
ATOM     17  C   UNL A   1      40.231  32.814  33.505  1.00  0.00     0.002 A 
ATOM     18  C   UNL A   1      41.347  34.161  31.325  1.00  0.00     0.082 A 
ATOM     19  C   UNL A   1      40.552  33.037  31.101  1.00  0.00     0.022 A 
ATOM     20  C   UNL A   1      41.572  34.632  32.623  1.00  0.00     0.022 A 
ATOM     21  C   UNL A   1      39.993  32.371  32.191  1.00  0.00     0.012 A 
ATOM     22  C   UNL A   1      41.006  33.961  33.711  1.00  0.00     0.012 A 
BRANCH  18  23
ATOM     23  S   UNL A   1      42.082  34.993  29.950  1.00  0.00     0.238 S 
ATOM     24  O   UNL A   1      43.038  35.959  30.427  1.00  0.00    -0.207 OA
ATOM     25  O   UNL A   1      41.038  35.324  29.004  1.00  0.00    -0.207 OA
BRANCH  23  26
ATOM     26  N   UNL A   1      42.996  33.776  29.239  1.00  0.00    -0.225 NA
ATOM     27  H   UNL A   1      43.191  34.021  28.268  1.00  0.00     0.137 HD
ATOM     28  H   UNL A   1      42.478  32.899  29.272  1.00  0.00     0.137 HD
ENDBRANCH  23  26
ENDBRANCH  18  23
ENDBRANCH  12  17
ENDBRANCH   6  11
ENDBRANCH   3   5
ENDBRANCH   2   3
ENDBRANCH   1   2
BRANCH   1  29
ATOM     29  C   UNL A   1      34.180  33.959  28.083  1.00  0.00     0.275 C 
BRANCH  29  30
ATOM     30  O   UNL A   1      35.345  33.135  28.089  1.00  0.00    -0.458 OA
BRANCH  30  31
ATOM     31  C   UNL A   1      35.111  31.805  28.015  1.00  0.00     0.338 C 
ATOM     32  O   UNL A   1      34.097  31.247  27.631  1.00  0.00    -0.246 OA
BRANCH  31  33
ATOM     33  C   UNL A   1      36.177  31.103  28.736  1.00  0.00     0.060 A 
ATOM     34  C   UNL A   1      37.318  31.830  29.082  1.00  0.00     0.016 A 
ATOM     35  C   UNL A   1      36.155  29.701  28.763  1.00  0.00     0.016 A 
ATOM     36  C   UNL A   1      38.497  31.140  29.277  1.00  0.00     0.010 A 
ATOM     37  C   UNL A   1      37.332  29.017  28.943  1.00  0.00     0.010 A 
ATOM     38  C   UNL A   1      38.501  29.747  29.117  1.00  0.00    -0.014 A 
BRANCH  38  39
ATOM     39  C   UNL A   1      39.744  29.027  29.294  1.00  0.00     0.031 A 
ATOM     40  C   UNL A   1      40.084  28.854  30.724  1.00  0.00     0.074 A 
ATOM     41  C   UNL A   1      40.429  28.474  28.274  1.00  0.00     0.049 A 
ATOM     42  N   UNL A   1      41.077  29.389  31.349  1.00  0.00    -0.248 NA
ATOM     43  C   UNL A   1      39.116  28.171  31.601  1.00  0.00     0.031 C 
ATOM     44  C   UNL A   1      40.051  28.371  26.862  1.00  0.00     0.029 A 
ATOM     45  N   UNL A   1      41.596  27.780  28.318  1.00  0.00    -0.354 N 
ATOM     46  C   UNL A   1      40.971  28.959  32.664  1.00  0.00     0.074 A 
ATOM     47  C   UNL A   1      39.668  28.363  32.800  1.00  0.00     0.031 C 
ATOM     48  C   UNL A   1      40.839  27.450  26.254  1.00  0.00     0.029 A 
ATOM     49  C   UNL A   1      41.855  27.006  27.193  1.00  0.00     0.049 A 
ATOM     50  H   UNL A   1      42.210  27.822  29.088  1.00  0.00     0.167 HD
ATOM     51  C   UNL A   1      42.066  28.902  33.467  1.00  0.00     0.031 A 
ATOM     52  C   UNL A   1      42.803  26.038  27.080  1.00  0.00     0.031 A 
ATOM     53  C   UNL A   1      43.163  29.657  32.919  1.00  0.00     0.049 A 
ATOM     54  C   UNL A   1      43.800  26.270  28.153  1.00  0.00     0.074 A 
ATOM     55  C   UNL A   1      43.367  30.988  32.621  1.00  0.00     0.029 A 
ATOM     56  N   UNL A   1      44.098  28.952  32.199  1.00  0.00    -0.354 N 
ATOM     57  N   UNL A   1      44.594  27.301  28.169  1.00  0.00    -0.248 NA
ATOM     58  C   UNL A   1      43.572  25.635  29.443  1.00  0.00     0.031 C 
ATOM     59  C   UNL A   1      44.091  30.983  31.394  1.00  0.00     0.029 A 
ATOM     60  C   UNL A   1      44.367  29.657  31.054  1.00  0.00     0.049 A 
ATOM     61  H   UNL A   1      44.503  28.094  32.459  1.00  0.00     0.167 HD
ATOM     62  C   UNL A   1      44.582  27.727  29.489  1.00  0.00     0.074 A 
ATOM     63  C   UNL A   1      44.011  26.611  30.245  1.00  0.00     0.031 C 
ATOM     64  C   UNL A   1      44.753  29.045  29.802  1.00  0.00     0.031 A 
BRANCH  51  65
ATOM     65  C   UNL A   1      42.276  27.819  34.487  1.00  0.00    -0.014 A 
ATOM     66  C   UNL A   1      42.718  26.560  34.048  1.00  0.00     0.009 A 
ATOM     67  C   UNL A   1      41.776  27.897  35.802  1.00  0.00     0.009 A 
ATOM     68  C   UNL A   1      42.595  25.426  34.858  1.00  0.00     0.001 A 
ATOM     69  C   UNL A   1      41.687  26.774  36.626  1.00  0.00     0.001 A 
ATOM     70  C   UNL A   1      42.071  25.533  36.142  1.00  0.00     0.000 A 
ENDBRANCH  51  65
BRANCH  52  71
ATOM     71  C   UNL A   1      42.759  24.762  26.327  1.00  0.00    -0.014 A 
ATOM     72  C   UNL A   1      43.808  24.391  25.466  1.00  0.00     0.009 A 
ATOM     73  C   UNL A   1      41.828  23.768  26.680  1.00  0.00     0.009 A 
ATOM     74  C   UNL A   1      43.940  23.069  25.014  1.00  0.00     0.001 A 
ATOM     75  C   UNL A   1      41.961  22.449  26.228  1.00  0.00     0.001 A 
ATOM     76  C   UNL A   1      43.025  22.095  25.407  1.00  0.00     0.000 A 
ENDBRANCH  52  71
BRANCH  64  77
ATOM     77  C   UNL A   1      45.160  29.986  28.693  1.00  0.00    -0.014 A 
ATOM     78  C   UNL A   1      44.246  30.586  27.805  1.00  0.00     0.009 A 
ATOM     79  C   UNL A   1      46.499  30.399  28.645  1.00  0.00     0.009 A 
ATOM     80  C   UNL A   1      44.673  31.547  26.880  1.00  0.00     0.001 A 
ATOM     81  C   UNL A   1      46.920  31.373  27.739  1.00  0.00     0.001 A 
ATOM     82  C   UNL A   1      46.008  31.943  26.852  1.00  0.00     0.000 A 
ENDBRANCH  64  77
ENDBRANCH  38  39
ENDBRANCH  31  33
ENDBRANCH  30  31
ENDBRANCH  29  30
ENDBRANCH   1  29
TORSDOF 15
ENDMDL
MODEL 2
REMARK VINA RESULT:      -9.8      5.016      9.674
REMARK SMILES NS(=O)(=O)c1ccc(-c2coc(=O)n2-c2ccc(C(=O)OCCOC(=O)c3ccc(-c4c5nc(c(-c6ccccc6)c6ccc([nH]6)c(-c6ccccc6)c6nc(c(-c7ccccc7)c7ccc4[nH]7)C=C6)C=C5)cc3)cc2)cc1
REMARK SMILES IDX 22 1 21 2 19 3 20 4 18 5 15 6 16 7 76 8 17 9 75 10 14 11
REMARK SMILES IDX 9 12 10 13 11 14 12 15 13 16 8 17 5 18 6 19 78 20 7 21 77 22
REMARK SMILES IDX 2 23 3 24 4 25 1 26 23 29 24 30 25 31 26 32 27 33 28 34
REMARK SMILES IDX 74 35 29 36 73 37 30 38 31 39 32 40 67 41 33 42 72 43 66 44
REMARK SMILES IDX 68 45 34 46 71 47 65 48 64 49 35 51 57 52 42 53 56 54 43 55
REMARK SMILES IDX 46 56 55 57 69 58 44 59 45 60 54 62 70 63 47 64 36 65 37 66
REMARK SMILES IDX 41 67 38 68 40 69 39 70 58 71 59 72 63 73 60 74 62 75 61 76
REMARK SMILES IDX 48 77 49 78 53 79 50 80 52 81 51 82
REMARK H PARENT 1 27 1 28 68 50 46 61
REMARK Flexibility Score: inf
ROOT
ATOM      1  C   UNL A   1      31.994  31.259  26.474  1.00  0.00     0.275 C 
ENDROOT
BRANCH   1   2
ATOM      2  O   UNL A   1      33.345  30.817  26.273  1.00  0.00    -0.458 OA
BRANCH   2   3
ATOM      3  C   UNL A   1      33.784  29.859  27.129  1.00  0.00     0.338 C 
ATOM      4  O   UNL A   1      34.372  30.040  28.184  1.00  0.00    -0.246 OA
BRANCH   3   5
ATOM      5  C   UNL A   1      33.358  28.520  26.660  1.00  0.00     0.060 A 
ATOM      6  C   UNL A   1      32.495  26.085  25.576  1.00  0.00     0.053 A 
ATOM      7  C   UNL A   1      33.677  26.671  25.115  1.00  0.00     0.028 A 
ATOM      8  C   UNL A   1      31.813  26.674  26.653  1.00  0.00     0.028 A 
ATOM      9  C   UNL A   1      34.092  27.899  25.638  1.00  0.00     0.018 A 
ATOM     10  C   UNL A   1      32.245  27.878  27.203  1.00  0.00     0.018 A 
BRANCH   6  11
ATOM     11  N   UNL A   1      31.924  24.985  24.897  1.00  0.00    -0.242 N 
ATOM     12  C   UNL A   1      30.847  24.998  24.051  1.00  0.00     0.095 A 
ATOM     13  C   UNL A   1      30.676  23.744  23.650  1.00  0.00     0.228 A 
ATOM     14  O   UNL A   1      31.598  22.844  24.178  1.00  0.00    -0.415 OA
ATOM     15  C   UNL A   1      32.407  23.679  24.952  1.00  0.00     0.424 A 
ATOM     16  O   UNL A   1      33.367  23.256  25.582  1.00  0.00    -0.223 OA
BRANCH  12  17
ATOM     17  C   UNL A   1      30.168  26.196  23.563  1.00  0.00     0.002 A 
ATOM     18  C   UNL A   1      28.973  28.604  22.797  1.00  0.00     0.082 A 
ATOM     19  C   UNL A   1      30.288  28.340  22.413  1.00  0.00     0.022 A 
ATOM     20  C   UNL A   1      28.242  27.670  23.539  1.00  0.00     0.022 A 
ATOM     21  C   UNL A   1      30.879  27.134  22.794  1.00  0.00     0.012 A 
ATOM     22  C   UNL A   1      28.839  26.463  23.914  1.00  0.00     0.012 A 
BRANCH  18  23
ATOM     23  S   UNL A   1      28.228  30.140  22.342  1.00  0.00     0.238 S 
ATOM     24  O   UNL A   1      27.175  30.458  23.271  1.00  0.00    -0.207 OA
ATOM     25  O   UNL A   1      28.038  30.150  20.908  1.00  0.00    -0.207 OA
BRANCH  23  26
ATOM     26  N   UNL A   1      29.453  31.244  22.664  1.00  0.00    -0.225 NA
ATOM     27  H   UNL A   1      29.269  31.707  23.554  1.00  0.00     0.137 HD
ATOM     28  H   UNL A   1      29.488  31.940  21.919  1.00  0.00     0.137 HD
ENDBRANCH  23  26
ENDBRANCH  18  23
ENDBRANCH  12  17
ENDBRANCH   6  11
ENDBRANCH   3   5
ENDBRANCH   2   3
ENDBRANCH   1   2
BRANCH   1  29
ATOM     29  C   UNL A   1      31.923  32.312  27.569  1.00  0.00     0.275 C 
BRANCH  29  30
ATOM     30  O   UNL A   1      33.012  33.229  27.485  1.00  0.00    -0.458 OA
BRANCH  30  31
ATOM     31  C   UNL A   1      33.145  34.065  28.539  1.00  0.00     0.338 C 
ATOM     32  O   UNL A   1      32.400  34.973  28.869  1.00  0.00    -0.246 OA
BRANCH  31  33
ATOM     33  C   UNL A   1      34.490  33.901  29.098  1.00  0.00     0.060 A 
ATOM     34  C   UNL A   1      35.564  34.425  28.374  1.00  0.00     0.016 A 
ATOM     35  C   UNL A   1      34.677  32.974  30.134  1.00  0.00     0.016 A 
ATOM     36  C   UNL A   1      36.815  33.876  28.571  1.00  0.00     0.010 A 
ATOM     37  C   UNL A   1      35.918  32.418  30.318  1.00  0.00     0.010 A 
ATOM     38  C   UNL A   1      36.953  32.817  29.480  1.00  0.00    -0.014 A 
BRANCH  38  39
ATOM     39  C   UNL A   1      38.258  32.222  29.666  1.00  0.00     0.031 A 
ATOM     40  C   UNL A   1      38.274  30.791  29.286  1.00  0.00     0.074 A 
ATOM     41  C   UNL A   1      39.349  32.929  30.020  1.00  0.00     0.049 A 
ATOM     42  N   UNL A   1      38.438  29.787  30.077  1.00  0.00    -0.248 NA
ATOM     43  C   UNL A   1      37.876  30.422  27.916  1.00  0.00     0.031 C 
ATOM     44  C   UNL A   1      39.494  34.379  30.172  1.00  0.00     0.029 A 
ATOM     45  N   UNL A   1      40.617  32.484  30.221  1.00  0.00    -0.354 N 
ATOM     46  C   UNL A   1      38.353  28.657  29.276  1.00  0.00     0.074 A 
ATOM     47  C   UNL A   1      37.839  29.092  28.003  1.00  0.00     0.031 C 
ATOM     48  C   UNL A   1      40.812  34.699  30.189  1.00  0.00     0.029 A 
ATOM     49  C   UNL A   1      41.593  33.473  30.188  1.00  0.00     0.049 A 
ATOM     50  H   UNL A   1      40.828  31.534  30.378  1.00  0.00     0.167 HD
ATOM     51  C   UNL A   1      38.953  27.495  29.646  1.00  0.00     0.031 A 
ATOM     52  C   UNL A   1      42.936  33.280  30.110  1.00  0.00     0.031 A 
ATOM     53  C   UNL A   1      39.313  27.507  31.039  1.00  0.00     0.049 A 
ATOM     54  C   UNL A   1      43.207  31.886  30.540  1.00  0.00     0.074 A 
ATOM     55  C   UNL A   1      38.604  27.595  32.220  1.00  0.00     0.029 A 
ATOM     56  N   UNL A   1      40.609  27.854  31.340  1.00  0.00    -0.354 N 
ATOM     57  N   UNL A   1      43.036  31.479  31.764  1.00  0.00    -0.248 NA
ATOM     58  C   UNL A   1      43.184  30.844  29.524  1.00  0.00     0.031 C 
ATOM     59  C   UNL A   1      39.392  28.436  33.059  1.00  0.00     0.029 A 
ATOM     60  C   UNL A   1      40.576  28.742  32.384  1.00  0.00     0.049 A 
ATOM     61  H   UNL A   1      41.417  27.523  30.886  1.00  0.00     0.167 HD
ATOM     62  C   UNL A   1      42.423  30.241  31.635  1.00  0.00     0.074 A 
ATOM     63  C   UNL A   1      42.623  29.860  30.235  1.00  0.00     0.031 C 
ATOM     64  C   UNL A   1      41.557  29.785  32.587  1.00  0.00     0.031 A 
BRANCH  51  65
ATOM     65  C   UNL A   1      39.604  26.563  28.663  1.00  0.00    -0.014 A 
ATOM     66  C   UNL A   1      40.583  27.077  27.797  1.00  0.00     0.009 A 
ATOM     67  C   UNL A   1      39.086  25.289  28.357  1.00  0.00     0.009 A 
ATOM     68  C   UNL A   1      40.966  26.383  26.644  1.00  0.00     0.001 A 
ATOM     69  C   UNL A   1      39.494  24.578  27.227  1.00  0.00     0.001 A 
ATOM     70  C   UNL A   1      40.414  25.139  26.356  1.00  0.00     0.000 A 
ENDBRANCH  51  65
BRANCH  52  71
ATOM     71  C   UNL A   1      43.963  34.086  29.408  1.00  0.00    -0.014 A 
ATOM     72  C   UNL A   1      45.322  33.997  29.763  1.00  0.00     0.009 A 
ATOM     73  C   UNL A   1      43.651  34.720  28.193  1.00  0.00     0.009 A 
ATOM     74  C   UNL A   1      46.326  34.487  28.913  1.00  0.00     0.001 A 
ATOM     75  C   UNL A   1      44.653  35.208  27.345  1.00  0.00     0.001 A 
ATOM     76  C   UNL A   1      45.992  35.078  27.697  1.00  0.00     0.000 A 
ENDBRANCH  52  71
BRANCH  64  77
ATOM     77  C   UNL A   1      41.448  30.567  33.874  1.00  0.00    -0.014 A 
ATOM     78  C   UNL A   1      40.595  31.674  34.043  1.00  0.00     0.009 A 
ATOM     79  C   UNL A   1      42.118  30.068  35.000  1.00  0.00     0.009 A 
ATOM     80  C   UNL A   1      40.445  32.277  35.298  1.00  0.00     0.001 A 
ATOM     81  C   UNL A   1      41.952  30.655  36.255  1.00  0.00     0.001 A 
ATOM     82  C   UNL A   1      41.120  31.764  36.403  1.00  0.00     0.000 A 
ENDBRANCH  64  77
ENDBRANCH  38  39
ENDBRANCH  31  33
ENDBRANCH  30  31
ENDBRANCH  29  30
ENDBRANCH   1  29
TORSDOF 15
ENDMDL
MODEL 3
REMARK VINA RESULT:      -9.5      4.885      8.048
REMARK SMILES NS(=O)(=O)c1ccc(-c2coc(=O)n2-c2ccc(C(=O)OCCOC(=O)c3ccc(-c4c5nc(c(-c6ccccc6)c6ccc([nH]6)c(-c6ccccc6)c6nc(c(-c7ccccc7)c7ccc4[nH]7)C=C6)C=C5)cc3)cc2)cc1
REMARK SMILES IDX 22 1 21 2 19 3 20 4 18 5 15 6 16 7 76 8 17 9 75 10 14 11
REMARK SMILES IDX 9 12 10 13 11 14 12 15 13 16 8 17 5 18 6 19 78 20 7 21 77 22
REMARK SMILES IDX 2 23 3 24 4 25 1 26 23 29 24 30 25 31 26 32 27 33 28 34
REMARK SMILES IDX 74 35 29 36 73 37 30 38 31 39 32 40 67 41 33 42 72 43 66 44
REMARK SMILES IDX 68 45 34 46 71 47 65 48 64 49 35 51 57 52 42 53 56 54 43 55
REMARK SMILES IDX 46 56 55 57 69 58 44 59 45 60 54 62 70 63 47 64 36 65 37 66
REMARK SMILES IDX 41 67 38 68 40 69 39 70 58 71 59 72 63 73 60 74 62 75 61 76
REMARK SMILES IDX 48 77 49 78 53 79 50 80 52 81 51 82
REMARK H PARENT 1 27 1 28 68 50 46 61
REMARK Flexibility Score: inf
ROOT
ATOM      1  C   UNL A   1      34.572  31.891  28.482  1.00  0.00     0.275 C 
ENDROOT
BRANCH   1   2
ATOM      2  O   UNL A   1      34.177  31.015  27.415  1.00  0.00    -0.458 OA
BRANCH   2   3
ATOM      3  C   UNL A   1      34.601  29.729  27.523  1.00  0.00     0.338 C 
ATOM      4  O   UNL A   1      35.485  29.314  28.256  1.00  0.00    -0.246 OA
BRANCH   3   5
ATOM      5  C   UNL A   1      33.762  28.842  26.683  1.00  0.00     0.060 A 
ATOM      6  C   UNL A   1      32.237  26.994  25.232  1.00  0.00     0.053 A 
ATOM      7  C   UNL A   1      31.819  27.394  26.504  1.00  0.00     0.028 A 
ATOM      8  C   UNL A   1      33.362  27.606  24.657  1.00  0.00     0.028 A 
ATOM      9  C   UNL A   1      32.595  28.296  27.238  1.00  0.00     0.018 A 
ATOM     10  C   UNL A   1      34.117  28.534  25.370  1.00  0.00     0.018 A 
BRANCH   6  11
ATOM     11  N   UNL A   1      31.616  25.906  24.580  1.00  0.00    -0.242 N 
ATOM     12  C   UNL A   1      30.525  25.945  23.752  1.00  0.00     0.095 A 
ATOM     13  C   UNL A   1      30.302  24.692  23.373  1.00  0.00     0.228 A 
ATOM     14  O   UNL A   1      31.200  23.767  23.900  1.00  0.00    -0.415 OA
ATOM     15  C   UNL A   1      32.051  24.584  24.648  1.00  0.00     0.424 A 
ATOM     16  O   UNL A   1      33.006  24.136  25.268  1.00  0.00    -0.223 OA
BRANCH  12  17
ATOM     17  C   UNL A   1      29.882  27.159  23.256  1.00  0.00     0.002 A 
ATOM     18  C   UNL A   1      28.752  29.595  22.480  1.00  0.00     0.082 A 
ATOM     19  C   UNL A   1      30.075  29.315  22.140  1.00  0.00     0.022 A 
ATOM     20  C   UNL A   1      27.981  28.663  23.183  1.00  0.00     0.022 A 
ATOM     21  C   UNL A   1      30.634  28.096  22.525  1.00  0.00     0.012 A 
ATOM     22  C   UNL A   1      28.546  27.442  23.563  1.00  0.00     0.012 A 
BRANCH  18  23
ATOM     23  S   UNL A   1      28.046  31.148  22.020  1.00  0.00     0.238 S 
ATOM     24  O   UNL A   1      27.178  31.613  23.071  1.00  0.00    -0.207 OA
ATOM     25  O   UNL A   1      27.630  31.070  20.636  1.00  0.00    -0.207 OA
BRANCH  23  26
ATOM     26  N   UNL A   1      29.376  32.173  22.056  1.00  0.00    -0.225 NA
ATOM     27  H   UNL A   1      29.719  32.320  21.106  1.00  0.00     0.137 HD
ATOM     28  H   UNL A   1      30.114  31.753  22.622  1.00  0.00     0.137 HD
ENDBRANCH  23  26
ENDBRANCH  18  23
ENDBRANCH  12  17
ENDBRANCH   6  11
ENDBRANCH   3   5
ENDBRANCH   2   3
ENDBRANCH   1   2
BRANCH   1  29
ATOM     29  C   UNL A   1      35.588  32.914  27.999  1.00  0.00     0.275 C 
BRANCH  29  30
ATOM     30  O   UNL A   1      36.904  32.595  28.445  1.00  0.00    -0.458 OA
BRANCH  30  31
ATOM     31  C   UNL A   1      37.153  32.865  29.747  1.00  0.00     0.338 C 
ATOM     32  O   UNL A   1      36.869  33.877  30.365  1.00  0.00    -0.246 OA
BRANCH  31  33
ATOM     33  C   UNL A   1      38.080  31.854  30.264  1.00  0.00     0.060 A 
ATOM     34  C   UNL A   1      39.445  32.147  30.235  1.00  0.00     0.016 A 
ATOM     35  C   UNL A   1      37.606  30.549  30.459  1.00  0.00     0.016 A 
ATOM     36  C   UNL A   1      40.339  31.095  30.218  1.00  0.00     0.010 A 
ATOM     37  C   UNL A   1      38.494  29.503  30.427  1.00  0.00     0.010 A 
ATOM     38  C   UNL A   1      39.840  29.784  30.225  1.00  0.00    -0.014 A 
BRANCH  38  39
ATOM     39  C   UNL A   1      40.775  28.681  30.179  1.00  0.00     0.031 A 
ATOM     40  C   UNL A   1      41.327  28.366  31.516  1.00  0.00     0.074 A 
ATOM     41  C   UNL A   1      41.006  27.954  29.068  1.00  0.00     0.049 A 
ATOM     42  N   UNL A   1      42.549  28.517  31.899  1.00  0.00    -0.248 NA
ATOM     43  C   UNL A   1      40.391  28.030  32.603  1.00  0.00     0.031 C 
ATOM     44  C   UNL A   1      40.330  28.021  27.770  1.00  0.00     0.029 A 
ATOM     45  N   UNL A   1      41.853  26.904  28.906  1.00  0.00    -0.354 N 
ATOM     46  C   UNL A   1      42.581  28.115  33.226  1.00  0.00     0.074 A 
ATOM     47  C   UNL A   1      41.212  27.993  33.654  1.00  0.00     0.031 C 
ATOM     48  C   UNL A   1      40.616  26.903  27.058  1.00  0.00     0.029 A 
ATOM     49  C   UNL A   1      41.596  26.117  27.789  1.00  0.00     0.049 A 
ATOM     50  H   UNL A   1      42.591  26.715  29.530  1.00  0.00     0.167 HD
ATOM     51  C   UNL A   1      43.735  27.669  33.790  1.00  0.00     0.031 A 
ATOM     52  C   UNL A   1      42.117  24.888  27.530  1.00  0.00     0.031 A 
ATOM     53  C   UNL A   1      44.882  28.021  32.995  1.00  0.00     0.049 A 
ATOM     54  C   UNL A   1      43.334  24.741  28.365  1.00  0.00     0.074 A 
ATOM     55  C   UNL A   1      45.456  29.211  32.599  1.00  0.00     0.029 A 
ATOM     56  N   UNL A   1      45.353  27.059  32.132  1.00  0.00    -0.354 N 
ATOM     57  N   UNL A   1      44.413  25.440  28.169  1.00  0.00    -0.248 NA
ATOM     58  C   UNL A   1      43.178  24.188  29.703  1.00  0.00     0.031 C 
ATOM     59  C   UNL A   1      45.863  28.992  31.251  1.00  0.00     0.029 A 
ATOM     60  C   UNL A   1      45.599  27.660  30.925  1.00  0.00     0.049 A 
ATOM     61  H   UNL A   1      45.490  26.108  32.345  1.00  0.00     0.167 HD
ATOM     62  C   UNL A   1      44.821  25.812  29.443  1.00  0.00     0.074 A 
ATOM     63  C   UNL A   1      44.078  24.937  30.351  1.00  0.00     0.031 C 
ATOM     64  C   UNL A   1      45.487  26.986  29.651  1.00  0.00     0.031 A 
BRANCH  51  65
ATOM     65  C   UNL A   1      43.775  26.554  34.796  1.00  0.00    -0.014 A 
ATOM     66  C   UNL A   1      44.540  26.728  35.961  1.00  0.00     0.009 A 
ATOM     67  C   UNL A   1      43.341  25.245  34.507  1.00  0.00     0.009 A 
ATOM     68  C   UNL A   1      44.913  25.635  36.752  1.00  0.00     0.001 A 
ATOM     69  C   UNL A   1      43.680  24.159  35.315  1.00  0.00     0.001 A 
ATOM     70  C   UNL A   1      44.491  24.352  36.423  1.00  0.00     0.000 A 
ENDBRANCH  51  65
BRANCH  52  71
ATOM     71  C   UNL A   1      41.489  23.722  26.864  1.00  0.00    -0.014 A 
ATOM     72  C   UNL A   1      42.268  22.646  26.401  1.00  0.00     0.009 A 
ATOM     73  C   UNL A   1      40.099  23.527  26.948  1.00  0.00     0.009 A 
ATOM     74  C   UNL A   1      41.680  21.413  26.077  1.00  0.00     0.001 A 
ATOM     75  C   UNL A   1      39.513  22.296  26.625  1.00  0.00     0.001 A 
ATOM     76  C   UNL A   1      40.305  21.234  26.204  1.00  0.00     0.000 A 
ENDBRANCH  52  71
BRANCH  64  77
ATOM     77  C   UNL A   1      45.946  27.760  28.439  1.00  0.00    -0.014 A 
ATOM     78  C   UNL A   1      47.204  27.584  27.832  1.00  0.00     0.009 A 
ATOM     79  C   UNL A   1      45.011  28.587  27.799  1.00  0.00     0.009 A 
ATOM     80  C   UNL A   1      47.521  28.240  26.636  1.00  0.00     0.001 A 
ATOM     81  C   UNL A   1      45.319  29.223  26.596  1.00  0.00     0.001 A 
ATOM     82  C   UNL A   1      46.575  29.055  26.017  1.00  0.00     0.000 A 
ENDBRANCH  64  77
ENDBRANCH  38  39
ENDBRANCH  31  33
ENDBRANCH  30  31
ENDBRANCH  29  30
ENDBRANCH   1  29
TORSDOF 15
ENDMDL
