MODEL 1
REMARK VINA RESULT:     -11.7      0.000      0.000
REMARK SMILES CC(C)=C1[C@H]2CC[C@@H]1[C@@H](C(=O)Nc1cc(C)cc(C)c1)[C@@H]2C(=O)OCCOC(=O)c1ccc(-c2c3nc(c(-c4ccccc4)c4ccc([nH]4)c(-c4ccccc4)c4nc(c(-c5ccccc5)c5ccc2[nH]5)C=C4)C=C3)cc1
REMARK SMILES IDX 25 1 24 2 22 3 23 4 21 5 1 6 2 7 3 8 4 9 5 10 8 11 6 12 7 13
REMARK SMILES IDX 9 14 10 15 11 16 12 17 13 19 14 20 20 21 15 22 18 23 16 24
REMARK SMILES IDX 17 25 19 26 26 27 27 28 28 29 29 30 30 31 31 32 77 33 32 34
REMARK SMILES IDX 76 35 33 36 34 37 35 38 70 39 36 40 75 41 69 42 71 43 37 44
REMARK SMILES IDX 74 45 68 46 67 47 38 49 60 50 45 51 59 52 46 53 49 54 58 55
REMARK SMILES IDX 72 56 47 57 48 58 57 60 73 61 50 62 39 63 40 64 44 65 41 66
REMARK SMILES IDX 43 67 42 68 61 69 62 70 66 71 63 72 65 73 64 74 51 75 52 76
REMARK SMILES IDX 56 77 53 78 55 79 54 80
REMARK H PARENT 12 18 71 48 49 59
REMARK Flexibility Score: inf
ROOT
ATOM      1  C   UNL A   1      32.270  29.158  26.016  1.00  0.00     0.274 C 
ENDROOT
BRANCH   1   2
ATOM      2  O   UNL A   1      32.733  27.800  26.158  1.00  0.00    -0.462 OA
BRANCH   2   3
ATOM      3  C   UNL A   1      31.775  26.896  26.472  1.00  0.00     0.310 C 
ATOM      4  O   UNL A   1      30.903  27.075  27.318  1.00  0.00    -0.252 OA
BRANCH   3   5
ATOM      5  C   UNL A   1      31.918  25.564  25.782  1.00  0.00     0.119 C 
ATOM      6  C   UNL A   1      32.848  22.447  22.379  1.00  0.00     0.039 C 
ATOM      7  C   UNL A   1      33.080  23.788  23.010  1.00  0.00    -0.077 C 
ATOM      8  C   UNL A   1      34.370  24.469  22.632  1.00  0.00     0.039 C 
ATOM      9  C   UNL A   1      32.182  24.403  23.797  1.00  0.00    -0.064 C 
ATOM     10  C   UNL A   1      32.213  25.816  24.294  1.00  0.00     0.030 C 
ATOM     11  C   UNL A   1      30.792  24.049  24.273  1.00  0.00     0.029 C 
ATOM     12  C   UNL A   1      30.985  26.322  23.502  1.00  0.00     0.009 C 
ATOM     13  C   UNL A   1      30.048  25.092  23.425  1.00  0.00     0.009 C 
ATOM     14  C   UNL A   1      30.763  24.560  25.745  1.00  0.00     0.101 C 
BRANCH  14  15
ATOM     15  C   UNL A   1      30.654  23.447  26.795  1.00  0.00     0.228 C 
ATOM     16  O   UNL A   1      29.675  23.448  27.555  1.00  0.00    -0.274 OA
ATOM     17  N   UNL A   1      31.450  22.353  26.888  1.00  0.00    -0.326 N 
ATOM     18  H   UNL A   1      31.060  21.629  27.429  1.00  0.00     0.169 HD
BRANCH  17  19
ATOM     19  C   UNL A   1      32.708  22.048  26.377  1.00  0.00     0.041 A 
ATOM     20  C   UNL A   1      33.801  22.889  26.548  1.00  0.00     0.029 A 
ATOM     21  C   UNL A   1      32.887  20.792  25.794  1.00  0.00     0.029 A 
ATOM     22  C   UNL A   1      35.049  22.555  26.011  1.00  0.00    -0.049 A 
ATOM     23  C   UNL A   1      34.131  20.428  25.264  1.00  0.00    -0.049 A 
ATOM     24  C   UNL A   1      36.211  23.493  26.149  1.00  0.00     0.044 C 
ATOM     25  C   UNL A   1      35.203  21.325  25.360  1.00  0.00     0.007 A 
ATOM     26  C   UNL A   1      34.284  19.143  24.507  1.00  0.00     0.044 C 
ENDBRANCH  17  19
ENDBRANCH  14  15
ENDBRANCH   3   5
ENDBRANCH   2   3
ENDBRANCH   1   2
BRANCH   1  27
ATOM     27  C   UNL A   1      32.758  30.085  27.133  1.00  0.00     0.275 C 
BRANCH  27  28
ATOM     28  O   UNL A   1      34.123  30.502  26.948  1.00  0.00    -0.458 OA
BRANCH  28  29
ATOM     29  C   UNL A   1      34.723  30.952  28.073  1.00  0.00     0.338 C 
ATOM     30  O   UNL A   1      34.257  31.745  28.883  1.00  0.00    -0.246 OA
BRANCH  29  31
ATOM     31  C   UNL A   1      35.998  30.259  28.291  1.00  0.00     0.060 A 
ATOM     32  C   UNL A   1      36.241  29.710  29.555  1.00  0.00     0.016 A 
ATOM     33  C   UNL A   1      36.982  30.229  27.302  1.00  0.00     0.016 A 
ATOM     34  C   UNL A   1      37.475  29.135  29.843  1.00  0.00     0.010 A 
ATOM     35  C   UNL A   1      38.224  29.660  27.595  1.00  0.00     0.010 A 
ATOM     36  C   UNL A   1      38.482  29.126  28.870  1.00  0.00    -0.014 A 
BRANCH  36  37
ATOM     37  C   UNL A   1      39.837  28.635  29.210  1.00  0.00     0.031 A 
ATOM     38  C   UNL A   1      40.778  29.528  29.967  1.00  0.00     0.074 A 
ATOM     39  C   UNL A   1      40.222  27.399  28.846  1.00  0.00     0.049 A 
ATOM     40  N   UNL A   1      42.041  29.345  30.254  1.00  0.00    -0.248 NA
ATOM     41  C   UNL A   1      40.220  30.794  30.466  1.00  0.00     0.031 C 
ATOM     42  C   UNL A   1      39.381  26.415  28.164  1.00  0.00     0.029 A 
ATOM     43  N   UNL A   1      41.429  26.764  28.997  1.00  0.00    -0.354 N 
ATOM     44  C   UNL A   1      42.438  30.485  30.942  1.00  0.00     0.074 A 
ATOM     45  C   UNL A   1      41.285  31.355  31.024  1.00  0.00     0.031 C 
ATOM     46  C   UNL A   1      40.101  25.302  27.951  1.00  0.00     0.029 A 
ATOM     47  C   UNL A   1      41.463  25.513  28.435  1.00  0.00     0.049 A 
ATOM     48  H   UNL A   1      42.197  27.168  29.463  1.00  0.00     0.167 HD
ATOM     49  C   UNL A   1      43.656  30.779  31.455  1.00  0.00     0.031 A 
ATOM     50  C   UNL A   1      42.487  24.650  28.294  1.00  0.00     0.031 A 
ATOM     51  C   UNL A   1      44.801  29.912  31.374  1.00  0.00     0.049 A 
ATOM     52  C   UNL A   1      43.848  25.031  28.805  1.00  0.00     0.074 A 
ATOM     53  C   UNL A   1      46.078  30.119  31.865  1.00  0.00     0.029 A 
ATOM     54  N   UNL A   1      44.803  28.668  30.762  1.00  0.00    -0.354 N 
ATOM     55  N   UNL A   1      44.219  26.121  29.434  1.00  0.00    -0.248 NA
ATOM     56  C   UNL A   1      44.933  24.067  28.578  1.00  0.00     0.031 C 
ATOM     57  C   UNL A   1      46.865  29.018  31.512  1.00  0.00     0.029 A 
ATOM     58  C   UNL A   1      46.065  28.105  30.845  1.00  0.00     0.049 A 
ATOM     59  H   UNL A   1      44.024  28.248  30.333  1.00  0.00     0.167 HD
ATOM     60  C   UNL A   1      45.574  25.964  29.695  1.00  0.00     0.074 A 
ATOM     61  C   UNL A   1      45.956  24.669  29.170  1.00  0.00     0.031 C 
ATOM     62  C   UNL A   1      46.426  26.817  30.314  1.00  0.00     0.031 A 
BRANCH  49  63
ATOM     63  C   UNL A   1      43.821  32.120  32.112  1.00  0.00    -0.014 A 
ATOM     64  C   UNL A   1      44.236  33.244  31.385  1.00  0.00     0.009 A 
ATOM     65  C   UNL A   1      43.530  32.262  33.478  1.00  0.00     0.009 A 
ATOM     66  C   UNL A   1      44.387  34.479  32.021  1.00  0.00     0.001 A 
ATOM     67  C   UNL A   1      43.659  33.501  34.105  1.00  0.00     0.001 A 
ATOM     68  C   UNL A   1      44.096  34.608  33.378  1.00  0.00     0.000 A 
ENDBRANCH  49  63
BRANCH  50  69
ATOM     69  C   UNL A   1      42.274  23.354  27.600  1.00  0.00    -0.014 A 
ATOM     70  C   UNL A   1      42.580  23.214  26.239  1.00  0.00     0.009 A 
ATOM     71  C   UNL A   1      41.755  22.251  28.297  1.00  0.00     0.009 A 
ATOM     72  C   UNL A   1      42.353  22.001  25.585  1.00  0.00     0.001 A 
ATOM     73  C   UNL A   1      41.555  21.031  27.648  1.00  0.00     0.001 A 
ATOM     74  C   UNL A   1      41.847  20.909  26.290  1.00  0.00     0.000 A 
ENDBRANCH  50  69
BRANCH  62  75
ATOM     75  C   UNL A   1      47.847  26.360  30.483  1.00  0.00    -0.014 A 
ATOM     76  C   UNL A   1      48.801  26.566  29.475  1.00  0.00     0.009 A 
ATOM     77  C   UNL A   1      48.242  25.750  31.684  1.00  0.00     0.009 A 
ATOM     78  C   UNL A   1      50.120  26.143  29.657  1.00  0.00     0.001 A 
ATOM     79  C   UNL A   1      49.566  25.350  31.872  1.00  0.00     0.001 A 
ATOM     80  C   UNL A   1      50.501  25.540  30.855  1.00  0.00     0.000 A 
ENDBRANCH  62  75
ENDBRANCH  36  37
ENDBRANCH  29  31
ENDBRANCH  28  29
ENDBRANCH  27  28
ENDBRANCH   1  27
TORSDOF 13
ENDMDL
MODEL 2
REMARK VINA RESULT:     -11.7      2.637      7.215
REMARK SMILES CC(C)=C1[C@H]2CC[C@@H]1[C@@H](C(=O)Nc1cc(C)cc(C)c1)[C@@H]2C(=O)OCCOC(=O)c1ccc(-c2c3nc(c(-c4ccccc4)c4ccc([nH]4)c(-c4ccccc4)c4nc(c(-c5ccccc5)c5ccc2[nH]5)C=C4)C=C3)cc1
REMARK SMILES IDX 25 1 24 2 22 3 23 4 21 5 1 6 2 7 3 8 4 9 5 10 8 11 6 12 7 13
REMARK SMILES IDX 9 14 10 15 11 16 12 17 13 19 14 20 20 21 15 22 18 23 16 24
REMARK SMILES IDX 17 25 19 26 26 27 27 28 28 29 29 30 30 31 31 32 77 33 32 34
REMARK SMILES IDX 76 35 33 36 34 37 35 38 70 39 36 40 75 41 69 42 71 43 37 44
REMARK SMILES IDX 74 45 68 46 67 47 38 49 60 50 45 51 59 52 46 53 49 54 58 55
REMARK SMILES IDX 72 56 47 57 48 58 57 60 73 61 50 62 39 63 40 64 44 65 41 66
REMARK SMILES IDX 43 67 42 68 61 69 62 70 66 71 63 72 65 73 64 74 51 75 52 76
REMARK SMILES IDX 56 77 53 78 55 79 54 80
REMARK H PARENT 12 18 71 48 49 59
REMARK Flexibility Score: inf
ROOT
ATOM      1  C   UNL A   1      37.791  21.580  25.028  1.00  0.00     0.274 C 
ENDROOT
BRANCH   1   2
ATOM      2  O   UNL A   1      36.439  21.493  24.537  1.00  0.00    -0.462 OA
BRANCH   2   3
ATOM      3  C   UNL A   1      36.044  22.525  23.754  1.00  0.00     0.310 C 
ATOM      4  O   UNL A   1      36.719  23.005  22.848  1.00  0.00    -0.252 OA
BRANCH   3   5
ATOM      5  C   UNL A   1      34.731  23.148  24.152  1.00  0.00     0.119 C 
ATOM      6  C   UNL A   1      31.677  25.877  26.474  1.00  0.00     0.039 C 
ATOM      7  C   UNL A   1      33.070  25.614  25.983  1.00  0.00    -0.077 C 
ATOM      8  C   UNL A   1      33.970  26.820  25.906  1.00  0.00     0.039 C 
ATOM      9  C   UNL A   1      33.538  24.386  25.701  1.00  0.00    -0.064 C 
ATOM     10  C   UNL A   1      34.954  23.986  25.421  1.00  0.00     0.030 C 
ATOM     11  C   UNL A   1      32.943  22.998  25.772  1.00  0.00     0.029 C 
ATOM     12  C   UNL A   1      35.164  23.131  26.693  1.00  0.00     0.009 C 
ATOM     13  C   UNL A   1      33.772  22.516  26.972  1.00  0.00     0.009 C 
ATOM     14  C   UNL A   1      33.518  22.285  24.511  1.00  0.00     0.101 C 
BRANCH  14  15
ATOM     15  C   UNL A   1      32.465  21.930  23.454  1.00  0.00     0.228 C 
ATOM     16  O   UNL A   1      32.360  20.746  23.102  1.00  0.00    -0.274 OA
ATOM     17  N   UNL A   1      31.513  22.761  22.961  1.00  0.00    -0.326 N 
ATOM     18  H   UNL A   1      30.770  22.289  22.520  1.00  0.00     0.169 HD
BRANCH  17  19
ATOM     19  C   UNL A   1      31.376  24.146  22.949  1.00  0.00     0.041 A 
ATOM     20  C   UNL A   1      32.354  24.983  22.426  1.00  0.00     0.029 A 
ATOM     21  C   UNL A   1      30.153  24.683  23.357  1.00  0.00     0.029 A 
ATOM     22  C   UNL A   1      32.186  26.372  22.440  1.00  0.00    -0.049 A 
ATOM     23  C   UNL A   1      29.955  26.069  23.365  1.00  0.00    -0.049 A 
ATOM     24  C   UNL A   1      33.269  27.273  21.927  1.00  0.00     0.044 C 
ATOM     25  C   UNL A   1      30.986  26.908  22.922  1.00  0.00     0.007 A 
ATOM     26  C   UNL A   1      28.699  26.650  23.942  1.00  0.00     0.044 C 
ENDBRANCH  17  19
ENDBRANCH  14  15
ENDBRANCH   3   5
ENDBRANCH   2   3
ENDBRANCH   1   2
BRANCH   1  27
ATOM     27  C   UNL A   1      38.537  20.242  24.991  1.00  0.00     0.275 C 
BRANCH  27  28
ATOM     28  O   UNL A   1      39.211  19.950  26.229  1.00  0.00    -0.458 OA
BRANCH  28  29
ATOM     29  C   UNL A   1      40.554  19.853  26.118  1.00  0.00     0.338 C 
ATOM     30  O   UNL A   1      41.181  18.950  25.575  1.00  0.00    -0.246 OA
BRANCH  29  31
ATOM     31  C   UNL A   1      41.204  21.063  26.634  1.00  0.00     0.060 A 
ATOM     32  C   UNL A   1      41.180  21.288  28.015  1.00  0.00     0.016 A 
ATOM     33  C   UNL A   1      41.748  22.015  25.769  1.00  0.00     0.016 A 
ATOM     34  C   UNL A   1      41.691  22.470  28.541  1.00  0.00     0.010 A 
ATOM     35  C   UNL A   1      42.251  23.207  26.298  1.00  0.00     0.010 A 
ATOM     36  C   UNL A   1      42.210  23.447  27.683  1.00  0.00    -0.014 A 
BRANCH  36  37
ATOM     37  C   UNL A   1      42.634  24.759  28.222  1.00  0.00     0.031 A 
ATOM     38  C   UNL A   1      41.607  25.829  28.455  1.00  0.00     0.074 A 
ATOM     39  C   UNL A   1      43.929  24.991  28.504  1.00  0.00     0.049 A 
ATOM     40  N   UNL A   1      41.778  27.080  28.798  1.00  0.00    -0.248 NA
ATOM     41  C   UNL A   1      40.200  25.436  28.275  1.00  0.00     0.031 C 
ATOM     42  C   UNL A   1      45.011  24.014  28.382  1.00  0.00     0.029 A 
ATOM     43  N   UNL A   1      44.551  26.130  28.947  1.00  0.00    -0.354 N 
ATOM     44  C   UNL A   1      40.504  27.632  28.848  1.00  0.00     0.074 A 
ATOM     45  C   UNL A   1      39.572  26.583  28.494  1.00  0.00     0.031 C 
ATOM     46  C   UNL A   1      46.167  24.599  28.737  1.00  0.00     0.029 A 
ATOM     47  C   UNL A   1      45.912  26.000  29.062  1.00  0.00     0.049 A 
ATOM     48  H   UNL A   1      44.068  26.961  29.162  1.00  0.00     0.167 HD
ATOM     49  C   UNL A   1      40.146  28.901  29.159  1.00  0.00     0.031 A 
ATOM     50  C   UNL A   1      46.852  26.918  29.361  1.00  0.00     0.031 A 
ATOM     51  C   UNL A   1      41.075  29.941  29.512  1.00  0.00     0.049 A 
ATOM     52  C   UNL A   1      46.436  28.338  29.627  1.00  0.00     0.074 A 
ATOM     53  C   UNL A   1      40.810  31.259  29.844  1.00  0.00     0.029 A 
ATOM     54  N   UNL A   1      42.450  29.779  29.579  1.00  0.00    -0.354 N 
ATOM     55  N   UNL A   1      45.232  28.856  29.650  1.00  0.00    -0.248 NA
ATOM     56  C   UNL A   1      47.512  29.301  29.900  1.00  0.00     0.031 C 
ATOM     57  C   UNL A   1      42.031  31.904  30.072  1.00  0.00     0.029 A 
ATOM     58  C   UNL A   1      43.049  30.977  29.928  1.00  0.00     0.049 A 
ATOM     59  H   UNL A   1      42.929  28.937  29.406  1.00  0.00     0.167 HD
ATOM     60  C   UNL A   1      45.404  30.199  29.959  1.00  0.00     0.074 A 
ATOM     61  C   UNL A   1      46.826  30.413  30.128  1.00  0.00     0.031 C 
ATOM     62  C   UNL A   1      44.467  31.169  30.090  1.00  0.00     0.031 A 
BRANCH  49  63
ATOM     63  C   UNL A   1      38.686  29.242  29.084  1.00  0.00    -0.014 A 
ATOM     64  C   UNL A   1      37.845  29.107  30.198  1.00  0.00     0.009 A 
ATOM     65  C   UNL A   1      38.149  29.730  27.881  1.00  0.00     0.009 A 
ATOM     66  C   UNL A   1      36.488  29.426  30.100  1.00  0.00     0.001 A 
ATOM     67  C   UNL A   1      36.799  30.069  27.793  1.00  0.00     0.001 A 
ATOM     68  C   UNL A   1      35.967  29.909  28.901  1.00  0.00     0.000 A 
ENDBRANCH  49  63
BRANCH  50  69
ATOM     69  C   UNL A   1      48.286  26.531  29.382  1.00  0.00    -0.014 A 
ATOM     70  C   UNL A   1      48.873  26.030  30.553  1.00  0.00     0.009 A 
ATOM     71  C   UNL A   1      49.077  26.670  28.230  1.00  0.00     0.009 A 
ATOM     72  C   UNL A   1      50.228  25.693  30.575  1.00  0.00     0.001 A 
ATOM     73  C   UNL A   1      50.424  26.306  28.247  1.00  0.00     0.001 A 
ATOM     74  C   UNL A   1      51.001  25.826  29.422  1.00  0.00     0.000 A 
ENDBRANCH  50  69
BRANCH  62  75
ATOM     75  C   UNL A   1      44.951  32.541  30.463  1.00  0.00    -0.014 A 
ATOM     76  C   UNL A   1      45.110  32.915  31.806  1.00  0.00     0.009 A 
ATOM     77  C   UNL A   1      45.289  33.457  29.453  1.00  0.00     0.009 A 
ATOM     78  C   UNL A   1      45.572  34.193  32.131  1.00  0.00     0.001 A 
ATOM     79  C   UNL A   1      45.773  34.723  29.782  1.00  0.00     0.001 A 
ATOM     80  C   UNL A   1      45.906  35.093  31.120  1.00  0.00     0.000 A 
ENDBRANCH  62  75
ENDBRANCH  36  37
ENDBRANCH  29  31
ENDBRANCH  28  29
ENDBRANCH  27  28
ENDBRANCH   1  27
TORSDOF 13
ENDMDL
MODEL 3
REMARK VINA RESULT:     -11.7      4.032      7.151
REMARK SMILES CC(C)=C1[C@H]2CC[C@@H]1[C@@H](C(=O)Nc1cc(C)cc(C)c1)[C@@H]2C(=O)OCCOC(=O)c1ccc(-c2c3nc(c(-c4ccccc4)c4ccc([nH]4)c(-c4ccccc4)c4nc(c(-c5ccccc5)c5ccc2[nH]5)C=C4)C=C3)cc1
REMARK SMILES IDX 25 1 24 2 22 3 23 4 21 5 1 6 2 7 3 8 4 9 5 10 8 11 6 12 7 13
REMARK SMILES IDX 9 14 10 15 11 16 12 17 13 19 14 20 20 21 15 22 18 23 16 24
REMARK SMILES IDX 17 25 19 26 26 27 27 28 28 29 29 30 30 31 31 32 77 33 32 34
REMARK SMILES IDX 76 35 33 36 34 37 35 38 70 39 36 40 75 41 69 42 71 43 37 44
REMARK SMILES IDX 74 45 68 46 67 47 38 49 60 50 45 51 59 52 46 53 49 54 58 55
REMARK SMILES IDX 72 56 47 57 48 58 57 60 73 61 50 62 39 63 40 64 44 65 41 66
REMARK SMILES IDX 43 67 42 68 61 69 62 70 66 71 63 72 65 73 64 74 51 75 52 76
REMARK SMILES IDX 56 77 53 78 55 79 54 80
REMARK H PARENT 12 18 71 48 49 59
REMARK Flexibility Score: inf
ROOT
ATOM      1  C   UNL A   1      36.076  20.955  25.004  1.00  0.00     0.274 C 
ENDROOT
BRANCH   1   2
ATOM      2  O   UNL A   1      35.763  21.910  23.971  1.00  0.00    -0.462 OA
BRANCH   2   3
ATOM      3  C   UNL A   1      35.871  23.210  24.339  1.00  0.00     0.310 C 
ATOM      4  O   UNL A   1      36.915  23.743  24.703  1.00  0.00    -0.252 OA
BRANCH   3   5
ATOM      5  C   UNL A   1      34.564  23.958  24.389  1.00  0.00     0.119 C 
ATOM      6  C   UNL A   1      31.133  26.719  26.052  1.00  0.00     0.039 C 
ATOM      7  C   UNL A   1      32.580  26.324  26.018  1.00  0.00    -0.077 C 
ATOM      8  C   UNL A   1      33.550  27.371  26.501  1.00  0.00     0.039 C 
ATOM      9  C   UNL A   1      33.007  25.100  25.664  1.00  0.00    -0.064 C 
ATOM     10  C   UNL A   1      34.387  24.534  25.803  1.00  0.00     0.030 C 
ATOM     11  C   UNL A   1      32.306  23.830  25.240  1.00  0.00     0.029 C 
ATOM     12  C   UNL A   1      34.045  23.462  26.864  1.00  0.00     0.009 C 
ATOM     13  C   UNL A   1      32.598  23.036  26.523  1.00  0.00     0.009 C 
ATOM     14  C   UNL A   1      33.232  23.248  24.129  1.00  0.00     0.101 C 
BRANCH  14  15
ATOM     15  C   UNL A   1      32.605  23.239  22.730  1.00  0.00     0.228 C 
ATOM     16  O   UNL A   1      32.524  22.157  22.129  1.00  0.00    -0.274 OA
ATOM     17  N   UNL A   1      31.981  24.279  22.124  1.00  0.00    -0.326 N 
ATOM     18  H   UNL A   1      31.407  24.008  21.371  1.00  0.00     0.169 HD
BRANCH  17  19
ATOM     19  C   UNL A   1      31.989  25.652  22.350  1.00  0.00     0.041 A 
ATOM     20  C   UNL A   1      33.159  26.402  22.317  1.00  0.00     0.029 A 
ATOM     21  C   UNL A   1      30.758  26.299  22.477  1.00  0.00     0.029 A 
ATOM     22  C   UNL A   1      33.130  27.779  22.558  1.00  0.00    -0.049 A 
ATOM     23  C   UNL A   1      30.703  27.680  22.703  1.00  0.00    -0.049 A 
ATOM     24  C   UNL A   1      34.403  28.573  22.579  1.00  0.00     0.044 C 
ATOM     25  C   UNL A   1      31.897  28.410  22.761  1.00  0.00     0.007 A 
ATOM     26  C   UNL A   1      29.391  28.348  22.988  1.00  0.00     0.044 C 
ENDBRANCH  17  19
ENDBRANCH  14  15
ENDBRANCH   3   5
ENDBRANCH   2   3
ENDBRANCH   1   2
BRANCH   1  27
ATOM     27  C   UNL A   1      37.480  20.357  24.873  1.00  0.00     0.275 C 
BRANCH  27  28
ATOM     28  O   UNL A   1      38.440  21.008  25.725  1.00  0.00    -0.458 OA
BRANCH  28  29
ATOM     29  C   UNL A   1      39.605  20.337  25.860  1.00  0.00     0.338 C 
ATOM     30  O   UNL A   1      39.788  19.141  25.669  1.00  0.00    -0.246 OA
BRANCH  29  31
ATOM     31  C   UNL A   1      40.704  21.265  26.154  1.00  0.00     0.060 A 
ATOM     32  C   UNL A   1      42.009  20.759  26.162  1.00  0.00     0.016 A 
ATOM     33  C   UNL A   1      40.455  22.591  26.509  1.00  0.00     0.016 A 
ATOM     34  C   UNL A   1      43.074  21.573  26.536  1.00  0.00     0.010 A 
ATOM     35  C   UNL A   1      41.523  23.406  26.893  1.00  0.00     0.010 A 
ATOM     36  C   UNL A   1      42.833  22.897  26.924  1.00  0.00    -0.014 A 
BRANCH  36  37
ATOM     37  C   UNL A   1      43.941  23.729  27.447  1.00  0.00     0.031 A 
ATOM     38  C   UNL A   1      44.135  23.853  28.931  1.00  0.00     0.074 A 
ATOM     39  C   UNL A   1      44.769  24.367  26.601  1.00  0.00     0.049 A 
ATOM     40  N   UNL A   1      44.956  24.625  29.597  1.00  0.00    -0.248 NA
ATOM     41  C   UNL A   1      43.289  22.995  29.776  1.00  0.00     0.031 C 
ATOM     42  C   UNL A   1      44.724  24.275  25.141  1.00  0.00     0.029 A 
ATOM     43  N   UNL A   1      45.809  25.225  26.853  1.00  0.00    -0.354 N 
ATOM     44  C   UNL A   1      44.708  24.366  30.939  1.00  0.00     0.074 A 
ATOM     45  C   UNL A   1      43.656  23.373  30.993  1.00  0.00     0.031 C 
ATOM     46  C   UNL A   1      45.692  25.053  24.628  1.00  0.00     0.029 A 
ATOM     47  C   UNL A   1      46.388  25.732  25.717  1.00  0.00     0.049 A 
ATOM     48  H   UNL A   1      46.110  25.456  27.762  1.00  0.00     0.167 HD
ATOM     49  C   UNL A   1      45.302  24.911  32.027  1.00  0.00     0.031 A 
ATOM     50  C   UNL A   1      47.346  26.667  25.572  1.00  0.00     0.031 A 
ATOM     51  C   UNL A   1      46.348  25.897  31.971  1.00  0.00     0.049 A 
ATOM     52  C   UNL A   1      47.937  27.312  26.794  1.00  0.00     0.074 A 
ATOM     53  C   UNL A   1      47.015  26.509  33.018  1.00  0.00     0.029 A 
ATOM     54  N   UNL A   1      46.880  26.413  30.799  1.00  0.00    -0.354 N 
ATOM     55  N   UNL A   1      47.680  27.078  28.058  1.00  0.00    -0.248 NA
ATOM     56  C   UNL A   1      48.944  28.358  26.567  1.00  0.00     0.031 C 
ATOM     57  C   UNL A   1      47.922  27.428  32.478  1.00  0.00     0.029 A 
ATOM     58  C   UNL A   1      47.853  27.351  31.097  1.00  0.00     0.049 A 
ATOM     59  H   UNL A   1      46.607  26.150  29.891  1.00  0.00     0.167 HD
ATOM     60  C   UNL A   1      48.507  27.933  28.777  1.00  0.00     0.074 A 
ATOM     61  C   UNL A   1      49.283  28.679  27.809  1.00  0.00     0.031 C 
ATOM     62  C   UNL A   1      48.613  28.085  30.119  1.00  0.00     0.031 A 
BRANCH  49  63
ATOM     63  C   UNL A   1      44.796  24.482  33.375  1.00  0.00    -0.014 A 
ATOM     64  C   UNL A   1      45.302  23.342  34.017  1.00  0.00     0.009 A 
ATOM     65  C   UNL A   1      43.813  25.248  34.022  1.00  0.00     0.009 A 
ATOM     66  C   UNL A   1      44.810  22.961  35.268  1.00  0.00     0.001 A 
ATOM     67  C   UNL A   1      43.341  24.877  35.281  1.00  0.00     0.001 A 
ATOM     68  C   UNL A   1      43.834  23.730  35.900  1.00  0.00     0.000 A 
ENDBRANCH  49  63
BRANCH  50  69
ATOM     69  C   UNL A   1      47.779  27.080  24.212  1.00  0.00    -0.014 A 
ATOM     70  C   UNL A   1      47.062  28.052  23.500  1.00  0.00     0.009 A 
ATOM     71  C   UNL A   1      48.908  26.497  23.617  1.00  0.00     0.009 A 
ATOM     72  C   UNL A   1      47.457  28.419  22.211  1.00  0.00     0.001 A 
ATOM     73  C   UNL A   1      49.317  26.884  22.340  1.00  0.00     0.001 A 
ATOM     74  C   UNL A   1      48.587  27.839  21.635  1.00  0.00     0.000 A 
ENDBRANCH  50  69
BRANCH  62  75
ATOM     75  C   UNL A   1      49.626  29.076  30.616  1.00  0.00    -0.014 A 
ATOM     76  C   UNL A   1      50.922  28.673  30.974  1.00  0.00     0.009 A 
ATOM     77  C   UNL A   1      49.289  30.437  30.689  1.00  0.00     0.009 A 
ATOM     78  C   UNL A   1      51.852  29.613  31.424  1.00  0.00     0.001 A 
ATOM     79  C   UNL A   1      50.228  31.376  31.116  1.00  0.00     0.001 A 
ATOM     80  C   UNL A   1      51.506  30.962  31.491  1.00  0.00     0.000 A 
ENDBRANCH  62  75
ENDBRANCH  36  37
ENDBRANCH  29  31
ENDBRANCH  28  29
ENDBRANCH  27  28
ENDBRANCH   1  27
TORSDOF 13
ENDMDL
