MODEL 1
REMARK VINA RESULT:      -9.7      0.000      0.000
REMARK SMILES CC(=O)Nc1ccc2sc(C(=O)OCCOC(=O)c3ccc(-c4c5nc(c(-c6ccccc6)c6ccc([nH]6)c(-c6ccccc6)c6nc(c(-c7ccccc7)c7ccc4[nH]7)C=C6)C=C5)cc3)cc2c1
REMARK SMILES IDX 15 1 14 2 13 3 11 4 12 5 10 6 5 7 6 8 69 9 7 10 68 11 8 12
REMARK SMILES IDX 67 13 9 14 4 15 1 16 2 17 3 18 16 20 17 21 18 22 19 23 20 24
REMARK SMILES IDX 66 25 21 26 65 27 22 28 23 29 24 30 59 31 25 32 64 33 58 34
REMARK SMILES IDX 60 35 26 36 63 37 57 38 56 39 27 41 49 42 34 43 48 44 35 45
REMARK SMILES IDX 38 46 47 47 61 48 36 49 37 50 46 52 62 53 39 54 28 55 29 56
REMARK SMILES IDX 33 57 30 58 32 59 31 60 50 61 51 62 55 63 52 64 54 65 53 66
REMARK SMILES IDX 40 67 41 68 45 69 42 70 44 71 43 72
REMARK H PARENT 4 19 60 40 38 51
REMARK Flexibility Score: inf
ROOT
ATOM      1  C   UNL A   1      42.956  18.636  25.808  1.00  0.00     0.275 C 
ENDROOT
BRANCH   1   2
ATOM      2  C   UNL A   1      44.371  18.949  25.318  1.00  0.00     0.275 C 
BRANCH   2   3
ATOM      3  O   UNL A   1      44.433  20.232  24.664  1.00  0.00    -0.458 OA
BRANCH   3   4
ATOM      4  C   UNL A   1      45.630  20.880  24.770  1.00  0.00     0.348 C 
ATOM      5  O   UNL A   1      46.718  20.345  24.611  1.00  0.00    -0.245 OA
BRANCH   4   6
ATOM      6  C   UNL A   1      45.464  22.308  24.970  1.00  0.00     0.113 A 
ATOM      7  C   UNL A   1      43.739  26.735  25.080  1.00  0.00     0.041 A 
ATOM      8  C   UNL A   1      45.073  27.096  25.242  1.00  0.00     0.027 A 
ATOM      9  C   UNL A   1      43.385  25.388  25.049  1.00  0.00     0.035 A 
ATOM     10  C   UNL A   1      46.073  26.120  25.374  1.00  0.00     0.022 A 
ATOM     11  C   UNL A   1      44.387  24.393  25.062  1.00  0.00    -0.005 A 
ATOM     12  C   UNL A   1      45.714  24.763  25.269  1.00  0.00     0.035 A 
ATOM     13  C   UNL A   1      44.282  22.998  24.810  1.00  0.00     0.036 A 
ATOM     14  S   UNL A   1      46.737  23.370  25.368  1.00  0.00    -0.128 S 
BRANCH   7  15
ATOM     15  N   UNL A   1      42.699  27.663  24.955  1.00  0.00    -0.326 N 
ATOM     16  C   UNL A   1      43.320  29.106  26.870  1.00  0.00     0.114 C 
ATOM     17  C   UNL A   1      42.364  28.700  25.779  1.00  0.00     0.221 C 
ATOM     18  O   UNL A   1      41.335  29.341  25.561  1.00  0.00    -0.275 OA
ATOM     19  H   UNL A   1      42.127  27.553  24.160  1.00  0.00     0.169 HD
ENDBRANCH   7  15
ENDBRANCH   4   6
ENDBRANCH   3   4
ENDBRANCH   2   3
ENDBRANCH   1   2
BRANCH   1  20
ATOM     20  O   UNL A   1      41.982  19.482  25.163  1.00  0.00    -0.458 OA
BRANCH  20  21
ATOM     21  C   UNL A   1      40.862  19.731  25.879  1.00  0.00     0.338 C 
ATOM     22  O   UNL A   1      39.872  19.027  25.980  1.00  0.00    -0.246 OA
BRANCH  21  23
ATOM     23  C   UNL A   1      41.002  20.990  26.626  1.00  0.00     0.060 A 
ATOM     24  C   UNL A   1      40.795  22.184  25.946  1.00  0.00     0.016 A 
ATOM     25  C   UNL A   1      41.515  21.007  27.920  1.00  0.00     0.016 A 
ATOM     26  C   UNL A   1      41.197  23.396  26.502  1.00  0.00     0.010 A 
ATOM     27  C   UNL A   1      41.822  22.236  28.523  1.00  0.00     0.010 A 
ATOM     28  C   UNL A   1      41.708  23.444  27.806  1.00  0.00    -0.014 A 
BRANCH  28  29
ATOM     29  C   UNL A   1      42.163  24.738  28.393  1.00  0.00     0.031 A 
ATOM     30  C   UNL A   1      41.173  25.853  28.630  1.00  0.00     0.074 A 
ATOM     31  C   UNL A   1      43.453  24.921  28.746  1.00  0.00     0.049 A 
ATOM     32  N   UNL A   1      41.395  27.101  28.961  1.00  0.00    -0.248 NA
ATOM     33  C   UNL A   1      39.748  25.523  28.466  1.00  0.00     0.031 C 
ATOM     34  C   UNL A   1      44.515  23.917  28.650  1.00  0.00     0.029 A 
ATOM     35  N   UNL A   1      44.089  26.022  29.270  1.00  0.00    -0.354 N 
ATOM     36  C   UNL A   1      40.146  27.714  28.994  1.00  0.00     0.074 A 
ATOM     37  C   UNL A   1      39.173  26.704  28.641  1.00  0.00     0.031 C 
ATOM     38  C   UNL A   1      45.656  24.432  29.134  1.00  0.00     0.029 A 
ATOM     39  C   UNL A   1      45.434  25.830  29.484  1.00  0.00     0.049 A 
ATOM     40  H   UNL A   1      43.626  26.867  29.471  1.00  0.00     0.167 HD
ATOM     41  C   UNL A   1      39.839  29.000  29.290  1.00  0.00     0.031 A 
ATOM     42  C   UNL A   1      46.395  26.689  29.872  1.00  0.00     0.031 A 
ATOM     43  C   UNL A   1      40.800  29.999  29.675  1.00  0.00     0.049 A 
ATOM     44  C   UNL A   1      46.040  28.128  30.119  1.00  0.00     0.074 A 
ATOM     45  C   UNL A   1      40.585  31.333  29.980  1.00  0.00     0.029 A 
ATOM     46  N   UNL A   1      42.158  29.770  29.828  1.00  0.00    -0.354 N 
ATOM     47  N   UNL A   1      44.866  28.709  30.075  1.00  0.00    -0.248 NA
ATOM     48  C   UNL A   1      47.149  29.033  30.453  1.00  0.00     0.031 C 
ATOM     49  C   UNL A   1      41.818  31.920  30.280  1.00  0.00     0.029 A 
ATOM     50  C   UNL A   1      42.793  30.939  30.214  1.00  0.00     0.049 A 
ATOM     51  H   UNL A   1      42.604  28.906  29.683  1.00  0.00     0.167 HD
ATOM     52  C   UNL A   1      45.092  30.040  30.400  1.00  0.00     0.074 A 
ATOM     53  C   UNL A   1      46.511  30.178  30.654  1.00  0.00     0.031 C 
ATOM     54  C   UNL A   1      44.202  31.058  30.475  1.00  0.00     0.031 A 
BRANCH  41  55
ATOM     55  C   UNL A   1      38.397  29.415  29.178  1.00  0.00    -0.014 A 
ATOM     56  C   UNL A   1      37.543  29.412  30.291  1.00  0.00     0.009 A 
ATOM     57  C   UNL A   1      37.900  29.862  27.942  1.00  0.00     0.009 A 
ATOM     58  C   UNL A   1      36.213  29.820  30.161  1.00  0.00     0.001 A 
ATOM     59  C   UNL A   1      36.578  30.294  27.822  1.00  0.00     0.001 A 
ATOM     60  C   UNL A   1      35.733  30.266  28.929  1.00  0.00     0.000 A 
ENDBRANCH  41  55
BRANCH  42  61
ATOM     61  C   UNL A   1      47.805  26.231  29.997  1.00  0.00    -0.014 A 
ATOM     62  C   UNL A   1      48.634  26.150  28.869  1.00  0.00     0.009 A 
ATOM     63  C   UNL A   1      48.321  25.843  31.245  1.00  0.00     0.009 A 
ATOM     64  C   UNL A   1      49.940  25.668  28.982  1.00  0.00     0.001 A 
ATOM     65  C   UNL A   1      49.637  25.394  31.361  1.00  0.00     0.001 A 
ATOM     66  C   UNL A   1      50.442  25.297  30.228  1.00  0.00     0.000 A 
ENDBRANCH  42  61
BRANCH  54  67
ATOM     67  C   UNL A   1      44.730  32.398  30.905  1.00  0.00    -0.014 A 
ATOM     68  C   UNL A   1      45.171  33.344  29.968  1.00  0.00     0.009 A 
ATOM     69  C   UNL A   1      44.756  32.725  32.269  1.00  0.00     0.009 A 
ATOM     70  C   UNL A   1      45.659  34.581  30.393  1.00  0.00     0.001 A 
ATOM     71  C   UNL A   1      45.219  33.972  32.690  1.00  0.00     0.001 A 
ATOM     72  C   UNL A   1      45.679  34.896  31.752  1.00  0.00     0.000 A 
ENDBRANCH  54  67
ENDBRANCH  28  29
ENDBRANCH  21  23
ENDBRANCH  20  21
ENDBRANCH   1  20
TORSDOF 12
ENDMDL
MODEL 2
REMARK VINA RESULT:      -9.3      4.551      6.847
REMARK SMILES CC(=O)Nc1ccc2sc(C(=O)OCCOC(=O)c3ccc(-c4c5nc(c(-c6ccccc6)c6ccc([nH]6)c(-c6ccccc6)c6nc(c(-c7ccccc7)c7ccc4[nH]7)C=C6)C=C5)cc3)cc2c1
REMARK SMILES IDX 15 1 14 2 13 3 11 4 12 5 10 6 5 7 6 8 69 9 7 10 68 11 8 12
REMARK SMILES IDX 67 13 9 14 4 15 1 16 2 17 3 18 16 20 17 21 18 22 19 23 20 24
REMARK SMILES IDX 66 25 21 26 65 27 22 28 23 29 24 30 59 31 25 32 64 33 58 34
REMARK SMILES IDX 60 35 26 36 63 37 57 38 56 39 27 41 49 42 34 43 48 44 35 45
REMARK SMILES IDX 38 46 47 47 61 48 36 49 37 50 46 52 62 53 39 54 28 55 29 56
REMARK SMILES IDX 33 57 30 58 32 59 31 60 50 61 51 62 55 63 52 64 54 65 53 66
REMARK SMILES IDX 40 67 41 68 45 69 42 70 44 71 43 72
REMARK H PARENT 4 19 60 40 38 51
REMARK Flexibility Score: inf
ROOT
ATOM      1  C   UNL A   1      35.981  20.757  25.109  1.00  0.00     0.275 C 
ENDROOT
BRANCH   1   2
ATOM      2  C   UNL A   1      34.749  21.609  24.797  1.00  0.00     0.275 C 
BRANCH   2   3
ATOM      3  O   UNL A   1      35.063  23.017  24.811  1.00  0.00    -0.458 OA
BRANCH   3   4
ATOM      4  C   UNL A   1      34.867  23.666  23.626  1.00  0.00     0.348 C 
ATOM      5  O   UNL A   1      35.211  23.229  22.537  1.00  0.00    -0.245 OA
BRANCH   4   6
ATOM      6  C   UNL A   1      34.091  24.882  23.789  1.00  0.00     0.113 A 
ATOM      7  C   UNL A   1      31.554  28.821  22.996  1.00  0.00     0.041 A 
ATOM      8  C   UNL A   1      31.888  29.127  24.312  1.00  0.00     0.027 A 
ATOM      9  C   UNL A   1      31.928  27.593  22.454  1.00  0.00     0.035 A 
ATOM     10  C   UNL A   1      32.601  28.214  25.106  1.00  0.00     0.022 A 
ATOM     11  C   UNL A   1      32.745  26.713  23.197  1.00  0.00    -0.005 A 
ATOM     12  C   UNL A   1      33.035  27.008  24.527  1.00  0.00     0.035 A 
ATOM     13  C   UNL A   1      33.428  25.539  22.775  1.00  0.00     0.036 A 
ATOM     14  S   UNL A   1      33.942  25.730  25.261  1.00  0.00    -0.128 S 
BRANCH   7  15
ATOM     15  N   UNL A   1      30.836  29.685  22.162  1.00  0.00    -0.326 N 
ATOM     16  C   UNL A   1      28.561  28.959  22.822  1.00  0.00     0.114 C 
ATOM     17  C   UNL A   1      29.490  29.744  21.933  1.00  0.00     0.221 C 
ATOM     18  O   UNL A   1      29.053  30.503  21.067  1.00  0.00    -0.275 OA
ATOM     19  H   UNL A   1      31.377  30.346  21.670  1.00  0.00     0.169 HD
ENDBRANCH   7  15
ENDBRANCH   4   6
ENDBRANCH   3   4
ENDBRANCH   2   3
ENDBRANCH   1   2
BRANCH   1  20
ATOM     20  O   UNL A   1      37.198  21.470  24.808  1.00  0.00    -0.458 OA
BRANCH  20  21
ATOM     21  C   UNL A   1      38.297  21.051  25.476  1.00  0.00     0.338 C 
ATOM     22  O   UNL A   1      38.765  19.926  25.506  1.00  0.00    -0.246 OA
BRANCH  21  23
ATOM     23  C   UNL A   1      38.948  22.185  26.150  1.00  0.00     0.060 A 
ATOM     24  C   UNL A   1      38.383  23.446  26.010  1.00  0.00     0.016 A 
ATOM     25  C   UNL A   1      40.197  22.045  26.750  1.00  0.00     0.016 A 
ATOM     26  C   UNL A   1      39.098  24.588  26.363  1.00  0.00     0.010 A 
ATOM     27  C   UNL A   1      40.873  23.187  27.203  1.00  0.00     0.010 A 
ATOM     28  C   UNL A   1      40.353  24.476  26.977  1.00  0.00    -0.014 A 
BRANCH  28  29
ATOM     29  C   UNL A   1      41.132  25.698  27.333  1.00  0.00     0.031 A 
ATOM     30  C   UNL A   1      40.560  26.709  28.296  1.00  0.00     0.074 A 
ATOM     31  C   UNL A   1      42.365  25.905  26.823  1.00  0.00     0.049 A 
ATOM     32  N   UNL A   1      40.995  27.909  28.595  1.00  0.00    -0.248 NA
ATOM     33  C   UNL A   1      39.333  26.323  29.014  1.00  0.00     0.031 C 
ATOM     34  C   UNL A   1      43.086  24.989  25.937  1.00  0.00     0.029 A 
ATOM     35  N   UNL A   1      43.236  26.955  26.987  1.00  0.00    -0.354 N 
ATOM     36  C   UNL A   1      40.071  28.436  29.491  1.00  0.00     0.074 A 
ATOM     37  C   UNL A   1      39.047  27.432  29.682  1.00  0.00     0.031 C 
ATOM     38  C   UNL A   1      44.300  25.496  25.670  1.00  0.00     0.029 A 
ATOM     39  C   UNL A   1      44.408  26.814  26.283  1.00  0.00     0.049 A 
ATOM     40  H   UNL A   1      43.040  27.735  27.556  1.00  0.00     0.167 HD
ATOM     41  C   UNL A   1      40.074  29.648  30.100  1.00  0.00     0.031 A 
ATOM     42  C   UNL A   1      45.438  27.664  26.105  1.00  0.00     0.031 A 
ATOM     43  C   UNL A   1      41.107  30.637  29.940  1.00  0.00     0.049 A 
ATOM     44  C   UNL A   1      45.379  29.030  26.728  1.00  0.00     0.074 A 
ATOM     45  C   UNL A   1      41.189  31.899  30.504  1.00  0.00     0.029 A 
ATOM     46  N   UNL A   1      42.249  30.467  29.173  1.00  0.00    -0.354 N 
ATOM     47  N   UNL A   1      44.464  29.542  27.513  1.00  0.00    -0.248 NA
ATOM     48  C   UNL A   1      46.491  29.942  26.422  1.00  0.00     0.031 C 
ATOM     49  C   UNL A   1      42.362  32.509  30.049  1.00  0.00     0.029 A 
ATOM     50  C   UNL A   1      43.036  31.605  29.244  1.00  0.00     0.049 A 
ATOM     51  H   UNL A   1      42.468  29.660  28.657  1.00  0.00     0.167 HD
ATOM     52  C   UNL A   1      44.902  30.824  27.816  1.00  0.00     0.074 A 
ATOM     53  C   UNL A   1      46.171  31.007  27.144  1.00  0.00     0.031 C 
ATOM     54  C   UNL A   1      44.302  31.768  28.580  1.00  0.00     0.031 A 
BRANCH  41  55
ATOM     55  C   UNL A   1      38.900  29.990  30.976  1.00  0.00    -0.014 A 
ATOM     56  C   UNL A   1      37.734  30.567  30.451  1.00  0.00     0.009 A 
ATOM     57  C   UNL A   1      38.947  29.683  32.346  1.00  0.00     0.009 A 
ATOM     58  C   UNL A   1      36.652  30.858  31.285  1.00  0.00     0.001 A 
ATOM     59  C   UNL A   1      37.853  29.949  33.172  1.00  0.00     0.001 A 
ATOM     60  C   UNL A   1      36.709  30.543  32.643  1.00  0.00     0.000 A 
ENDBRANCH  41  55
BRANCH  42  61
ATOM     61  C   UNL A   1      46.593  27.276  25.251  1.00  0.00    -0.014 A 
ATOM     62  C   UNL A   1      46.762  27.837  23.977  1.00  0.00     0.009 A 
ATOM     63  C   UNL A   1      47.518  26.317  25.696  1.00  0.00     0.009 A 
ATOM     64  C   UNL A   1      47.818  27.430  23.158  1.00  0.00     0.001 A 
ATOM     65  C   UNL A   1      48.591  25.937  24.889  1.00  0.00     0.001 A 
ATOM     66  C   UNL A   1      48.734  26.485  23.617  1.00  0.00     0.000 A 
ENDBRANCH  42  61
BRANCH  54  67
ATOM     67  C   UNL A   1      45.041  33.061  28.776  1.00  0.00    -0.014 A 
ATOM     68  C   UNL A   1      45.973  33.220  29.813  1.00  0.00     0.009 A 
ATOM     69  C   UNL A   1      44.821  34.125  27.888  1.00  0.00     0.009 A 
ATOM     70  C   UNL A   1      46.645  34.433  29.976  1.00  0.00     0.001 A 
ATOM     71  C   UNL A   1      45.515  35.326  28.036  1.00  0.00     0.001 A 
ATOM     72  C   UNL A   1      46.419  35.482  29.085  1.00  0.00     0.000 A 
ENDBRANCH  54  67
ENDBRANCH  28  29
ENDBRANCH  21  23
ENDBRANCH  20  21
ENDBRANCH   1  20
TORSDOF 12
ENDMDL
MODEL 3
REMARK VINA RESULT:      -9.3      6.565     11.975
REMARK SMILES CC(=O)Nc1ccc2sc(C(=O)OCCOC(=O)c3ccc(-c4c5nc(c(-c6ccccc6)c6ccc([nH]6)c(-c6ccccc6)c6nc(c(-c7ccccc7)c7ccc4[nH]7)C=C6)C=C5)cc3)cc2c1
REMARK SMILES IDX 15 1 14 2 13 3 11 4 12 5 10 6 5 7 6 8 69 9 7 10 68 11 8 12
REMARK SMILES IDX 67 13 9 14 4 15 1 16 2 17 3 18 16 20 17 21 18 22 19 23 20 24
REMARK SMILES IDX 66 25 21 26 65 27 22 28 23 29 24 30 59 31 25 32 64 33 58 34
REMARK SMILES IDX 60 35 26 36 63 37 57 38 56 39 27 41 49 42 34 43 48 44 35 45
REMARK SMILES IDX 38 46 47 47 61 48 36 49 37 50 46 52 62 53 39 54 28 55 29 56
REMARK SMILES IDX 33 57 30 58 32 59 31 60 50 61 51 62 55 63 52 64 54 65 53 66
REMARK SMILES IDX 40 67 41 68 45 69 42 70 44 71 43 72
REMARK H PARENT 4 19 60 40 38 51
REMARK Flexibility Score: inf
ROOT
ATOM      1  C   UNL A   1      32.901  36.355  29.771  1.00  0.00     0.275 C 
ENDROOT
BRANCH   1   2
ATOM      2  C   UNL A   1      33.843  35.670  28.779  1.00  0.00     0.275 C 
BRANCH   2   3
ATOM      3  O   UNL A   1      33.421  34.320  28.494  1.00  0.00    -0.458 OA
BRANCH   3   4
ATOM      4  C   UNL A   1      34.322  33.349  28.823  1.00  0.00     0.348 C 
ATOM      5  O   UNL A   1      35.160  33.459  29.707  1.00  0.00    -0.245 OA
BRANCH   4   6
ATOM      6  C   UNL A   1      34.094  32.119  28.089  1.00  0.00     0.113 A 
ATOM      7  C   UNL A   1      32.088  28.504  25.745  1.00  0.00     0.041 A 
ATOM      8  C   UNL A   1      33.280  27.845  26.032  1.00  0.00     0.027 A 
ATOM      9  C   UNL A   1      31.935  29.843  26.094  1.00  0.00     0.035 A 
ATOM     10  C   UNL A   1      34.336  28.513  26.673  1.00  0.00     0.022 A 
ATOM     11  C   UNL A   1      32.938  30.498  26.842  1.00  0.00    -0.005 A 
ATOM     12  C   UNL A   1      34.145  29.845  27.085  1.00  0.00     0.035 A 
ATOM     13  C   UNL A   1      32.902  31.759  27.497  1.00  0.00     0.036 A 
ATOM     14  S   UNL A   1      35.256  30.885  27.908  1.00  0.00    -0.128 S 
BRANCH   7  15
ATOM     15  N   UNL A   1      31.006  27.894  25.099  1.00  0.00    -0.326 N 
ATOM     16  C   UNL A   1      31.632  28.497  22.779  1.00  0.00     0.114 C 
ATOM     17  C   UNL A   1      30.657  27.931  23.778  1.00  0.00     0.221 C 
ATOM     18  O   UNL A   1      29.596  27.423  23.416  1.00  0.00    -0.275 OA
ATOM     19  H   UNL A   1      30.413  27.361  25.678  1.00  0.00     0.169 HD
ENDBRANCH   7  15
ENDBRANCH   4   6
ENDBRANCH   3   4
ENDBRANCH   2   3
ENDBRANCH   1   2
BRANCH   1  20
ATOM     20  O   UNL A   1      32.491  35.446  30.813  1.00  0.00    -0.458 OA
BRANCH  20  21
ATOM     21  C   UNL A   1      32.697  35.880  32.077  1.00  0.00     0.338 C 
ATOM     22  O   UNL A   1      32.054  36.715  32.691  1.00  0.00    -0.246 OA
BRANCH  21  23
ATOM     23  C   UNL A   1      33.808  35.142  32.697  1.00  0.00     0.060 A 
ATOM     24  C   UNL A   1      35.072  35.719  32.678  1.00  0.00     0.016 A 
ATOM     25  C   UNL A   1      33.651  33.824  33.118  1.00  0.00     0.016 A 
ATOM     26  C   UNL A   1      36.203  34.961  32.971  1.00  0.00     0.010 A 
ATOM     27  C   UNL A   1      34.779  33.091  33.515  1.00  0.00     0.010 A 
ATOM     28  C   UNL A   1      36.074  33.635  33.406  1.00  0.00    -0.014 A 
BRANCH  28  29
ATOM     29  C   UNL A   1      37.286  32.813  33.696  1.00  0.00     0.031 A 
ATOM     30  C   UNL A   1      38.019  32.979  35.005  1.00  0.00     0.074 A 
ATOM     31  C   UNL A   1      37.726  31.895  32.810  1.00  0.00     0.049 A 
ATOM     32  N   UNL A   1      39.181  32.495  35.371  1.00  0.00    -0.248 NA
ATOM     33  C   UNL A   1      37.365  33.804  36.034  1.00  0.00     0.031 C 
ATOM     34  C   UNL A   1      37.086  31.563  31.536  1.00  0.00     0.029 A 
ATOM     35  N   UNL A   1      38.817  31.060  32.855  1.00  0.00    -0.354 N 
ATOM     36  C   UNL A   1      39.417  32.996  36.647  1.00  0.00     0.074 A 
ATOM     37  C   UNL A   1      38.285  33.829  36.989  1.00  0.00     0.031 C 
ATOM     38  C   UNL A   1      37.770  30.573  30.941  1.00  0.00     0.029 A 
ATOM     39  C   UNL A   1      38.949  30.265  31.741  1.00  0.00     0.049 A 
ATOM     40  H   UNL A   1      39.445  31.034  33.613  1.00  0.00     0.167 HD
ATOM     41  C   UNL A   1      40.481  32.784  37.460  1.00  0.00     0.031 A 
ATOM     42  C   UNL A   1      39.930  29.418  31.374  1.00  0.00     0.031 A 
ATOM     43  C   UNL A   1      41.593  31.930  37.138  1.00  0.00     0.049 A 
ATOM     44  C   UNL A   1      41.134  29.260  32.258  1.00  0.00     0.074 A 
ATOM     45  C   UNL A   1      42.724  31.663  37.892  1.00  0.00     0.029 A 
ATOM     46  N   UNL A   1      41.706  31.187  35.974  1.00  0.00    -0.354 N 
ATOM     47  N   UNL A   1      41.377  29.798  33.428  1.00  0.00    -0.248 NA
ATOM     48  C   UNL A   1      42.209  28.390  31.758  1.00  0.00     0.031 C 
ATOM     49  C   UNL A   1      43.540  30.789  37.168  1.00  0.00     0.029 A 
ATOM     50  C   UNL A   1      42.891  30.469  35.987  1.00  0.00     0.049 A 
ATOM     51  H   UNL A   1      41.044  31.171  35.248  1.00  0.00     0.167 HD
ATOM     52  C   UNL A   1      42.619  29.311  33.815  1.00  0.00     0.074 A 
ATOM     53  C   UNL A   1      43.071  28.424  32.765  1.00  0.00     0.031 C 
ATOM     54  C   UNL A   1      43.323  29.581  34.941  1.00  0.00     0.031 A 
BRANCH  41  55
ATOM     55  C   UNL A   1      40.511  33.517  38.773  1.00  0.00    -0.014 A 
ATOM     56  C   UNL A   1      39.961  32.960  39.938  1.00  0.00     0.009 A 
ATOM     57  C   UNL A   1      41.144  34.768  38.852  1.00  0.00     0.009 A 
ATOM     58  C   UNL A   1      40.020  33.656  41.148  1.00  0.00     0.001 A 
ATOM     59  C   UNL A   1      41.225  35.448  40.069  1.00  0.00     0.001 A 
ATOM     60  C   UNL A   1      40.656  34.896  41.215  1.00  0.00     0.000 A 
ENDBRANCH  41  55
BRANCH  42  61
ATOM     61  C   UNL A   1      39.847  28.692  30.078  1.00  0.00    -0.014 A 
ATOM     62  C   UNL A   1      39.366  27.376  30.025  1.00  0.00     0.009 A 
ATOM     63  C   UNL A   1      40.278  29.303  28.889  1.00  0.00     0.009 A 
ATOM     64  C   UNL A   1      39.340  26.679  28.814  1.00  0.00     0.001 A 
ATOM     65  C   UNL A   1      40.220  28.617  27.675  1.00  0.00     0.001 A 
ATOM     66  C   UNL A   1      39.761  27.302  27.641  1.00  0.00     0.000 A 
ENDBRANCH  42  61
BRANCH  54  67
ATOM     67  C   UNL A   1      44.630  28.862  35.119  1.00  0.00    -0.014 A 
ATOM     68  C   UNL A   1      44.699  27.623  35.774  1.00  0.00     0.009 A 
ATOM     69  C   UNL A   1      45.804  29.422  34.593  1.00  0.00     0.009 A 
ATOM     70  C   UNL A   1      45.926  26.976  35.929  1.00  0.00     0.001 A 
ATOM     71  C   UNL A   1      47.025  28.759  34.725  1.00  0.00     0.001 A 
ATOM     72  C   UNL A   1      47.086  27.542  35.401  1.00  0.00     0.000 A 
ENDBRANCH  54  67
ENDBRANCH  28  29
ENDBRANCH  21  23
ENDBRANCH  20  21
ENDBRANCH   1  20
TORSDOF 12
ENDMDL
