MODEL 1
REMARK VINA RESULT:     -11.4      0.000      0.000
REMARK SMILES O=C(OCCOC(=O)c1sccc1S(=O)(=O)Nc1ccc(Cn2cncn2)cc1)c1ccc(-c2c3nc(c(-c4ccccc4)c4ccc([nH]4)c(-c4ccccc4)c4nc(c(-c5ccccc5)c5ccc2[nH]5)C=C4)C=C3)cc1
REMARK SMILES IDX 6 1 5 2 4 3 3 4 2 5 1 6 30 7 31 8 77 9 32 10 76 11 33 12
REMARK SMILES IDX 34 13 35 14 70 15 36 16 75 17 69 18 71 19 37 20 74 21 68 22
REMARK SMILES IDX 67 23 38 25 60 26 45 27 59 28 46 29 49 30 58 31 72 32 47 33
REMARK SMILES IDX 48 34 57 36 73 37 50 38 39 39 40 40 44 41 41 42 43 43 42 44
REMARK SMILES IDX 61 45 62 46 66 47 63 48 65 49 64 50 51 51 52 52 56 53 53 54
REMARK SMILES IDX 55 55 54 56 7 57 8 58 9 59 10 60 13 61 11 62 12 63 14 64
REMARK SMILES IDX 15 65 16 66 17 67 18 69 19 70 29 71 20 72 28 73 21 74 22 75
REMARK SMILES IDX 23 76 24 77 27 78 25 79 26 80
REMARK H PARENT 71 24 49 35 17 68
REMARK Flexibility Score: inf
ROOT
ATOM      1  O   UNL A   1      36.140  22.796  25.646  1.00  0.00    -0.458 OA
ENDROOT
BRANCH   1   2
ATOM      2  C   UNL A   1      37.551  23.069  25.642  1.00  0.00     0.275 C 
BRANCH   2   3
ATOM      3  C   UNL A   1      38.492  21.879  25.784  1.00  0.00     0.275 C 
BRANCH   3   4
ATOM      4  O   UNL A   1      39.480  22.028  26.828  1.00  0.00    -0.458 OA
BRANCH   4   5
ATOM      5  C   UNL A   1      40.730  22.544  26.798  1.00  0.00     0.338 C 
ATOM      6  O   UNL A   1      41.686  21.817  26.538  1.00  0.00    -0.246 OA
BRANCH   5   7
ATOM      7  C   UNL A   1      41.015  23.950  27.157  1.00  0.00     0.060 A 
ATOM      8  C   UNL A   1      41.721  24.315  28.300  1.00  0.00     0.016 A 
ATOM      9  C   UNL A   1      40.416  24.948  26.362  1.00  0.00     0.016 A 
ATOM     10  C   UNL A   1      41.861  25.654  28.630  1.00  0.00     0.010 A 
ATOM     11  C   UNL A   1      40.509  26.290  26.718  1.00  0.00     0.010 A 
ATOM     12  C   UNL A   1      41.211  26.632  27.872  1.00  0.00    -0.014 A 
BRANCH  12  13
ATOM     13  C   UNL A   1      41.167  27.960  28.462  1.00  0.00     0.031 A 
ATOM     14  C   UNL A   1      42.260  28.914  28.153  1.00  0.00     0.074 A 
ATOM     15  C   UNL A   1      40.209  28.290  29.346  1.00  0.00     0.049 A 
ATOM     16  N   UNL A   1      43.185  29.343  28.950  1.00  0.00    -0.248 NA
ATOM     17  C   UNL A   1      42.345  29.436  26.787  1.00  0.00     0.031 C 
ATOM     18  C   UNL A   1      38.938  27.605  29.595  1.00  0.00     0.029 A 
ATOM     19  N   UNL A   1      40.153  29.376  30.164  1.00  0.00    -0.354 N 
ATOM     20  C   UNL A   1      43.893  30.308  28.235  1.00  0.00     0.074 A 
ATOM     21  C   UNL A   1      43.397  30.251  26.880  1.00  0.00     0.031 C 
ATOM     22  C   UNL A   1      38.148  28.409  30.338  1.00  0.00     0.029 A 
ATOM     23  C   UNL A   1      38.907  29.586  30.725  1.00  0.00     0.049 A 
ATOM     24  H   UNL A   1      40.927  29.960  30.339  1.00  0.00     0.167 HD
ATOM     25  C   UNL A   1      44.714  31.214  28.834  1.00  0.00     0.031 A 
ATOM     26  C   UNL A   1      38.502  30.684  31.399  1.00  0.00     0.031 A 
ATOM     27  C   UNL A   1      45.059  30.853  30.181  1.00  0.00     0.049 A 
ATOM     28  C   UNL A   1      39.698  31.396  31.899  1.00  0.00     0.074 A 
ATOM     29  C   UNL A   1      45.723  29.801  30.777  1.00  0.00     0.029 A 
ATOM     30  N   UNL A   1      44.438  31.529  31.203  1.00  0.00    -0.354 N 
ATOM     31  N   UNL A   1      40.462  30.944  32.852  1.00  0.00    -0.248 NA
ATOM     32  C   UNL A   1      40.284  32.449  31.083  1.00  0.00     0.031 C 
ATOM     33  C   UNL A   1      45.089  29.630  32.042  1.00  0.00     0.029 A 
ATOM     34  C   UNL A   1      44.085  30.596  32.141  1.00  0.00     0.049 A 
ATOM     35  H   UNL A   1      44.276  32.499  31.250  1.00  0.00     0.167 HD
ATOM     36  C   UNL A   1      41.745  31.345  32.506  1.00  0.00     0.074 A 
ATOM     37  C   UNL A   1      41.555  32.371  31.486  1.00  0.00     0.031 C 
ATOM     38  C   UNL A   1      42.838  30.612  32.873  1.00  0.00     0.031 A 
BRANCH  25  39
ATOM     39  C   UNL A   1      44.954  32.604  28.308  1.00  0.00    -0.014 A 
ATOM     40  C   UNL A   1      43.905  33.542  28.331  1.00  0.00     0.009 A 
ATOM     41  C   UNL A   1      46.089  32.941  27.546  1.00  0.00     0.009 A 
ATOM     42  C   UNL A   1      43.973  34.731  27.595  1.00  0.00     0.001 A 
ATOM     43  C   UNL A   1      46.178  34.146  26.845  1.00  0.00     0.001 A 
ATOM     44  C   UNL A   1      45.109  35.032  26.851  1.00  0.00     0.000 A 
ENDBRANCH  25  39
BRANCH  26  45
ATOM     45  C   UNL A   1      37.147  31.268  31.391  1.00  0.00    -0.014 A 
ATOM     46  C   UNL A   1      36.469  31.552  32.582  1.00  0.00     0.009 A 
ATOM     47  C   UNL A   1      36.603  31.763  30.189  1.00  0.00     0.009 A 
ATOM     48  C   UNL A   1      35.298  32.320  32.570  1.00  0.00     0.001 A 
ATOM     49  C   UNL A   1      35.431  32.519  30.174  1.00  0.00     0.001 A 
ATOM     50  C   UNL A   1      34.784  32.809  31.369  1.00  0.00     0.000 A 
ENDBRANCH  26  45
BRANCH  38  51
ATOM     51  C   UNL A   1      42.642  29.512  33.886  1.00  0.00    -0.014 A 
ATOM     52  C   UNL A   1      42.877  29.706  35.259  1.00  0.00     0.009 A 
ATOM     53  C   UNL A   1      42.062  28.303  33.475  1.00  0.00     0.009 A 
ATOM     54  C   UNL A   1      42.575  28.706  36.187  1.00  0.00     0.001 A 
ATOM     55  C   UNL A   1      41.740  27.311  34.405  1.00  0.00     0.001 A 
ATOM     56  C   UNL A   1      42.004  27.510  35.759  1.00  0.00     0.000 A 
ENDBRANCH  38  51
ENDBRANCH  12  13
ENDBRANCH   5   7
ENDBRANCH   4   5
ENDBRANCH   3   4
ENDBRANCH   2   3
ENDBRANCH   1   2
BRANCH   1  57
ATOM     57  C   UNL A   1      35.561  22.633  24.432  1.00  0.00     0.349 C 
ATOM     58  O   UNL A   1      36.174  22.616  23.363  1.00  0.00    -0.245 OA
BRANCH  57  59
ATOM     59  C   UNL A   1      34.144  22.460  24.555  1.00  0.00     0.133 A 
ATOM     60  S   UNL A   1      33.597  21.199  25.583  1.00  0.00    -0.136 S 
ATOM     61  C   UNL A   1      33.087  23.084  23.919  1.00  0.00     0.113 A 
ATOM     62  C   UNL A   1      31.959  21.530  25.252  1.00  0.00     0.067 A 
ATOM     63  C   UNL A   1      31.822  22.564  24.355  1.00  0.00     0.035 A 
BRANCH  61  64
ATOM     64  S   UNL A   1      33.154  24.342  22.723  1.00  0.00     0.263 S 
ATOM     65  O   UNL A   1      33.908  25.391  23.375  1.00  0.00    -0.201 OA
ATOM     66  O   UNL A   1      33.684  23.648  21.570  1.00  0.00    -0.201 OA
BRANCH  64  67
ATOM     67  N   UNL A   1      31.677  24.944  22.250  1.00  0.00    -0.280 N 
ATOM     68  H   UNL A   1      31.272  24.556  21.442  1.00  0.00     0.180 HD
BRANCH  67  69
ATOM     69  C   UNL A   1      30.942  25.974  22.914  1.00  0.00     0.049 A 
ATOM     70  C   UNL A   1      31.097  27.257  22.375  1.00  0.00     0.027 A 
ATOM     71  C   UNL A   1      29.893  25.736  23.794  1.00  0.00     0.027 A 
ATOM     72  C   UNL A   1      30.078  28.208  22.499  1.00  0.00     0.008 A 
ATOM     73  C   UNL A   1      28.887  26.697  23.945  1.00  0.00     0.008 A 
ATOM     74  C   UNL A   1      28.913  27.896  23.209  1.00  0.00    -0.026 A 
BRANCH  74  75
ATOM     75  C   UNL A   1      27.591  28.604  22.980  1.00  0.00     0.181 C 
BRANCH  75  76
ATOM     76  N   UNL A   1      27.663  29.975  22.516  1.00  0.00    -0.249 N 
ATOM     77  C   UNL A   1      27.686  31.105  23.280  1.00  0.00     0.220 A 
ATOM     78  N   UNL A   1      27.993  30.257  21.238  1.00  0.00    -0.160 NA
ATOM     79  N   UNL A   1      27.978  32.141  22.527  1.00  0.00    -0.224 NA
ATOM     80  C   UNL A   1      28.189  31.576  21.303  1.00  0.00     0.246 A 
ENDBRANCH  75  76
ENDBRANCH  74  75
ENDBRANCH  67  69
ENDBRANCH  64  67
ENDBRANCH  61  64
ENDBRANCH  57  59
ENDBRANCH   1  57
TORSDOF 16
ENDMDL
MODEL 2
REMARK VINA RESULT:     -11.4      3.051      6.717
REMARK SMILES O=C(OCCOC(=O)c1sccc1S(=O)(=O)Nc1ccc(Cn2cncn2)cc1)c1ccc(-c2c3nc(c(-c4ccccc4)c4ccc([nH]4)c(-c4ccccc4)c4nc(c(-c5ccccc5)c5ccc2[nH]5)C=C4)C=C3)cc1
REMARK SMILES IDX 6 1 5 2 4 3 3 4 2 5 1 6 30 7 31 8 77 9 32 10 76 11 33 12
REMARK SMILES IDX 34 13 35 14 70 15 36 16 75 17 69 18 71 19 37 20 74 21 68 22
REMARK SMILES IDX 67 23 38 25 60 26 45 27 59 28 46 29 49 30 58 31 72 32 47 33
REMARK SMILES IDX 48 34 57 36 73 37 50 38 39 39 40 40 44 41 41 42 43 43 42 44
REMARK SMILES IDX 61 45 62 46 66 47 63 48 65 49 64 50 51 51 52 52 56 53 53 54
REMARK SMILES IDX 55 55 54 56 7 57 8 58 9 59 10 60 13 61 11 62 12 63 14 64
REMARK SMILES IDX 15 65 16 66 17 67 18 69 19 70 29 71 20 72 28 73 21 74 22 75
REMARK SMILES IDX 23 76 24 77 27 78 25 79 26 80
REMARK H PARENT 71 24 49 35 17 68
REMARK Flexibility Score: inf
ROOT
ATOM      1  O   UNL A   1      34.086  26.964  25.862  1.00  0.00    -0.458 OA
ENDROOT
BRANCH   1   2
ATOM      2  C   UNL A   1      33.799  27.999  26.817  1.00  0.00     0.275 C 
BRANCH   2   3
ATOM      3  C   UNL A   1      34.820  29.122  26.957  1.00  0.00     0.275 C 
BRANCH   3   4
ATOM      4  O   UNL A   1      35.174  29.432  28.323  1.00  0.00    -0.458 OA
BRANCH   4   5
ATOM      5  C   UNL A   1      36.353  29.809  28.868  1.00  0.00     0.338 C 
ATOM      6  O   UNL A   1      36.396  30.779  29.622  1.00  0.00    -0.246 OA
BRANCH   5   7
ATOM      7  C   UNL A   1      37.631  29.151  28.523  1.00  0.00     0.060 A 
ATOM      8  C   UNL A   1      38.252  28.215  29.345  1.00  0.00     0.016 A 
ATOM      9  C   UNL A   1      38.297  29.613  27.368  1.00  0.00     0.016 A 
ATOM     10  C   UNL A   1      39.500  27.717  29.008  1.00  0.00     0.010 A 
ATOM     11  C   UNL A   1      39.573  29.154  27.055  1.00  0.00     0.010 A 
ATOM     12  C   UNL A   1      40.180  28.225  27.898  1.00  0.00    -0.014 A 
BRANCH  12  13
ATOM     13  C   UNL A   1      41.585  27.867  27.801  1.00  0.00     0.031 A 
ATOM     14  C   UNL A   1      41.951  26.580  27.162  1.00  0.00     0.074 A 
ATOM     15  C   UNL A   1      42.534  28.638  28.363  1.00  0.00     0.049 A 
ATOM     16  N   UNL A   1      42.432  25.521  27.731  1.00  0.00    -0.248 NA
ATOM     17  C   UNL A   1      41.734  26.447  25.719  1.00  0.00     0.031 C 
ATOM     18  C   UNL A   1      42.416  30.028  28.812  1.00  0.00     0.029 A 
ATOM     19  N   UNL A   1      43.844  28.342  28.577  1.00  0.00    -0.354 N 
ATOM     20  C   UNL A   1      42.721  24.628  26.702  1.00  0.00     0.074 A 
ATOM     21  C   UNL A   1      42.180  25.210  25.497  1.00  0.00     0.031 C 
ATOM     22  C   UNL A   1      43.653  30.518  29.040  1.00  0.00     0.029 A 
ATOM     23  C   UNL A   1      44.619  29.443  28.890  1.00  0.00     0.049 A 
ATOM     24  H   UNL A   1      44.208  27.428  28.516  1.00  0.00     0.167 HD
ATOM     25  C   UNL A   1      43.541  23.553  26.869  1.00  0.00     0.031 A 
ATOM     26  C   UNL A   1      45.968  29.488  28.948  1.00  0.00     0.031 A 
ATOM     27  C   UNL A   1      43.768  23.230  28.250  1.00  0.00     0.049 A 
ATOM     28  C   UNL A   1      46.476  28.113  29.144  1.00  0.00     0.074 A 
ATOM     29  C   UNL A   1      42.977  22.838  29.310  1.00  0.00     0.029 A 
ATOM     30  N   UNL A   1      44.980  23.574  28.796  1.00  0.00    -0.354 N 
ATOM     31  N   UNL A   1      46.330  27.439  30.248  1.00  0.00    -0.248 NA
ATOM     32  C   UNL A   1      46.827  27.319  27.975  1.00  0.00     0.031 C 
ATOM     33  C   UNL A   1      43.591  23.409  30.463  1.00  0.00     0.029 A 
ATOM     34  C   UNL A   1      44.724  24.103  30.033  1.00  0.00     0.049 A 
ATOM     35  H   UNL A   1      45.864  23.462  28.377  1.00  0.00     0.167 HD
ATOM     36  C   UNL A   1      46.159  26.122  29.846  1.00  0.00     0.074 A 
ATOM     37  C   UNL A   1      46.603  26.093  28.456  1.00  0.00     0.031 C 
ATOM     38  C   UNL A   1      45.415  25.247  30.586  1.00  0.00     0.031 A 
BRANCH  25  39
ATOM     39  C   UNL A   1      44.404  22.980  25.776  1.00  0.00    -0.014 A 
ATOM     40  C   UNL A   1      44.393  21.591  25.544  1.00  0.00     0.009 A 
ATOM     41  C   UNL A   1      45.425  23.719  25.151  1.00  0.00     0.009 A 
ATOM     42  C   UNL A   1      45.378  20.974  24.764  1.00  0.00     0.001 A 
ATOM     43  C   UNL A   1      46.385  23.113  24.336  1.00  0.00     0.001 A 
ATOM     44  C   UNL A   1      46.375  21.735  24.161  1.00  0.00     0.000 A 
ENDBRANCH  25  39
BRANCH  26  45
ATOM     45  C   UNL A   1      46.824  30.631  28.576  1.00  0.00    -0.014 A 
ATOM     46  C   UNL A   1      47.980  30.942  29.302  1.00  0.00     0.009 A 
ATOM     47  C   UNL A   1      46.620  31.291  27.348  1.00  0.00     0.009 A 
ATOM     48  C   UNL A   1      48.907  31.868  28.805  1.00  0.00     0.001 A 
ATOM     49  C   UNL A   1      47.537  32.221  26.857  1.00  0.00     0.001 A 
ATOM     50  C   UNL A   1      48.689  32.500  27.581  1.00  0.00     0.000 A 
ENDBRANCH  26  45
BRANCH  38  51
ATOM     51  C   UNL A   1      45.009  25.666  31.976  1.00  0.00    -0.014 A 
ATOM     52  C   UNL A   1      45.709  25.244  33.120  1.00  0.00     0.009 A 
ATOM     53  C   UNL A   1      44.001  26.628  32.131  1.00  0.00     0.009 A 
ATOM     54  C   UNL A   1      45.383  25.741  34.385  1.00  0.00     0.001 A 
ATOM     55  C   UNL A   1      43.690  27.142  33.393  1.00  0.00     0.001 A 
ATOM     56  C   UNL A   1      44.376  26.692  34.520  1.00  0.00     0.000 A 
ENDBRANCH  38  51
ENDBRANCH  12  13
ENDBRANCH   5   7
ENDBRANCH   4   5
ENDBRANCH   3   4
ENDBRANCH   2   3
ENDBRANCH   1   2
BRANCH   1  57
ATOM     57  C   UNL A   1      33.176  25.964  25.777  1.00  0.00     0.349 C 
ATOM     58  O   UNL A   1      32.008  26.048  26.161  1.00  0.00    -0.245 OA
BRANCH  57  59
ATOM     59  C   UNL A   1      33.743  24.801  25.161  1.00  0.00     0.133 A 
ATOM     60  S   UNL A   1      34.637  23.739  26.170  1.00  0.00    -0.136 S 
ATOM     61  C   UNL A   1      33.782  24.392  23.841  1.00  0.00     0.113 A 
ATOM     62  C   UNL A   1      35.008  22.693  24.878  1.00  0.00     0.067 A 
ATOM     63  C   UNL A   1      34.486  23.149  23.690  1.00  0.00     0.035 A 
BRANCH  61  64
ATOM     64  S   UNL A   1      33.111  25.194  22.454  1.00  0.00     0.263 S 
ATOM     65  O   UNL A   1      33.673  26.526  22.525  1.00  0.00    -0.201 OA
ATOM     66  O   UNL A   1      33.457  24.295  21.375  1.00  0.00    -0.201 OA
BRANCH  64  67
ATOM     67  N   UNL A   1      31.451  25.304  22.438  1.00  0.00    -0.280 N 
ATOM     68  H   UNL A   1      30.958  24.577  21.994  1.00  0.00     0.180 HD
BRANCH  67  69
ATOM     69  C   UNL A   1      30.676  26.358  23.013  1.00  0.00     0.049 A 
ATOM     70  C   UNL A   1      30.958  27.638  22.523  1.00  0.00     0.027 A 
ATOM     71  C   UNL A   1      29.507  26.156  23.738  1.00  0.00     0.027 A 
ATOM     72  C   UNL A   1      29.972  28.632  22.523  1.00  0.00     0.008 A 
ATOM     73  C   UNL A   1      28.532  27.159  23.766  1.00  0.00     0.008 A 
ATOM     74  C   UNL A   1      28.710  28.364  23.062  1.00  0.00    -0.026 A 
BRANCH  74  75
ATOM     75  C   UNL A   1      27.462  29.132  22.666  1.00  0.00     0.181 C 
BRANCH  75  76
ATOM     76  N   UNL A   1      27.615  30.561  22.479  1.00  0.00    -0.249 N 
ATOM     77  C   UNL A   1      27.798  31.507  23.445  1.00  0.00     0.220 A 
ATOM     78  N   UNL A   1      27.863  31.075  21.256  1.00  0.00    -0.160 NA
ATOM     79  N   UNL A   1      28.117  32.652  22.888  1.00  0.00    -0.224 NA
ATOM     80  C   UNL A   1      28.177  32.337  21.561  1.00  0.00     0.246 A 
ENDBRANCH  75  76
ENDBRANCH  74  75
ENDBRANCH  67  69
ENDBRANCH  64  67
ENDBRANCH  61  64
ENDBRANCH  57  59
ENDBRANCH   1  57
TORSDOF 16
ENDMDL
MODEL 3
REMARK VINA RESULT:     -11.2      3.368      8.587
REMARK SMILES O=C(OCCOC(=O)c1sccc1S(=O)(=O)Nc1ccc(Cn2cncn2)cc1)c1ccc(-c2c3nc(c(-c4ccccc4)c4ccc([nH]4)c(-c4ccccc4)c4nc(c(-c5ccccc5)c5ccc2[nH]5)C=C4)C=C3)cc1
REMARK SMILES IDX 6 1 5 2 4 3 3 4 2 5 1 6 30 7 31 8 77 9 32 10 76 11 33 12
REMARK SMILES IDX 34 13 35 14 70 15 36 16 75 17 69 18 71 19 37 20 74 21 68 22
REMARK SMILES IDX 67 23 38 25 60 26 45 27 59 28 46 29 49 30 58 31 72 32 47 33
REMARK SMILES IDX 48 34 57 36 73 37 50 38 39 39 40 40 44 41 41 42 43 43 42 44
REMARK SMILES IDX 61 45 62 46 66 47 63 48 65 49 64 50 51 51 52 52 56 53 53 54
REMARK SMILES IDX 55 55 54 56 7 57 8 58 9 59 10 60 13 61 11 62 12 63 14 64
REMARK SMILES IDX 15 65 16 66 17 67 18 69 19 70 29 71 20 72 28 73 21 74 22 75
REMARK SMILES IDX 23 76 24 77 27 78 25 79 26 80
REMARK H PARENT 71 24 49 35 17 68
REMARK Flexibility Score: inf
ROOT
ATOM      1  O   UNL A   1      32.361  30.203  25.772  1.00  0.00    -0.458 OA
ENDROOT
BRANCH   1   2
ATOM      2  C   UNL A   1      32.982  30.347  27.059  1.00  0.00     0.275 C 
BRANCH   2   3
ATOM      3  C   UNL A   1      33.531  31.722  27.421  1.00  0.00     0.275 C 
BRANCH   3   4
ATOM      4  O   UNL A   1      34.355  31.736  28.608  1.00  0.00    -0.458 OA
BRANCH   4   5
ATOM      5  C   UNL A   1      35.639  32.116  28.789  1.00  0.00     0.338 C 
ATOM      6  O   UNL A   1      35.918  33.311  28.877  1.00  0.00    -0.246 OA
BRANCH   5   7
ATOM      7  C   UNL A   1      36.758  31.149  28.797  1.00  0.00     0.060 A 
ATOM      8  C   UNL A   1      36.583  29.782  28.602  1.00  0.00     0.016 A 
ATOM      9  C   UNL A   1      38.029  31.643  29.155  1.00  0.00     0.016 A 
ATOM     10  C   UNL A   1      37.661  28.921  28.727  1.00  0.00     0.010 A 
ATOM     11  C   UNL A   1      39.102  30.776  29.332  1.00  0.00     0.010 A 
ATOM     12  C   UNL A   1      38.902  29.410  29.143  1.00  0.00    -0.014 A 
BRANCH  12  13
ATOM     13  C   UNL A   1      39.877  28.405  29.533  1.00  0.00     0.031 A 
ATOM     14  C   UNL A   1      40.319  28.349  30.947  1.00  0.00     0.074 A 
ATOM     15  C   UNL A   1      40.444  27.602  28.614  1.00  0.00     0.049 A 
ATOM     16  N   UNL A   1      41.479  28.667  31.428  1.00  0.00    -0.248 NA
ATOM     17  C   UNL A   1      39.346  27.909  31.950  1.00  0.00     0.031 C 
ATOM     18  C   UNL A   1      39.987  27.333  27.248  1.00  0.00     0.029 A 
ATOM     19  N   UNL A   1      41.527  26.790  28.755  1.00  0.00    -0.354 N 
ATOM     20  C   UNL A   1      41.441  28.330  32.780  1.00  0.00     0.074 A 
ATOM     21  C   UNL A   1      40.074  27.962  33.066  1.00  0.00     0.031 C 
ATOM     22  C   UNL A   1      40.656  26.263  26.767  1.00  0.00     0.029 A 
ATOM     23  C   UNL A   1      41.672  25.874  27.731  1.00  0.00     0.049 A 
ATOM     24  H   UNL A   1      42.149  26.849  29.517  1.00  0.00     0.167 HD
ATOM     25  C   UNL A   1      42.564  28.201  33.539  1.00  0.00     0.031 A 
ATOM     26  C   UNL A   1      42.517  24.819  27.707  1.00  0.00     0.031 A 
ATOM     27  C   UNL A   1      43.723  28.792  32.929  1.00  0.00     0.049 A 
ATOM     28  C   UNL A   1      43.610  25.073  28.670  1.00  0.00     0.074 A 
ATOM     29  C   UNL A   1      44.087  30.063  32.538  1.00  0.00     0.029 A 
ATOM     30  N   UNL A   1      44.646  27.948  32.361  1.00  0.00    -0.354 N 
ATOM     31  N   UNL A   1      44.534  25.972  28.494  1.00  0.00    -0.248 NA
ATOM     32  C   UNL A   1      43.475  24.582  30.034  1.00  0.00     0.031 C 
ATOM     33  C   UNL A   1      44.914  29.878  31.392  1.00  0.00     0.029 A 
ATOM     34  C   UNL A   1      45.009  28.504  31.163  1.00  0.00     0.049 A 
ATOM     35  H   UNL A   1      44.982  27.104  32.743  1.00  0.00     0.167 HD
ATOM     36  C   UNL A   1      44.809  26.461  29.764  1.00  0.00     0.074 A 
ATOM     37  C   UNL A   1      44.226  25.482  30.676  1.00  0.00     0.031 C 
ATOM     38  C   UNL A   1      45.233  27.746  29.952  1.00  0.00     0.031 A 
BRANCH  25  39
ATOM     39  C   UNL A   1      42.686  27.252  34.701  1.00  0.00    -0.014 A 
ATOM     40  C   UNL A   1      43.017  25.905  34.461  1.00  0.00     0.009 A 
ATOM     41  C   UNL A   1      42.225  27.571  35.992  1.00  0.00     0.009 A 
ATOM     42  C   UNL A   1      42.852  24.926  35.449  1.00  0.00     0.001 A 
ATOM     43  C   UNL A   1      42.099  26.605  36.993  1.00  0.00     0.001 A 
ATOM     44  C   UNL A   1      42.391  25.277  36.714  1.00  0.00     0.000 A 
ENDBRANCH  25  39
BRANCH  26  45
ATOM     45  C   UNL A   1      42.263  23.507  27.084  1.00  0.00    -0.014 A 
ATOM     46  C   UNL A   1      43.151  22.960  26.149  1.00  0.00     0.009 A 
ATOM     47  C   UNL A   1      41.243  22.675  27.588  1.00  0.00     0.009 A 
ATOM     48  C   UNL A   1      43.030  21.623  25.748  1.00  0.00     0.001 A 
ATOM     49  C   UNL A   1      41.116  21.346  27.181  1.00  0.00     0.001 A 
ATOM     50  C   UNL A   1      42.020  20.816  26.269  1.00  0.00     0.000 A 
ENDBRANCH  26  45
BRANCH  38  51
ATOM     51  C   UNL A   1      45.653  28.535  28.737  1.00  0.00    -0.014 A 
ATOM     52  C   UNL A   1      44.725  29.214  27.927  1.00  0.00     0.009 A 
ATOM     53  C   UNL A   1      47.019  28.729  28.490  1.00  0.00     0.009 A 
ATOM     54  C   UNL A   1      45.153  30.032  26.878  1.00  0.00     0.001 A 
ATOM     55  C   UNL A   1      47.447  29.565  27.454  1.00  0.00     0.001 A 
ATOM     56  C   UNL A   1      46.514  30.209  26.645  1.00  0.00     0.000 A 
ENDBRANCH  38  51
ENDBRANCH  12  13
ENDBRANCH   5   7
ENDBRANCH   4   5
ENDBRANCH   3   4
ENDBRANCH   2   3
ENDBRANCH   1   2
BRANCH   1  57
ATOM     57  C   UNL A   1      32.773  29.150  25.026  1.00  0.00     0.349 C 
ATOM     58  O   UNL A   1      33.947  28.917  24.735  1.00  0.00    -0.245 OA
BRANCH  57  59
ATOM     59  C   UNL A   1      31.665  28.329  24.638  1.00  0.00     0.133 A 
ATOM     60  S   UNL A   1      30.639  28.933  23.401  1.00  0.00    -0.136 S 
ATOM     61  C   UNL A   1      31.192  27.131  25.141  1.00  0.00     0.113 A 
ATOM     62  C   UNL A   1      29.615  27.573  23.474  1.00  0.00     0.067 A 
ATOM     63  C   UNL A   1      30.025  26.681  24.437  1.00  0.00     0.035 A 
BRANCH  61  64
ATOM     64  S   UNL A   1      31.837  26.198  26.457  1.00  0.00     0.263 S 
ATOM     65  O   UNL A   1      33.125  25.760  25.965  1.00  0.00    -0.201 OA
ATOM     66  O   UNL A   1      31.736  27.117  27.570  1.00  0.00    -0.201 OA
BRANCH  64  67
ATOM     67  N   UNL A   1      30.936  24.867  26.886  1.00  0.00    -0.280 N 
ATOM     68  H   UNL A   1      30.031  25.032  27.237  1.00  0.00     0.180 HD
BRANCH  67  69
ATOM     69  C   UNL A   1      31.356  23.505  26.790  1.00  0.00     0.049 A 
ATOM     70  C   UNL A   1      30.746  22.765  25.771  1.00  0.00     0.027 A 
ATOM     71  C   UNL A   1      32.502  23.001  27.395  1.00  0.00     0.027 A 
ATOM     72  C   UNL A   1      31.410  21.682  25.184  1.00  0.00     0.008 A 
ATOM     73  C   UNL A   1      33.152  21.899  26.830  1.00  0.00     0.008 A 
ATOM     74  C   UNL A   1      32.673  21.300  25.650  1.00  0.00    -0.026 A 
BRANCH  74  75
ATOM     75  C   UNL A   1      33.668  20.531  24.803  1.00  0.00     0.181 C 
BRANCH  75  76
ATOM     76  N   UNL A   1      33.520  19.089  24.779  1.00  0.00    -0.249 N 
ATOM     77  C   UNL A   1      34.466  18.165  24.445  1.00  0.00     0.220 A 
ATOM     78  N   UNL A   1      32.460  18.494  25.367  1.00  0.00    -0.160 NA
ATOM     79  N   UNL A   1      34.039  16.963  24.753  1.00  0.00    -0.224 NA
ATOM     80  C   UNL A   1      32.832  17.211  25.340  1.00  0.00     0.246 A 
ENDBRANCH  75  76
ENDBRANCH  74  75
ENDBRANCH  67  69
ENDBRANCH  64  67
ENDBRANCH  61  64
ENDBRANCH  57  59
ENDBRANCH   1  57
TORSDOF 16
ENDMDL
