MODEL 1
REMARK VINA RESULT:      -7.8      0.000      0.000
REMARK SMILES CC(=O)CCCCC/C=C/C(=O)OCCOC(=O)c1ccc(-c2c3nc(c(-c4ccccc4)c4ccc([nH]4)c(-c4ccccc4)c4nc(c(-c5ccccc5)c5ccc2[nH]5)C=C4)C=C3)cc1
REMARK SMILES IDX 11 1 12 2 10 3 9 4 8 5 7 6 6 7 5 8 4 9 2 10 1 11 3 12 13 13
REMARK SMILES IDX 14 14 15 15 16 16 17 17 18 18 19 19 20 20 66 21 21 22 65 23
REMARK SMILES IDX 22 24 23 25 24 26 59 27 25 28 64 29 58 30 60 31 26 32 63 33
REMARK SMILES IDX 57 34 56 35 27 37 49 38 34 39 48 40 35 41 38 42 47 43 61 44
REMARK SMILES IDX 36 45 37 46 46 48 62 49 39 50 28 51 29 52 33 53 30 54 32 55
REMARK SMILES IDX 31 56 50 57 51 58 55 59 52 60 54 61 53 62 40 63 41 64 45 65
REMARK SMILES IDX 42 66 44 67 43 68
REMARK H PARENT 60 36 38 47
REMARK Flexibility Score: inf
ROOT
ATOM      1  C   UNL A   1      33.957  34.461  33.092  1.00  0.00     0.330 C 
ATOM      2  O   UNL A   1      33.267  33.465  32.936  1.00  0.00    -0.247 OA
ENDROOT
BRANCH   1   3
ATOM      3  C   UNL A   1      35.283  34.390  33.744  1.00  0.00     0.089 C 
ATOM      4  C   UNL A   1      35.921  33.252  34.054  1.00  0.00    -0.019 C 
BRANCH   4   5
ATOM      5  C   UNL A   1      37.186  33.208  34.862  1.00  0.00     0.027 C 
BRANCH   5   6
ATOM      6  C   UNL A   1      38.007  31.940  34.588  1.00  0.00     0.004 C 
BRANCH   6   7
ATOM      7  C   UNL A   1      39.201  31.721  35.528  1.00  0.00     0.001 C 
BRANCH   7   8
ATOM      8  C   UNL A   1      40.105  30.529  35.189  1.00  0.00     0.008 C 
BRANCH   8   9
ATOM      9  C   UNL A   1      39.880  29.904  33.814  1.00  0.00     0.075 C 
BRANCH   9  10
ATOM     10  C   UNL A   1      40.618  28.592  33.635  1.00  0.00     0.129 C 
ATOM     11  C   UNL A   1      41.693  28.241  34.628  1.00  0.00     0.087 C 
ATOM     12  O   UNL A   1      40.317  27.814  32.730  1.00  0.00    -0.300 OA
ENDBRANCH   9  10
ENDBRANCH   8   9
ENDBRANCH   7   8
ENDBRANCH   6   7
ENDBRANCH   5   6
ENDBRANCH   4   5
ENDBRANCH   1   3
BRANCH   1  13
ATOM     13  O   UNL A   1      33.703  35.702  32.612  1.00  0.00    -0.459 OA
BRANCH  13  14
ATOM     14  C   UNL A   1      32.846  35.774  31.460  1.00  0.00     0.275 C 
BRANCH  14  15
ATOM     15  C   UNL A   1      33.646  35.610  30.164  1.00  0.00     0.275 C 
BRANCH  15  16
ATOM     16  O   UNL A   1      32.788  35.394  29.027  1.00  0.00    -0.458 OA
BRANCH  16  17
ATOM     17  C   UNL A   1      32.946  34.202  28.401  1.00  0.00     0.338 C 
ATOM     18  O   UNL A   1      32.190  33.687  27.596  1.00  0.00    -0.246 OA
BRANCH  17  19
ATOM     19  C   UNL A   1      34.267  33.633  28.732  1.00  0.00     0.060 A 
ATOM     20  C   UNL A   1      34.345  32.762  29.823  1.00  0.00     0.016 A 
ATOM     21  C   UNL A   1      35.421  33.989  28.029  1.00  0.00     0.016 A 
ATOM     22  C   UNL A   1      35.574  32.234  30.211  1.00  0.00     0.010 A 
ATOM     23  C   UNL A   1      36.658  33.466  28.427  1.00  0.00     0.010 A 
ATOM     24  C   UNL A   1      36.742  32.592  29.524  1.00  0.00    -0.014 A 
BRANCH  24  25
ATOM     25  C   UNL A   1      38.051  32.076  29.993  1.00  0.00     0.031 A 
ATOM     26  C   UNL A   1      38.579  30.773  29.463  1.00  0.00     0.074 A 
ATOM     27  C   UNL A   1      38.782  32.794  30.866  1.00  0.00     0.049 A 
ATOM     28  N   UNL A   1      39.695  30.154  29.755  1.00  0.00    -0.248 NA
ATOM     29  C   UNL A   1      37.742  30.075  28.475  1.00  0.00     0.031 C 
ATOM     30  C   UNL A   1      38.401  34.093  31.421  1.00  0.00     0.029 A 
ATOM     31  N   UNL A   1      40.004  32.531  31.434  1.00  0.00    -0.354 N 
ATOM     32  C   UNL A   1      39.689  28.988  29.000  1.00  0.00     0.074 A 
ATOM     33  C   UNL A   1      38.453  28.978  28.247  1.00  0.00     0.031 C 
ATOM     34  C   UNL A   1      39.375  34.519  32.244  1.00  0.00     0.029 A 
ATOM     35  C   UNL A   1      40.427  33.507  32.304  1.00  0.00     0.049 A 
ATOM     36  H   UNL A   1      40.527  31.721  31.238  1.00  0.00     0.167 HD
ATOM     37  C   UNL A   1      40.628  28.014  28.941  1.00  0.00     0.031 A 
ATOM     38  C   UNL A   1      41.529  33.569  33.075  1.00  0.00     0.031 A 
ATOM     39  C   UNL A   1      41.860  28.024  29.685  1.00  0.00     0.049 A 
ATOM     40  C   UNL A   1      42.521  32.438  33.038  1.00  0.00     0.074 A 
ATOM     41  C   UNL A   1      42.886  27.094  29.662  1.00  0.00     0.029 A 
ATOM     42  N   UNL A   1      42.229  29.006  30.589  1.00  0.00    -0.354 N 
ATOM     43  N   UNL A   1      42.518  31.358  32.295  1.00  0.00    -0.248 NA
ATOM     44  C   UNL A   1      43.671  32.539  33.950  1.00  0.00     0.031 C 
ATOM     45  C   UNL A   1      43.853  27.488  30.592  1.00  0.00     0.029 A 
ATOM     46  C   UNL A   1      43.452  28.688  31.156  1.00  0.00     0.049 A 
ATOM     47  H   UNL A   1      41.700  29.809  30.799  1.00  0.00     0.167 HD
ATOM     48  C   UNL A   1      43.675  30.667  32.628  1.00  0.00     0.074 A 
ATOM     49  C   UNL A   1      44.363  31.455  33.630  1.00  0.00     0.031 C 
ATOM     50  C   UNL A   1      44.127  29.484  32.146  1.00  0.00     0.031 A 
BRANCH  37  51
ATOM     51  C   UNL A   1      40.345  26.828  28.065  1.00  0.00    -0.014 A 
ATOM     52  C   UNL A   1      40.868  26.736  26.766  1.00  0.00     0.009 A 
ATOM     53  C   UNL A   1      39.589  25.759  28.571  1.00  0.00     0.009 A 
ATOM     54  C   UNL A   1      40.617  25.607  25.983  1.00  0.00     0.001 A 
ATOM     55  C   UNL A   1      39.358  24.623  27.796  1.00  0.00     0.001 A 
ATOM     56  C   UNL A   1      39.867  24.550  26.500  1.00  0.00     0.000 A 
ENDBRANCH  37  51
BRANCH  38  57
ATOM     57  C   UNL A   1      41.749  34.729  33.978  1.00  0.00    -0.014 A 
ATOM     58  C   UNL A   1      42.508  35.831  33.555  1.00  0.00     0.009 A 
ATOM     59  C   UNL A   1      41.232  34.723  35.283  1.00  0.00     0.009 A 
ATOM     60  C   UNL A   1      42.769  36.888  34.430  1.00  0.00     0.001 A 
ATOM     61  C   UNL A   1      41.470  35.795  36.145  1.00  0.00     0.001 A 
ATOM     62  C   UNL A   1      42.247  36.871  35.723  1.00  0.00     0.000 A 
ENDBRANCH  38  57
BRANCH  50  63
ATOM     63  C   UNL A   1      45.446  28.989  32.669  1.00  0.00    -0.014 A 
ATOM     64  C   UNL A   1      46.656  29.361  32.062  1.00  0.00     0.009 A 
ATOM     65  C   UNL A   1      45.478  28.166  33.805  1.00  0.00     0.009 A 
ATOM     66  C   UNL A   1      47.871  28.893  32.567  1.00  0.00     0.001 A 
ATOM     67  C   UNL A   1      46.695  27.721  34.323  1.00  0.00     0.001 A 
ATOM     68  C   UNL A   1      47.889  28.078  33.699  1.00  0.00     0.000 A 
ENDBRANCH  50  63
ENDBRANCH  24  25
ENDBRANCH  17  19
ENDBRANCH  16  17
ENDBRANCH  15  16
ENDBRANCH  14  15
ENDBRANCH  13  14
ENDBRANCH   1  13
TORSDOF 17
ENDMDL
MODEL 2
REMARK VINA RESULT:      -7.3      0.315      6.319
REMARK SMILES CC(=O)CCCCC/C=C/C(=O)OCCOC(=O)c1ccc(-c2c3nc(c(-c4ccccc4)c4ccc([nH]4)c(-c4ccccc4)c4nc(c(-c5ccccc5)c5ccc2[nH]5)C=C4)C=C3)cc1
REMARK SMILES IDX 11 1 12 2 10 3 9 4 8 5 7 6 6 7 5 8 4 9 2 10 1 11 3 12 13 13
REMARK SMILES IDX 14 14 15 15 16 16 17 17 18 18 19 19 20 20 66 21 21 22 65 23
REMARK SMILES IDX 22 24 23 25 24 26 59 27 25 28 64 29 58 30 60 31 26 32 63 33
REMARK SMILES IDX 57 34 56 35 27 37 49 38 34 39 48 40 35 41 38 42 47 43 61 44
REMARK SMILES IDX 36 45 37 46 46 48 62 49 39 50 28 51 29 52 33 53 30 54 32 55
REMARK SMILES IDX 31 56 50 57 51 58 55 59 52 60 54 61 53 62 40 63 41 64 45 65
REMARK SMILES IDX 42 66 44 67 43 68
REMARK H PARENT 60 36 38 47
REMARK Flexibility Score: inf
ROOT
ATOM      1  C   UNL A   1      34.181  34.513  33.103  1.00  0.00     0.330 C 
ATOM      2  O   UNL A   1      33.547  33.510  32.810  1.00  0.00    -0.247 OA
ENDROOT
BRANCH   1   3
ATOM      3  C   UNL A   1      35.421  34.437  33.905  1.00  0.00     0.089 C 
ATOM      4  C   UNL A   1      36.040  33.298  34.250  1.00  0.00    -0.019 C 
BRANCH   4   5
ATOM      5  C   UNL A   1      37.200  33.243  35.202  1.00  0.00     0.027 C 
BRANCH   5   6
ATOM      6  C   UNL A   1      38.085  32.011  34.968  1.00  0.00     0.004 C 
BRANCH   6   7
ATOM      7  C   UNL A   1      39.403  31.996  35.756  1.00  0.00     0.001 C 
BRANCH   7   8
ATOM      8  C   UNL A   1      40.322  30.797  35.493  1.00  0.00     0.008 C 
BRANCH   8   9
ATOM      9  C   UNL A   1      40.026  30.009  34.219  1.00  0.00     0.075 C 
BRANCH   9  10
ATOM     10  C   UNL A   1      40.775  28.693  34.153  1.00  0.00     0.129 C 
ATOM     11  C   UNL A   1      41.968  28.508  35.052  1.00  0.00     0.087 C 
ATOM     12  O   UNL A   1      40.393  27.782  33.418  1.00  0.00    -0.300 OA
ENDBRANCH   9  10
ENDBRANCH   8   9
ENDBRANCH   7   8
ENDBRANCH   6   7
ENDBRANCH   5   6
ENDBRANCH   4   5
ENDBRANCH   1   3
BRANCH   1  13
ATOM     13  O   UNL A   1      33.949  35.772  32.663  1.00  0.00    -0.459 OA
BRANCH  13  14
ATOM     14  C   UNL A   1      33.094  35.896  31.513  1.00  0.00     0.275 C 
BRANCH  14  15
ATOM     15  C   UNL A   1      33.891  35.743  30.213  1.00  0.00     0.275 C 
BRANCH  15  16
ATOM     16  O   UNL A   1      33.029  35.559  29.073  1.00  0.00    -0.458 OA
BRANCH  16  17
ATOM     17  C   UNL A   1      33.088  34.335  28.494  1.00  0.00     0.338 C 
ATOM     18  O   UNL A   1      32.267  33.832  27.748  1.00  0.00    -0.246 OA
BRANCH  17  19
ATOM     19  C   UNL A   1      34.389  33.703  28.790  1.00  0.00     0.060 A 
ATOM     20  C   UNL A   1      34.418  32.697  29.761  1.00  0.00     0.016 A 
ATOM     21  C   UNL A   1      35.571  34.125  28.176  1.00  0.00     0.016 A 
ATOM     22  C   UNL A   1      35.624  32.100  30.116  1.00  0.00     0.010 A 
ATOM     23  C   UNL A   1      36.786  33.531  28.542  1.00  0.00     0.010 A 
ATOM     24  C   UNL A   1      36.820  32.521  29.519  1.00  0.00    -0.014 A 
BRANCH  24  25
ATOM     25  C   UNL A   1      38.105  31.925  29.958  1.00  0.00     0.031 A 
ATOM     26  C   UNL A   1      38.964  32.643  30.959  1.00  0.00     0.074 A 
ATOM     27  C   UNL A   1      38.484  30.723  29.484  1.00  0.00     0.049 A 
ATOM     28  N   UNL A   1      40.121  32.289  31.461  1.00  0.00    -0.248 NA
ATOM     29  C   UNL A   1      38.454  33.927  31.465  1.00  0.00     0.031 C 
ATOM     30  C   UNL A   1      37.720  29.905  28.542  1.00  0.00     0.029 A 
ATOM     31  N   UNL A   1      39.609  29.979  29.739  1.00  0.00    -0.354 N 
ATOM     32  C   UNL A   1      40.485  33.312  32.328  1.00  0.00     0.074 A 
ATOM     33  C   UNL A   1      39.435  34.306  32.275  1.00  0.00     0.031 C 
ATOM     34  C   UNL A   1      38.394  28.767  28.304  1.00  0.00     0.029 A 
ATOM     35  C   UNL A   1      39.653  28.793  29.046  1.00  0.00     0.049 A 
ATOM     36  H   UNL A   1      40.317  30.266  30.359  1.00  0.00     0.167 HD
ATOM     37  C   UNL A   1      41.595  33.413  33.096  1.00  0.00     0.031 A 
ATOM     38  C   UNL A   1      40.608  27.845  29.000  1.00  0.00     0.031 A 
ATOM     39  C   UNL A   1      42.638  32.423  33.154  1.00  0.00     0.049 A 
ATOM     40  C   UNL A   1      41.861  28.018  29.814  1.00  0.00     0.074 A 
ATOM     41  C   UNL A   1      43.785  32.427  33.931  1.00  0.00     0.029 A 
ATOM     42  N   UNL A   1      42.668  31.261  32.402  1.00  0.00    -0.354 N 
ATOM     43  N   UNL A   1      42.176  28.974  30.654  1.00  0.00    -0.248 NA
ATOM     44  C   UNL A   1      42.890  26.977  29.672  1.00  0.00     0.031 C 
ATOM     45  C   UNL A   1      44.534  31.290  33.610  1.00  0.00     0.029 A 
ATOM     46  C   UNL A   1      43.828  30.555  32.671  1.00  0.00     0.049 A 
ATOM     47  H   UNL A   1      41.968  30.979  31.770  1.00  0.00     0.167 HD
ATOM     48  C   UNL A   1      43.424  28.635  31.160  1.00  0.00     0.074 A 
ATOM     49  C   UNL A   1      43.803  27.381  30.543  1.00  0.00     0.031 C 
ATOM     50  C   UNL A   1      44.189  29.306  32.055  1.00  0.00     0.031 A 
BRANCH  37  51
ATOM     51  C   UNL A   1      41.762  34.659  33.917  1.00  0.00    -0.014 A 
ATOM     52  C   UNL A   1      41.318  34.725  35.247  1.00  0.00     0.009 A 
ATOM     53  C   UNL A   1      42.425  35.766  33.365  1.00  0.00     0.009 A 
ATOM     54  C   UNL A   1      41.515  35.885  35.999  1.00  0.00     0.001 A 
ATOM     55  C   UNL A   1      42.640  36.916  34.125  1.00  0.00     0.001 A 
ATOM     56  C   UNL A   1      42.179  36.977  35.440  1.00  0.00     0.000 A 
ENDBRANCH  37  51
BRANCH  38  57
ATOM     57  C   UNL A   1      40.438  26.652  28.129  1.00  0.00    -0.014 A 
ATOM     58  C   UNL A   1      40.980  26.627  26.835  1.00  0.00     0.009 A 
ATOM     59  C   UNL A   1      39.698  25.546  28.575  1.00  0.00     0.009 A 
ATOM     60  C   UNL A   1      40.760  25.532  25.997  1.00  0.00     0.001 A 
ATOM     61  C   UNL A   1      39.504  24.440  27.746  1.00  0.00     0.001 A 
ATOM     62  C   UNL A   1      40.025  24.438  26.453  1.00  0.00     0.000 A 
ENDBRANCH  38  57
BRANCH  50  63
ATOM     63  C   UNL A   1      45.494  28.675  32.451  1.00  0.00    -0.014 A 
ATOM     64  C   UNL A   1      45.569  27.758  33.511  1.00  0.00     0.009 A 
ATOM     65  C   UNL A   1      46.659  28.979  31.729  1.00  0.00     0.009 A 
ATOM     66  C   UNL A   1      46.792  27.181  33.859  1.00  0.00     0.001 A 
ATOM     67  C   UNL A   1      47.875  28.380  32.063  1.00  0.00     0.001 A 
ATOM     68  C   UNL A   1      47.942  27.489  33.132  1.00  0.00     0.000 A 
ENDBRANCH  50  63
ENDBRANCH  24  25
ENDBRANCH  17  19
ENDBRANCH  16  17
ENDBRANCH  15  16
ENDBRANCH  14  15
ENDBRANCH  13  14
ENDBRANCH   1  13
TORSDOF 17
ENDMDL
MODEL 3
REMARK VINA RESULT:      -7.1      2.267      7.514
REMARK SMILES CC(=O)CCCCC/C=C/C(=O)OCCOC(=O)c1ccc(-c2c3nc(c(-c4ccccc4)c4ccc([nH]4)c(-c4ccccc4)c4nc(c(-c5ccccc5)c5ccc2[nH]5)C=C4)C=C3)cc1
REMARK SMILES IDX 11 1 12 2 10 3 9 4 8 5 7 6 6 7 5 8 4 9 2 10 1 11 3 12 13 13
REMARK SMILES IDX 14 14 15 15 16 16 17 17 18 18 19 19 20 20 66 21 21 22 65 23
REMARK SMILES IDX 22 24 23 25 24 26 59 27 25 28 64 29 58 30 60 31 26 32 63 33
REMARK SMILES IDX 57 34 56 35 27 37 49 38 34 39 48 40 35 41 38 42 47 43 61 44
REMARK SMILES IDX 36 45 37 46 46 48 62 49 39 50 28 51 29 52 33 53 30 54 32 55
REMARK SMILES IDX 31 56 50 57 51 58 55 59 52 60 54 61 53 62 40 63 41 64 45 65
REMARK SMILES IDX 42 66 44 67 43 68
REMARK H PARENT 60 36 38 47
REMARK Flexibility Score: inf
ROOT
ATOM      1  C   UNL A   1      37.233  33.581  29.533  1.00  0.00     0.330 C 
ATOM      2  O   UNL A   1      38.182  32.979  29.052  1.00  0.00    -0.247 OA
ENDROOT
BRANCH   1   3
ATOM      3  C   UNL A   1      37.206  33.971  30.960  1.00  0.00     0.089 C 
ATOM      4  C   UNL A   1      38.284  34.320  31.676  1.00  0.00    -0.019 C 
BRANCH   4   5
ATOM      5  C   UNL A   1      38.251  34.549  33.160  1.00  0.00     0.027 C 
BRANCH   5   6
ATOM      6  C   UNL A   1      38.035  33.247  33.944  1.00  0.00     0.004 C 
BRANCH   6   7
ATOM      7  C   UNL A   1      36.644  32.615  33.787  1.00  0.00     0.001 C 
BRANCH   7   8
ATOM      8  C   UNL A   1      35.463  33.480  34.244  1.00  0.00     0.008 C 
BRANCH   8   9
ATOM      9  C   UNL A   1      34.205  33.380  33.386  1.00  0.00     0.075 C 
BRANCH   9  10
ATOM     10  C   UNL A   1      33.744  34.723  32.857  1.00  0.00     0.129 C 
ATOM     11  C   UNL A   1      34.697  35.885  32.942  1.00  0.00     0.087 C 
ATOM     12  O   UNL A   1      32.638  34.852  32.330  1.00  0.00    -0.300 OA
ENDBRANCH   9  10
ENDBRANCH   8   9
ENDBRANCH   7   8
ENDBRANCH   6   7
ENDBRANCH   5   6
ENDBRANCH   4   5
ENDBRANCH   1   3
BRANCH   1  13
ATOM     13  O   UNL A   1      36.168  34.079  28.860  1.00  0.00    -0.459 OA
BRANCH  13  14
ATOM     14  C   UNL A   1      34.880  33.865  29.463  1.00  0.00     0.275 C 
BRANCH  14  15
ATOM     15  C   UNL A   1      33.914  33.196  28.480  1.00  0.00     0.275 C 
BRANCH  15  16
ATOM     16  O   UNL A   1      34.602  32.334  27.553  1.00  0.00    -0.458 OA
BRANCH  16  17
ATOM     17  C   UNL A   1      34.430  31.006  27.762  1.00  0.00     0.338 C 
ATOM     18  O   UNL A   1      33.419  30.354  27.570  1.00  0.00    -0.246 OA
BRANCH  17  19
ATOM     19  C   UNL A   1      35.714  30.389  28.149  1.00  0.00     0.060 A 
ATOM     20  C   UNL A   1      35.843  29.926  29.462  1.00  0.00     0.016 A 
ATOM     21  C   UNL A   1      36.795  30.319  27.266  1.00  0.00     0.016 A 
ATOM     22  C   UNL A   1      37.048  29.380  29.897  1.00  0.00     0.010 A 
ATOM     23  C   UNL A   1      38.010  29.780  27.708  1.00  0.00     0.010 A 
ATOM     24  C   UNL A   1      38.145  29.314  29.027  1.00  0.00    -0.014 A 
BRANCH  24  25
ATOM     25  C   UNL A   1      39.442  28.795  29.526  1.00  0.00     0.031 A 
ATOM     26  C   UNL A   1      40.178  29.528  30.611  1.00  0.00     0.074 A 
ATOM     27  C   UNL A   1      39.942  27.648  29.028  1.00  0.00     0.049 A 
ATOM     28  N   UNL A   1      41.325  29.237  31.173  1.00  0.00    -0.248 NA
ATOM     29  C   UNL A   1      39.540  30.746  31.135  1.00  0.00     0.031 C 
ATOM     30  C   UNL A   1      39.303  26.820  28.004  1.00  0.00     0.029 A 
ATOM     31  N   UNL A   1      41.102  26.978  29.327  1.00  0.00    -0.354 N 
ATOM     32  C   UNL A   1      41.554  30.243  32.104  1.00  0.00     0.074 A 
ATOM     33  C   UNL A   1      40.436  31.158  32.023  1.00  0.00     0.031 C 
ATOM     34  C   UNL A   1      40.077  25.747  27.765  1.00  0.00     0.029 A 
ATOM     35  C   UNL A   1      41.280  25.832  28.589  1.00  0.00     0.049 A 
ATOM     36  H   UNL A   1      41.745  27.288  30.004  1.00  0.00     0.167 HD
ATOM     37  C   UNL A   1      42.602  30.390  32.948  1.00  0.00     0.031 A 
ATOM     38  C   UNL A   1      42.306  24.960  28.568  1.00  0.00     0.031 A 
ATOM     39  C   UNL A   1      43.713  29.479  33.034  1.00  0.00     0.049 A 
ATOM     40  C   UNL A   1      43.489  25.188  29.470  1.00  0.00     0.074 A 
ATOM     41  C   UNL A   1      44.804  29.531  33.885  1.00  0.00     0.029 A 
ATOM     42  N   UNL A   1      43.879  28.358  32.238  1.00  0.00    -0.354 N 
ATOM     43  N   UNL A   1      43.676  26.124  30.368  1.00  0.00    -0.248 NA
ATOM     44  C   UNL A   1      44.602  24.234  29.353  1.00  0.00     0.031 C 
ATOM     45  C   UNL A   1      45.657  28.469  33.567  1.00  0.00     0.029 A 
ATOM     46  C   UNL A   1      45.071  27.728  32.554  1.00  0.00     0.049 A 
ATOM     47  H   UNL A   1      43.244  28.055  31.550  1.00  0.00     0.167 HD
ATOM     48  C   UNL A   1      44.912  25.856  30.941  1.00  0.00     0.074 A 
ATOM     49  C   UNL A   1      45.424  24.663  30.300  1.00  0.00     0.031 C 
ATOM     50  C   UNL A   1      45.565  26.539  31.913  1.00  0.00     0.031 A 
BRANCH  37  51
ATOM     51  C   UNL A   1      42.620  31.606  33.830  1.00  0.00    -0.014 A 
ATOM     52  C   UNL A   1      43.218  32.804  33.412  1.00  0.00     0.009 A 
ATOM     53  C   UNL A   1      41.979  31.564  35.077  1.00  0.00     0.009 A 
ATOM     54  C   UNL A   1      43.193  33.930  34.238  1.00  0.00     0.001 A 
ATOM     55  C   UNL A   1      41.935  32.696  35.892  1.00  0.00     0.001 A 
ATOM     56  C   UNL A   1      42.548  33.877  35.474  1.00  0.00     0.000 A 
ENDBRANCH  37  51
BRANCH  38  57
ATOM     57  C   UNL A   1      42.284  23.799  27.639  1.00  0.00    -0.014 A 
ATOM     58  C   UNL A   1      41.810  22.549  28.067  1.00  0.00     0.009 A 
ATOM     59  C   UNL A   1      42.776  23.926  26.331  1.00  0.00     0.009 A 
ATOM     60  C   UNL A   1      41.856  21.446  27.212  1.00  0.00     0.001 A 
ATOM     61  C   UNL A   1      42.792  22.828  25.469  1.00  0.00     0.001 A 
ATOM     62  C   UNL A   1      42.343  21.586  25.913  1.00  0.00     0.000 A 
ENDBRANCH  38  57
BRANCH  50  63
ATOM     63  C   UNL A   1      46.887  25.989  32.368  1.00  0.00    -0.014 A 
ATOM     64  C   UNL A   1      48.084  26.348  31.729  1.00  0.00     0.009 A 
ATOM     65  C   UNL A   1      46.936  25.128  33.475  1.00  0.00     0.009 A 
ATOM     66  C   UNL A   1      49.302  25.828  32.172  1.00  0.00     0.001 A 
ATOM     67  C   UNL A   1      48.159  24.631  33.932  1.00  0.00     0.001 A 
ATOM     68  C   UNL A   1      49.338  24.975  33.275  1.00  0.00     0.000 A 
ENDBRANCH  50  63
ENDBRANCH  24  25
ENDBRANCH  17  19
ENDBRANCH  16  17
ENDBRANCH  15  16
ENDBRANCH  14  15
ENDBRANCH  13  14
ENDBRANCH   1  13
TORSDOF 17
ENDMDL
