MODEL 1
REMARK VINA RESULT:      -9.9      0.000      0.000
REMARK SMILES CC(C)CSc1cc2c(cc1Cl)C=C(C(=O)OCCOC(=O)c1ccc(-c3c4nc(c(-c5ccccc5)c5ccc([nH]5)c(-c5ccccc5)c5nc(c(-c6ccccc6)c6ccc3[nH]6)C=C5)C=C4)cc1)[C@@H](C(F)(F)F)O2
REMARK SMILES IDX 18 1 17 2 15 3 16 4 14 5 6 6 7 7 11 8 8 9 10 10 12 11 9 12
REMARK SMILES IDX 76 13 13 14 71 15 5 16 4 17 2 18 1 19 3 20 72 21 73 22 74 23
REMARK SMILES IDX 75 24 19 25 20 26 21 27 22 28 23 29 24 30 70 31 25 32 69 33
REMARK SMILES IDX 26 34 27 35 28 36 63 37 29 38 68 39 62 40 64 41 30 42 67 43
REMARK SMILES IDX 61 44 60 45 31 47 53 48 38 49 52 50 39 51 42 52 51 53 65 54
REMARK SMILES IDX 40 55 41 56 50 58 66 59 43 60 32 61 33 62 37 63 34 64 36 65
REMARK SMILES IDX 35 66 54 67 55 68 59 69 56 70 58 71 57 72 44 73 45 74 49 75
REMARK SMILES IDX 46 76 48 77 47 78
REMARK H PARENT 64 46 42 57
REMARK Flexibility Score: inf
ROOT
ATOM      1  C   UNL A   1      41.045  19.052  26.154  1.00  0.00     0.275 C 
ENDROOT
BRANCH   1   2
ATOM      2  O   UNL A   1      42.096  19.424  25.233  1.00  0.00    -0.459 OA
BRANCH   2   3
ATOM      3  C   UNL A   1      43.356  19.260  25.697  1.00  0.00     0.338 C 
ATOM      4  O   UNL A   1      43.877  18.210  26.037  1.00  0.00    -0.246 OA
BRANCH   3   5
ATOM      5  C   UNL A   1      44.079  20.545  25.720  1.00  0.00     0.087 C 
ATOM      6  C   UNL A   1      45.329  25.381  25.112  1.00  0.00     0.030 A 
ATOM      7  C   UNL A   1      46.058  24.188  25.263  1.00  0.00     0.063 A 
ATOM      8  C   UNL A   1      43.924  25.317  25.101  1.00  0.00     0.055 A 
ATOM      9  C   UNL A   1      45.409  22.968  25.458  1.00  0.00     0.129 A 
ATOM     10  C   UNL A   1      43.276  24.094  25.274  1.00  0.00     0.033 A 
ATOM     11  Cl  UNL A   1      42.916  26.712  24.910  1.00  0.00    -0.083 Cl
ATOM     12  C   UNL A   1      44.021  22.925  25.452  1.00  0.00     0.019 A 
ATOM     13  O   UNL A   1      46.199  21.873  25.668  1.00  0.00    -0.475 OA
ATOM     14  C   UNL A   1      43.347  21.656  25.587  1.00  0.00     0.027 C 
ATOM     15  C   UNL A   1      45.582  20.552  25.737  1.00  0.00     0.316 C 
BRANCH   6  16
ATOM     16  S   UNL A   1      46.190  26.942  24.951  1.00  0.00    -0.124 SA
BRANCH  16  17
ATOM     17  C   UNL A   1      47.945  26.441  25.047  1.00  0.00     0.078 C 
BRANCH  17  18
ATOM     18  C   UNL A   1      48.949  27.322  24.278  1.00  0.00    -0.007 C 
ATOM     19  C   UNL A   1      50.394  27.205  24.766  1.00  0.00     0.008 C 
ATOM     20  C   UNL A   1      48.902  26.929  22.797  1.00  0.00     0.008 C 
ENDBRANCH  17  18
ENDBRANCH  16  17
ENDBRANCH   6  16
BRANCH  15  21
ATOM     21  C   UNL A   1      46.164  19.694  24.602  1.00  0.00     0.430 C 
ATOM     22  F   UNL A   1      47.322  20.218  24.133  1.00  0.00    -0.167 F 
ATOM     23  F   UNL A   1      46.451  18.438  25.022  1.00  0.00    -0.167 F 
ATOM     24  F   UNL A   1      45.311  19.588  23.558  1.00  0.00    -0.167 F 
ENDBRANCH  15  21
ENDBRANCH   3   5
ENDBRANCH   2   3
ENDBRANCH   1   2
BRANCH   1  25
ATOM     25  C   UNL A   1      39.848  19.998  26.063  1.00  0.00     0.275 C 
BRANCH  25  26
ATOM     26  O   UNL A   1      40.158  21.265  26.672  1.00  0.00    -0.458 OA
BRANCH  26  27
ATOM     27  C   UNL A   1      39.300  22.271  26.393  1.00  0.00     0.338 C 
ATOM     28  O   UNL A   1      38.164  22.185  25.960  1.00  0.00    -0.246 OA
BRANCH  27  29
ATOM     29  C   UNL A   1      39.899  23.552  26.793  1.00  0.00     0.060 A 
ATOM     30  C   UNL A   1      39.650  24.725  26.091  1.00  0.00     0.016 A 
ATOM     31  C   UNL A   1      40.592  23.597  27.995  1.00  0.00     0.016 A 
ATOM     32  C   UNL A   1      40.118  25.939  26.610  1.00  0.00     0.010 A 
ATOM     33  C   UNL A   1      40.913  24.814  28.585  1.00  0.00     0.010 A 
ATOM     34  C   UNL A   1      40.718  26.007  27.886  1.00  0.00    -0.014 A 
BRANCH  34  35
ATOM     35  C   UNL A   1      41.140  27.308  28.484  1.00  0.00     0.031 A 
ATOM     36  C   UNL A   1      42.602  27.671  28.622  1.00  0.00     0.074 A 
ATOM     37  C   UNL A   1      40.204  28.163  28.948  1.00  0.00     0.049 A 
ATOM     38  N   UNL A   1      43.135  28.777  29.082  1.00  0.00    -0.248 NA
ATOM     39  C   UNL A   1      43.597  26.657  28.234  1.00  0.00     0.031 C 
ATOM     40  C   UNL A   1      38.763  27.902  28.984  1.00  0.00     0.029 A 
ATOM     41  N   UNL A   1      40.321  29.435  29.456  1.00  0.00    -0.354 N 
ATOM     42  C   UNL A   1      44.511  28.573  29.066  1.00  0.00     0.074 A 
ATOM     43  C   UNL A   1      44.732  27.218  28.622  1.00  0.00     0.031 C 
ATOM     44  C   UNL A   1      38.125  29.009  29.395  1.00  0.00     0.029 A 
ATOM     45  C   UNL A   1      39.110  30.042  29.696  1.00  0.00     0.049 A 
ATOM     46  H   UNL A   1      41.187  29.868  29.630  1.00  0.00     0.167 HD
ATOM     47  C   UNL A   1      45.507  29.445  29.351  1.00  0.00     0.031 A 
ATOM     48  C   UNL A   1      38.818  31.298  30.087  1.00  0.00     0.031 A 
ATOM     49  C   UNL A   1      45.296  30.814  29.734  1.00  0.00     0.049 A 
ATOM     50  C   UNL A   1      39.935  32.275  30.325  1.00  0.00     0.074 A 
ATOM     51  C   UNL A   1      46.241  31.802  29.949  1.00  0.00     0.029 A 
ATOM     52  N   UNL A   1      44.053  31.391  29.944  1.00  0.00    -0.354 N 
ATOM     53  N   UNL A   1      41.228  32.090  30.213  1.00  0.00    -0.248 NA
ATOM     54  C   UNL A   1      39.554  33.636  30.729  1.00  0.00     0.031 C 
ATOM     55  C   UNL A   1      45.572  32.967  30.332  1.00  0.00     0.029 A 
ATOM     56  C   UNL A   1      44.208  32.719  30.299  1.00  0.00     0.049 A 
ATOM     57  H   UNL A   1      43.191  30.926  29.854  1.00  0.00     0.167 HD
ATOM     58  C   UNL A   1      41.813  33.310  30.522  1.00  0.00     0.074 A 
ATOM     59  C   UNL A   1      40.735  34.236  30.799  1.00  0.00     0.031 C 
ATOM     60  C   UNL A   1      43.129  33.630  30.576  1.00  0.00     0.031 A 
BRANCH  47  61
ATOM     61  C   UNL A   1      46.929  28.964  29.217  1.00  0.00    -0.014 A 
ATOM     62  C   UNL A   1      47.608  28.455  30.335  1.00  0.00     0.009 A 
ATOM     63  C   UNL A   1      47.623  29.090  28.003  1.00  0.00     0.009 A 
ATOM     64  C   UNL A   1      48.952  28.084  30.241  1.00  0.00     0.001 A 
ATOM     65  C   UNL A   1      48.957  28.687  27.902  1.00  0.00     0.001 A 
ATOM     66  C   UNL A   1      49.622  28.194  29.023  1.00  0.00     0.000 A 
ENDBRANCH  47  61
BRANCH  48  67
ATOM     67  C   UNL A   1      37.395  31.715  30.196  1.00  0.00    -0.014 A 
ATOM     68  C   UNL A   1      36.725  32.288  29.105  1.00  0.00     0.009 A 
ATOM     69  C   UNL A   1      36.717  31.594  31.419  1.00  0.00     0.009 A 
ATOM     70  C   UNL A   1      35.415  32.752  29.242  1.00  0.00     0.001 A 
ATOM     71  C   UNL A   1      35.397  32.033  31.546  1.00  0.00     0.001 A 
ATOM     72  C   UNL A   1      34.750  32.621  30.461  1.00  0.00     0.000 A 
ENDBRANCH  48  67
BRANCH  60  73
ATOM     73  C   UNL A   1      43.495  35.038  30.947  1.00  0.00    -0.014 A 
ATOM     74  C   UNL A   1      43.713  35.991  29.939  1.00  0.00     0.009 A 
ATOM     75  C   UNL A   1      43.730  35.393  32.284  1.00  0.00     0.009 A 
ATOM     76  C   UNL A   1      44.173  37.269  30.262  1.00  0.00     0.001 A 
ATOM     77  C   UNL A   1      44.163  36.680  32.605  1.00  0.00     0.001 A 
ATOM     78  C   UNL A   1      44.394  37.612  31.594  1.00  0.00     0.000 A 
ENDBRANCH  60  73
ENDBRANCH  34  35
ENDBRANCH  27  29
ENDBRANCH  26  27
ENDBRANCH  25  26
ENDBRANCH   1  25
TORSDOF 15
ENDMDL
MODEL 2
REMARK VINA RESULT:      -9.8      6.231     11.025
REMARK SMILES CC(C)CSc1cc2c(cc1Cl)C=C(C(=O)OCCOC(=O)c1ccc(-c3c4nc(c(-c5ccccc5)c5ccc([nH]5)c(-c5ccccc5)c5nc(c(-c6ccccc6)c6ccc3[nH]6)C=C5)C=C4)cc1)[C@@H](C(F)(F)F)O2
REMARK SMILES IDX 18 1 17 2 15 3 16 4 14 5 6 6 7 7 11 8 8 9 10 10 12 11 9 12
REMARK SMILES IDX 76 13 13 14 71 15 5 16 4 17 2 18 1 19 3 20 72 21 73 22 74 23
REMARK SMILES IDX 75 24 19 25 20 26 21 27 22 28 23 29 24 30 70 31 25 32 69 33
REMARK SMILES IDX 26 34 27 35 28 36 63 37 29 38 68 39 62 40 64 41 30 42 67 43
REMARK SMILES IDX 61 44 60 45 31 47 53 48 38 49 52 50 39 51 42 52 51 53 65 54
REMARK SMILES IDX 40 55 41 56 50 58 66 59 43 60 32 61 33 62 37 63 34 64 36 65
REMARK SMILES IDX 35 66 54 67 55 68 59 69 56 70 58 71 57 72 44 73 45 74 49 75
REMARK SMILES IDX 46 76 48 77 47 78
REMARK H PARENT 64 46 42 57
REMARK Flexibility Score: inf
ROOT
ATOM      1  C   UNL A   1      31.803  28.735  26.906  1.00  0.00     0.275 C 
ENDROOT
BRANCH   1   2
ATOM      2  O   UNL A   1      31.296  27.973  25.787  1.00  0.00    -0.459 OA
BRANCH   2   3
ATOM      3  C   UNL A   1      32.230  27.537  24.912  1.00  0.00     0.338 C 
ATOM      4  O   UNL A   1      32.877  28.221  24.135  1.00  0.00    -0.246 OA
BRANCH   3   5
ATOM      5  C   UNL A   1      32.417  26.078  25.026  1.00  0.00     0.087 C 
ATOM      6  C   UNL A   1      34.394  21.452  24.924  1.00  0.00     0.030 A 
ATOM      7  C   UNL A   1      33.088  21.966  24.839  1.00  0.00     0.063 A 
ATOM      8  C   UNL A   1      35.466  22.353  25.057  1.00  0.00     0.055 A 
ATOM      9  C   UNL A   1      32.845  23.336  24.941  1.00  0.00     0.129 A 
ATOM     10  C   UNL A   1      35.225  23.724  25.136  1.00  0.00     0.033 A 
ATOM     11  Cl  UNL A   1      37.119  21.846  25.159  1.00  0.00    -0.083 Cl
ATOM     12  C   UNL A   1      33.916  24.210  25.079  1.00  0.00     0.019 A 
ATOM     13  O   UNL A   1      31.539  23.738  24.920  1.00  0.00    -0.475 OA
ATOM     14  C   UNL A   1      33.674  25.633  25.118  1.00  0.00     0.027 C 
ATOM     15  C   UNL A   1      31.232  25.164  24.881  1.00  0.00     0.316 C 
BRANCH   6  16
ATOM     16  S   UNL A   1      34.666  19.684  24.877  1.00  0.00    -0.124 SA
BRANCH  16  17
ATOM     17  C   UNL A   1      32.963  19.018  24.913  1.00  0.00     0.078 C 
BRANCH  17  18
ATOM     18  C   UNL A   1      32.616  17.977  23.831  1.00  0.00    -0.007 C 
ATOM     19  C   UNL A   1      32.351  18.571  22.446  1.00  0.00     0.008 C 
ATOM     20  C   UNL A   1      33.781  16.986  23.721  1.00  0.00     0.008 C 
ENDBRANCH  17  18
ENDBRANCH  16  17
ENDBRANCH   6  16
BRANCH  15  21
ATOM     21  C   UNL A   1      30.452  25.449  23.588  1.00  0.00     0.430 C 
ATOM     22  F   UNL A   1      31.270  25.910  22.611  1.00  0.00    -0.167 F 
ATOM     23  F   UNL A   1      29.862  24.330  23.103  1.00  0.00    -0.167 F 
ATOM     24  F   UNL A   1      29.480  26.371  23.775  1.00  0.00    -0.167 F 
ENDBRANCH  15  21
ENDBRANCH   3   5
ENDBRANCH   2   3
ENDBRANCH   1   2
BRANCH   1  25
ATOM     25  C   UNL A   1      31.649  30.240  26.687  1.00  0.00     0.275 C 
BRANCH  25  26
ATOM     26  O   UNL A   1      32.914  30.832  26.340  1.00  0.00    -0.458 OA
BRANCH  26  27
ATOM     27  C   UNL A   1      33.375  31.767  27.199  1.00  0.00     0.338 C 
ATOM     28  O   UNL A   1      32.790  32.751  27.617  1.00  0.00    -0.246 OA
BRANCH  27  29
ATOM     29  C   UNL A   1      34.710  31.380  27.676  1.00  0.00     0.060 A 
ATOM     30  C   UNL A   1      35.669  32.328  28.010  1.00  0.00     0.016 A 
ATOM     31  C   UNL A   1      34.939  30.038  27.947  1.00  0.00     0.016 A 
ATOM     32  C   UNL A   1      36.864  31.905  28.607  1.00  0.00     0.010 A 
ATOM     33  C   UNL A   1      36.050  29.640  28.682  1.00  0.00     0.010 A 
ATOM     34  C   UNL A   1      37.053  30.560  28.992  1.00  0.00    -0.014 A 
BRANCH  34  35
ATOM     35  C   UNL A   1      38.285  30.116  29.709  1.00  0.00     0.031 A 
ATOM     36  C   UNL A   1      38.505  30.445  31.168  1.00  0.00     0.074 A 
ATOM     37  C   UNL A   1      39.241  29.442  29.036  1.00  0.00     0.049 A 
ATOM     38  N   UNL A   1      39.502  30.100  31.949  1.00  0.00    -0.248 NA
ATOM     39  C   UNL A   1      37.508  31.301  31.834  1.00  0.00     0.031 C 
ATOM     40  C   UNL A   1      39.219  29.148  27.601  1.00  0.00     0.029 A 
ATOM     41  N   UNL A   1      40.407  28.859  29.472  1.00  0.00    -0.354 N 
ATOM     42  C   UNL A   1      39.263  30.721  33.170  1.00  0.00     0.074 A 
ATOM     43  C   UNL A   1      38.072  31.520  33.012  1.00  0.00     0.031 C 
ATOM     44  C   UNL A   1      40.264  28.365  27.295  1.00  0.00     0.029 A 
ATOM     45  C   UNL A   1      41.057  28.136  28.499  1.00  0.00     0.049 A 
ATOM     46  H   UNL A   1      40.743  28.950  30.393  1.00  0.00     0.167 HD
ATOM     47  C   UNL A   1      39.943  30.604  34.335  1.00  0.00     0.031 A 
ATOM     48  C   UNL A   1      42.150  27.353  28.567  1.00  0.00     0.031 A 
ATOM     49  C   UNL A   1      41.093  29.762  34.516  1.00  0.00     0.049 A 
ATOM     50  C   UNL A   1      42.848  27.174  29.886  1.00  0.00     0.074 A 
ATOM     51  C   UNL A   1      41.793  29.502  35.682  1.00  0.00     0.029 A 
ATOM     52  N   UNL A   1      41.703  29.032  33.508  1.00  0.00    -0.354 N 
ATOM     53  N   UNL A   1      42.552  27.695  31.051  1.00  0.00    -0.248 NA
ATOM     54  C   UNL A   1      44.023  26.291  29.902  1.00  0.00     0.031 C 
ATOM     55  C   UNL A   1      42.854  28.648  35.370  1.00  0.00     0.029 A 
ATOM     56  C   UNL A   1      42.779  28.332  34.022  1.00  0.00     0.049 A 
ATOM     57  H   UNL A   1      41.413  29.015  32.568  1.00  0.00     0.167 HD
ATOM     58  C   UNL A   1      43.493  27.196  31.940  1.00  0.00     0.074 A 
ATOM     59  C   UNL A   1      44.355  26.309  31.187  1.00  0.00     0.031 C 
ATOM     60  C   UNL A   1      43.632  27.455  33.263  1.00  0.00     0.031 A 
BRANCH  47  61
ATOM     61  C   UNL A   1      39.439  31.372  35.530  1.00  0.00    -0.014 A 
ATOM     62  C   UNL A   1      38.327  30.907  36.248  1.00  0.00     0.009 A 
ATOM     63  C   UNL A   1      40.016  32.599  35.896  1.00  0.00     0.009 A 
ATOM     64  C   UNL A   1      37.801  31.653  37.305  1.00  0.00     0.001 A 
ATOM     65  C   UNL A   1      39.511  33.328  36.975  1.00  0.00     0.001 A 
ATOM     66  C   UNL A   1      38.398  32.859  37.672  1.00  0.00     0.000 A 
ENDBRANCH  47  61
BRANCH  48  67
ATOM     67  C   UNL A   1      42.596  26.617  27.354  1.00  0.00    -0.014 A 
ATOM     68  C   UNL A   1      42.058  25.361  27.034  1.00  0.00     0.009 A 
ATOM     69  C   UNL A   1      43.611  27.146  26.542  1.00  0.00     0.009 A 
ATOM     70  C   UNL A   1      42.543  24.641  25.939  1.00  0.00     0.001 A 
ATOM     71  C   UNL A   1      44.075  26.436  25.432  1.00  0.00     0.001 A 
ATOM     72  C   UNL A   1      43.548  25.180  25.137  1.00  0.00     0.000 A 
ENDBRANCH  48  67
BRANCH  60  73
ATOM     73  C   UNL A   1      44.753  26.780  33.998  1.00  0.00    -0.014 A 
ATOM     74  C   UNL A   1      44.556  25.506  34.554  1.00  0.00     0.009 A 
ATOM     75  C   UNL A   1      45.965  27.446  34.233  1.00  0.00     0.009 A 
ATOM     76  C   UNL A   1      45.545  24.918  35.344  1.00  0.00     0.001 A 
ATOM     77  C   UNL A   1      46.963  26.844  35.000  1.00  0.00     0.001 A 
ATOM     78  C   UNL A   1      46.748  25.586  35.563  1.00  0.00     0.000 A 
ENDBRANCH  60  73
ENDBRANCH  34  35
ENDBRANCH  27  29
ENDBRANCH  26  27
ENDBRANCH  25  26
ENDBRANCH   1  25
TORSDOF 15
ENDMDL
MODEL 3
REMARK VINA RESULT:      -9.8      2.217      3.482
REMARK SMILES CC(C)CSc1cc2c(cc1Cl)C=C(C(=O)OCCOC(=O)c1ccc(-c3c4nc(c(-c5ccccc5)c5ccc([nH]5)c(-c5ccccc5)c5nc(c(-c6ccccc6)c6ccc3[nH]6)C=C5)C=C4)cc1)[C@@H](C(F)(F)F)O2
REMARK SMILES IDX 18 1 17 2 15 3 16 4 14 5 6 6 7 7 11 8 8 9 10 10 12 11 9 12
REMARK SMILES IDX 76 13 13 14 71 15 5 16 4 17 2 18 1 19 3 20 72 21 73 22 74 23
REMARK SMILES IDX 75 24 19 25 20 26 21 27 22 28 23 29 24 30 70 31 25 32 69 33
REMARK SMILES IDX 26 34 27 35 28 36 63 37 29 38 68 39 62 40 64 41 30 42 67 43
REMARK SMILES IDX 61 44 60 45 31 47 53 48 38 49 52 50 39 51 42 52 51 53 65 54
REMARK SMILES IDX 40 55 41 56 50 58 66 59 43 60 32 61 33 62 37 63 34 64 36 65
REMARK SMILES IDX 35 66 54 67 55 68 59 69 56 70 58 71 57 72 44 73 45 74 49 75
REMARK SMILES IDX 46 76 48 77 47 78
REMARK H PARENT 64 46 42 57
REMARK Flexibility Score: inf
ROOT
ATOM      1  C   UNL A   1      42.025  20.078  26.193  1.00  0.00     0.275 C 
ENDROOT
BRANCH   1   2
ATOM      2  O   UNL A   1      42.590  21.392  25.979  1.00  0.00    -0.459 OA
BRANCH   2   3
ATOM      3  C   UNL A   1      43.872  21.408  25.549  1.00  0.00     0.338 C 
ATOM      4  O   UNL A   1      44.318  20.840  24.565  1.00  0.00    -0.246 OA
BRANCH   3   5
ATOM      5  C   UNL A   1      44.709  22.251  26.423  1.00  0.00     0.087 C 
ATOM      6  C   UNL A   1      46.259  25.424  30.007  1.00  0.00     0.030 A 
ATOM      7  C   UNL A   1      46.762  25.036  28.752  1.00  0.00     0.063 A 
ATOM      8  C   UNL A   1      45.046  24.868  30.450  1.00  0.00     0.055 A 
ATOM      9  C   UNL A   1      46.107  24.075  27.981  1.00  0.00     0.129 A 
ATOM     10  C   UNL A   1      44.380  23.924  29.668  1.00  0.00     0.033 A 
ATOM     11  Cl  UNL A   1      44.319  25.274  31.968  1.00  0.00    -0.083 Cl
ATOM     12  C   UNL A   1      44.914  23.531  28.438  1.00  0.00     0.019 A 
ATOM     13  O   UNL A   1      46.706  23.707  26.809  1.00  0.00    -0.475 OA
ATOM     14  C   UNL A   1      44.199  22.586  27.612  1.00  0.00     0.027 C 
ATOM     15  C   UNL A   1      46.000  22.813  25.896  1.00  0.00     0.316 C 
BRANCH   6  16
ATOM     16  S   UNL A   1      47.168  26.594  31.012  1.00  0.00    -0.124 SA
BRANCH  16  17
ATOM     17  C   UNL A   1      45.927  27.902  31.319  1.00  0.00     0.078 C 
BRANCH  17  18
ATOM     18  C   UNL A   1      46.001  29.139  30.404  1.00  0.00    -0.007 C 
ATOM     19  C   UNL A   1      45.505  30.434  31.051  1.00  0.00     0.008 C 
ATOM     20  C   UNL A   1      47.460  29.338  29.975  1.00  0.00     0.008 C 
ENDBRANCH  17  18
ENDBRANCH  16  17
ENDBRANCH   6  16
BRANCH  15  21
ATOM     21  C   UNL A   1      45.793  23.556  24.566  1.00  0.00     0.430 C 
ATOM     22  F   UNL A   1      46.139  22.781  23.511  1.00  0.00    -0.167 F 
ATOM     23  F   UNL A   1      44.496  23.901  24.384  1.00  0.00    -0.167 F 
ATOM     24  F   UNL A   1      46.528  24.689  24.499  1.00  0.00    -0.167 F 
ENDBRANCH  15  21
ENDBRANCH   3   5
ENDBRANCH   2   3
ENDBRANCH   1   2
BRANCH   1  25
ATOM     25  C   UNL A   1      40.525  20.048  25.896  1.00  0.00     0.275 C 
BRANCH  25  26
ATOM     26  O   UNL A   1      39.799  20.796  26.887  1.00  0.00    -0.458 OA
BRANCH  26  27
ATOM     27  C   UNL A   1      39.059  21.823  26.415  1.00  0.00     0.338 C 
ATOM     28  O   UNL A   1      38.053  21.767  25.729  1.00  0.00    -0.246 OA
BRANCH  27  29
ATOM     29  C   UNL A   1      39.587  23.091  26.942  1.00  0.00     0.060 A 
ATOM     30  C   UNL A   1      40.553  23.121  27.939  1.00  0.00     0.016 A 
ATOM     31  C   UNL A   1      39.217  24.264  26.299  1.00  0.00     0.016 A 
ATOM     32  C   UNL A   1      41.131  24.348  28.288  1.00  0.00     0.010 A 
ATOM     33  C   UNL A   1      39.904  25.450  26.532  1.00  0.00     0.010 A 
ATOM     34  C   UNL A   1      40.848  25.524  27.559  1.00  0.00    -0.014 A 
BRANCH  34  35
ATOM     35  C   UNL A   1      41.525  26.818  27.866  1.00  0.00     0.031 A 
ATOM     36  C   UNL A   1      42.862  27.169  27.251  1.00  0.00     0.074 A 
ATOM     37  C   UNL A   1      40.957  27.678  28.738  1.00  0.00     0.049 A 
ATOM     38  N   UNL A   1      43.565  28.268  27.383  1.00  0.00    -0.248 NA
ATOM     39  C   UNL A   1      43.518  26.149  26.416  1.00  0.00     0.031 C 
ATOM     40  C   UNL A   1      39.726  27.428  29.492  1.00  0.00     0.029 A 
ATOM     41  N   UNL A   1      41.325  28.946  29.120  1.00  0.00    -0.354 N 
ATOM     42  C   UNL A   1      44.745  28.054  26.678  1.00  0.00     0.074 A 
ATOM     43  C   UNL A   1      44.700  26.699  26.182  1.00  0.00     0.031 C 
ATOM     44  C   UNL A   1      39.392  28.537  30.169  1.00  0.00     0.029 A 
ATOM     45  C   UNL A   1      40.405  29.561  29.935  1.00  0.00     0.049 A 
ATOM     46  H   UNL A   1      42.166  29.371  28.835  1.00  0.00     0.167 HD
ATOM     47  C   UNL A   1      45.757  28.916  26.425  1.00  0.00     0.031 A 
ATOM     48  C   UNL A   1      40.360  30.817  30.421  1.00  0.00     0.031 A 
ATOM     49  C   UNL A   1      45.780  30.284  26.863  1.00  0.00     0.049 A 
ATOM     50  C   UNL A   1      41.455  31.784  30.067  1.00  0.00     0.074 A 
ATOM     51  C   UNL A   1      46.715  31.264  26.575  1.00  0.00     0.029 A 
ATOM     52  N   UNL A   1      44.816  30.870  27.669  1.00  0.00    -0.354 N 
ATOM     53  N   UNL A   1      42.515  31.590  29.321  1.00  0.00    -0.248 NA
ATOM     54  C   UNL A   1      41.341  33.145  30.609  1.00  0.00     0.031 C 
ATOM     55  C   UNL A   1      46.339  32.432  27.243  1.00  0.00     0.029 A 
ATOM     56  C   UNL A   1      45.142  32.194  27.899  1.00  0.00     0.049 A 
ATOM     57  H   UNL A   1      44.021  30.412  28.024  1.00  0.00     0.167 HD
ATOM     58  C   UNL A   1      43.187  32.803  29.295  1.00  0.00     0.074 A 
ATOM     59  C   UNL A   1      42.403  33.737  30.077  1.00  0.00     0.031 C 
ATOM     60  C   UNL A   1      44.355  33.113  28.681  1.00  0.00     0.031 A 
BRANCH  47  61
ATOM     61  C   UNL A   1      46.915  28.425  25.595  1.00  0.00    -0.014 A 
ATOM     62  C   UNL A   1      46.770  28.264  24.208  1.00  0.00     0.009 A 
ATOM     63  C   UNL A   1      48.126  28.044  26.197  1.00  0.00     0.009 A 
ATOM     64  C   UNL A   1      47.810  27.731  23.443  1.00  0.00     0.001 A 
ATOM     65  C   UNL A   1      49.177  27.544  25.425  1.00  0.00     0.001 A 
ATOM     66  C   UNL A   1      49.015  27.378  24.051  1.00  0.00     0.000 A 
ENDBRANCH  47  61
BRANCH  48  67
ATOM     67  C   UNL A   1      39.188  31.245  31.230  1.00  0.00    -0.014 A 
ATOM     68  C   UNL A   1      38.073  31.843  30.625  1.00  0.00     0.009 A 
ATOM     69  C   UNL A   1      39.209  31.107  32.627  1.00  0.00     0.009 A 
ATOM     70  C   UNL A   1      37.013  32.317  31.403  1.00  0.00     0.001 A 
ATOM     71  C   UNL A   1      38.135  31.556  33.400  1.00  0.00     0.001 A 
ATOM     72  C   UNL A   1      37.044  32.170  32.789  1.00  0.00     0.000 A 
ENDBRANCH  48  67
BRANCH  60  73
ATOM     73  C   UNL A   1      44.872  34.516  28.820  1.00  0.00    -0.014 A 
ATOM     74  C   UNL A   1      44.528  35.484  27.862  1.00  0.00     0.009 A 
ATOM     75  C   UNL A   1      45.783  34.852  29.832  1.00  0.00     0.009 A 
ATOM     76  C   UNL A   1      45.097  36.757  27.908  1.00  0.00     0.001 A 
ATOM     77  C   UNL A   1      46.329  36.135  29.891  1.00  0.00     0.001 A 
ATOM     78  C   UNL A   1      45.994  37.082  28.923  1.00  0.00     0.000 A 
ENDBRANCH  60  73
ENDBRANCH  34  35
ENDBRANCH  27  29
ENDBRANCH  26  27
ENDBRANCH  25  26
ENDBRANCH   1  25
TORSDOF 15
ENDMDL
