MODEL 1
REMARK VINA RESULT:      -9.5      0.000      0.000
REMARK SMILES O=C(/C=C/c1ccc(O)c(O)c1)OCCOC(=O)c1ccc(-c2c3nc(c(-c4ccccc4)c4ccc([nH]4)c(-c4ccccc4)c4nc(c(-c5ccccc5)c5ccc2[nH]5)C=C4)C=C3)cc1
REMARK SMILES IDX 14 1 13 2 2 3 1 4 3 5 4 6 5 7 6 8 12 9 7 10 10 11 8 12 11 13
REMARK SMILES IDX 9 15 15 17 16 18 17 19 18 20 19 21 20 22 66 23 21 24 65 25
REMARK SMILES IDX 22 26 23 27 24 28 59 29 25 30 64 31 58 32 60 33 26 34 63 35
REMARK SMILES IDX 57 36 56 37 27 39 49 40 34 41 48 42 35 43 38 44 47 45 61 46
REMARK SMILES IDX 36 47 37 48 46 50 62 51 39 52 28 53 29 54 33 55 30 56 32 57
REMARK SMILES IDX 31 58 50 59 51 60 55 61 52 62 54 63 53 64 40 65 41 66 45 67
REMARK SMILES IDX 42 68 44 69 43 70
REMARK H PARENT 11 14 9 16 60 38 38 49
REMARK Flexibility Score: inf
ROOT
ATOM      1  C   UNL A   1      33.281  37.043  30.775  1.00  0.00     0.275 C 
ENDROOT
BRANCH   1   2
ATOM      2  O   UNL A   1      33.461  36.142  31.889  1.00  0.00    -0.459 OA
BRANCH   2   3
ATOM      3  C   UNL A   1      34.147  36.350  33.035  1.00  0.00     0.330 C 
ATOM      4  O   UNL A   1      33.956  37.361  33.707  1.00  0.00    -0.247 OA
BRANCH   3   5
ATOM      5  C   UNL A   1      35.276  35.482  33.404  1.00  0.00     0.094 C 
ATOM      6  C   UNL A   1      35.292  34.466  34.277  1.00  0.00     0.016 C 
BRANCH   6   7
ATOM      7  C   UNL A   1      36.447  33.569  34.401  1.00  0.00    -0.021 A 
ATOM      8  C   UNL A   1      37.606  33.921  35.110  1.00  0.00     0.012 A 
ATOM      9  C   UNL A   1      36.377  32.316  33.778  1.00  0.00     0.058 A 
ATOM     10  C   UNL A   1      38.684  33.032  35.200  1.00  0.00     0.051 A 
ATOM     11  C   UNL A   1      37.451  31.443  33.868  1.00  0.00     0.157 A 
ATOM     12  C   UNL A   1      38.595  31.792  34.579  1.00  0.00     0.157 A 
BRANCH  11  13
ATOM     13  O   UNL A   1      37.373  30.228  33.249  1.00  0.00    -0.504 OA
ATOM     14  H   UNL A   1      38.144  29.840  32.882  1.00  0.00     0.293 HD
ENDBRANCH  11  13
BRANCH  12  15
ATOM     15  O   UNL A   1      39.606  30.874  34.640  1.00  0.00    -0.504 OA
ATOM     16  H   UNL A   1      40.474  31.149  34.863  1.00  0.00     0.293 HD
ENDBRANCH  12  15
ENDBRANCH   6   7
ENDBRANCH   3   5
ENDBRANCH   2   3
ENDBRANCH   1   2
BRANCH   1  17
ATOM     17  C   UNL A   1      33.072  36.371  29.416  1.00  0.00     0.275 C 
BRANCH  17  18
ATOM     18  O   UNL A   1      32.512  35.055  29.525  1.00  0.00    -0.458 OA
BRANCH  18  19
ATOM     19  C   UNL A   1      33.009  34.152  28.644  1.00  0.00     0.338 C 
ATOM     20  O   UNL A   1      32.520  33.836  27.571  1.00  0.00    -0.246 OA
BRANCH  19  21
ATOM     21  C   UNL A   1      34.338  33.678  29.090  1.00  0.00     0.060 A 
ATOM     22  C   UNL A   1      35.418  33.864  28.217  1.00  0.00     0.016 A 
ATOM     23  C   UNL A   1      34.538  33.065  30.330  1.00  0.00     0.016 A 
ATOM     24  C   UNL A   1      36.691  33.411  28.569  1.00  0.00     0.010 A 
ATOM     25  C   UNL A   1      35.814  32.610  30.681  1.00  0.00     0.010 A 
ATOM     26  C   UNL A   1      36.892  32.757  29.791  1.00  0.00    -0.014 A 
BRANCH  26  27
ATOM     27  C   UNL A   1      38.201  32.122  30.081  1.00  0.00     0.031 A 
ATOM     28  C   UNL A   1      39.188  32.839  30.961  1.00  0.00     0.074 A 
ATOM     29  C   UNL A   1      38.509  30.908  29.587  1.00  0.00     0.049 A 
ATOM     30  N   UNL A   1      40.379  32.458  31.353  1.00  0.00    -0.248 NA
ATOM     31  C   UNL A   1      38.777  34.158  31.468  1.00  0.00     0.031 C 
ATOM     32  C   UNL A   1      37.637  30.086  28.752  1.00  0.00     0.029 A 
ATOM     33  N   UNL A   1      39.650  30.157  29.726  1.00  0.00    -0.354 N 
ATOM     34  C   UNL A   1      40.857  33.487  32.154  1.00  0.00     0.074 A 
ATOM     35  C   UNL A   1      39.845  34.523  32.162  1.00  0.00     0.031 C 
ATOM     36  C   UNL A   1      38.276  28.940  28.452  1.00  0.00     0.029 A 
ATOM     37  C   UNL A   1      39.609  28.961  29.055  1.00  0.00     0.049 A 
ATOM     38  H   UNL A   1      40.426  30.450  30.258  1.00  0.00     0.167 HD
ATOM     39  C   UNL A   1      42.027  33.565  32.832  1.00  0.00     0.031 A 
ATOM     40  C   UNL A   1      40.541  27.996  28.933  1.00  0.00     0.031 A 
ATOM     41  C   UNL A   1      43.049  32.553  32.817  1.00  0.00     0.049 A 
ATOM     42  C   UNL A   1      41.870  28.142  29.628  1.00  0.00     0.074 A 
ATOM     43  C   UNL A   1      44.259  32.540  33.489  1.00  0.00     0.029 A 
ATOM     44  N   UNL A   1      42.986  31.379  32.084  1.00  0.00    -0.354 N 
ATOM     45  N   UNL A   1      42.291  29.102  30.414  1.00  0.00    -0.248 NA
ATOM     46  C   UNL A   1      42.847  27.062  29.422  1.00  0.00     0.031 C 
ATOM     47  C   UNL A   1      44.954  31.386  33.118  1.00  0.00     0.029 A 
ATOM     48  C   UNL A   1      44.151  30.651  32.261  1.00  0.00     0.049 A 
ATOM     49  H   UNL A   1      42.227  31.103  31.521  1.00  0.00     0.167 HD
ATOM     50  C   UNL A   1      43.566  28.726  30.822  1.00  0.00     0.074 A 
ATOM     51  C   UNL A   1      43.846  27.448  30.204  1.00  0.00     0.031 C 
ATOM     52  C   UNL A   1      44.425  29.380  31.642  1.00  0.00     0.031 A 
BRANCH  39  53
ATOM     53  C   UNL A   1      42.277  34.813  33.629  1.00  0.00    -0.014 A 
ATOM     54  C   UNL A   1      42.986  35.895  33.083  1.00  0.00     0.009 A 
ATOM     55  C   UNL A   1      41.770  34.920  34.933  1.00  0.00     0.009 A 
ATOM     56  C   UNL A   1      43.212  37.045  33.842  1.00  0.00     0.001 A 
ATOM     57  C   UNL A   1      41.974  36.081  35.679  1.00  0.00     0.001 A 
ATOM     58  C   UNL A   1      42.703  37.139  35.137  1.00  0.00     0.000 A 
ENDBRANCH  39  53
BRANCH  40  59
ATOM     59  C   UNL A   1      40.264  26.794  28.104  1.00  0.00    -0.014 A 
ATOM     60  C   UNL A   1      39.541  25.713  28.629  1.00  0.00     0.009 A 
ATOM     61  C   UNL A   1      40.755  26.710  26.791  1.00  0.00     0.009 A 
ATOM     62  C   UNL A   1      39.340  24.560  27.867  1.00  0.00     0.001 A 
ATOM     63  C   UNL A   1      40.528  25.567  26.022  1.00  0.00     0.001 A 
ATOM     64  C   UNL A   1      39.830  24.490  26.564  1.00  0.00     0.000 A 
ENDBRANCH  40  59
BRANCH  52  65
ATOM     65  C   UNL A   1      45.738  28.715  31.950  1.00  0.00    -0.014 A 
ATOM     66  C   UNL A   1      46.871  28.929  31.150  1.00  0.00     0.009 A 
ATOM     67  C   UNL A   1      45.854  27.898  33.086  1.00  0.00     0.009 A 
ATOM     68  C   UNL A   1      48.086  28.315  31.468  1.00  0.00     0.001 A 
ATOM     69  C   UNL A   1      47.075  27.308  33.416  1.00  0.00     0.001 A 
ATOM     70  C   UNL A   1      48.188  27.511  32.602  1.00  0.00     0.000 A 
ENDBRANCH  52  65
ENDBRANCH  26  27
ENDBRANCH  19  21
ENDBRANCH  18  19
ENDBRANCH  17  18
ENDBRANCH   1  17
TORSDOF 14
ENDMDL
MODEL 2
REMARK VINA RESULT:      -9.4      0.379      6.364
REMARK SMILES O=C(/C=C/c1ccc(O)c(O)c1)OCCOC(=O)c1ccc(-c2c3nc(c(-c4ccccc4)c4ccc([nH]4)c(-c4ccccc4)c4nc(c(-c5ccccc5)c5ccc2[nH]5)C=C4)C=C3)cc1
REMARK SMILES IDX 14 1 13 2 2 3 1 4 3 5 4 6 5 7 6 8 12 9 7 10 10 11 8 12 11 13
REMARK SMILES IDX 9 15 15 17 16 18 17 19 18 20 19 21 20 22 66 23 21 24 65 25
REMARK SMILES IDX 22 26 23 27 24 28 59 29 25 30 64 31 58 32 60 33 26 34 63 35
REMARK SMILES IDX 57 36 56 37 27 39 49 40 34 41 48 42 35 43 38 44 47 45 61 46
REMARK SMILES IDX 36 47 37 48 46 50 62 51 39 52 28 53 29 54 33 55 30 56 32 57
REMARK SMILES IDX 31 58 50 59 51 60 55 61 52 62 54 63 53 64 40 65 41 66 45 67
REMARK SMILES IDX 42 68 44 69 43 70
REMARK H PARENT 11 14 9 16 60 38 38 49
REMARK Flexibility Score: inf
ROOT
ATOM      1  C   UNL A   1      33.219  36.848  31.046  1.00  0.00     0.275 C 
ENDROOT
BRANCH   1   2
ATOM      2  O   UNL A   1      33.556  35.916  32.097  1.00  0.00    -0.459 OA
BRANCH   2   3
ATOM      3  C   UNL A   1      34.149  36.168  33.285  1.00  0.00     0.330 C 
ATOM      4  O   UNL A   1      33.949  37.228  33.874  1.00  0.00    -0.247 OA
BRANCH   3   5
ATOM      5  C   UNL A   1      35.199  35.280  33.807  1.00  0.00     0.094 C 
ATOM      6  C   UNL A   1      35.233  33.941  33.799  1.00  0.00     0.016 C 
BRANCH   6   7
ATOM      7  C   UNL A   1      36.436  33.194  34.185  1.00  0.00    -0.021 A 
ATOM      8  C   UNL A   1      37.368  33.686  35.111  1.00  0.00     0.012 A 
ATOM      9  C   UNL A   1      36.651  31.942  33.594  1.00  0.00     0.058 A 
ATOM     10  C   UNL A   1      38.503  32.938  35.447  1.00  0.00     0.051 A 
ATOM     11  C   UNL A   1      37.780  31.208  33.930  1.00  0.00     0.157 A 
ATOM     12  C   UNL A   1      38.697  31.696  34.854  1.00  0.00     0.157 A 
BRANCH  11  13
ATOM     13  O   UNL A   1      37.982  29.993  33.339  1.00  0.00    -0.504 OA
ATOM     14  H   UNL A   1      38.751  29.497  33.542  1.00  0.00     0.293 HD
ENDBRANCH  11  13
BRANCH  12  15
ATOM     15  O   UNL A   1      39.777  30.912  35.150  1.00  0.00    -0.504 OA
ATOM     16  H   UNL A   1      39.652  30.012  35.380  1.00  0.00     0.293 HD
ENDBRANCH  12  15
ENDBRANCH   6   7
ENDBRANCH   3   5
ENDBRANCH   2   3
ENDBRANCH   1   2
BRANCH   1  17
ATOM     17  C   UNL A   1      33.153  36.251  29.638  1.00  0.00     0.275 C 
BRANCH  17  18
ATOM     18  O   UNL A   1      32.567  34.941  29.615  1.00  0.00    -0.458 OA
BRANCH  18  19
ATOM     19  C   UNL A   1      32.954  34.165  28.572  1.00  0.00     0.338 C 
ATOM     20  O   UNL A   1      32.385  34.049  27.500  1.00  0.00    -0.246 OA
BRANCH  19  21
ATOM     21  C   UNL A   1      34.275  33.558  28.849  1.00  0.00     0.060 A 
ATOM     22  C   UNL A   1      34.398  32.775  30.005  1.00  0.00     0.016 A 
ATOM     23  C   UNL A   1      35.376  33.741  28.007  1.00  0.00     0.016 A 
ATOM     24  C   UNL A   1      35.627  32.201  30.337  1.00  0.00     0.010 A 
ATOM     25  C   UNL A   1      36.607  33.166  28.341  1.00  0.00     0.010 A 
ATOM     26  C   UNL A   1      36.746  32.415  29.522  1.00  0.00    -0.014 A 
BRANCH  26  27
ATOM     27  C   UNL A   1      38.084  31.955  29.970  1.00  0.00     0.031 A 
ATOM     28  C   UNL A   1      38.603  30.627  29.489  1.00  0.00     0.074 A 
ATOM     29  C   UNL A   1      38.844  32.714  30.779  1.00  0.00     0.049 A 
ATOM     30  N   UNL A   1      39.748  30.044  29.745  1.00  0.00    -0.248 NA
ATOM     31  C   UNL A   1      37.717  29.858  28.602  1.00  0.00     0.031 C 
ATOM     32  C   UNL A   1      38.484  34.034  31.291  1.00  0.00     0.029 A 
ATOM     33  N   UNL A   1      40.089  32.475  31.308  1.00  0.00    -0.354 N 
ATOM     34  C   UNL A   1      39.721  28.842  29.049  1.00  0.00     0.074 A 
ATOM     35  C   UNL A   1      38.434  28.764  28.390  1.00  0.00     0.031 C 
ATOM     36  C   UNL A   1      39.487  34.490  32.062  1.00  0.00     0.029 A 
ATOM     37  C   UNL A   1      40.548  33.485  32.116  1.00  0.00     0.049 A 
ATOM     38  H   UNL A   1      40.604  31.656  31.125  1.00  0.00     0.167 HD
ATOM     39  C   UNL A   1      40.681  27.891  28.953  1.00  0.00     0.031 A 
ATOM     40  C   UNL A   1      41.689  33.585  32.825  1.00  0.00     0.031 A 
ATOM     41  C   UNL A   1      41.956  27.948  29.617  1.00  0.00     0.049 A 
ATOM     42  C   UNL A   1      42.708  32.476  32.771  1.00  0.00     0.074 A 
ATOM     43  C   UNL A   1      42.996  27.037  29.563  1.00  0.00     0.029 A 
ATOM     44  N   UNL A   1      42.359  28.965  30.465  1.00  0.00    -0.354 N 
ATOM     45  N   UNL A   1      42.685  31.365  32.076  1.00  0.00    -0.248 NA
ATOM     46  C   UNL A   1      43.914  32.643  33.596  1.00  0.00     0.031 C 
ATOM     47  C   UNL A   1      44.007  27.474  30.423  1.00  0.00     0.029 A 
ATOM     48  C   UNL A   1      43.620  28.688  30.967  1.00  0.00     0.049 A 
ATOM     49  H   UNL A   1      41.829  29.767  30.680  1.00  0.00     0.167 HD
ATOM     50  C   UNL A   1      43.885  30.719  32.354  1.00  0.00     0.074 A 
ATOM     51  C   UNL A   1      44.615  31.565  33.273  1.00  0.00     0.031 C 
ATOM     52  C   UNL A   1      44.341  29.533  31.883  1.00  0.00     0.031 A 
BRANCH  39  53
ATOM     53  C   UNL A   1      40.370  26.684  28.116  1.00  0.00    -0.014 A 
ATOM     54  C   UNL A   1      39.598  25.626  28.624  1.00  0.00     0.009 A 
ATOM     55  C   UNL A   1      40.830  26.616  26.792  1.00  0.00     0.009 A 
ATOM     56  C   UNL A   1      39.324  24.510  27.832  1.00  0.00     0.001 A 
ATOM     57  C   UNL A   1      40.531  25.512  25.994  1.00  0.00     0.001 A 
ATOM     58  C   UNL A   1      39.787  24.455  26.517  1.00  0.00     0.000 A 
ENDBRANCH  39  53
BRANCH  40  59
ATOM     59  C   UNL A   1      41.939  34.783  33.669  1.00  0.00    -0.014 A 
ATOM     60  C   UNL A   1      42.716  35.847  33.189  1.00  0.00     0.009 A 
ATOM     61  C   UNL A   1      41.429  34.848  34.975  1.00  0.00     0.009 A 
ATOM     62  C   UNL A   1      43.001  36.941  34.010  1.00  0.00     0.001 A 
ATOM     63  C   UNL A   1      41.692  35.956  35.784  1.00  0.00     0.001 A 
ATOM     64  C   UNL A   1      42.486  36.996  35.304  1.00  0.00     0.000 A 
ENDBRANCH  40  59
BRANCH  52  65
ATOM     65  C   UNL A   1      45.709  29.089  32.323  1.00  0.00    -0.014 A 
ATOM     66  C   UNL A   1      45.887  28.289  33.462  1.00  0.00     0.009 A 
ATOM     67  C   UNL A   1      46.833  29.438  31.557  1.00  0.00     0.009 A 
ATOM     68  C   UNL A   1      47.166  27.872  33.840  1.00  0.00     0.001 A 
ATOM     69  C   UNL A   1      48.106  28.998  31.921  1.00  0.00     0.001 A 
ATOM     70  C   UNL A   1      48.273  28.222  33.067  1.00  0.00     0.000 A 
ENDBRANCH  52  65
ENDBRANCH  26  27
ENDBRANCH  19  21
ENDBRANCH  18  19
ENDBRANCH  17  18
ENDBRANCH   1  17
TORSDOF 14
ENDMDL
MODEL 3
REMARK VINA RESULT:      -9.4      5.357     11.612
REMARK SMILES O=C(/C=C/c1ccc(O)c(O)c1)OCCOC(=O)c1ccc(-c2c3nc(c(-c4ccccc4)c4ccc([nH]4)c(-c4ccccc4)c4nc(c(-c5ccccc5)c5ccc2[nH]5)C=C4)C=C3)cc1
REMARK SMILES IDX 14 1 13 2 2 3 1 4 3 5 4 6 5 7 6 8 12 9 7 10 10 11 8 12 11 13
REMARK SMILES IDX 9 15 15 17 16 18 17 19 18 20 19 21 20 22 66 23 21 24 65 25
REMARK SMILES IDX 22 26 23 27 24 28 59 29 25 30 64 31 58 32 60 33 26 34 63 35
REMARK SMILES IDX 57 36 56 37 27 39 49 40 34 41 48 42 35 43 38 44 47 45 61 46
REMARK SMILES IDX 36 47 37 48 46 50 62 51 39 52 28 53 29 54 33 55 30 56 32 57
REMARK SMILES IDX 31 58 50 59 51 60 55 61 52 62 54 63 53 64 40 65 41 66 45 67
REMARK SMILES IDX 42 68 44 69 43 70
REMARK H PARENT 11 14 9 16 60 38 38 49
REMARK Flexibility Score: inf
ROOT
ATOM      1  C   UNL A   1      44.424  18.482  25.644  1.00  0.00     0.275 C 
ENDROOT
BRANCH   1   2
ATOM      2  O   UNL A   1      44.775  19.761  25.073  1.00  0.00    -0.459 OA
BRANCH   2   3
ATOM      3  C   UNL A   1      45.976  20.382  25.076  1.00  0.00     0.330 C 
ATOM      4  O   UNL A   1      47.018  19.734  25.010  1.00  0.00    -0.247 OA
BRANCH   3   5
ATOM      5  C   UNL A   1      46.078  21.821  25.361  1.00  0.00     0.094 C 
ATOM      6  C   UNL A   1      46.283  22.826  24.499  1.00  0.00     0.016 C 
BRANCH   6   7
ATOM      7  C   UNL A   1      46.172  24.232  24.906  1.00  0.00    -0.021 A 
ATOM      8  C   UNL A   1      47.271  24.976  25.361  1.00  0.00     0.012 A 
ATOM      9  C   UNL A   1      44.912  24.840  24.835  1.00  0.00     0.058 A 
ATOM     10  C   UNL A   1      47.117  26.315  25.741  1.00  0.00     0.051 A 
ATOM     11  C   UNL A   1      44.767  26.166  25.217  1.00  0.00     0.157 A 
ATOM     12  C   UNL A   1      45.860  26.903  25.661  1.00  0.00     0.157 A 
BRANCH  11  13
ATOM     13  O   UNL A   1      43.531  26.744  25.152  1.00  0.00    -0.504 OA
ATOM     14  H   UNL A   1      43.329  27.337  24.455  1.00  0.00     0.293 HD
ENDBRANCH  11  13
BRANCH  12  15
ATOM     15  O   UNL A   1      45.646  28.209  26.003  1.00  0.00    -0.504 OA
ATOM     16  H   UNL A   1      46.297  28.855  25.813  1.00  0.00     0.293 HD
ENDBRANCH  12  15
ENDBRANCH   6   7
ENDBRANCH   3   5
ENDBRANCH   2   3
ENDBRANCH   1   2
BRANCH   1  17
ATOM     17  C   UNL A   1      42.964  18.338  26.081  1.00  0.00     0.275 C 
BRANCH  17  18
ATOM     18  O   UNL A   1      42.060  19.098  25.266  1.00  0.00    -0.458 OA
BRANCH  18  19
ATOM     19  C   UNL A   1      41.066  19.719  25.948  1.00  0.00     0.338 C 
ATOM     20  O   UNL A   1      39.967  19.260  26.212  1.00  0.00    -0.246 OA
BRANCH  19  21
ATOM     21  C   UNL A   1      41.541  21.018  26.474  1.00  0.00     0.060 A 
ATOM     22  C   UNL A   1      41.430  21.237  27.854  1.00  0.00     0.016 A 
ATOM     23  C   UNL A   1      42.084  22.008  25.649  1.00  0.00     0.016 A 
ATOM     24  C   UNL A   1      41.832  22.455  28.406  1.00  0.00     0.010 A 
ATOM     25  C   UNL A   1      42.485  23.229  26.204  1.00  0.00     0.010 A 
ATOM     26  C   UNL A   1      42.337  23.469  27.581  1.00  0.00    -0.014 A 
BRANCH  26  27
ATOM     27  C   UNL A   1      42.594  24.817  28.144  1.00  0.00     0.031 A 
ATOM     28  C   UNL A   1      43.987  25.178  28.581  1.00  0.00     0.074 A 
ATOM     29  C   UNL A   1      41.607  25.726  28.248  1.00  0.00     0.049 A 
ATOM     30  N   UNL A   1      44.433  26.304  29.083  1.00  0.00    -0.248 NA
ATOM     31  C   UNL A   1      45.013  24.135  28.430  1.00  0.00     0.031 C 
ATOM     32  C   UNL A   1      40.221  25.526  27.831  1.00  0.00     0.029 A 
ATOM     33  N   UNL A   1      41.630  27.009  28.738  1.00  0.00    -0.354 N 
ATOM     34  C   UNL A   1      45.789  26.104  29.304  1.00  0.00     0.074 A 
ATOM     35  C   UNL A   1      46.086  24.741  28.917  1.00  0.00     0.031 C 
ATOM     36  C   UNL A   1      39.524  26.648  28.084  1.00  0.00     0.029 A 
ATOM     37  C   UNL A   1      40.410  27.635  28.701  1.00  0.00     0.049 A 
ATOM     38  H   UNL A   1      42.446  27.438  29.086  1.00  0.00     0.167 HD
ATOM     39  C   UNL A   1      46.712  26.976  29.777  1.00  0.00     0.031 A 
ATOM     40  C   UNL A   1      40.045  28.862  29.122  1.00  0.00     0.031 A 
ATOM     41  C   UNL A   1      46.428  28.326  30.184  1.00  0.00     0.049 A 
ATOM     42  C   UNL A   1      41.072  29.786  29.724  1.00  0.00     0.074 A 
ATOM     43  C   UNL A   1      47.305  29.286  30.659  1.00  0.00     0.029 A 
ATOM     44  N   UNL A   1      45.169  28.904  30.175  1.00  0.00    -0.354 N 
ATOM     45  N   UNL A   1      42.359  29.598  29.889  1.00  0.00    -0.248 NA
ATOM     46  C   UNL A   1      40.593  31.097  30.189  1.00  0.00     0.031 C 
ATOM     47  C   UNL A   1      46.568  30.427  30.991  1.00  0.00     0.029 A 
ATOM     48  C   UNL A   1      45.240  30.197  30.668  1.00  0.00     0.049 A 
ATOM     49  H   UNL A   1      44.345  28.463  29.865  1.00  0.00     0.167 HD
ATOM     50  C   UNL A   1      42.846  30.776  30.444  1.00  0.00     0.074 A 
ATOM     51  C   UNL A   1      41.720  31.675  30.581  1.00  0.00     0.031 C 
ATOM     52  C   UNL A   1      44.117  31.086  30.803  1.00  0.00     0.031 A 
BRANCH  39  53
ATOM     53  C   UNL A   1      48.122  26.478  29.909  1.00  0.00    -0.014 A 
ATOM     54  C   UNL A   1      49.045  26.621  28.860  1.00  0.00     0.009 A 
ATOM     55  C   UNL A   1      48.542  25.885  31.109  1.00  0.00     0.009 A 
ATOM     56  C   UNL A   1      50.351  26.148  29.001  1.00  0.00     0.001 A 
ATOM     57  C   UNL A   1      49.856  25.437  31.256  1.00  0.00     0.001 A 
ATOM     58  C   UNL A   1      50.756  25.560  30.199  1.00  0.00     0.000 A 
ENDBRANCH  39  53
BRANCH  40  59
ATOM     59  C   UNL A   1      38.630  29.300  29.005  1.00  0.00    -0.014 A 
ATOM     60  C   UNL A   1      37.753  29.184  30.094  1.00  0.00     0.009 A 
ATOM     61  C   UNL A   1      38.142  29.803  27.789  1.00  0.00     0.009 A 
ATOM     62  C   UNL A   1      36.408  29.536  29.958  1.00  0.00     0.001 A 
ATOM     63  C   UNL A   1      36.803  30.181  27.665  1.00  0.00     0.001 A 
ATOM     64  C   UNL A   1      35.936  30.038  28.747  1.00  0.00     0.000 A 
ENDBRANCH  40  59
BRANCH  52  65
ATOM     65  C   UNL A   1      44.370  32.465  31.347  1.00  0.00    -0.014 A 
ATOM     66  C   UNL A   1      44.662  33.543  30.498  1.00  0.00     0.009 A 
ATOM     67  C   UNL A   1      44.266  32.697  32.728  1.00  0.00     0.009 A 
ATOM     68  C   UNL A   1      44.873  34.820  31.025  1.00  0.00     0.001 A 
ATOM     69  C   UNL A   1      44.451  33.978  33.249  1.00  0.00     0.001 A 
ATOM     70  C   UNL A   1      44.762  35.037  32.398  1.00  0.00     0.000 A 
ENDBRANCH  52  65
ENDBRANCH  26  27
ENDBRANCH  19  21
ENDBRANCH  18  19
ENDBRANCH  17  18
ENDBRANCH   1  17
TORSDOF 14
ENDMDL
