MODEL 1
REMARK VINA RESULT:      -9.0      0.000      0.000
REMARK SMILES C=CC[N@@H+](CC(=O)OCCOC(=O)c1ccc(-c2c3nc(c(-c4ccccc4)c4ccc([nH]4)c(-c4ccccc4)c4nc(c(-c5ccccc5)c5ccc2[nH]5)C=C4)C=C3)cc1)[C@@H]1CC[N@@H+](C(C)C)C1
REMARK SMILES IDX 9 1 8 2 6 3 7 4 5 5 4 6 3 8 2 9 1 10 62 11 63 12 69 13 64 14
REMARK SMILES IDX 65 15 66 17 67 18 68 19 10 20 11 21 12 22 13 23 14 24 15 25
REMARK SMILES IDX 61 26 16 27 60 28 17 29 18 30 19 31 54 32 20 33 59 34 53 35
REMARK SMILES IDX 55 36 21 37 58 38 52 39 51 40 22 42 44 43 29 44 43 45 30 46
REMARK SMILES IDX 33 47 42 48 56 49 31 50 32 51 41 53 57 54 34 55 23 56 24 57
REMARK SMILES IDX 28 58 25 59 27 60 26 61 45 62 46 63 50 64 47 65 49 66 48 67
REMARK SMILES IDX 35 68 36 69 40 70 37 71 39 72 38 73
REMARK H PARENT 4 7 65 16 55 41 33 52
REMARK Flexibility Score: inf
ROOT
ATOM      1  C   UNL A   1      32.542  31.669  26.579  1.00  0.00     0.274 C 
ENDROOT
BRANCH   1   2
ATOM      2  O   UNL A   1      32.864  30.492  27.337  1.00  0.00    -0.458 OA
BRANCH   2   3
ATOM      3  C   UNL A   1      33.478  29.452  26.726  1.00  0.00     0.361 C 
ATOM      4  O   UNL A   1      34.171  28.624  27.305  1.00  0.00    -0.245 OA
BRANCH   3   5
ATOM      5  C   UNL A   1      33.151  29.384  25.219  1.00  0.00     0.387 C 
BRANCH   5   6
ATOM      6  N   UNL A   1      32.419  28.188  24.722  1.00  0.00    -0.315 N 
ATOM      7  H   UNL A   1      32.195  27.685  25.580  1.00  0.00     0.349 HD
BRANCH   6   8
ATOM      8  C   UNL A   1      33.278  27.319  23.913  1.00  0.00     0.291 C 
BRANCH   8   9
ATOM      9  C   UNL A   1      34.006  26.289  24.726  1.00  0.00     0.025 C 
ATOM     10  C   UNL A   1      33.383  25.382  25.490  1.00  0.00     0.010 C 
ENDBRANCH   8   9
ENDBRANCH   6   8
BRANCH   6  11
ATOM     11  C   UNL A   1      31.036  28.360  24.217  1.00  0.00     0.246 C 
ATOM     12  C   UNL A   1      30.714  27.983  22.779  1.00  0.00     0.132 C 
ATOM     13  C   UNL A   1      30.489  29.819  24.329  1.00  0.00     0.328 C 
ATOM     14  C   UNL A   1      30.587  29.307  22.071  1.00  0.00     0.269 C 
ATOM     15  N   UNL A   1      29.957  30.218  23.015  1.00  0.00    -0.328 N 
ATOM     16  H   UNL A   1      30.191  31.201  22.885  1.00  0.00     0.348 HD
BRANCH  15  17
ATOM     17  C   UNL A   1      28.507  30.344  22.815  1.00  0.00     0.177 C 
ATOM     18  C   UNL A   1      27.767  31.352  23.700  1.00  0.00     0.075 C 
ATOM     19  C   UNL A   1      28.121  30.541  21.349  1.00  0.00     0.075 C 
ENDBRANCH  15  17
ENDBRANCH   6  11
ENDBRANCH   5   6
ENDBRANCH   3   5
ENDBRANCH   2   3
ENDBRANCH   1   2
BRANCH   1  20
ATOM     20  C   UNL A   1      31.970  32.714  27.556  1.00  0.00     0.275 C 
BRANCH  20  21
ATOM     21  O   UNL A   1      32.558  34.042  27.535  1.00  0.00    -0.458 OA
BRANCH  21  22
ATOM     22  C   UNL A   1      33.059  34.565  28.675  1.00  0.00     0.338 C 
ATOM     23  O   UNL A   1      32.683  35.575  29.247  1.00  0.00    -0.246 OA
BRANCH  22  24
ATOM     24  C   UNL A   1      34.288  33.847  29.079  1.00  0.00     0.060 A 
ATOM     25  C   UNL A   1      35.415  34.052  28.279  1.00  0.00     0.016 A 
ATOM     26  C   UNL A   1      34.358  32.963  30.164  1.00  0.00     0.016 A 
ATOM     27  C   UNL A   1      36.577  33.326  28.515  1.00  0.00     0.010 A 
ATOM     28  C   UNL A   1      35.578  32.332  30.475  1.00  0.00     0.010 A 
ATOM     29  C   UNL A   1      36.706  32.516  29.657  1.00  0.00    -0.014 A 
BRANCH  29  30
ATOM     30  C   UNL A   1      38.070  32.025  30.012  1.00  0.00     0.031 A 
ATOM     31  C   UNL A   1      38.981  32.751  30.964  1.00  0.00     0.074 A 
ATOM     32  C   UNL A   1      38.453  30.831  29.510  1.00  0.00     0.049 A 
ATOM     33  N   UNL A   1      40.159  32.388  31.412  1.00  0.00    -0.248 NA
ATOM     34  C   UNL A   1      38.518  34.043  31.486  1.00  0.00     0.031 C 
ATOM     35  C   UNL A   1      37.652  30.009  28.595  1.00  0.00     0.029 A 
ATOM     36  N   UNL A   1      39.579  30.077  29.723  1.00  0.00    -0.354 N 
ATOM     37  C   UNL A   1      40.572  33.397  32.276  1.00  0.00     0.074 A 
ATOM     38  C   UNL A   1      39.525  34.398  32.274  1.00  0.00     0.031 C 
ATOM     39  C   UNL A   1      38.268  28.838  28.396  1.00  0.00     0.029 A 
ATOM     40  C   UNL A   1      39.558  28.868  29.069  1.00  0.00     0.049 A 
ATOM     41  H   UNL A   1      40.328  30.371  30.290  1.00  0.00     0.167 HD
ATOM     42  C   UNL A   1      41.722  33.485  32.990  1.00  0.00     0.031 A 
ATOM     43  C   UNL A   1      40.485  27.899  28.973  1.00  0.00     0.031 A 
ATOM     44  C   UNL A   1      42.788  32.513  32.945  1.00  0.00     0.049 A 
ATOM     45  C   UNL A   1      41.791  28.081  29.679  1.00  0.00     0.074 A 
ATOM     46  C   UNL A   1      44.006  32.534  33.605  1.00  0.00     0.029 A 
ATOM     47  N   UNL A   1      42.772  31.355  32.181  1.00  0.00    -0.354 N 
ATOM     48  N   UNL A   1      42.165  29.048  30.481  1.00  0.00    -0.248 NA
ATOM     49  C   UNL A   1      42.808  27.047  29.455  1.00  0.00     0.031 C 
ATOM     50  C   UNL A   1      44.753  31.428  33.184  1.00  0.00     0.029 A 
ATOM     51  C   UNL A   1      43.974  30.677  32.319  1.00  0.00     0.049 A 
ATOM     52  H   UNL A   1      42.018  31.058  31.623  1.00  0.00     0.167 HD
ATOM     53  C   UNL A   1      43.461  28.737  30.865  1.00  0.00     0.074 A 
ATOM     54  C   UNL A   1      43.792  27.474  30.232  1.00  0.00     0.031 C 
ATOM     55  C   UNL A   1      44.301  29.436  31.664  1.00  0.00     0.031 A 
BRANCH  42  56
ATOM     56  C   UNL A   1      41.923  34.715  33.837  1.00  0.00    -0.014 A 
ATOM     57  C   UNL A   1      41.498  34.766  35.173  1.00  0.00     0.009 A 
ATOM     58  C   UNL A   1      42.596  35.824  33.299  1.00  0.00     0.009 A 
ATOM     59  C   UNL A   1      41.719  35.913  35.943  1.00  0.00     0.001 A 
ATOM     60  C   UNL A   1      42.837  36.958  34.077  1.00  0.00     0.001 A 
ATOM     61  C   UNL A   1      42.391  37.006  35.396  1.00  0.00     0.000 A 
ENDBRANCH  42  56
BRANCH  43  62
ATOM     62  C   UNL A   1      40.229  26.714  28.110  1.00  0.00    -0.014 A 
ATOM     63  C   UNL A   1      40.669  26.678  26.779  1.00  0.00     0.009 A 
ATOM     64  C   UNL A   1      39.552  25.598  28.631  1.00  0.00     0.009 A 
ATOM     65  C   UNL A   1      40.425  25.553  25.987  1.00  0.00     0.001 A 
ATOM     66  C   UNL A   1      39.342  24.462  27.850  1.00  0.00     0.001 A 
ATOM     67  C   UNL A   1      39.771  24.444  26.524  1.00  0.00     0.000 A 
ENDBRANCH  43  62
BRANCH  55  68
ATOM     68  C   UNL A   1      45.652  28.826  31.908  1.00  0.00    -0.014 A 
ATOM     69  C   UNL A   1      46.747  29.119  31.080  1.00  0.00     0.009 A 
ATOM     70  C   UNL A   1      45.825  27.927  32.972  1.00  0.00     0.009 A 
ATOM     71  C   UNL A   1      47.973  28.482  31.278  1.00  0.00     0.001 A 
ATOM     72  C   UNL A   1      47.061  27.318  33.189  1.00  0.00     0.001 A 
ATOM     73  C   UNL A   1      48.129  27.583  32.334  1.00  0.00     0.000 A 
ENDBRANCH  55  68
ENDBRANCH  29  30
ENDBRANCH  22  24
ENDBRANCH  21  22
ENDBRANCH  20  21
ENDBRANCH   1  20
TORSDOF 16
ENDMDL
MODEL 2
REMARK VINA RESULT:      -9.0      4.846      9.541
REMARK SMILES C=CC[N@@H+](CC(=O)OCCOC(=O)c1ccc(-c2c3nc(c(-c4ccccc4)c4ccc([nH]4)c(-c4ccccc4)c4nc(c(-c5ccccc5)c5ccc2[nH]5)C=C4)C=C3)cc1)[C@@H]1CC[N@@H+](C(C)C)C1
REMARK SMILES IDX 9 1 8 2 6 3 7 4 5 5 4 6 3 8 2 9 1 10 62 11 63 12 69 13 64 14
REMARK SMILES IDX 65 15 66 17 67 18 68 19 10 20 11 21 12 22 13 23 14 24 15 25
REMARK SMILES IDX 61 26 16 27 60 28 17 29 18 30 19 31 54 32 20 33 59 34 53 35
REMARK SMILES IDX 55 36 21 37 58 38 52 39 51 40 22 42 44 43 29 44 43 45 30 46
REMARK SMILES IDX 33 47 42 48 56 49 31 50 32 51 41 53 57 54 34 55 23 56 24 57
REMARK SMILES IDX 28 58 25 59 27 60 26 61 45 62 46 63 50 64 47 65 49 66 48 67
REMARK SMILES IDX 35 68 36 69 40 70 37 71 39 72 38 73
REMARK H PARENT 4 7 65 16 55 41 33 52
REMARK Flexibility Score: inf
ROOT
ATOM      1  C   UNL A   1      43.213  20.997  25.886  1.00  0.00     0.274 C 
ENDROOT
BRANCH   1   2
ATOM      2  O   UNL A   1      41.940  21.650  25.767  1.00  0.00    -0.458 OA
BRANCH   2   3
ATOM      3  C   UNL A   1      40.814  20.991  26.131  1.00  0.00     0.361 C 
ATOM      4  O   UNL A   1      40.649  19.784  26.000  1.00  0.00    -0.245 OA
BRANCH   3   5
ATOM      5  C   UNL A   1      39.782  21.925  26.797  1.00  0.00     0.387 C 
BRANCH   5   6
ATOM      6  N   UNL A   1      39.010  22.846  25.918  1.00  0.00    -0.315 N 
ATOM      7  H   UNL A   1      39.389  22.647  24.992  1.00  0.00     0.349 HD
BRANCH   6   8
ATOM      8  C   UNL A   1      39.294  24.251  26.218  1.00  0.00     0.291 C 
BRANCH   8   9
ATOM      9  C   UNL A   1      39.688  24.481  27.647  1.00  0.00     0.025 C 
ATOM     10  C   UNL A   1      38.935  25.172  28.515  1.00  0.00     0.010 C 
ENDBRANCH   8   9
ENDBRANCH   6   8
BRANCH   6  11
ATOM     11  C   UNL A   1      37.590  22.532  25.631  1.00  0.00     0.246 C 
ATOM     12  C   UNL A   1      37.222  21.884  24.306  1.00  0.00     0.132 C 
ATOM     13  C   UNL A   1      36.635  23.766  25.697  1.00  0.00     0.328 C 
ATOM     14  C   UNL A   1      36.600  23.002  23.509  1.00  0.00     0.269 C 
ATOM     15  N   UNL A   1      35.843  23.807  24.457  1.00  0.00    -0.328 N 
ATOM     16  H   UNL A   1      35.740  24.788  24.200  1.00  0.00     0.348 HD
BRANCH  15  17
ATOM     17  C   UNL A   1      34.413  23.472  24.484  1.00  0.00     0.177 C 
ATOM     18  C   UNL A   1      33.452  24.557  24.980  1.00  0.00     0.075 C 
ATOM     19  C   UNL A   1      33.911  22.881  23.166  1.00  0.00     0.075 C 
ENDBRANCH  15  17
ENDBRANCH   6  11
ENDBRANCH   5   6
ENDBRANCH   3   5
ENDBRANCH   2   3
ENDBRANCH   1   2
BRANCH   1  20
ATOM     20  C   UNL A   1      44.269  21.904  25.226  1.00  0.00     0.275 C 
BRANCH  20  21
ATOM     21  O   UNL A   1      44.810  22.991  26.023  1.00  0.00    -0.458 OA
BRANCH  21  22
ATOM     22  C   UNL A   1      44.842  24.239  25.508  1.00  0.00     0.338 C 
ATOM     23  O   UNL A   1      45.462  24.614  24.527  1.00  0.00    -0.246 OA
BRANCH  22  24
ATOM     24  C   UNL A   1      44.155  25.190  26.410  1.00  0.00     0.060 A 
ATOM     25  C   UNL A   1      43.432  24.628  27.465  1.00  0.00     0.016 A 
ATOM     26  C   UNL A   1      44.156  26.579  26.232  1.00  0.00     0.016 A 
ATOM     27  C   UNL A   1      42.659  25.439  28.290  1.00  0.00     0.010 A 
ATOM     28  C   UNL A   1      43.478  27.403  27.151  1.00  0.00     0.010 A 
ATOM     29  C   UNL A   1      42.729  26.840  28.198  1.00  0.00    -0.014 A 
BRANCH  29  30
ATOM     30  C   UNL A   1      42.129  27.641  29.306  1.00  0.00     0.031 A 
ATOM     31  C   UNL A   1      40.813  28.359  29.179  1.00  0.00     0.074 A 
ATOM     32  C   UNL A   1      42.772  27.642  30.493  1.00  0.00     0.049 A 
ATOM     33  N   UNL A   1      40.149  29.025  30.094  1.00  0.00    -0.248 NA
ATOM     34  C   UNL A   1      40.151  28.326  27.869  1.00  0.00     0.031 C 
ATOM     35  C   UNL A   1      44.046  26.962  30.758  1.00  0.00     0.029 A 
ATOM     36  N   UNL A   1      42.435  28.186  31.707  1.00  0.00    -0.354 N 
ATOM     37  C   UNL A   1      38.989  29.479  29.476  1.00  0.00     0.074 A 
ATOM     38  C   UNL A   1      39.048  29.028  28.101  1.00  0.00     0.031 C 
ATOM     39  C   UNL A   1      44.336  27.056  32.061  1.00  0.00     0.029 A 
ATOM     40  C   UNL A   1      43.337  27.899  32.703  1.00  0.00     0.049 A 
ATOM     41  H   UNL A   1      41.625  28.727  31.850  1.00  0.00     0.167 HD
ATOM     42  C   UNL A   1      37.978  30.214  30.003  1.00  0.00     0.031 A 
ATOM     43  C   UNL A   1      43.395  28.299  33.985  1.00  0.00     0.031 A 
ATOM     44  C   UNL A   1      37.949  30.710  31.358  1.00  0.00     0.049 A 
ATOM     45  C   UNL A   1      42.325  29.206  34.504  1.00  0.00     0.074 A 
ATOM     46  C   UNL A   1      36.985  31.494  31.972  1.00  0.00     0.029 A 
ATOM     47  N   UNL A   1      38.940  30.489  32.303  1.00  0.00    -0.354 N 
ATOM     48  N   UNL A   1      41.243  29.633  33.899  1.00  0.00    -0.248 NA
ATOM     49  C   UNL A   1      42.492  29.701  35.875  1.00  0.00     0.031 C 
ATOM     50  C   UNL A   1      37.429  31.804  33.263  1.00  0.00     0.029 A 
ATOM     51  C   UNL A   1      38.633  31.155  33.480  1.00  0.00     0.049 A 
ATOM     52  H   UNL A   1      39.744  29.939  32.160  1.00  0.00     0.167 HD
ATOM     53  C   UNL A   1      40.593  30.441  34.819  1.00  0.00     0.074 A 
ATOM     54  C   UNL A   1      41.388  30.417  36.032  1.00  0.00     0.031 C 
ATOM     55  C   UNL A   1      39.445  31.144  34.670  1.00  0.00     0.031 A 
BRANCH  42  56
ATOM     56  C   UNL A   1      36.840  30.590  29.089  1.00  0.00    -0.014 A 
ATOM     57  C   UNL A   1      35.877  29.651  28.688  1.00  0.00     0.009 A 
ATOM     58  C   UNL A   1      36.704  31.922  28.664  1.00  0.00     0.009 A 
ATOM     59  C   UNL A   1      34.819  30.034  27.857  1.00  0.00     0.001 A 
ATOM     60  C   UNL A   1      35.633  32.306  27.855  1.00  0.00     0.001 A 
ATOM     61  C   UNL A   1      34.695  31.361  27.446  1.00  0.00     0.000 A 
ENDBRANCH  42  56
BRANCH  43  62
ATOM     62  C   UNL A   1      44.552  27.902  34.832  1.00  0.00    -0.014 A 
ATOM     63  C   UNL A   1      45.719  28.678  34.875  1.00  0.00     0.009 A 
ATOM     64  C   UNL A   1      44.481  26.741  35.621  1.00  0.00     0.009 A 
ATOM     65  C   UNL A   1      46.793  28.292  35.682  1.00  0.00     0.001 A 
ATOM     66  C   UNL A   1      45.538  26.378  36.454  1.00  0.00     0.001 A 
ATOM     67  C   UNL A   1      46.698  27.149  36.477  1.00  0.00     0.000 A 
ENDBRANCH  43  62
BRANCH  55  68
ATOM     68  C   UNL A   1      38.980  31.924  35.867  1.00  0.00    -0.014 A 
ATOM     69  C   UNL A   1      39.437  33.229  36.112  1.00  0.00     0.009 A 
ATOM     70  C   UNL A   1      38.088  31.335  36.776  1.00  0.00     0.009 A 
ATOM     71  C   UNL A   1      39.052  33.907  37.270  1.00  0.00     0.001 A 
ATOM     72  C   UNL A   1      37.678  32.027  37.915  1.00  0.00     0.001 A 
ATOM     73  C   UNL A   1      38.172  33.306  38.169  1.00  0.00     0.000 A 
ENDBRANCH  55  68
ENDBRANCH  29  30
ENDBRANCH  22  24
ENDBRANCH  21  22
ENDBRANCH  20  21
ENDBRANCH   1  20
TORSDOF 16
ENDMDL
MODEL 3
REMARK VINA RESULT:      -8.9      4.517      9.649
REMARK SMILES C=CC[N@@H+](CC(=O)OCCOC(=O)c1ccc(-c2c3nc(c(-c4ccccc4)c4ccc([nH]4)c(-c4ccccc4)c4nc(c(-c5ccccc5)c5ccc2[nH]5)C=C4)C=C3)cc1)[C@@H]1CC[N@@H+](C(C)C)C1
REMARK SMILES IDX 9 1 8 2 6 3 7 4 5 5 4 6 3 8 2 9 1 10 62 11 63 12 69 13 64 14
REMARK SMILES IDX 65 15 66 17 67 18 68 19 10 20 11 21 12 22 13 23 14 24 15 25
REMARK SMILES IDX 61 26 16 27 60 28 17 29 18 30 19 31 54 32 20 33 59 34 53 35
REMARK SMILES IDX 55 36 21 37 58 38 52 39 51 40 22 42 44 43 29 44 43 45 30 46
REMARK SMILES IDX 33 47 42 48 56 49 31 50 32 51 41 53 57 54 34 55 23 56 24 57
REMARK SMILES IDX 28 58 25 59 27 60 26 61 45 62 46 63 50 64 47 65 49 66 48 67
REMARK SMILES IDX 35 68 36 69 40 70 37 71 39 72 38 73
REMARK H PARENT 4 7 65 16 55 41 33 52
REMARK Flexibility Score: inf
ROOT
ATOM      1  C   UNL A   1      37.734  21.393  25.219  1.00  0.00     0.274 C 
ENDROOT
BRANCH   1   2
ATOM      2  O   UNL A   1      37.191  21.803  23.955  1.00  0.00    -0.458 OA
BRANCH   2   3
ATOM      3  C   UNL A   1      36.019  22.479  23.919  1.00  0.00     0.361 C 
ATOM      4  O   UNL A   1      35.701  23.262  23.032  1.00  0.00    -0.245 OA
BRANCH   3   5
ATOM      5  C   UNL A   1      35.091  22.100  25.092  1.00  0.00     0.387 C 
BRANCH   5   6
ATOM      6  N   UNL A   1      33.703  21.671  24.769  1.00  0.00    -0.315 N 
ATOM      7  H   UNL A   1      33.515  22.152  23.889  1.00  0.00     0.349 HD
BRANCH   6   8
ATOM      8  C   UNL A   1      32.736  22.163  25.754  1.00  0.00     0.291 C 
BRANCH   8   9
ATOM      9  C   UNL A   1      31.774  23.164  25.187  1.00  0.00     0.025 C 
ATOM     10  C   UNL A   1      32.139  24.137  24.341  1.00  0.00     0.010 C 
ENDBRANCH   8   9
ENDBRANCH   6   8
BRANCH   6  11
ATOM     11  C   UNL A   1      33.478  20.284  24.297  1.00  0.00     0.246 C 
ATOM     12  C   UNL A   1      32.263  19.516  24.791  1.00  0.00     0.132 C 
ATOM     13  C   UNL A   1      34.660  19.306  24.596  1.00  0.00     0.328 C 
ATOM     14  C   UNL A   1      32.827  18.536  25.788  1.00  0.00     0.269 C 
ATOM     15  N   UNL A   1      34.115  18.110  25.259  1.00  0.00    -0.328 N 
ATOM     16  H   UNL A   1      34.794  17.824  25.964  1.00  0.00     0.348 HD
BRANCH  15  17
ATOM     17  C   UNL A   1      34.048  16.833  24.537  1.00  0.00     0.177 C 
ATOM     18  C   UNL A   1      34.320  16.869  23.030  1.00  0.00     0.075 C 
ATOM     19  C   UNL A   1      34.873  15.728  25.199  1.00  0.00     0.075 C 
ENDBRANCH  15  17
ENDBRANCH   6  11
ENDBRANCH   5   6
ENDBRANCH   3   5
ENDBRANCH   2   3
ENDBRANCH   1   2
BRANCH   1  20
ATOM     20  C   UNL A   1      38.687  20.210  24.960  1.00  0.00     0.275 C 
BRANCH  20  21
ATOM     21  O   UNL A   1      39.470  19.723  26.082  1.00  0.00    -0.458 OA
BRANCH  21  22
ATOM     22  C   UNL A   1      40.818  19.771  26.022  1.00  0.00     0.338 C 
ATOM     23  O   UNL A   1      41.567  18.894  25.623  1.00  0.00    -0.246 OA
BRANCH  22  24
ATOM     24  C   UNL A   1      41.325  20.989  26.691  1.00  0.00     0.060 A 
ATOM     25  C   UNL A   1      41.770  22.014  25.852  1.00  0.00     0.016 A 
ATOM     26  C   UNL A   1      41.419  21.139  28.080  1.00  0.00     0.016 A 
ATOM     27  C   UNL A   1      42.371  23.146  26.394  1.00  0.00     0.010 A 
ATOM     28  C   UNL A   1      41.909  22.343  28.623  1.00  0.00     0.010 A 
ATOM     29  C   UNL A   1      42.381  23.365  27.783  1.00  0.00    -0.014 A 
BRANCH  29  30
ATOM     30  C   UNL A   1      42.751  24.727  28.270  1.00  0.00     0.031 A 
ATOM     31  C   UNL A   1      44.171  25.146  28.534  1.00  0.00     0.074 A 
ATOM     32  C   UNL A   1      41.758  25.635  28.394  1.00  0.00     0.049 A 
ATOM     33  N   UNL A   1      44.628  26.324  28.886  1.00  0.00    -0.248 NA
ATOM     34  C   UNL A   1      45.214  24.124  28.381  1.00  0.00     0.031 C 
ATOM     35  C   UNL A   1      40.337  25.365  28.142  1.00  0.00     0.029 A 
ATOM     36  N   UNL A   1      41.784  26.968  28.714  1.00  0.00    -0.354 N 
ATOM     37  C   UNL A   1      46.009  26.190  28.986  1.00  0.00     0.074 A 
ATOM     38  C   UNL A   1      46.313  24.808  28.674  1.00  0.00     0.031 C 
ATOM     39  C   UNL A   1      39.646  26.507  28.233  1.00  0.00     0.029 A 
ATOM     40  C   UNL A   1      40.547  27.566  28.664  1.00  0.00     0.049 A 
ATOM     41  H   UNL A   1      42.608  27.450  28.956  1.00  0.00     0.167 HD
ATOM     42  C   UNL A   1      46.932  27.127  29.319  1.00  0.00     0.031 A 
ATOM     43  C   UNL A   1      40.156  28.815  28.971  1.00  0.00     0.031 A 
ATOM     44  C   UNL A   1      46.618  28.487  29.684  1.00  0.00     0.049 A 
ATOM     45  C   UNL A   1      41.182  29.792  29.448  1.00  0.00     0.074 A 
ATOM     46  C   UNL A   1      47.481  29.500  30.071  1.00  0.00     0.029 A 
ATOM     47  N   UNL A   1      45.338  29.021  29.727  1.00  0.00    -0.354 N 
ATOM     48  N   UNL A   1      42.481  29.641  29.546  1.00  0.00    -0.248 NA
ATOM     49  C   UNL A   1      40.689  31.107  29.873  1.00  0.00     0.031 C 
ATOM     50  C   UNL A   1      46.718  30.621  30.417  1.00  0.00     0.029 A 
ATOM     51  C   UNL A   1      45.384  30.333  30.175  1.00  0.00     0.049 A 
ATOM     52  H   UNL A   1      44.517  28.540  29.475  1.00  0.00     0.167 HD
ATOM     53  C   UNL A   1      42.963  30.845  30.037  1.00  0.00     0.074 A 
ATOM     54  C   UNL A   1      41.819  31.725  30.185  1.00  0.00     0.031 C 
ATOM     55  C   UNL A   1      44.237  31.188  30.343  1.00  0.00     0.031 A 
BRANCH  42  56
ATOM     56  C   UNL A   1      48.374  26.695  29.373  1.00  0.00    -0.014 A 
ATOM     57  C   UNL A   1      49.220  26.814  28.259  1.00  0.00     0.009 A 
ATOM     58  C   UNL A   1      48.907  26.208  30.577  1.00  0.00     0.009 A 
ATOM     59  C   UNL A   1      50.561  26.427  28.344  1.00  0.00     0.001 A 
ATOM     60  C   UNL A   1      50.252  25.845  30.666  1.00  0.00     0.001 A 
ATOM     61  C   UNL A   1      51.077  25.947  29.548  1.00  0.00     0.000 A 
ENDBRANCH  42  56
BRANCH  43  62
ATOM     62  C   UNL A   1      38.714  29.174  28.908  1.00  0.00    -0.014 A 
ATOM     63  C   UNL A   1      38.132  29.638  27.720  1.00  0.00     0.009 A 
ATOM     64  C   UNL A   1      37.904  29.034  30.048  1.00  0.00     0.009 A 
ATOM     65  C   UNL A   1      36.774  29.964  27.680  1.00  0.00     0.001 A 
ATOM     66  C   UNL A   1      36.541  29.324  29.997  1.00  0.00     0.001 A 
ATOM     67  C   UNL A   1      35.979  29.798  28.814  1.00  0.00     0.000 A 
ENDBRANCH  43  62
BRANCH  55  68
ATOM     68  C   UNL A   1      44.448  32.587  30.847  1.00  0.00    -0.014 A 
ATOM     69  C   UNL A   1      44.694  33.653  29.966  1.00  0.00     0.009 A 
ATOM     70  C   UNL A   1      44.423  32.838  32.228  1.00  0.00     0.009 A 
ATOM     71  C   UNL A   1      44.964  34.930  30.460  1.00  0.00     0.001 A 
ATOM     72  C   UNL A   1      44.659  34.123  32.717  1.00  0.00     0.001 A 
ATOM     73  C   UNL A   1      44.944  35.164  31.835  1.00  0.00     0.000 A 
ENDBRANCH  55  68
ENDBRANCH  29  30
ENDBRANCH  22  24
ENDBRANCH  21  22
ENDBRANCH  20  21
ENDBRANCH   1  20
TORSDOF 16
ENDMDL
