MODEL 1
REMARK VINA RESULT:     -10.5      0.000      0.000
REMARK SMILES CC(=O)Nc1nc(C[N@@H+]2CCO[C@@H](CC(=O)OCCOC(=O)c3ccc(-c4c5nc(c(-c6ccccc6)c6ccc([nH]6)c(-c6ccccc6)c6nc(c(-c7ccccc7)c7ccc4[nH]7)C=C6)C=C5)cc3)C2)cs1
REMARK SMILES IDX 18 1 17 2 15 3 16 4 14 5 13 6 9 7 10 8 71 9 11 11 12 12 8 13
REMARK SMILES IDX 7 14 5 15 6 16 73 17 72 18 4 19 1 20 2 21 3 22 19 24 20 25
REMARK SMILES IDX 21 26 22 27 23 28 24 29 70 30 25 31 69 32 26 33 27 34 28 35
REMARK SMILES IDX 63 36 29 37 68 38 62 39 64 40 30 41 67 42 61 43 60 44 31 46
REMARK SMILES IDX 53 47 38 48 52 49 39 50 42 51 51 52 65 53 40 54 41 55 50 57
REMARK SMILES IDX 66 58 43 59 32 60 33 61 37 62 34 63 36 64 35 65 54 66 55 67
REMARK SMILES IDX 59 68 56 69 58 70 57 71 44 72 45 73 49 74 46 75 48 76 47 77
REMARK H PARENT 9 10 4 23 64 45 42 56
REMARK Flexibility Score: inf
ROOT
ATOM      1  C   UNL A   1      38.602  21.012  25.367  1.00  0.00     0.274 C 
ENDROOT
BRANCH   1   2
ATOM      2  O   UNL A   1      37.433  21.008  24.524  1.00  0.00    -0.462 OA
BRANCH   2   3
ATOM      3  C   UNL A   1      36.984  22.219  24.105  1.00  0.00     0.308 C 
ATOM      4  O   UNL A   1      37.147  22.676  22.980  1.00  0.00    -0.252 OA
BRANCH   3   5
ATOM      5  C   UNL A   1      36.336  22.992  25.217  1.00  0.00     0.160 C 
BRANCH   5   6
ATOM      6  C   UNL A   1      34.815  22.906  25.349  1.00  0.00     0.184 C 
ATOM      7  N   UNL A   1      32.903  21.491  26.278  1.00  0.00    -0.326 N 
ATOM      8  C   UNL A   1      32.561  22.637  27.115  1.00  0.00     0.291 C 
ATOM      9  C   UNL A   1      34.297  21.521  25.810  1.00  0.00     0.295 C 
ATOM     10  H   UNL A   1      32.872  20.701  26.923  1.00  0.00     0.348 HD
ATOM     11  C   UNL A   1      33.105  23.980  26.614  1.00  0.00     0.222 C 
ATOM     12  O   UNL A   1      34.504  23.913  26.345  1.00  0.00    -0.366 OA
BRANCH   7  13
ATOM     13  C   UNL A   1      31.886  20.993  25.351  1.00  0.00     0.320 C 
BRANCH  13  14
ATOM     14  C   UNL A   1      32.197  19.699  24.657  1.00  0.00     0.108 A 
ATOM     15  C   UNL A   1      32.454  17.505  24.634  1.00  0.00     0.189 A 
ATOM     16  N   UNL A   1      32.091  18.514  25.379  1.00  0.00    -0.219 NA
ATOM     17  S   UNL A   1      32.883  17.863  23.026  1.00  0.00    -0.105 S 
ATOM     18  C   UNL A   1      32.460  19.500  23.312  1.00  0.00     0.098 A 
BRANCH  15  19
ATOM     19  N   UNL A   1      32.529  16.183  24.949  1.00  0.00    -0.302 N 
ATOM     20  C   UNL A   1      34.981  16.202  25.371  1.00  0.00     0.114 C 
ATOM     21  C   UNL A   1      33.664  15.490  25.230  1.00  0.00     0.223 C 
ATOM     22  O   UNL A   1      33.592  14.270  25.409  1.00  0.00    -0.275 OA
ATOM     23  H   UNL A   1      31.681  15.683  24.975  1.00  0.00     0.172 HD
ENDBRANCH  15  19
ENDBRANCH  13  14
ENDBRANCH   7  13
ENDBRANCH   5   6
ENDBRANCH   3   5
ENDBRANCH   2   3
ENDBRANCH   1   2
BRANCH   1  24
ATOM     24  C   UNL A   1      39.288  19.642  25.440  1.00  0.00     0.275 C 
BRANCH  24  25
ATOM     25  O   UNL A   1      40.266  19.564  26.497  1.00  0.00    -0.458 OA
BRANCH  25  26
ATOM     26  C   UNL A   1      41.529  19.842  26.108  1.00  0.00     0.338 C 
ATOM     27  O   UNL A   1      42.229  19.146  25.383  1.00  0.00    -0.246 OA
BRANCH  26  28
ATOM     28  C   UNL A   1      41.980  21.162  26.570  1.00  0.00     0.060 A 
ATOM     29  C   UNL A   1      41.897  21.432  27.942  1.00  0.00     0.016 A 
ATOM     30  C   UNL A   1      42.374  22.159  25.674  1.00  0.00     0.016 A 
ATOM     31  C   UNL A   1      42.190  22.704  28.423  1.00  0.00     0.010 A 
ATOM     32  C   UNL A   1      42.666  23.438  26.159  1.00  0.00     0.010 A 
ATOM     33  C   UNL A   1      42.563  23.718  27.532  1.00  0.00    -0.014 A 
BRANCH  33  34
ATOM     34  C   UNL A   1      42.876  25.068  28.051  1.00  0.00     0.031 A 
ATOM     35  C   UNL A   1      44.277  25.443  28.427  1.00  0.00     0.074 A 
ATOM     36  C   UNL A   1      41.880  25.962  28.171  1.00  0.00     0.049 A 
ATOM     37  N   UNL A   1      44.746  26.596  28.834  1.00  0.00    -0.248 NA
ATOM     38  C   UNL A   1      45.291  24.389  28.317  1.00  0.00     0.031 C 
ATOM     39  C   UNL A   1      40.481  25.718  27.820  1.00  0.00     0.029 A 
ATOM     40  N   UNL A   1      41.895  27.251  28.635  1.00  0.00    -0.354 N 
ATOM     41  C   UNL A   1      46.111  26.409  29.007  1.00  0.00     0.074 A 
ATOM     42  C   UNL A   1      46.395  25.028  28.678  1.00  0.00     0.031 C 
ATOM     43  C   UNL A   1      39.765  26.817  28.103  1.00  0.00     0.029 A 
ATOM     44  C   UNL A   1      40.650  27.826  28.676  1.00  0.00     0.049 A 
ATOM     45  H   UNL A   1      42.716  27.717  28.911  1.00  0.00     0.167 HD
ATOM     46  C   UNL A   1      47.040  27.304  29.418  1.00  0.00     0.031 A 
ATOM     47  C   UNL A   1      40.264  29.025  29.148  1.00  0.00     0.031 A 
ATOM     48  C   UNL A   1      46.740  28.649  29.828  1.00  0.00     0.049 A 
ATOM     49  C   UNL A   1      41.298  29.966  29.696  1.00  0.00     0.074 A 
ATOM     50  C   UNL A   1      47.610  29.637  30.256  1.00  0.00     0.029 A 
ATOM     51  N   UNL A   1      45.463  29.181  29.900  1.00  0.00    -0.354 N 
ATOM     52  N   UNL A   1      42.596  29.804  29.782  1.00  0.00    -0.248 NA
ATOM     53  C   UNL A   1      40.813  31.257  30.200  1.00  0.00     0.031 C 
ATOM     54  C   UNL A   1      46.851  30.747  30.644  1.00  0.00     0.029 A 
ATOM     55  C   UNL A   1      45.514  30.469  30.406  1.00  0.00     0.049 A 
ATOM     56  H   UNL A   1      44.639  28.713  29.632  1.00  0.00     0.167 HD
ATOM     57  C   UNL A   1      43.088  30.979  30.335  1.00  0.00     0.074 A 
ATOM     58  C   UNL A   1      41.947  31.848  30.551  1.00  0.00     0.031 C 
ATOM     59  C   UNL A   1      44.368  31.310  30.632  1.00  0.00     0.031 A 
BRANCH  46  60
ATOM     60  C   UNL A   1      48.466  26.835  29.492  1.00  0.00    -0.014 A 
ATOM     61  C   UNL A   1      48.965  26.215  30.649  1.00  0.00     0.009 A 
ATOM     62  C   UNL A   1      49.308  26.982  28.380  1.00  0.00     0.009 A 
ATOM     63  C   UNL A   1      50.290  25.771  30.695  1.00  0.00     0.001 A 
ATOM     64  C   UNL A   1      50.625  26.520  28.424  1.00  0.00     0.001 A 
ATOM     65  C   UNL A   1      51.117  25.921  29.583  1.00  0.00     0.000 A 
ENDBRANCH  46  60
BRANCH  47  66
ATOM     66  C   UNL A   1      38.824  29.376  29.144  1.00  0.00    -0.014 A 
ATOM     67  C   UNL A   1      38.222  29.930  28.006  1.00  0.00     0.009 A 
ATOM     68  C   UNL A   1      38.034  29.121  30.278  1.00  0.00     0.009 A 
ATOM     69  C   UNL A   1      36.859  30.231  28.008  1.00  0.00     0.001 A 
ATOM     70  C   UNL A   1      36.668  29.401  30.268  1.00  0.00     0.001 A 
ATOM     71  C   UNL A   1      36.082  29.960  29.135  1.00  0.00     0.000 A 
ENDBRANCH  47  66
BRANCH  59  72
ATOM     72  C   UNL A   1      44.601  32.675  31.210  1.00  0.00    -0.014 A 
ATOM     73  C   UNL A   1      44.678  32.872  32.597  1.00  0.00     0.009 A 
ATOM     74  C   UNL A   1      44.775  33.773  30.354  1.00  0.00     0.009 A 
ATOM     75  C   UNL A   1      44.894  34.150  33.116  1.00  0.00     0.001 A 
ATOM     76  C   UNL A   1      45.017  35.045  30.875  1.00  0.00     0.001 A 
ATOM     77  C   UNL A   1      45.067  35.234  32.255  1.00  0.00     0.000 A 
ENDBRANCH  59  72
ENDBRANCH  33  34
ENDBRANCH  26  28
ENDBRANCH  25  26
ENDBRANCH  24  25
ENDBRANCH   1  24
TORSDOF 15
ENDMDL
MODEL 2
REMARK VINA RESULT:     -10.4      5.116      9.974
REMARK SMILES CC(=O)Nc1nc(C[N@@H+]2CCO[C@@H](CC(=O)OCCOC(=O)c3ccc(-c4c5nc(c(-c6ccccc6)c6ccc([nH]6)c(-c6ccccc6)c6nc(c(-c7ccccc7)c7ccc4[nH]7)C=C6)C=C5)cc3)C2)cs1
REMARK SMILES IDX 18 1 17 2 15 3 16 4 14 5 13 6 9 7 10 8 71 9 11 11 12 12 8 13
REMARK SMILES IDX 7 14 5 15 6 16 73 17 72 18 4 19 1 20 2 21 3 22 19 24 20 25
REMARK SMILES IDX 21 26 22 27 23 28 24 29 70 30 25 31 69 32 26 33 27 34 28 35
REMARK SMILES IDX 63 36 29 37 68 38 62 39 64 40 30 41 67 42 61 43 60 44 31 46
REMARK SMILES IDX 53 47 38 48 52 49 39 50 42 51 51 52 65 53 40 54 41 55 50 57
REMARK SMILES IDX 66 58 43 59 32 60 33 61 37 62 34 63 36 64 35 65 54 66 55 67
REMARK SMILES IDX 59 68 56 69 58 70 57 71 44 72 45 73 49 74 46 75 48 76 47 77
REMARK H PARENT 9 10 4 23 64 45 42 56
REMARK Flexibility Score: inf
ROOT
ATOM      1  C   UNL A   1      32.929  31.409  26.879  1.00  0.00     0.274 C 
ENDROOT
BRANCH   1   2
ATOM      2  O   UNL A   1      32.538  30.157  27.478  1.00  0.00    -0.462 OA
BRANCH   2   3
ATOM      3  C   UNL A   1      33.376  29.106  27.287  1.00  0.00     0.308 C 
ATOM      4  O   UNL A   1      34.595  29.189  27.198  1.00  0.00    -0.252 OA
BRANCH   3   5
ATOM      5  C   UNL A   1      32.627  27.819  27.097  1.00  0.00     0.160 C 
BRANCH   5   6
ATOM      6  C   UNL A   1      32.464  27.298  25.668  1.00  0.00     0.184 C 
ATOM      7  N   UNL A   1      32.034  28.005  23.252  1.00  0.00    -0.326 N 
ATOM      8  C   UNL A   1      33.344  27.446  22.934  1.00  0.00     0.291 C 
ATOM      9  C   UNL A   1      31.885  28.338  24.677  1.00  0.00     0.295 C 
ATOM     10  H   UNL A   1      32.034  28.909  22.782  1.00  0.00     0.348 HD
ATOM     11  C   UNL A   1      33.870  26.428  23.953  1.00  0.00     0.222 C 
ATOM     12  O   UNL A   1      33.815  26.938  25.283  1.00  0.00    -0.366 OA
BRANCH   7  13
ATOM     13  C   UNL A   1      30.869  27.454  22.559  1.00  0.00     0.320 C 
BRANCH  13  14
ATOM     14  C   UNL A   1      29.645  28.322  22.522  1.00  0.00     0.108 A 
ATOM     15  C   UNL A   1      28.522  30.089  21.819  1.00  0.00     0.189 A 
ATOM     16  N   UNL A   1      29.637  29.424  21.673  1.00  0.00    -0.219 NA
ATOM     17  S   UNL A   1      27.386  29.440  22.908  1.00  0.00    -0.105 S 
ATOM     18  C   UNL A   1      28.428  28.098  23.144  1.00  0.00     0.098 A 
BRANCH  15  19
ATOM     19  N   UNL A   1      28.117  31.236  21.210  1.00  0.00    -0.302 N 
ATOM     20  C   UNL A   1      28.829  32.729  23.068  1.00  0.00     0.114 C 
ATOM     21  C   UNL A   1      28.156  32.485  21.746  1.00  0.00     0.223 C 
ATOM     22  O   UNL A   1      27.667  33.425  21.112  1.00  0.00    -0.275 OA
ATOM     23  H   UNL A   1      27.760  31.154  20.295  1.00  0.00     0.172 HD
ENDBRANCH  15  19
ENDBRANCH  13  14
ENDBRANCH   7  13
ENDBRANCH   5   6
ENDBRANCH   3   5
ENDBRANCH   2   3
ENDBRANCH   1   2
BRANCH   1  24
ATOM     24  C   UNL A   1      32.159  32.607  27.449  1.00  0.00     0.275 C 
BRANCH  24  25
ATOM     25  O   UNL A   1      32.925  33.828  27.416  1.00  0.00    -0.458 OA
BRANCH  25  26
ATOM     26  C   UNL A   1      33.237  34.324  28.632  1.00  0.00     0.338 C 
ATOM     27  O   UNL A   1      32.534  35.065  29.310  1.00  0.00    -0.246 OA
BRANCH  26  28
ATOM     28  C   UNL A   1      34.507  33.794  29.145  1.00  0.00     0.060 A 
ATOM     29  C   UNL A   1      35.672  34.094  28.426  1.00  0.00     0.016 A 
ATOM     30  C   UNL A   1      34.555  32.932  30.243  1.00  0.00     0.016 A 
ATOM     31  C   UNL A   1      36.885  33.518  28.789  1.00  0.00     0.010 A 
ATOM     32  C   UNL A   1      35.775  32.353  30.605  1.00  0.00     0.010 A 
ATOM     33  C   UNL A   1      36.941  32.633  29.873  1.00  0.00    -0.014 A 
BRANCH  33  34
ATOM     34  C   UNL A   1      38.235  32.028  30.256  1.00  0.00     0.031 A 
ATOM     35  C   UNL A   1      39.187  32.751  31.161  1.00  0.00     0.074 A 
ATOM     36  C   UNL A   1      38.543  30.808  29.786  1.00  0.00     0.049 A 
ATOM     37  N   UNL A   1      40.331  32.346  31.654  1.00  0.00    -0.248 NA
ATOM     38  C   UNL A   1      38.795  34.100  31.582  1.00  0.00     0.031 C 
ATOM     39  C   UNL A   1      37.690  30.001  28.913  1.00  0.00     0.029 A 
ATOM     40  N   UNL A   1      39.665  30.042  29.967  1.00  0.00    -0.354 N 
ATOM     41  C   UNL A   1      40.782  33.384  32.458  1.00  0.00     0.074 A 
ATOM     42  C   UNL A   1      39.800  34.444  32.376  1.00  0.00     0.031 C 
ATOM     43  C   UNL A   1      38.330  28.859  28.616  1.00  0.00     0.029 A 
ATOM     44  C   UNL A   1      39.642  28.871  29.255  1.00  0.00     0.049 A 
ATOM     45  H   UNL A   1      40.411  30.307  30.551  1.00  0.00     0.167 HD
ATOM     46  C   UNL A   1      41.921  33.453  33.187  1.00  0.00     0.031 A 
ATOM     47  C   UNL A   1      40.587  27.923  29.114  1.00  0.00     0.031 A 
ATOM     48  C   UNL A   1      42.937  32.434  33.196  1.00  0.00     0.049 A 
ATOM     49  C   UNL A   1      41.887  28.067  29.851  1.00  0.00     0.074 A 
ATOM     50  C   UNL A   1      44.125  32.404  33.905  1.00  0.00     0.029 A 
ATOM     51  N   UNL A   1      42.901  31.283  32.427  1.00  0.00    -0.354 N 
ATOM     52  N   UNL A   1      42.269  29.017  30.669  1.00  0.00    -0.248 NA
ATOM     53  C   UNL A   1      42.879  27.003  29.652  1.00  0.00     0.031 C 
ATOM     54  C   UNL A   1      44.835  31.262  33.517  1.00  0.00     0.029 A 
ATOM     55  C   UNL A   1      44.064  30.555  32.609  1.00  0.00     0.049 A 
ATOM     56  H   UNL A   1      42.157  31.021  31.837  1.00  0.00     0.167 HD
ATOM     57  C   UNL A   1      43.540  28.659  31.098  1.00  0.00     0.074 A 
ATOM     58  C   UNL A   1      43.856  27.397  30.457  1.00  0.00     0.031 C 
ATOM     59  C   UNL A   1      44.368  29.313  31.948  1.00  0.00     0.031 A 
BRANCH  46  60
ATOM     60  C   UNL A   1      42.150  34.698  33.996  1.00  0.00    -0.014 A 
ATOM     61  C   UNL A   1      41.763  34.768  35.344  1.00  0.00     0.009 A 
ATOM     62  C   UNL A   1      42.794  35.800  33.414  1.00  0.00     0.009 A 
ATOM     63  C   UNL A   1      41.998  35.929  36.086  1.00  0.00     0.001 A 
ATOM     64  C   UNL A   1      43.043  36.951  34.164  1.00  0.00     0.001 A 
ATOM     65  C   UNL A   1      42.640  37.017  35.497  1.00  0.00     0.000 A 
ENDBRANCH  46  60
BRANCH  47  66
ATOM     66  C   UNL A   1      40.333  26.775  28.211  1.00  0.00    -0.014 A 
ATOM     67  C   UNL A   1      39.566  25.682  28.636  1.00  0.00     0.009 A 
ATOM     68  C   UNL A   1      40.833  26.790  26.897  1.00  0.00     0.009 A 
ATOM     69  C   UNL A   1      39.313  24.620  27.765  1.00  0.00     0.001 A 
ATOM     70  C   UNL A   1      40.558  25.738  26.023  1.00  0.00     0.001 A 
ATOM     71  C   UNL A   1      39.802  24.652  26.459  1.00  0.00     0.000 A 
ENDBRANCH  47  66
BRANCH  59  72
ATOM     72  C   UNL A   1      45.690  28.664  32.243  1.00  0.00    -0.014 A 
ATOM     73  C   UNL A   1      45.820  27.720  33.273  1.00  0.00     0.009 A 
ATOM     74  C   UNL A   1      46.811  28.981  31.461  1.00  0.00     0.009 A 
ATOM     75  C   UNL A   1      47.057  27.128  33.533  1.00  0.00     0.001 A 
ATOM     76  C   UNL A   1      48.040  28.369  31.708  1.00  0.00     0.001 A 
ATOM     77  C   UNL A   1      48.165  27.450  32.748  1.00  0.00     0.000 A 
ENDBRANCH  59  72
ENDBRANCH  33  34
ENDBRANCH  26  28
ENDBRANCH  25  26
ENDBRANCH  24  25
ENDBRANCH   1  24
TORSDOF 15
ENDMDL
MODEL 3
REMARK VINA RESULT:     -10.4      5.887     10.141
REMARK SMILES CC(=O)Nc1nc(C[N@@H+]2CCO[C@@H](CC(=O)OCCOC(=O)c3ccc(-c4c5nc(c(-c6ccccc6)c6ccc([nH]6)c(-c6ccccc6)c6nc(c(-c7ccccc7)c7ccc4[nH]7)C=C6)C=C5)cc3)C2)cs1
REMARK SMILES IDX 18 1 17 2 15 3 16 4 14 5 13 6 9 7 10 8 71 9 11 11 12 12 8 13
REMARK SMILES IDX 7 14 5 15 6 16 73 17 72 18 4 19 1 20 2 21 3 22 19 24 20 25
REMARK SMILES IDX 21 26 22 27 23 28 24 29 70 30 25 31 69 32 26 33 27 34 28 35
REMARK SMILES IDX 63 36 29 37 68 38 62 39 64 40 30 41 67 42 61 43 60 44 31 46
REMARK SMILES IDX 53 47 38 48 52 49 39 50 42 51 51 52 65 53 40 54 41 55 50 57
REMARK SMILES IDX 66 58 43 59 32 60 33 61 37 62 34 63 36 64 35 65 54 66 55 67
REMARK SMILES IDX 59 68 56 69 58 70 57 71 44 72 45 73 49 74 46 75 48 76 47 77
REMARK H PARENT 9 10 4 23 64 45 42 56
REMARK Flexibility Score: inf
ROOT
ATOM      1  C   UNL A   1      31.800  31.647  26.477  1.00  0.00     0.274 C 
ENDROOT
BRANCH   1   2
ATOM      2  O   UNL A   1      32.111  30.681  27.502  1.00  0.00    -0.462 OA
BRANCH   2   3
ATOM      3  C   UNL A   1      33.097  29.791  27.216  1.00  0.00     0.308 C 
ATOM      4  O   UNL A   1      34.259  30.089  26.968  1.00  0.00    -0.252 OA
BRANCH   3   5
ATOM      5  C   UNL A   1      32.578  28.384  27.143  1.00  0.00     0.160 C 
BRANCH   5   6
ATOM      6  C   UNL A   1      32.470  27.740  25.760  1.00  0.00     0.184 C 
ATOM      7  N   UNL A   1      32.144  28.232  23.276  1.00  0.00    -0.326 N 
ATOM      8  C   UNL A   1      33.462  27.643  23.063  1.00  0.00     0.291 C 
ATOM      9  C   UNL A   1      31.940  28.690  24.658  1.00  0.00     0.295 C 
ATOM     10  H   UNL A   1      32.170  29.091  22.728  1.00  0.00     0.348 HD
ATOM     11  C   UNL A   1      33.939  26.717  24.188  1.00  0.00     0.222 C 
ATOM     12  O   UNL A   1      33.833  27.342  25.464  1.00  0.00    -0.366 OA
BRANCH   7  13
ATOM     13  C   UNL A   1      31.004  27.626  22.586  1.00  0.00     0.320 C 
BRANCH  13  14
ATOM     14  C   UNL A   1      29.756  28.456  22.510  1.00  0.00     0.108 A 
ATOM     15  C   UNL A   1      28.588  30.164  21.738  1.00  0.00     0.189 A 
ATOM     16  N   UNL A   1      29.723  29.528  21.623  1.00  0.00    -0.219 NA
ATOM     17  S   UNL A   1      27.462  29.519  22.839  1.00  0.00    -0.105 S 
ATOM     18  C   UNL A   1      28.540  28.217  23.129  1.00  0.00     0.098 A 
BRANCH  15  19
ATOM     19  N   UNL A   1      28.154  31.277  21.086  1.00  0.00    -0.302 N 
ATOM     20  C   UNL A   1      28.796  32.852  22.902  1.00  0.00     0.114 C 
ATOM     21  C   UNL A   1      28.147  32.543  21.581  1.00  0.00     0.223 C 
ATOM     22  O   UNL A   1      27.638  33.446  20.910  1.00  0.00    -0.275 OA
ATOM     23  H   UNL A   1      27.812  31.153  20.171  1.00  0.00     0.172 HD
ENDBRANCH  15  19
ENDBRANCH  13  14
ENDBRANCH   7  13
ENDBRANCH   5   6
ENDBRANCH   3   5
ENDBRANCH   2   3
ENDBRANCH   1   2
BRANCH   1  24
ATOM     24  C   UNL A   1      31.727  33.081  27.015  1.00  0.00     0.275 C 
BRANCH  24  25
ATOM     25  O   UNL A   1      33.024  33.703  27.120  1.00  0.00    -0.458 OA
BRANCH  25  26
ATOM     26  C   UNL A   1      33.250  34.323  28.298  1.00  0.00     0.338 C 
ATOM     27  O   UNL A   1      32.587  35.239  28.770  1.00  0.00    -0.246 OA
BRANCH  26  28
ATOM     28  C   UNL A   1      34.352  33.709  29.052  1.00  0.00     0.060 A 
ATOM     29  C   UNL A   1      35.655  34.132  28.755  1.00  0.00     0.016 A 
ATOM     30  C   UNL A   1      34.135  32.664  29.952  1.00  0.00     0.016 A 
ATOM     31  C   UNL A   1      36.746  33.501  29.344  1.00  0.00     0.010 A 
ATOM     32  C   UNL A   1      35.233  32.029  30.541  1.00  0.00     0.010 A 
ATOM     33  C   UNL A   1      36.541  32.436  30.230  1.00  0.00    -0.014 A 
BRANCH  33  34
ATOM     34  C   UNL A   1      37.706  31.772  30.854  1.00  0.00     0.031 A 
ATOM     35  C   UNL A   1      38.454  30.690  30.135  1.00  0.00     0.074 A 
ATOM     36  C   UNL A   1      38.094  32.162  32.080  1.00  0.00     0.049 A 
ATOM     37  N   UNL A   1      39.535  30.047  30.499  1.00  0.00    -0.248 NA
ATOM     38  C   UNL A   1      37.929  30.288  28.825  1.00  0.00     0.031 C 
ATOM     39  C   UNL A   1      37.456  33.216  32.870  1.00  0.00     0.029 A 
ATOM     40  N   UNL A   1      39.110  31.707  32.878  1.00  0.00    -0.354 N 
ATOM     41  C   UNL A   1      39.828  29.181  29.453  1.00  0.00     0.074 A 
ATOM     42  C   UNL A   1      38.804  29.367  28.447  1.00  0.00     0.031 C 
ATOM     43  C   UNL A   1      38.083  33.311  34.053  1.00  0.00     0.029 A 
ATOM     44  C   UNL A   1      39.144  32.310  34.108  1.00  0.00     0.049 A 
ATOM     45  H   UNL A   1      39.750  31.015  32.595  1.00  0.00     0.167 HD
ATOM     46  C   UNL A   1      40.850  28.299  29.349  1.00  0.00     0.031 A 
ATOM     47  C   UNL A   1      39.930  32.065  35.173  1.00  0.00     0.031 A 
ATOM     48  C   UNL A   1      41.814  28.054  30.388  1.00  0.00     0.049 A 
ATOM     49  C   UNL A   1      40.993  31.010  35.073  1.00  0.00     0.074 A 
ATOM     50  C   UNL A   1      42.892  27.186  30.380  1.00  0.00     0.029 A 
ATOM     51  N   UNL A   1      41.790  28.651  31.638  1.00  0.00    -0.354 N 
ATOM     52  N   UNL A   1      41.308  30.252  34.051  1.00  0.00    -0.248 NA
ATOM     53  C   UNL A   1      41.814  30.786  36.270  1.00  0.00     0.031 C 
ATOM     54  C   UNL A   1      43.483  27.214  31.648  1.00  0.00     0.029 A 
ATOM     55  C   UNL A   1      42.807  28.140  32.426  1.00  0.00     0.049 A 
ATOM     56  H   UNL A   1      41.144  29.337  31.924  1.00  0.00     0.167 HD
ATOM     57  C   UNL A   1      42.376  29.472  34.474  1.00  0.00     0.074 A 
ATOM     58  C   UNL A   1      42.661  29.859  35.843  1.00  0.00     0.031 C 
ATOM     59  C   UNL A   1      43.061  28.523  33.790  1.00  0.00     0.031 A 
BRANCH  46  60
ATOM     60  C   UNL A   1      40.944  27.496  28.083  1.00  0.00    -0.014 A 
ATOM     61  C   UNL A   1      41.686  27.960  26.985  1.00  0.00     0.009 A 
ATOM     62  C   UNL A   1      40.314  26.246  27.999  1.00  0.00     0.009 A 
ATOM     63  C   UNL A   1      41.777  27.193  25.820  1.00  0.00     0.001 A 
ATOM     64  C   UNL A   1      40.422  25.475  26.840  1.00  0.00     0.001 A 
ATOM     65  C   UNL A   1      41.148  25.951  25.749  1.00  0.00     0.000 A 
ENDBRANCH  46  60
BRANCH  47  66
ATOM     66  C   UNL A   1      39.706  32.821  36.429  1.00  0.00    -0.014 A 
ATOM     67  C   UNL A   1      40.422  33.996  36.698  1.00  0.00     0.009 A 
ATOM     68  C   UNL A   1      38.740  32.383  37.351  1.00  0.00     0.009 A 
ATOM     69  C   UNL A   1      40.181  34.712  37.872  1.00  0.00     0.001 A 
ATOM     70  C   UNL A   1      38.487  33.114  38.511  1.00  0.00     0.001 A 
ATOM     71  C   UNL A   1      39.210  34.276  38.773  1.00  0.00     0.000 A 
ENDBRANCH  47  66
BRANCH  59  72
ATOM     72  C   UNL A   1      44.195  27.852  34.510  1.00  0.00    -0.014 A 
ATOM     73  C   UNL A   1      45.529  28.122  34.173  1.00  0.00     0.009 A 
ATOM     74  C   UNL A   1      43.922  26.960  35.559  1.00  0.00     0.009 A 
ATOM     75  C   UNL A   1      46.570  27.487  34.853  1.00  0.00     0.001 A 
ATOM     76  C   UNL A   1      44.965  26.346  36.254  1.00  0.00     0.001 A 
ATOM     77  C   UNL A   1      46.287  26.603  35.895  1.00  0.00     0.000 A 
ENDBRANCH  59  72
ENDBRANCH  33  34
ENDBRANCH  26  28
ENDBRANCH  25  26
ENDBRANCH  24  25
ENDBRANCH   1  24
TORSDOF 15
ENDMDL
