MODEL 1
REMARK VINA RESULT:     -11.3      0.000      0.000
REMARK SMILES C[C@H](NC(=O)c1c(C(=O)OCCOC(=O)c2ccc(-c3c4nc(c(-c5ccccc5)c5ccc([nH]5)c(-c5ccccc5)c5nc(c(-c6ccccc6)c6ccc3[nH]6)C=C5)C=C4)cc2)cnn1C)[C@]12C[C@H]3C[C@H](C[C@H](C3)C1)C2
REMARK SMILES IDX 11 1 10 2 8 3 9 4 7 5 6 6 66 7 64 8 65 9 67 10 4 11 3 12
REMARK SMILES IDX 5 14 2 15 1 16 68 17 69 18 76 19 77 20 70 21 74 22 72 23
REMARK SMILES IDX 71 24 75 25 73 26 12 27 13 28 14 29 15 30 16 31 17 32 63 33
REMARK SMILES IDX 18 34 62 35 19 36 20 37 21 38 56 39 22 40 61 41 55 42 57 43
REMARK SMILES IDX 23 44 60 45 54 46 53 47 24 49 46 50 31 51 45 52 32 53 35 54
REMARK SMILES IDX 44 55 58 56 33 57 34 58 43 60 59 61 36 62 25 63 26 64 30 65
REMARK SMILES IDX 27 66 29 67 28 68 47 69 48 70 52 71 49 72 51 73 50 74 37 75
REMARK SMILES IDX 38 76 42 77 39 78 41 79 40 80
REMARK H PARENT 3 13 57 48 35 59
REMARK Flexibility Score: inf
ROOT
ATOM      1  C   UNL A   1      32.000  30.142  25.767  1.00  0.00     0.275 C 
ENDROOT
BRANCH   1   2
ATOM      2  O   UNL A   1      33.112  29.662  24.986  1.00  0.00    -0.458 OA
BRANCH   2   3
ATOM      3  C   UNL A   1      33.119  28.316  24.768  1.00  0.00     0.342 C 
ATOM      4  O   UNL A   1      34.023  27.572  25.117  1.00  0.00    -0.246 OA
BRANCH   3   5
ATOM      5  C   UNL A   1      31.932  27.795  24.112  1.00  0.00     0.111 A 
ATOM      6  C   UNL A   1      30.982  26.867  24.536  1.00  0.00     0.140 A 
ATOM      7  N   UNL A   1      29.955  27.009  23.626  1.00  0.00    -0.262 N 
ATOM      8  C   UNL A   1      31.471  28.224  22.846  1.00  0.00     0.151 A 
ATOM      9  N   UNL A   1      30.304  27.680  22.513  1.00  0.00    -0.180 NA
ATOM     10  C   UNL A   1      28.560  26.661  23.776  1.00  0.00     0.174 C 
BRANCH   6  11
ATOM     11  C   UNL A   1      30.901  26.163  25.787  1.00  0.00     0.270 C 
ATOM     12  N   UNL A   1      31.024  24.798  25.869  1.00  0.00    -0.348 N 
ATOM     13  H   UNL A   1      30.801  24.473  26.772  1.00  0.00     0.164 HD
ATOM     14  O   UNL A   1      30.679  26.762  26.839  1.00  0.00    -0.267 OA
BRANCH  12  15
ATOM     15  C   UNL A   1      31.398  23.682  24.972  1.00  0.00     0.085 C 
ATOM     16  C   UNL A   1      30.752  23.687  23.591  1.00  0.00     0.031 C 
BRANCH  15  17
ATOM     17  C   UNL A   1      32.957  23.391  24.963  1.00  0.00    -0.009 C 
ATOM     18  C   UNL A   1      33.774  24.420  24.134  1.00  0.00     0.012 C 
ATOM     19  C   UNL A   1      33.277  21.972  24.402  1.00  0.00     0.012 C 
ATOM     20  C   UNL A   1      33.499  23.442  26.425  1.00  0.00     0.012 C 
ATOM     21  C   UNL A   1      35.285  24.099  24.185  1.00  0.00    -0.010 C 
ATOM     22  C   UNL A   1      34.776  21.654  24.449  1.00  0.00    -0.010 C 
ATOM     23  C   UNL A   1      35.002  23.109  26.483  1.00  0.00    -0.010 C 
ATOM     24  C   UNL A   1      35.776  24.135  25.643  1.00  0.00     0.007 C 
ATOM     25  C   UNL A   1      35.532  22.696  23.614  1.00  0.00     0.007 C 
ATOM     26  C   UNL A   1      35.243  21.705  25.909  1.00  0.00     0.007 C 
ENDBRANCH  15  17
ENDBRANCH  12  15
ENDBRANCH   6  11
ENDBRANCH   3   5
ENDBRANCH   2   3
ENDBRANCH   1   2
BRANCH   1  27
ATOM     27  C   UNL A   1      32.420  30.596  27.167  1.00  0.00     0.275 C 
BRANCH  27  28
ATOM     28  O   UNL A   1      33.657  29.983  27.580  1.00  0.00    -0.458 OA
BRANCH  28  29
ATOM     29  C   UNL A   1      34.564  30.827  28.122  1.00  0.00     0.338 C 
ATOM     30  O   UNL A   1      34.372  31.955  28.545  1.00  0.00    -0.246 OA
BRANCH  29  31
ATOM     31  C   UNL A   1      35.860  30.148  28.260  1.00  0.00     0.060 A 
ATOM     32  C   UNL A   1      36.161  29.579  29.495  1.00  0.00     0.016 A 
ATOM     33  C   UNL A   1      36.825  30.197  27.254  1.00  0.00     0.016 A 
ATOM     34  C   UNL A   1      37.431  29.074  29.750  1.00  0.00     0.010 A 
ATOM     35  C   UNL A   1      38.098  29.662  27.500  1.00  0.00     0.010 A 
ATOM     36  C   UNL A   1      38.418  29.116  28.759  1.00  0.00    -0.014 A 
BRANCH  36  37
ATOM     37  C   UNL A   1      39.794  28.655  29.079  1.00  0.00     0.031 A 
ATOM     38  C   UNL A   1      40.726  29.542  29.857  1.00  0.00     0.074 A 
ATOM     39  C   UNL A   1      40.196  27.420  28.721  1.00  0.00     0.049 A 
ATOM     40  N   UNL A   1      41.987  29.358  30.157  1.00  0.00    -0.248 NA
ATOM     41  C   UNL A   1      40.165  30.805  30.361  1.00  0.00     0.031 C 
ATOM     42  C   UNL A   1      39.374  26.431  28.022  1.00  0.00     0.029 A 
ATOM     43  N   UNL A   1      41.398  26.783  28.908  1.00  0.00    -0.354 N 
ATOM     44  C   UNL A   1      42.382  30.499  30.847  1.00  0.00     0.074 A 
ATOM     45  C   UNL A   1      41.229  31.372  30.909  1.00  0.00     0.031 C 
ATOM     46  C   UNL A   1      40.086  25.305  27.861  1.00  0.00     0.029 A 
ATOM     47  C   UNL A   1      41.434  25.515  28.381  1.00  0.00     0.049 A 
ATOM     48  H   UNL A   1      42.160  27.195  29.375  1.00  0.00     0.167 HD
ATOM     49  C   UNL A   1      43.593  30.793  31.377  1.00  0.00     0.031 A 
ATOM     50  C   UNL A   1      42.445  24.631  28.291  1.00  0.00     0.031 A 
ATOM     51  C   UNL A   1      44.734  29.916  31.331  1.00  0.00     0.049 A 
ATOM     52  C   UNL A   1      43.797  25.001  28.833  1.00  0.00     0.074 A 
ATOM     53  C   UNL A   1      46.003  30.121  31.847  1.00  0.00     0.029 A 
ATOM     54  N   UNL A   1      44.742  28.661  30.742  1.00  0.00    -0.354 N 
ATOM     55  N   UNL A   1      44.167  26.098  29.447  1.00  0.00    -0.248 NA
ATOM     56  C   UNL A   1      44.871  24.014  28.659  1.00  0.00     0.031 C 
ATOM     57  C   UNL A   1      46.792  29.012  31.523  1.00  0.00     0.029 A 
ATOM     58  C   UNL A   1      46.000  28.091  30.858  1.00  0.00     0.049 A 
ATOM     59  H   UNL A   1      43.968  28.237  30.304  1.00  0.00     0.167 HD
ATOM     60  C   UNL A   1      45.513  25.930  29.744  1.00  0.00     0.074 A 
ATOM     61  C   UNL A   1      45.888  24.616  29.261  1.00  0.00     0.031 C 
ATOM     62  C   UNL A   1      46.361  26.788  30.361  1.00  0.00     0.031 A 
BRANCH  49  63
ATOM     63  C   UNL A   1      43.758  32.150  32.003  1.00  0.00    -0.014 A 
ATOM     64  C   UNL A   1      44.148  33.270  31.251  1.00  0.00     0.009 A 
ATOM     65  C   UNL A   1      43.509  32.311  33.376  1.00  0.00     0.009 A 
ATOM     66  C   UNL A   1      44.330  34.509  31.870  1.00  0.00     0.001 A 
ATOM     67  C   UNL A   1      43.662  33.557  33.986  1.00  0.00     0.001 A 
ATOM     68  C   UNL A   1      44.084  34.653  33.235  1.00  0.00     0.000 A 
ENDBRANCH  49  63
BRANCH  50  69
ATOM     69  C   UNL A   1      42.222  23.326  27.617  1.00  0.00    -0.014 A 
ATOM     70  C   UNL A   1      41.618  22.259  28.299  1.00  0.00     0.009 A 
ATOM     71  C   UNL A   1      42.594  23.150  26.274  1.00  0.00     0.009 A 
ATOM     72  C   UNL A   1      41.399  21.041  27.650  1.00  0.00     0.001 A 
ATOM     73  C   UNL A   1      42.348  21.942  25.620  1.00  0.00     0.001 A 
ATOM     74  C   UNL A   1      41.755  20.887  26.310  1.00  0.00     0.000 A 
ENDBRANCH  50  69
BRANCH  62  75
ATOM     75  C   UNL A   1      47.775  26.322  30.568  1.00  0.00    -0.014 A 
ATOM     76  C   UNL A   1      48.728  26.408  29.541  1.00  0.00     0.009 A 
ATOM     77  C   UNL A   1      48.166  25.818  31.818  1.00  0.00     0.009 A 
ATOM     78  C   UNL A   1      50.037  25.969  29.753  1.00  0.00     0.001 A 
ATOM     79  C   UNL A   1      49.481  25.406  32.036  1.00  0.00     0.001 A 
ATOM     80  C   UNL A   1      50.413  25.473  31.002  1.00  0.00     0.000 A 
ENDBRANCH  62  75
ENDBRANCH  36  37
ENDBRANCH  29  31
ENDBRANCH  28  29
ENDBRANCH  27  28
ENDBRANCH   1  27
TORSDOF 14
ENDMDL
MODEL 2
REMARK VINA RESULT:     -11.3      2.584      7.653
REMARK SMILES C[C@H](NC(=O)c1c(C(=O)OCCOC(=O)c2ccc(-c3c4nc(c(-c5ccccc5)c5ccc([nH]5)c(-c5ccccc5)c5nc(c(-c6ccccc6)c6ccc3[nH]6)C=C5)C=C4)cc2)cnn1C)[C@]12C[C@H]3C[C@H](C[C@H](C3)C1)C2
REMARK SMILES IDX 11 1 10 2 8 3 9 4 7 5 6 6 66 7 64 8 65 9 67 10 4 11 3 12
REMARK SMILES IDX 5 14 2 15 1 16 68 17 69 18 76 19 77 20 70 21 74 22 72 23
REMARK SMILES IDX 71 24 75 25 73 26 12 27 13 28 14 29 15 30 16 31 17 32 63 33
REMARK SMILES IDX 18 34 62 35 19 36 20 37 21 38 56 39 22 40 61 41 55 42 57 43
REMARK SMILES IDX 23 44 60 45 54 46 53 47 24 49 46 50 31 51 45 52 32 53 35 54
REMARK SMILES IDX 44 55 58 56 33 57 34 58 43 60 59 61 36 62 25 63 26 64 30 65
REMARK SMILES IDX 27 66 29 67 28 68 47 69 48 70 52 71 49 72 51 73 50 74 37 75
REMARK SMILES IDX 38 76 42 77 39 78 41 79 40 80
REMARK H PARENT 3 13 57 48 35 59
REMARK Flexibility Score: inf
ROOT
ATOM      1  C   UNL A   1      38.141  20.763  25.364  1.00  0.00     0.275 C 
ENDROOT
BRANCH   1   2
ATOM      2  O   UNL A   1      36.794  20.409  24.991  1.00  0.00    -0.458 OA
BRANCH   2   3
ATOM      3  C   UNL A   1      35.849  21.336  25.317  1.00  0.00     0.342 C 
ATOM      4  O   UNL A   1      36.070  22.331  25.990  1.00  0.00    -0.246 OA
BRANCH   3   5
ATOM      5  C   UNL A   1      34.529  21.085  24.764  1.00  0.00     0.111 A 
ATOM      6  C   UNL A   1      33.708  21.871  23.957  1.00  0.00     0.140 A 
ATOM      7  N   UNL A   1      32.737  20.993  23.522  1.00  0.00    -0.262 N 
ATOM      8  C   UNL A   1      33.820  19.871  24.919  1.00  0.00     0.151 A 
ATOM      9  N   UNL A   1      32.686  19.848  24.226  1.00  0.00    -0.180 NA
ATOM     10  C   UNL A   1      31.891  21.088  22.353  1.00  0.00     0.174 C 
BRANCH   6  11
ATOM     11  C   UNL A   1      33.957  23.179  23.415  1.00  0.00     0.270 C 
ATOM     12  N   UNL A   1      33.393  24.313  23.947  1.00  0.00    -0.348 N 
ATOM     13  H   UNL A   1      33.553  25.096  23.371  1.00  0.00     0.164 HD
ATOM     14  O   UNL A   1      34.665  23.329  22.419  1.00  0.00    -0.267 OA
BRANCH  12  15
ATOM     15  C   UNL A   1      32.610  24.679  25.147  1.00  0.00     0.085 C 
ATOM     16  C   UNL A   1      32.863  23.839  26.395  1.00  0.00     0.031 C 
BRANCH  15  17
ATOM     17  C   UNL A   1      32.573  26.242  25.411  1.00  0.00    -0.009 C 
ATOM     18  C   UNL A   1      31.492  26.672  26.441  1.00  0.00     0.012 C 
ATOM     19  C   UNL A   1      32.321  27.045  24.099  1.00  0.00     0.012 C 
ATOM     20  C   UNL A   1      33.954  26.702  25.974  1.00  0.00     0.012 C 
ATOM     21  C   UNL A   1      31.524  28.199  26.674  1.00  0.00    -0.010 C 
ATOM     22  C   UNL A   1      32.349  28.560  24.330  1.00  0.00    -0.010 C 
ATOM     23  C   UNL A   1      33.996  28.225  26.196  1.00  0.00    -0.010 C 
ATOM     24  C   UNL A   1      32.907  28.616  27.206  1.00  0.00     0.007 C 
ATOM     25  C   UNL A   1      31.263  28.928  25.349  1.00  0.00     0.007 C 
ATOM     26  C   UNL A   1      33.732  28.949  24.867  1.00  0.00     0.007 C 
ENDBRANCH  15  17
ENDBRANCH  12  15
ENDBRANCH   6  11
ENDBRANCH   3   5
ENDBRANCH   2   3
ENDBRANCH   1   2
BRANCH   1  27
ATOM     27  C   UNL A   1      39.089  19.561  25.343  1.00  0.00     0.275 C 
BRANCH  27  28
ATOM     28  O   UNL A   1      39.973  19.558  26.481  1.00  0.00    -0.458 OA
BRANCH  28  29
ATOM     29  C   UNL A   1      41.291  19.626  26.186  1.00  0.00     0.338 C 
ATOM     30  O   UNL A   1      41.957  18.817  25.560  1.00  0.00    -0.246 OA
BRANCH  29  31
ATOM     31  C   UNL A   1      41.837  20.917  26.628  1.00  0.00     0.060 A 
ATOM     32  C   UNL A   1      41.764  21.215  27.986  1.00  0.00     0.016 A 
ATOM     33  C   UNL A   1      42.273  21.879  25.718  1.00  0.00     0.016 A 
ATOM     34  C   UNL A   1      42.101  22.482  28.450  1.00  0.00     0.010 A 
ATOM     35  C   UNL A   1      42.640  23.149  26.188  1.00  0.00     0.010 A 
ATOM     36  C   UNL A   1      42.536  23.467  27.556  1.00  0.00    -0.014 A 
BRANCH  36  37
ATOM     37  C   UNL A   1      42.804  24.840  28.058  1.00  0.00     0.031 A 
ATOM     38  C   UNL A   1      44.212  25.267  28.373  1.00  0.00     0.074 A 
ATOM     39  C   UNL A   1      41.798  25.726  28.182  1.00  0.00     0.049 A 
ATOM     40  N   UNL A   1      44.640  26.386  28.902  1.00  0.00    -0.248 NA
ATOM     41  C   UNL A   1      45.278  24.305  28.054  1.00  0.00     0.031 C 
ATOM     42  C   UNL A   1      40.396  25.468  27.848  1.00  0.00     0.029 A 
ATOM     43  N   UNL A   1      41.804  27.030  28.612  1.00  0.00    -0.354 N 
ATOM     44  C   UNL A   1      46.017  26.246  29.018  1.00  0.00     0.074 A 
ATOM     45  C   UNL A   1      46.351  24.930  28.516  1.00  0.00     0.031 C 
ATOM     46  C   UNL A   1      39.683  26.584  28.063  1.00  0.00     0.029 A 
ATOM     47  C   UNL A   1      40.560  27.612  28.614  1.00  0.00     0.049 A 
ATOM     48  H   UNL A   1      42.620  27.502  28.892  1.00  0.00     0.167 HD
ATOM     49  C   UNL A   1      46.921  27.132  29.502  1.00  0.00     0.031 A 
ATOM     50  C   UNL A   1      40.159  28.824  29.043  1.00  0.00     0.031 A 
ATOM     51  C   UNL A   1      46.592  28.448  29.984  1.00  0.00     0.049 A 
ATOM     52  C   UNL A   1      41.169  29.768  29.631  1.00  0.00     0.074 A 
ATOM     53  C   UNL A   1      47.439  29.421  30.486  1.00  0.00     0.029 A 
ATOM     54  N   UNL A   1      45.312  28.979  30.016  1.00  0.00    -0.354 N 
ATOM     55  N   UNL A   1      42.463  29.609  29.771  1.00  0.00    -0.248 NA
ATOM     56  C   UNL A   1      40.661  31.054  30.128  1.00  0.00     0.031 C 
ATOM     57  C   UNL A   1      46.664  30.521  30.870  1.00  0.00     0.029 A 
ATOM     58  C   UNL A   1      45.342  30.256  30.553  1.00  0.00     0.049 A 
ATOM     59  H   UNL A   1      44.500  28.516  29.703  1.00  0.00     0.167 HD
ATOM     60  C   UNL A   1      42.926  30.778  30.361  1.00  0.00     0.074 A 
ATOM     61  C   UNL A   1      41.777  31.645  30.532  1.00  0.00     0.031 C 
ATOM     62  C   UNL A   1      44.189  31.102  30.729  1.00  0.00     0.031 A 
BRANCH  49  63
ATOM     63  C   UNL A   1      48.353  26.676  29.585  1.00  0.00    -0.014 A 
ATOM     64  C   UNL A   1      48.841  25.971  30.696  1.00  0.00     0.009 A 
ATOM     65  C   UNL A   1      49.227  26.953  28.522  1.00  0.00     0.009 A 
ATOM     66  C   UNL A   1      50.186  25.596  30.761  1.00  0.00     0.001 A 
ATOM     67  C   UNL A   1      50.562  26.550  28.575  1.00  0.00     0.001 A 
ATOM     68  C   UNL A   1      51.044  25.882  29.699  1.00  0.00     0.000 A 
ENDBRANCH  49  63
BRANCH  50  69
ATOM     69  C   UNL A   1      38.721  29.189  28.973  1.00  0.00    -0.014 A 
ATOM     70  C   UNL A   1      37.884  29.027  30.087  1.00  0.00     0.009 A 
ATOM     71  C   UNL A   1      38.184  29.728  27.793  1.00  0.00     0.009 A 
ATOM     72  C   UNL A   1      36.536  29.390  30.016  1.00  0.00     0.001 A 
ATOM     73  C   UNL A   1      36.844  30.117  27.733  1.00  0.00     0.001 A 
ATOM     74  C   UNL A   1      36.020  29.942  28.843  1.00  0.00     0.000 A 
ENDBRANCH  50  69
BRANCH  62  75
ATOM     75  C   UNL A   1      44.399  32.462  31.333  1.00  0.00    -0.014 A 
ATOM     76  C   UNL A   1      44.347  32.658  32.721  1.00  0.00     0.009 A 
ATOM     77  C   UNL A   1      44.682  33.557  30.501  1.00  0.00     0.009 A 
ATOM     78  C   UNL A   1      44.543  33.930  33.263  1.00  0.00     0.001 A 
ATOM     79  C   UNL A   1      44.906  34.822  31.047  1.00  0.00     0.001 A 
ATOM     80  C   UNL A   1      44.827  35.009  32.426  1.00  0.00     0.000 A 
ENDBRANCH  62  75
ENDBRANCH  36  37
ENDBRANCH  29  31
ENDBRANCH  28  29
ENDBRANCH  27  28
ENDBRANCH   1  27
TORSDOF 14
ENDMDL
MODEL 3
REMARK VINA RESULT:     -11.2      2.589      7.549
REMARK SMILES C[C@H](NC(=O)c1c(C(=O)OCCOC(=O)c2ccc(-c3c4nc(c(-c5ccccc5)c5ccc([nH]5)c(-c5ccccc5)c5nc(c(-c6ccccc6)c6ccc3[nH]6)C=C5)C=C4)cc2)cnn1C)[C@]12C[C@H]3C[C@H](C[C@H](C3)C1)C2
REMARK SMILES IDX 11 1 10 2 8 3 9 4 7 5 6 6 66 7 64 8 65 9 67 10 4 11 3 12
REMARK SMILES IDX 5 14 2 15 1 16 68 17 69 18 76 19 77 20 70 21 74 22 72 23
REMARK SMILES IDX 71 24 75 25 73 26 12 27 13 28 14 29 15 30 16 31 17 32 63 33
REMARK SMILES IDX 18 34 62 35 19 36 20 37 21 38 56 39 22 40 61 41 55 42 57 43
REMARK SMILES IDX 23 44 60 45 54 46 53 47 24 49 46 50 31 51 45 52 32 53 35 54
REMARK SMILES IDX 44 55 58 56 33 57 34 58 43 60 59 61 36 62 25 63 26 64 30 65
REMARK SMILES IDX 27 66 29 67 28 68 47 69 48 70 52 71 49 72 51 73 50 74 37 75
REMARK SMILES IDX 38 76 42 77 39 78 41 79 40 80
REMARK H PARENT 3 13 57 48 35 59
REMARK Flexibility Score: inf
ROOT
ATOM      1  C   UNL A   1      38.741  21.739  26.037  1.00  0.00     0.275 C 
ENDROOT
BRANCH   1   2
ATOM      2  O   UNL A   1      37.735  22.225  25.128  1.00  0.00    -0.458 OA
BRANCH   2   3
ATOM      3  C   UNL A   1      36.538  22.526  25.707  1.00  0.00     0.342 C 
ATOM      4  O   UNL A   1      36.297  23.583  26.271  1.00  0.00    -0.246 OA
BRANCH   3   5
ATOM      5  C   UNL A   1      35.518  21.500  25.574  1.00  0.00     0.111 A 
ATOM      6  C   UNL A   1      34.239  21.401  26.121  1.00  0.00     0.140 A 
ATOM      7  N   UNL A   1      33.654  20.378  25.404  1.00  0.00    -0.262 N 
ATOM      8  C   UNL A   1      35.642  20.358  24.749  1.00  0.00     0.151 A 
ATOM      9  N   UNL A   1      34.531  19.629  24.712  1.00  0.00    -0.180 NA
ATOM     10  C   UNL A   1      32.248  20.107  25.201  1.00  0.00     0.174 C 
BRANCH   6  11
ATOM     11  C   UNL A   1      33.548  22.326  26.977  1.00  0.00     0.270 C 
ATOM     12  N   UNL A   1      33.103  23.546  26.532  1.00  0.00    -0.348 N 
ATOM     13  H   UNL A   1      32.784  24.105  27.277  1.00  0.00     0.164 HD
ATOM     14  O   UNL A   1      33.359  22.070  28.166  1.00  0.00    -0.267 OA
BRANCH  12  15
ATOM     15  C   UNL A   1      32.974  24.252  25.237  1.00  0.00     0.085 C 
ATOM     16  C   UNL A   1      31.989  23.650  24.241  1.00  0.00     0.031 C 
BRANCH  15  17
ATOM     17  C   UNL A   1      32.860  25.825  25.397  1.00  0.00    -0.009 C 
ATOM     18  C   UNL A   1      34.130  26.479  26.009  1.00  0.00     0.012 C 
ATOM     19  C   UNL A   1      31.646  26.230  26.286  1.00  0.00     0.012 C 
ATOM     20  C   UNL A   1      32.640  26.471  23.994  1.00  0.00     0.012 C 
ATOM     21  C   UNL A   1      33.968  28.013  26.114  1.00  0.00    -0.010 C 
ATOM     22  C   UNL A   1      31.487  27.751  26.394  1.00  0.00    -0.010 C 
ATOM     23  C   UNL A   1      32.465  27.997  24.095  1.00  0.00    -0.010 C 
ATOM     24  C   UNL A   1      33.730  28.608  24.716  1.00  0.00     0.007 C 
ATOM     25  C   UNL A   1      32.763  28.343  27.006  1.00  0.00     0.007 C 
ATOM     26  C   UNL A   1      31.259  28.322  24.989  1.00  0.00     0.007 C 
ENDBRANCH  15  17
ENDBRANCH  12  15
ENDBRANCH   6  11
ENDBRANCH   3   5
ENDBRANCH   2   3
ENDBRANCH   1   2
BRANCH   1  27
ATOM     27  C   UNL A   1      39.289  20.370  25.628  1.00  0.00     0.275 C 
BRANCH  27  28
ATOM     28  O   UNL A   1      40.316  19.914  26.529  1.00  0.00    -0.458 OA
BRANCH  28  29
ATOM     29  C   UNL A   1      41.584  20.064  26.080  1.00  0.00     0.338 C 
ATOM     30  O   UNL A   1      42.186  19.347  25.298  1.00  0.00    -0.246 OA
BRANCH  29  31
ATOM     31  C   UNL A   1      42.146  21.326  26.580  1.00  0.00     0.060 A 
ATOM     32  C   UNL A   1      42.167  21.521  27.959  1.00  0.00     0.016 A 
ATOM     33  C   UNL A   1      42.505  22.362  25.717  1.00  0.00     0.016 A 
ATOM     34  C   UNL A   1      42.522  22.755  28.493  1.00  0.00     0.010 A 
ATOM     35  C   UNL A   1      42.892  23.598  26.256  1.00  0.00     0.010 A 
ATOM     36  C   UNL A   1      42.882  23.810  27.649  1.00  0.00    -0.014 A 
BRANCH  36  37
ATOM     37  C   UNL A   1      43.171  25.146  28.233  1.00  0.00     0.031 A 
ATOM     38  C   UNL A   1      42.052  26.120  28.484  1.00  0.00     0.074 A 
ATOM     39  C   UNL A   1      44.428  25.473  28.591  1.00  0.00     0.049 A 
ATOM     40  N   UNL A   1      42.110  27.359  28.900  1.00  0.00    -0.248 NA
ATOM     41  C   UNL A   1      40.687  25.633  28.227  1.00  0.00     0.031 C 
ATOM     42  C   UNL A   1      45.597  24.601  28.466  1.00  0.00     0.029 A 
ATOM     43  N   UNL A   1      44.928  26.626  29.144  1.00  0.00    -0.354 N 
ATOM     44  C   UNL A   1      40.796  27.814  28.916  1.00  0.00     0.074 A 
ATOM     45  C   UNL A   1      39.967  26.721  28.455  1.00  0.00     0.031 C 
ATOM     46  C   UNL A   1      46.673  25.240  28.952  1.00  0.00     0.029 A 
ATOM     47  C   UNL A   1      46.284  26.588  29.355  1.00  0.00     0.049 A 
ATOM     48  H   UNL A   1      44.369  27.404  29.367  1.00  0.00     0.167 HD
ATOM     49  C   UNL A   1      40.325  29.032  29.278  1.00  0.00     0.031 A 
ATOM     50  C   UNL A   1      47.131  27.540  29.791  1.00  0.00     0.031 A 
ATOM     51  C   UNL A   1      41.148  30.113  29.754  1.00  0.00     0.049 A 
ATOM     52  C   UNL A   1      46.595  28.902  30.131  1.00  0.00     0.074 A 
ATOM     53  C   UNL A   1      40.763  31.381  30.153  1.00  0.00     0.029 A 
ATOM     54  N   UNL A   1      42.525  30.049  29.904  1.00  0.00    -0.354 N 
ATOM     55  N   UNL A   1      45.357  29.332  30.104  1.00  0.00    -0.248 NA
ATOM     56  C   UNL A   1      47.576  29.912  30.551  1.00  0.00     0.031 C 
ATOM     57  C   UNL A   1      41.913  32.102  30.495  1.00  0.00     0.029 A 
ATOM     58  C   UNL A   1      43.008  31.264  30.365  1.00  0.00     0.049 A 
ATOM     59  H   UNL A   1      43.079  29.258  29.712  1.00  0.00     0.167 HD
ATOM     60  C   UNL A   1      45.407  30.657  30.514  1.00  0.00     0.074 A 
ATOM     61  C   UNL A   1      46.796  30.954  30.805  1.00  0.00     0.031 C 
ATOM     62  C   UNL A   1      44.394  31.548  30.638  1.00  0.00     0.031 A 
BRANCH  49  63
ATOM     63  C   UNL A   1      38.849  29.273  29.115  1.00  0.00    -0.014 A 
ATOM     64  C   UNL A   1      37.951  29.108  30.181  1.00  0.00     0.009 A 
ATOM     65  C   UNL A   1      38.352  29.681  27.867  1.00  0.00     0.009 A 
ATOM     66  C   UNL A   1      36.580  29.302  29.987  1.00  0.00     0.001 A 
ATOM     67  C   UNL A   1      36.986  29.904  27.684  1.00  0.00     0.001 A 
ATOM     68  C   UNL A   1      36.100  29.703  28.741  1.00  0.00     0.000 A 
ENDBRANCH  49  63
BRANCH  50  69
ATOM     69  C   UNL A   1      48.584  27.245  29.884  1.00  0.00    -0.014 A 
ATOM     70  C   UNL A   1      49.129  26.672  31.042  1.00  0.00     0.009 A 
ATOM     71  C   UNL A   1      49.431  27.515  28.797  1.00  0.00     0.009 A 
ATOM     72  C   UNL A   1      50.494  26.384  31.112  1.00  0.00     0.001 A 
ATOM     73  C   UNL A   1      50.790  27.200  28.858  1.00  0.00     0.001 A 
ATOM     74  C   UNL A   1      51.321  26.639  30.018  1.00  0.00     0.000 A 
ENDBRANCH  50  69
BRANCH  62  75
ATOM     75  C   UNL A   1      44.747  32.924  31.130  1.00  0.00    -0.014 A 
ATOM     76  C   UNL A   1      45.057  33.960  30.235  1.00  0.00     0.009 A 
ATOM     77  C   UNL A   1      44.741  33.193  32.508  1.00  0.00     0.009 A 
ATOM     78  C   UNL A   1      45.384  35.231  30.713  1.00  0.00     0.001 A 
ATOM     79  C   UNL A   1      45.040  34.471  32.981  1.00  0.00     0.001 A 
ATOM     80  C   UNL A   1      45.371  35.486  32.084  1.00  0.00     0.000 A 
ENDBRANCH  62  75
ENDBRANCH  36  37
ENDBRANCH  29  31
ENDBRANCH  28  29
ENDBRANCH  27  28
ENDBRANCH   1  27
TORSDOF 14
ENDMDL
