MODEL 1
REMARK VINA RESULT:     -11.6      0.000      0.000
REMARK SMILES O=C(Cn1nc(-c2ccc(Br)cc2)ccc1=O)N[C@H](C(=O)OCCOC(=O)c1ccc(-c2c3nc(c(-c4ccccc4)c4ccc([nH]4)c(-c4ccccc4)c4nc(c(-c5ccccc5)c5ccc2[nH]5)C=C4)C=C3)cc1)c1ccccc1
REMARK SMILES IDX 23 1 22 2 20 3 21 4 19 5 18 6 1 7 2 8 3 10 4 11 5 12 16 13
REMARK SMILES IDX 6 14 15 15 17 16 14 17 7 18 8 19 13 20 9 21 12 22 10 23
REMARK SMILES IDX 11 24 76 25 77 26 81 27 78 28 80 29 79 30 24 31 25 32 26 33
REMARK SMILES IDX 27 34 28 35 29 36 75 37 30 38 74 39 31 40 32 41 33 42 68 43
REMARK SMILES IDX 34 44 73 45 67 46 69 47 35 48 72 49 66 50 65 51 36 53 58 54
REMARK SMILES IDX 43 55 57 56 44 57 47 58 56 59 70 60 45 61 46 62 55 64 71 65
REMARK SMILES IDX 48 66 37 67 38 68 42 69 39 70 41 71 40 72 59 73 60 74 64 75
REMARK SMILES IDX 61 76 63 77 62 78 49 79 50 80 54 81 51 82 53 83 52 84
REMARK H PARENT 18 9 69 52 47 63
REMARK Flexibility Score: inf
ROOT
ATOM      1  C   UNL A   1      35.928  20.550  24.982  1.00  0.00     0.274 C 
ENDROOT
BRANCH   1   2
ATOM      2  O   UNL A   1      35.009  21.645  25.141  1.00  0.00    -0.460 OA
BRANCH   2   3
ATOM      3  C   UNL A   1      34.146  21.526  26.185  1.00  0.00     0.333 C 
ATOM      4  O   UNL A   1      34.519  21.429  27.355  1.00  0.00    -0.249 OA
BRANCH   3   5
ATOM      5  C   UNL A   1      32.644  21.498  25.761  1.00  0.00     0.223 C 
BRANCH   5   6
ATOM      6  N   UNL A   1      32.072  22.793  25.367  1.00  0.00    -0.337 N 
ATOM      7  O   UNL A   1      31.378  23.643  27.397  1.00  0.00    -0.273 OA
ATOM      8  C   UNL A   1      31.422  23.699  26.178  1.00  0.00     0.242 C 
ATOM      9  H   UNL A   1      32.165  23.041  24.418  1.00  0.00     0.164 HD
BRANCH   8  10
ATOM     10  C   UNL A   1      30.824  24.883  25.412  1.00  0.00     0.248 C 
BRANCH  10  11
ATOM     11  N   UNL A   1      31.923  25.718  24.939  1.00  0.00    -0.220 N 
ATOM     12  N   UNL A   1      32.366  26.674  25.829  1.00  0.00    -0.169 NA
ATOM     13  C   UNL A   1      32.327  25.649  23.614  1.00  0.00     0.267 A 
ATOM     14  C   UNL A   1      33.101  27.631  25.363  1.00  0.00     0.091 A 
ATOM     15  C   UNL A   1      33.276  26.696  23.175  1.00  0.00     0.075 A 
ATOM     16  O   UNL A   1      31.961  24.802  22.803  1.00  0.00    -0.268 OA
ATOM     17  C   UNL A   1      33.639  27.687  23.992  1.00  0.00     0.036 A 
BRANCH  14  18
ATOM     18  C   UNL A   1      33.388  28.772  26.258  1.00  0.00     0.002 A 
ATOM     19  C   UNL A   1      32.460  29.816  26.337  1.00  0.00     0.011 A 
ATOM     20  C   UNL A   1      34.638  28.889  26.877  1.00  0.00     0.011 A 
ATOM     21  C   UNL A   1      32.775  30.974  27.047  1.00  0.00     0.016 A 
ATOM     22  C   UNL A   1      34.953  30.053  27.581  1.00  0.00     0.016 A 
ATOM     23  C   UNL A   1      34.023  31.090  27.658  1.00  0.00     0.018 A 
ATOM     24  Br  UNL A   1      34.468  32.684  28.571  1.00  0.00    -0.051 Br
ENDBRANCH  14  18
ENDBRANCH  10  11
ENDBRANCH   8  10
ENDBRANCH   5   6
BRANCH   5  25
ATOM     25  C   UNL A   1      32.444  20.409  24.669  1.00  0.00    -0.014 A 
ATOM     26  C   UNL A   1      32.251  20.693  23.305  1.00  0.00     0.006 A 
ATOM     27  C   UNL A   1      32.499  19.044  25.023  1.00  0.00     0.006 A 
ATOM     28  C   UNL A   1      32.193  19.677  22.343  1.00  0.00     0.000 A 
ATOM     29  C   UNL A   1      32.465  18.029  24.060  1.00  0.00     0.000 A 
ATOM     30  C   UNL A   1      32.326  18.347  22.716  1.00  0.00     0.000 A 
ENDBRANCH   5  25
ENDBRANCH   3   5
ENDBRANCH   2   3
ENDBRANCH   1   2
BRANCH   1  31
ATOM     31  C   UNL A   1      37.374  21.043  24.855  1.00  0.00     0.275 C 
BRANCH  31  32
ATOM     32  O   UNL A   1      37.886  21.550  26.104  1.00  0.00    -0.458 OA
BRANCH  32  33
ATOM     33  C   UNL A   1      39.213  21.405  26.312  1.00  0.00     0.338 C 
ATOM     34  O   UNL A   1      39.898  20.409  26.193  1.00  0.00    -0.246 OA
BRANCH  33  35
ATOM     35  C   UNL A   1      39.831  22.687  26.639  1.00  0.00     0.060 A 
ATOM     36  C   UNL A   1      39.322  23.868  26.105  1.00  0.00     0.016 A 
ATOM     37  C   UNL A   1      40.868  22.693  27.579  1.00  0.00     0.016 A 
ATOM     38  C   UNL A   1      39.889  25.076  26.491  1.00  0.00     0.010 A 
ATOM     39  C   UNL A   1      41.425  23.902  27.972  1.00  0.00     0.010 A 
ATOM     40  C   UNL A   1      40.947  25.094  27.415  1.00  0.00    -0.014 A 
BRANCH  40  41
ATOM     41  C   UNL A   1      41.580  26.376  27.770  1.00  0.00     0.031 A 
ATOM     42  C   UNL A   1      42.922  26.712  27.201  1.00  0.00     0.074 A 
ATOM     43  C   UNL A   1      40.926  27.228  28.576  1.00  0.00     0.049 A 
ATOM     44  N   UNL A   1      43.609  27.818  27.319  1.00  0.00    -0.248 NA
ATOM     45  C   UNL A   1      43.583  25.672  26.393  1.00  0.00     0.031 C 
ATOM     46  C   UNL A   1      39.614  26.977  29.177  1.00  0.00     0.029 A 
ATOM     47  N   UNL A   1      41.264  28.480  29.014  1.00  0.00    -0.354 N 
ATOM     48  C   UNL A   1      44.770  27.614  26.587  1.00  0.00     0.074 A 
ATOM     49  C   UNL A   1      44.724  26.264  26.073  1.00  0.00     0.031 C 
ATOM     50  C   UNL A   1      39.243  28.060  29.878  1.00  0.00     0.029 A 
ATOM     51  C   UNL A   1      40.300  29.064  29.798  1.00  0.00     0.049 A 
ATOM     52  H   UNL A   1      42.115  28.921  28.786  1.00  0.00     0.167 HD
ATOM     53  C   UNL A   1      45.771  28.491  26.352  1.00  0.00     0.031 A 
ATOM     54  C   UNL A   1      40.273  30.278  30.379  1.00  0.00     0.031 A 
ATOM     55  C   UNL A   1      45.806  29.823  26.890  1.00  0.00     0.049 A 
ATOM     56  C   UNL A   1      41.430  31.211  30.153  1.00  0.00     0.074 A 
ATOM     57  C   UNL A   1      46.765  30.802  26.700  1.00  0.00     0.029 A 
ATOM     58  N   UNL A   1      44.842  30.359  27.731  1.00  0.00    -0.354 N 
ATOM     59  N   UNL A   1      42.500  31.031  29.416  1.00  0.00    -0.248 NA
ATOM     60  C   UNL A   1      41.376  32.514  30.827  1.00  0.00     0.031 C 
ATOM     61  C   UNL A   1      46.411  31.908  27.477  1.00  0.00     0.029 A 
ATOM     62  C   UNL A   1      45.199  31.644  28.097  1.00  0.00     0.049 A 
ATOM     63  H   UNL A   1      44.025  29.893  28.024  1.00  0.00     0.167 HD
ATOM     64  C   UNL A   1      43.241  32.200  29.525  1.00  0.00     0.074 A 
ATOM     65  C   UNL A   1      42.487  33.090  30.385  1.00  0.00     0.031 C 
ATOM     66  C   UNL A   1      44.436  32.507  28.964  1.00  0.00     0.031 A 
BRANCH  53  67
ATOM     67  C   UNL A   1      46.909  28.040  25.480  1.00  0.00    -0.014 A 
ATOM     68  C   UNL A   1      48.127  27.655  26.059  1.00  0.00     0.009 A 
ATOM     69  C   UNL A   1      46.800  28.062  24.080  1.00  0.00     0.009 A 
ATOM     70  C   UNL A   1      49.216  27.309  25.257  1.00  0.00     0.001 A 
ATOM     71  C   UNL A   1      47.882  27.691  23.280  1.00  0.00     0.001 A 
ATOM     72  C   UNL A   1      49.091  27.323  23.868  1.00  0.00     0.000 A 
ENDBRANCH  53  67
BRANCH  54  73
ATOM     73  C   UNL A   1      39.093  30.672  31.190  1.00  0.00    -0.014 A 
ATOM     74  C   UNL A   1      38.987  30.280  32.535  1.00  0.00     0.009 A 
ATOM     75  C   UNL A   1      38.033  31.382  30.608  1.00  0.00     0.009 A 
ATOM     76  C   UNL A   1      37.835  30.566  33.271  1.00  0.00     0.001 A 
ATOM     77  C   UNL A   1      36.892  31.691  31.355  1.00  0.00     0.001 A 
ATOM     78  C   UNL A   1      36.790  31.274  32.681  1.00  0.00     0.000 A 
ENDBRANCH  54  73
BRANCH  66  79
ATOM     79  C   UNL A   1      45.019  33.858  29.261  1.00  0.00    -0.014 A 
ATOM     80  C   UNL A   1      44.759  34.935  28.398  1.00  0.00     0.009 A 
ATOM     81  C   UNL A   1      45.924  34.035  30.318  1.00  0.00     0.009 A 
ATOM     82  C   UNL A   1      45.409  36.156  28.574  1.00  0.00     0.001 A 
ATOM     83  C   UNL A   1      46.551  35.267  30.510  1.00  0.00     0.001 A 
ATOM     84  C   UNL A   1      46.302  36.322  29.632  1.00  0.00     0.000 A 
ENDBRANCH  66  79
ENDBRANCH  40  41
ENDBRANCH  33  35
ENDBRANCH  32  33
ENDBRANCH  31  32
ENDBRANCH   1  31
TORSDOF 16
ENDMDL
MODEL 2
REMARK VINA RESULT:     -11.0      5.387      9.521
REMARK SMILES O=C(Cn1nc(-c2ccc(Br)cc2)ccc1=O)N[C@H](C(=O)OCCOC(=O)c1ccc(-c2c3nc(c(-c4ccccc4)c4ccc([nH]4)c(-c4ccccc4)c4nc(c(-c5ccccc5)c5ccc2[nH]5)C=C4)C=C3)cc1)c1ccccc1
REMARK SMILES IDX 23 1 22 2 20 3 21 4 19 5 18 6 1 7 2 8 3 10 4 11 5 12 16 13
REMARK SMILES IDX 6 14 15 15 17 16 14 17 7 18 8 19 13 20 9 21 12 22 10 23
REMARK SMILES IDX 11 24 76 25 77 26 81 27 78 28 80 29 79 30 24 31 25 32 26 33
REMARK SMILES IDX 27 34 28 35 29 36 75 37 30 38 74 39 31 40 32 41 33 42 68 43
REMARK SMILES IDX 34 44 73 45 67 46 69 47 35 48 72 49 66 50 65 51 36 53 58 54
REMARK SMILES IDX 43 55 57 56 44 57 47 58 56 59 70 60 45 61 46 62 55 64 71 65
REMARK SMILES IDX 48 66 37 67 38 68 42 69 39 70 41 71 40 72 59 73 60 74 64 75
REMARK SMILES IDX 61 76 63 77 62 78 49 79 50 80 54 81 51 82 53 83 52 84
REMARK H PARENT 18 9 69 52 47 63
REMARK Flexibility Score: inf
ROOT
ATOM      1  C   UNL A   1      34.675  34.712  27.978  1.00  0.00     0.274 C 
ENDROOT
BRANCH   1   2
ATOM      2  O   UNL A   1      34.414  33.300  27.900  1.00  0.00    -0.460 OA
BRANCH   2   3
ATOM      3  C   UNL A   1      35.447  32.500  28.279  1.00  0.00     0.333 C 
ATOM      4  O   UNL A   1      36.534  32.942  28.652  1.00  0.00    -0.249 OA
BRANCH   3   5
ATOM      5  C   UNL A   1      35.135  30.975  28.173  1.00  0.00     0.223 C 
BRANCH   5   6
ATOM      6  N   UNL A   1      34.694  30.510  26.850  1.00  0.00    -0.337 N 
ATOM      7  O   UNL A   1      32.530  29.833  27.283  1.00  0.00    -0.273 OA
ATOM      8  C   UNL A   1      33.493  29.909  26.536  1.00  0.00     0.242 C 
ATOM      9  H   UNL A   1      35.326  30.642  26.107  1.00  0.00     0.164 HD
BRANCH   8  10
ATOM     10  C   UNL A   1      33.418  29.418  25.087  1.00  0.00     0.248 C 
BRANCH  10  11
ATOM     11  N   UNL A   1      32.569  28.232  25.052  1.00  0.00    -0.220 N 
ATOM     12  N   UNL A   1      33.219  27.033  25.258  1.00  0.00    -0.169 NA
ATOM     13  C   UNL A   1      31.248  28.335  24.644  1.00  0.00     0.267 A 
ATOM     14  C   UNL A   1      32.594  25.949  24.929  1.00  0.00     0.091 A 
ATOM     15  C   UNL A   1      30.544  27.054  24.413  1.00  0.00     0.075 A 
ATOM     16  O   UNL A   1      30.640  29.387  24.467  1.00  0.00    -0.268 OA
ATOM     17  C   UNL A   1      31.182  25.887  24.510  1.00  0.00     0.036 A 
BRANCH  14  18
ATOM     18  C   UNL A   1      33.364  24.687  24.934  1.00  0.00     0.002 A 
ATOM     19  C   UNL A   1      33.400  23.916  23.766  1.00  0.00     0.011 A 
ATOM     20  C   UNL A   1      33.897  24.188  26.128  1.00  0.00     0.011 A 
ATOM     21  C   UNL A   1      33.982  22.649  23.789  1.00  0.00     0.016 A 
ATOM     22  C   UNL A   1      34.472  22.915  26.148  1.00  0.00     0.016 A 
ATOM     23  C   UNL A   1      34.507  22.152  24.980  1.00  0.00     0.018 A 
ATOM     24  Br  UNL A   1      35.244  20.411  25.019  1.00  0.00    -0.051 Br
ENDBRANCH  14  18
ENDBRANCH  10  11
ENDBRANCH   8  10
ENDBRANCH   5   6
BRANCH   5  25
ATOM     25  C   UNL A   1      36.352  30.167  28.704  1.00  0.00    -0.014 A 
ATOM     26  C   UNL A   1      36.475  29.716  30.031  1.00  0.00     0.006 A 
ATOM     27  C   UNL A   1      37.393  29.808  27.822  1.00  0.00     0.006 A 
ATOM     28  C   UNL A   1      37.534  28.893  30.434  1.00  0.00     0.000 A 
ATOM     29  C   UNL A   1      38.439  28.966  28.217  1.00  0.00     0.000 A 
ATOM     30  C   UNL A   1      38.502  28.496  29.522  1.00  0.00     0.000 A 
ENDBRANCH   5  25
ENDBRANCH   3   5
ENDBRANCH   2   3
ENDBRANCH   1   2
BRANCH   1  31
ATOM     31  C   UNL A   1      33.642  35.426  28.860  1.00  0.00     0.275 C 
BRANCH  31  32
ATOM     32  O   UNL A   1      33.034  34.532  29.814  1.00  0.00    -0.458 OA
BRANCH  32  33
ATOM     33  C   UNL A   1      33.097  34.907  31.111  1.00  0.00     0.338 C 
ATOM     34  O   UNL A   1      32.256  35.470  31.782  1.00  0.00    -0.246 OA
BRANCH  33  35
ATOM     35  C   UNL A   1      34.346  34.461  31.721  1.00  0.00     0.060 A 
ATOM     36  C   UNL A   1      35.254  35.390  32.222  1.00  0.00     0.016 A 
ATOM     37  C   UNL A   1      34.544  33.083  31.876  1.00  0.00     0.016 A 
ATOM     38  C   UNL A   1      36.400  34.930  32.858  1.00  0.00     0.010 A 
ATOM     39  C   UNL A   1      35.684  32.626  32.522  1.00  0.00     0.010 A 
ATOM     40  C   UNL A   1      36.622  33.550  32.999  1.00  0.00    -0.014 A 
BRANCH  40  41
ATOM     41  C   UNL A   1      37.869  33.074  33.621  1.00  0.00     0.031 A 
ATOM     42  C   UNL A   1      38.942  32.490  32.756  1.00  0.00     0.074 A 
ATOM     43  C   UNL A   1      38.029  33.199  34.949  1.00  0.00     0.049 A 
ATOM     44  N   UNL A   1      40.142  32.095  33.093  1.00  0.00    -0.248 NA
ATOM     45  C   UNL A   1      38.630  32.328  31.326  1.00  0.00     0.031 C 
ATOM     46  C   UNL A   1      37.031  33.754  35.865  1.00  0.00     0.029 A 
ATOM     47  N   UNL A   1      39.091  32.887  35.754  1.00  0.00    -0.354 N 
ATOM     48  C   UNL A   1      40.731  31.656  31.916  1.00  0.00     0.074 A 
ATOM     49  C   UNL A   1      39.746  31.781  30.867  1.00  0.00     0.031 C 
ATOM     50  C   UNL A   1      37.546  33.775  37.106  1.00  0.00     0.029 A 
ATOM     51  C   UNL A   1      38.891  33.211  37.073  1.00  0.00     0.049 A 
ATOM     52  H   UNL A   1      39.919  32.472  35.419  1.00  0.00     0.167 HD
ATOM     53  C   UNL A   1      41.994  31.210  31.733  1.00  0.00     0.031 A 
ATOM     54  C   UNL A   1      39.710  33.073  38.132  1.00  0.00     0.031 A 
ATOM     55  C   UNL A   1      42.953  31.074  32.796  1.00  0.00     0.049 A 
ATOM     56  C   UNL A   1      41.087  32.515  37.912  1.00  0.00     0.074 A 
ATOM     57  C   UNL A   1      44.266  30.649  32.719  1.00  0.00     0.029 A 
ATOM     58  N   UNL A   1      42.695  31.354  34.130  1.00  0.00    -0.354 N 
ATOM     59  N   UNL A   1      41.657  32.152  36.787  1.00  0.00    -0.248 NA
ATOM     60  C   UNL A   1      41.939  32.354  39.097  1.00  0.00     0.031 C 
ATOM     61  C   UNL A   1      44.784  30.612  34.016  1.00  0.00     0.029 A 
ATOM     62  C   UNL A   1      43.816  31.078  34.893  1.00  0.00     0.049 A 
ATOM     63  H   UNL A   1      41.841  31.698  34.481  1.00  0.00     0.167 HD
ATOM     64  C   UNL A   1      42.937  31.732  37.124  1.00  0.00     0.074 A 
ATOM     65  C   UNL A   1      43.066  31.904  38.558  1.00  0.00     0.031 C 
ATOM     66  C   UNL A   1      43.915  31.248  36.321  1.00  0.00     0.031 A 
BRANCH  53  67
ATOM     67  C   UNL A   1      42.411  30.834  30.340  1.00  0.00    -0.014 A 
ATOM     68  C   UNL A   1      43.126  31.748  29.551  1.00  0.00     0.009 A 
ATOM     69  C   UNL A   1      42.035  29.602  29.779  1.00  0.00     0.009 A 
ATOM     70  C   UNL A   1      43.449  31.442  28.228  1.00  0.00     0.001 A 
ATOM     71  C   UNL A   1      42.383  29.287  28.465  1.00  0.00     0.001 A 
ATOM     72  C   UNL A   1      43.082  30.210  27.687  1.00  0.00     0.000 A 
ENDBRANCH  53  67
BRANCH  54  73
ATOM     73  C   UNL A   1      39.245  33.509  39.474  1.00  0.00    -0.014 A 
ATOM     74  C   UNL A   1      38.565  32.617  40.320  1.00  0.00     0.009 A 
ATOM     75  C   UNL A   1      39.415  34.838  39.890  1.00  0.00     0.009 A 
ATOM     76  C   UNL A   1      38.041  33.051  41.539  1.00  0.00     0.001 A 
ATOM     77  C   UNL A   1      38.914  35.263  41.125  1.00  0.00     0.001 A 
ATOM     78  C   UNL A   1      38.219  34.373  41.942  1.00  0.00     0.000 A 
ENDBRANCH  54  73
BRANCH  66  79
ATOM     79  C   UNL A   1      45.216  30.859  36.961  1.00  0.00    -0.014 A 
ATOM     80  C   UNL A   1      46.271  31.784  37.016  1.00  0.00     0.009 A 
ATOM     81  C   UNL A   1      45.439  29.544  37.396  1.00  0.00     0.009 A 
ATOM     82  C   UNL A   1      47.531  31.395  37.472  1.00  0.00     0.001 A 
ATOM     83  C   UNL A   1      46.693  29.165  37.879  1.00  0.00     0.001 A 
ATOM     84  C   UNL A   1      47.739  30.086  37.906  1.00  0.00     0.000 A 
ENDBRANCH  66  79
ENDBRANCH  40  41
ENDBRANCH  33  35
ENDBRANCH  32  33
ENDBRANCH  31  32
ENDBRANCH   1  31
TORSDOF 16
ENDMDL
MODEL 3
REMARK VINA RESULT:     -10.9      5.704      8.916
REMARK SMILES O=C(Cn1nc(-c2ccc(Br)cc2)ccc1=O)N[C@H](C(=O)OCCOC(=O)c1ccc(-c2c3nc(c(-c4ccccc4)c4ccc([nH]4)c(-c4ccccc4)c4nc(c(-c5ccccc5)c5ccc2[nH]5)C=C4)C=C3)cc1)c1ccccc1
REMARK SMILES IDX 23 1 22 2 20 3 21 4 19 5 18 6 1 7 2 8 3 10 4 11 5 12 16 13
REMARK SMILES IDX 6 14 15 15 17 16 14 17 7 18 8 19 13 20 9 21 12 22 10 23
REMARK SMILES IDX 11 24 76 25 77 26 81 27 78 28 80 29 79 30 24 31 25 32 26 33
REMARK SMILES IDX 27 34 28 35 29 36 75 37 30 38 74 39 31 40 32 41 33 42 68 43
REMARK SMILES IDX 34 44 73 45 67 46 69 47 35 48 72 49 66 50 65 51 36 53 58 54
REMARK SMILES IDX 43 55 57 56 44 57 47 58 56 59 70 60 45 61 46 62 55 64 71 65
REMARK SMILES IDX 48 66 37 67 38 68 42 69 39 70 41 71 40 72 59 73 60 74 64 75
REMARK SMILES IDX 61 76 63 77 62 78 49 79 50 80 54 81 51 82 53 83 52 84
REMARK H PARENT 18 9 69 52 47 63
REMARK Flexibility Score: inf
ROOT
ATOM      1  C   UNL A   1      46.340  23.967  25.167  1.00  0.00     0.274 C 
ENDROOT
BRANCH   1   2
ATOM      2  O   UNL A   1      46.088  22.951  24.181  1.00  0.00    -0.460 OA
BRANCH   2   3
ATOM      3  C   UNL A   1      44.777  22.648  23.986  1.00  0.00     0.333 C 
ATOM      4  O   UNL A   1      44.290  22.465  22.870  1.00  0.00    -0.249 OA
BRANCH   3   5
ATOM      5  C   UNL A   1      43.942  22.583  25.304  1.00  0.00     0.223 C 
BRANCH   5   6
ATOM      6  N   UNL A   1      42.835  23.545  25.401  1.00  0.00    -0.337 N 
ATOM      7  O   UNL A   1      43.515  24.876  27.159  1.00  0.00    -0.273 OA
ATOM      8  C   UNL A   1      42.668  24.532  26.350  1.00  0.00     0.242 C 
ATOM      9  H   UNL A   1      42.135  23.477  24.711  1.00  0.00     0.164 HD
BRANCH   8  10
ATOM     10  C   UNL A   1      41.327  25.262  26.240  1.00  0.00     0.248 C 
BRANCH  10  11
ATOM     11  N   UNL A   1      41.531  26.649  26.645  1.00  0.00    -0.220 N 
ATOM     12  N   UNL A   1      41.129  26.956  27.928  1.00  0.00    -0.169 NA
ATOM     13  C   UNL A   1      41.920  27.596  25.710  1.00  0.00     0.267 A 
ATOM     14  C   UNL A   1      40.990  28.206  28.230  1.00  0.00     0.091 A 
ATOM     15  C   UNL A   1      41.867  29.005  26.160  1.00  0.00     0.075 A 
ATOM     16  O   UNL A   1      42.296  27.352  24.566  1.00  0.00    -0.268 OA
ATOM     17  C   UNL A   1      41.388  29.329  27.361  1.00  0.00     0.036 A 
BRANCH  14  18
ATOM     18  C   UNL A   1      40.347  28.532  29.520  1.00  0.00     0.002 A 
ATOM     19  C   UNL A   1      39.473  27.600  30.092  1.00  0.00     0.011 A 
ATOM     20  C   UNL A   1      40.473  29.814  30.069  1.00  0.00     0.011 A 
ATOM     21  C   UNL A   1      38.733  27.945  31.222  1.00  0.00     0.016 A 
ATOM     22  C   UNL A   1      39.724  30.157  31.197  1.00  0.00     0.016 A 
ATOM     23  C   UNL A   1      38.856  29.223  31.764  1.00  0.00     0.018 A 
ATOM     24  Br  UNL A   1      37.808  29.704  33.262  1.00  0.00    -0.051 Br
ENDBRANCH  14  18
ENDBRANCH  10  11
ENDBRANCH   8  10
ENDBRANCH   5   6
BRANCH   5  25
ATOM     25  C   UNL A   1      43.473  21.120  25.538  1.00  0.00    -0.014 A 
ATOM     26  C   UNL A   1      44.236  19.988  25.198  1.00  0.00     0.006 A 
ATOM     27  C   UNL A   1      42.234  20.875  26.167  1.00  0.00     0.006 A 
ATOM     28  C   UNL A   1      43.822  18.693  25.535  1.00  0.00     0.000 A 
ATOM     29  C   UNL A   1      41.830  19.583  26.526  1.00  0.00     0.000 A 
ATOM     30  C   UNL A   1      42.632  18.492  26.221  1.00  0.00     0.000 A 
ENDBRANCH   5  25
ENDBRANCH   3   5
ENDBRANCH   2   3
ENDBRANCH   1   2
BRANCH   1  31
ATOM     31  C   UNL A   1      47.444  24.930  24.713  1.00  0.00     0.275 C 
BRANCH  31  32
ATOM     32  O   UNL A   1      47.983  25.693  25.811  1.00  0.00    -0.458 OA
BRANCH  32  33
ATOM     33  C   UNL A   1      47.943  27.038  25.684  1.00  0.00     0.338 C 
ATOM     34  O   UNL A   1      48.448  27.736  24.828  1.00  0.00    -0.246 OA
BRANCH  33  35
ATOM     35  C   UNL A   1      47.092  27.632  26.710  1.00  0.00     0.060 A 
ATOM     36  C   UNL A   1      47.656  28.352  27.760  1.00  0.00     0.016 A 
ATOM     37  C   UNL A   1      45.705  27.545  26.542  1.00  0.00     0.016 A 
ATOM     38  C   UNL A   1      46.814  28.963  28.682  1.00  0.00     0.010 A 
ATOM     39  C   UNL A   1      44.866  28.166  27.456  1.00  0.00     0.010 A 
ATOM     40  C   UNL A   1      45.421  28.861  28.537  1.00  0.00    -0.014 A 
BRANCH  40  41
ATOM     41  C   UNL A   1      44.539  29.462  29.553  1.00  0.00     0.031 A 
ATOM     42  C   UNL A   1      44.148  28.656  30.752  1.00  0.00     0.074 A 
ATOM     43  C   UNL A   1      44.127  30.731  29.395  1.00  0.00     0.049 A 
ATOM     44  N   UNL A   1      43.455  29.025  31.797  1.00  0.00    -0.248 NA
ATOM     45  C   UNL A   1      44.592  27.252  30.784  1.00  0.00     0.031 C 
ATOM     46  C   UNL A   1      44.460  31.586  28.254  1.00  0.00     0.029 A 
ATOM     47  N   UNL A   1      43.358  31.526  30.201  1.00  0.00    -0.354 N 
ATOM     48  C   UNL A   1      43.397  27.907  32.617  1.00  0.00     0.074 A 
ATOM     49  C   UNL A   1      44.074  26.832  31.929  1.00  0.00     0.031 C 
ATOM     50  C   UNL A   1      43.924  32.801  28.452  1.00  0.00     0.029 A 
ATOM     51  C   UNL A   1      43.191  32.799  29.715  1.00  0.00     0.049 A 
ATOM     52  H   UNL A   1      42.963  31.216  31.048  1.00  0.00     0.167 HD
ATOM     53  C   UNL A   1      42.842  27.803  33.845  1.00  0.00     0.031 A 
ATOM     54  C   UNL A   1      42.527  33.847  30.237  1.00  0.00     0.031 A 
ATOM     55  C   UNL A   1      42.155  28.881  34.503  1.00  0.00     0.049 A 
ATOM     56  C   UNL A   1      41.865  33.685  31.576  1.00  0.00     0.074 A 
ATOM     57  C   UNL A   1      41.571  28.889  35.756  1.00  0.00     0.029 A 
ATOM     58  N   UNL A   1      41.952  30.139  33.953  1.00  0.00    -0.354 N 
ATOM     59  N   UNL A   1      41.859  32.641  32.370  1.00  0.00    -0.248 NA
ATOM     60  C   UNL A   1      41.126  34.842  32.098  1.00  0.00     0.031 C 
ATOM     61  C   UNL A   1      40.961  30.133  35.939  1.00  0.00     0.029 A 
ATOM     62  C   UNL A   1      41.222  30.922  34.829  1.00  0.00     0.049 A 
ATOM     63  H   UNL A   1      42.280  30.429  33.071  1.00  0.00     0.167 HD
ATOM     64  C   UNL A   1      41.130  33.016  33.491  1.00  0.00     0.074 A 
ATOM     65  C   UNL A   1      40.726  34.392  33.282  1.00  0.00     0.031 C 
ATOM     66  C   UNL A   1      40.823  32.287  34.591  1.00  0.00     0.031 A 
BRANCH  53  67
ATOM     67  C   UNL A   1      42.952  26.484  34.555  1.00  0.00    -0.014 A 
ATOM     68  C   UNL A   1      41.814  25.683  34.729  1.00  0.00     0.009 A 
ATOM     69  C   UNL A   1      44.170  26.064  35.116  1.00  0.00     0.009 A 
ATOM     70  C   UNL A   1      41.888  24.493  35.455  1.00  0.00     0.001 A 
ATOM     71  C   UNL A   1      44.247  24.861  35.819  1.00  0.00     0.001 A 
ATOM     72  C   UNL A   1      43.105  24.081  35.996  1.00  0.00     0.000 A 
ENDBRANCH  53  67
BRANCH  54  73
ATOM     73  C   UNL A   1      42.500  35.135  29.498  1.00  0.00    -0.014 A 
ATOM     74  C   UNL A   1      41.568  35.349  28.469  1.00  0.00     0.009 A 
ATOM     75  C   UNL A   1      43.449  36.132  29.768  1.00  0.00     0.009 A 
ATOM     76  C   UNL A   1      41.605  36.519  27.707  1.00  0.00     0.001 A 
ATOM     77  C   UNL A   1      43.465  37.315  29.023  1.00  0.00     0.001 A 
ATOM     78  C   UNL A   1      42.551  37.502  27.988  1.00  0.00     0.000 A 
ENDBRANCH  54  73
BRANCH  66  79
ATOM     79  C   UNL A   1      40.005  32.950  35.662  1.00  0.00    -0.014 A 
ATOM     80  C   UNL A   1      40.646  33.594  36.732  1.00  0.00     0.009 A 
ATOM     81  C   UNL A   1      38.607  32.829  35.677  1.00  0.00     0.009 A 
ATOM     82  C   UNL A   1      39.906  34.084  37.808  1.00  0.00     0.001 A 
ATOM     83  C   UNL A   1      37.867  33.347  36.741  1.00  0.00     0.001 A 
ATOM     84  C   UNL A   1      38.517  33.963  37.809  1.00  0.00     0.000 A 
ENDBRANCH  66  79
ENDBRANCH  40  41
ENDBRANCH  33  35
ENDBRANCH  32  33
ENDBRANCH  31  32
ENDBRANCH   1  31
TORSDOF 16
ENDMDL
