MODEL 1
REMARK VINA RESULT:      -8.9      0.000      0.000
REMARK SMILES O=C(OCCOC(=O)[C@@]1([NH2+]C2CC2)CC[C@H](OC2CCC2)C1)c1ccc(-c2c3nc(c(-c4ccccc4)c4ccc([nH]4)c(-c4ccccc4)c4nc(c(-c5ccccc5)c5ccc2[nH]5)C=C4)C=C3)cc1
REMARK SMILES IDX 4 1 3 2 2 3 1 4 23 5 24 6 70 7 25 8 69 9 26 10 27 11 28 12
REMARK SMILES IDX 63 13 29 14 68 15 62 16 64 17 30 18 67 19 61 20 60 21 31 23
REMARK SMILES IDX 53 24 38 25 52 26 39 27 42 28 51 29 65 30 40 31 41 32 50 34
REMARK SMILES IDX 66 35 43 36 32 37 33 38 37 39 34 40 36 41 35 42 54 43 55 44
REMARK SMILES IDX 59 45 56 46 58 47 57 48 44 49 45 50 49 51 46 52 48 53 47 54
REMARK SMILES IDX 5 55 6 56 7 57 8 58 9 59 14 60 22 61 15 62 16 63 10 64 11 67
REMARK SMILES IDX 12 68 13 69 17 70 18 71 19 72 21 73 20 74
REMARK H PARENT 64 22 42 33 10 65 10 66
REMARK Flexibility Score: inf
ROOT
ATOM      1  C   UNL A   1      34.091  33.256  27.995  1.00  0.00     0.275 C 
ENDROOT
BRANCH   1   2
ATOM      2  O   UNL A   1      34.189  31.921  28.528  1.00  0.00    -0.458 OA
BRANCH   2   3
ATOM      3  C   UNL A   1      34.794  30.843  27.987  1.00  0.00     0.338 C 
ATOM      4  O   UNL A   1      34.245  30.262  27.045  1.00  0.00    -0.246 OA
BRANCH   3   5
ATOM      5  C   UNL A   1      36.105  30.314  28.474  1.00  0.00     0.060 A 
ATOM      6  C   UNL A   1      36.382  29.832  29.759  1.00  0.00     0.016 A 
ATOM      7  C   UNL A   1      37.146  30.300  27.536  1.00  0.00     0.016 A 
ATOM      8  C   UNL A   1      37.606  29.205  30.061  1.00  0.00     0.010 A 
ATOM      9  C   UNL A   1      38.353  29.661  27.825  1.00  0.00     0.010 A 
ATOM     10  C   UNL A   1      38.595  29.082  29.086  1.00  0.00    -0.014 A 
BRANCH  10  11
ATOM     11  C   UNL A   1      39.955  28.539  29.361  1.00  0.00     0.031 A 
ATOM     12  C   UNL A   1      40.984  29.542  29.809  1.00  0.00     0.074 A 
ATOM     13  C   UNL A   1      40.322  27.265  29.102  1.00  0.00     0.049 A 
ATOM     14  N   UNL A   1      42.288  29.473  29.790  1.00  0.00    -0.248 NA
ATOM     15  C   UNL A   1      40.452  30.842  30.260  1.00  0.00     0.031 C 
ATOM     16  C   UNL A   1      39.443  26.187  28.644  1.00  0.00     0.029 A 
ATOM     17  N   UNL A   1      41.573  26.684  29.103  1.00  0.00    -0.354 N 
ATOM     18  C   UNL A   1      42.713  30.728  30.203  1.00  0.00     0.074 A 
ATOM     19  C   UNL A   1      41.548  31.577  30.279  1.00  0.00     0.031 C 
ATOM     20  C   UNL A   1      40.191  25.115  28.312  1.00  0.00     0.029 A 
ATOM     21  C   UNL A   1      41.598  25.426  28.531  1.00  0.00     0.049 A 
ATOM     22  H   UNL A   1      42.371  27.122  29.476  1.00  0.00     0.167 HD
ATOM     23  C   UNL A   1      43.944  31.121  30.602  1.00  0.00     0.031 A 
ATOM     24  C   UNL A   1      42.646  24.652  28.172  1.00  0.00     0.031 A 
ATOM     25  C   UNL A   1      45.076  30.248  30.608  1.00  0.00     0.049 A 
ATOM     26  C   UNL A   1      44.041  25.132  28.499  1.00  0.00     0.074 A 
ATOM     27  C   UNL A   1      46.337  30.462  31.130  1.00  0.00     0.029 A 
ATOM     28  N   UNL A   1      45.064  28.969  30.073  1.00  0.00    -0.354 N 
ATOM     29  N   UNL A   1      44.423  26.283  29.001  1.00  0.00    -0.248 NA
ATOM     30  C   UNL A   1      45.145  24.191  28.256  1.00  0.00     0.031 C 
ATOM     31  C   UNL A   1      47.096  29.310  30.893  1.00  0.00     0.029 A 
ATOM     32  C   UNL A   1      46.294  28.375  30.254  1.00  0.00     0.049 A 
ATOM     33  H   UNL A   1      44.291  28.548  29.632  1.00  0.00     0.167 HD
ATOM     34  C   UNL A   1      45.790  26.166  29.228  1.00  0.00     0.074 A 
ATOM     35  C   UNL A   1      46.182  24.856  28.751  1.00  0.00     0.031 C 
ATOM     36  C   UNL A   1      46.635  27.043  29.823  1.00  0.00     0.031 A 
BRANCH  23  37
ATOM     37  C   UNL A   1      44.054  32.522  31.139  1.00  0.00    -0.014 A 
ATOM     38  C   UNL A   1      43.751  32.791  32.488  1.00  0.00     0.009 A 
ATOM     39  C   UNL A   1      44.364  33.589  30.288  1.00  0.00     0.009 A 
ATOM     40  C   UNL A   1      43.654  34.105  32.947  1.00  0.00     0.001 A 
ATOM     41  C   UNL A   1      44.312  34.903  30.764  1.00  0.00     0.001 A 
ATOM     42  C   UNL A   1      43.931  35.160  32.081  1.00  0.00     0.000 A 
ENDBRANCH  23  37
BRANCH  24  43
ATOM     43  C   UNL A   1      42.453  23.358  27.450  1.00  0.00    -0.014 A 
ATOM     44  C   UNL A   1      42.187  22.174  28.151  1.00  0.00     0.009 A 
ATOM     45  C   UNL A   1      42.608  23.279  26.056  1.00  0.00     0.009 A 
ATOM     46  C   UNL A   1      42.121  20.945  27.480  1.00  0.00     0.001 A 
ATOM     47  C   UNL A   1      42.530  22.055  25.384  1.00  0.00     0.001 A 
ATOM     48  C   UNL A   1      42.297  20.885  26.098  1.00  0.00     0.000 A 
ENDBRANCH  24  43
BRANCH  36  49
ATOM     49  C   UNL A   1      48.024  26.574  30.144  1.00  0.00    -0.014 A 
ATOM     50  C   UNL A   1      49.114  26.861  29.316  1.00  0.00     0.009 A 
ATOM     51  C   UNL A   1      48.245  25.942  31.380  1.00  0.00     0.009 A 
ATOM     52  C   UNL A   1      50.408  26.522  29.722  1.00  0.00     0.001 A 
ATOM     53  C   UNL A   1      49.538  25.628  31.794  1.00  0.00     0.001 A 
ATOM     54  C   UNL A   1      50.619  25.918  30.963  1.00  0.00     0.000 A 
ENDBRANCH  36  49
ENDBRANCH  10  11
ENDBRANCH   3   5
ENDBRANCH   2   3
ENDBRANCH   1   2
BRANCH   1  55
ATOM     55  C   UNL A   1      34.115  34.385  29.030  1.00  0.00     0.274 C 
BRANCH  55  56
ATOM     56  O   UNL A   1      33.797  33.949  30.362  1.00  0.00    -0.457 OA
BRANCH  56  57
ATOM     57  C   UNL A   1      34.313  34.748  31.356  1.00  0.00     0.368 C 
ATOM     58  O   UNL A   1      33.844  35.854  31.632  1.00  0.00    -0.245 OA
BRANCH  57  59
ATOM     59  C   UNL A   1      35.556  34.124  32.045  1.00  0.00     0.197 C 
ATOM     60  C   UNL A   1      35.576  34.342  33.547  1.00  0.00     0.084 C 
ATOM     61  C   UNL A   1      35.492  32.564  32.032  1.00  0.00     0.113 C 
ATOM     62  C   UNL A   1      36.555  33.340  34.088  1.00  0.00     0.039 C 
ATOM     63  C   UNL A   1      36.211  32.078  33.325  1.00  0.00     0.125 C 
BRANCH  59  64
ATOM     64  N   UNL A   1      36.807  34.504  31.367  1.00  0.00    -0.330 N 
ATOM     65  H   UNL A   1      37.455  34.773  32.106  1.00  0.00     0.347 HD
ATOM     66  H   UNL A   1      36.472  35.199  30.700  1.00  0.00     0.347 HD
BRANCH  64  67
ATOM     67  C   UNL A   1      37.547  33.601  30.494  1.00  0.00     0.183 C 
ATOM     68  C   UNL A   1      37.711  33.623  29.004  1.00  0.00     0.071 C 
ATOM     69  C   UNL A   1      38.797  34.183  29.866  1.00  0.00     0.071 C 
ENDBRANCH  64  67
ENDBRANCH  59  64
BRANCH  63  70
ATOM     70  O   UNL A   1      37.389  31.326  33.071  1.00  0.00    -0.375 OA
BRANCH  70  71
ATOM     71  C   UNL A   1      38.585  31.561  33.870  1.00  0.00     0.118 C 
ATOM     72  C   UNL A   1      39.667  30.442  33.946  1.00  0.00     0.032 C 
ATOM     73  C   UNL A   1      39.731  32.482  33.374  1.00  0.00     0.032 C 
ATOM     74  C   UNL A   1      40.713  31.561  34.114  1.00  0.00     0.005 C 
ENDBRANCH  70  71
ENDBRANCH  63  70
ENDBRANCH  57  59
ENDBRANCH  56  57
ENDBRANCH  55  56
ENDBRANCH   1  55
TORSDOF 15
ENDMDL
MODEL 2
REMARK VINA RESULT:      -8.5      4.880      9.979
REMARK SMILES O=C(OCCOC(=O)[C@@]1([NH2+]C2CC2)CC[C@H](OC2CCC2)C1)c1ccc(-c2c3nc(c(-c4ccccc4)c4ccc([nH]4)c(-c4ccccc4)c4nc(c(-c5ccccc5)c5ccc2[nH]5)C=C4)C=C3)cc1
REMARK SMILES IDX 4 1 3 2 2 3 1 4 23 5 24 6 70 7 25 8 69 9 26 10 27 11 28 12
REMARK SMILES IDX 63 13 29 14 68 15 62 16 64 17 30 18 67 19 61 20 60 21 31 23
REMARK SMILES IDX 53 24 38 25 52 26 39 27 42 28 51 29 65 30 40 31 41 32 50 34
REMARK SMILES IDX 66 35 43 36 32 37 33 38 37 39 34 40 36 41 35 42 54 43 55 44
REMARK SMILES IDX 59 45 56 46 58 47 57 48 44 49 45 50 49 51 46 52 48 53 47 54
REMARK SMILES IDX 5 55 6 56 7 57 8 58 9 59 14 60 22 61 15 62 16 63 10 64 11 67
REMARK SMILES IDX 12 68 13 69 17 70 18 71 19 72 21 73 20 74
REMARK H PARENT 64 22 42 33 10 65 10 66
REMARK Flexibility Score: inf
ROOT
ATOM      1  C   UNL A   1      38.899  20.323  25.616  1.00  0.00     0.275 C 
ENDROOT
BRANCH   1   2
ATOM      2  O   UNL A   1      39.891  19.283  25.729  1.00  0.00    -0.458 OA
BRANCH   2   3
ATOM      3  C   UNL A   1      41.214  19.405  25.968  1.00  0.00     0.338 C 
ATOM      4  O   UNL A   1      41.928  18.401  25.892  1.00  0.00    -0.246 OA
BRANCH   3   5
ATOM      5  C   UNL A   1      41.862  20.707  26.318  1.00  0.00     0.060 A 
ATOM      6  C   UNL A   1      42.328  21.673  25.418  1.00  0.00     0.016 A 
ATOM      7  C   UNL A   1      42.002  20.972  27.686  1.00  0.00     0.016 A 
ATOM      8  C   UNL A   1      42.771  22.935  25.857  1.00  0.00     0.010 A 
ATOM      9  C   UNL A   1      42.423  22.229  28.125  1.00  0.00     0.010 A 
ATOM     10  C   UNL A   1      42.792  23.240  27.217  1.00  0.00    -0.014 A 
BRANCH  10  11
ATOM     11  C   UNL A   1      43.357  24.505  27.766  1.00  0.00     0.031 A 
ATOM     12  C   UNL A   1      42.361  25.591  28.072  1.00  0.00     0.074 A 
ATOM     13  C   UNL A   1      44.681  24.757  27.865  1.00  0.00     0.049 A 
ATOM     14  N   UNL A   1      42.537  26.876  28.216  1.00  0.00    -0.248 NA
ATOM     15  C   UNL A   1      40.950  25.161  28.132  1.00  0.00     0.031 C 
ATOM     16  C   UNL A   1      45.765  23.812  27.585  1.00  0.00     0.029 A 
ATOM     17  N   UNL A   1      45.342  25.933  28.147  1.00  0.00    -0.354 N 
ATOM     18  C   UNL A   1      41.257  27.394  28.359  1.00  0.00     0.074 A 
ATOM     19  C   UNL A   1      40.325  26.324  28.096  1.00  0.00     0.031 C 
ATOM     20  C   UNL A   1      46.942  24.468  27.608  1.00  0.00     0.029 A 
ATOM     21  C   UNL A   1      46.701  25.876  27.903  1.00  0.00     0.049 A 
ATOM     22  H   UNL A   1      44.890  26.737  28.491  1.00  0.00     0.167 HD
ATOM     23  C   UNL A   1      40.877  28.619  28.788  1.00  0.00     0.031 A 
ATOM     24  C   UNL A   1      47.623  26.863  27.861  1.00  0.00     0.031 A 
ATOM     25  C   UNL A   1      41.809  29.647  29.132  1.00  0.00     0.049 A 
ATOM     26  C   UNL A   1      47.190  28.267  28.218  1.00  0.00     0.074 A 
ATOM     27  C   UNL A   1      41.574  30.872  29.725  1.00  0.00     0.029 A 
ATOM     28  N   UNL A   1      43.176  29.546  28.924  1.00  0.00    -0.354 N 
ATOM     29  N   UNL A   1      45.984  28.723  28.467  1.00  0.00    -0.248 NA
ATOM     30  C   UNL A   1      48.248  29.282  28.335  1.00  0.00     0.031 C 
ATOM     31  C   UNL A   1      42.806  31.523  29.860  1.00  0.00     0.029 A 
ATOM     32  C   UNL A   1      43.804  30.686  29.381  1.00  0.00     0.049 A 
ATOM     33  H   UNL A   1      43.631  28.776  28.513  1.00  0.00     0.167 HD
ATOM     34  C   UNL A   1      46.151  30.043  28.868  1.00  0.00     0.074 A 
ATOM     35  C   UNL A   1      47.566  30.335  28.768  1.00  0.00     0.031 C 
ATOM     36  C   UNL A   1      45.224  30.921  29.325  1.00  0.00     0.031 A 
BRANCH  23  37
ATOM     37  C   UNL A   1      39.400  28.828  28.979  1.00  0.00    -0.014 A 
ATOM     38  C   UNL A   1      38.617  29.364  27.938  1.00  0.00     0.009 A 
ATOM     39  C   UNL A   1      38.801  28.585  30.221  1.00  0.00     0.009 A 
ATOM     40  C   UNL A   1      37.296  29.748  28.166  1.00  0.00     0.001 A 
ATOM     41  C   UNL A   1      37.463  28.929  30.432  1.00  0.00     0.001 A 
ATOM     42  C   UNL A   1      36.721  29.533  29.416  1.00  0.00     0.000 A 
ENDBRANCH  23  37
BRANCH  24  43
ATOM     43  C   UNL A   1      49.036  26.599  27.457  1.00  0.00    -0.014 A 
ATOM     44  C   UNL A   1      49.424  26.660  26.111  1.00  0.00     0.009 A 
ATOM     45  C   UNL A   1      49.998  26.209  28.404  1.00  0.00     0.009 A 
ATOM     46  C   UNL A   1      50.723  26.301  25.725  1.00  0.00     0.001 A 
ATOM     47  C   UNL A   1      51.298  25.862  28.020  1.00  0.00     0.001 A 
ATOM     48  C   UNL A   1      51.657  25.897  26.678  1.00  0.00     0.000 A 
ENDBRANCH  24  43
BRANCH  36  49
ATOM     49  C   UNL A   1      45.708  32.217  29.904  1.00  0.00    -0.014 A 
ATOM     50  C   UNL A   1      45.769  33.392  29.146  1.00  0.00     0.009 A 
ATOM     51  C   UNL A   1      45.980  32.272  31.282  1.00  0.00     0.009 A 
ATOM     52  C   UNL A   1      46.096  34.604  29.761  1.00  0.00     0.001 A 
ATOM     53  C   UNL A   1      46.282  33.486  31.897  1.00  0.00     0.001 A 
ATOM     54  C   UNL A   1      46.340  34.651  31.135  1.00  0.00     0.000 A 
ENDBRANCH  36  49
ENDBRANCH  10  11
ENDBRANCH   3   5
ENDBRANCH   2   3
ENDBRANCH   1   2
BRANCH   1  55
ATOM     55  C   UNL A   1      37.655  19.963  24.799  1.00  0.00     0.274 C 
BRANCH  55  56
ATOM     56  O   UNL A   1      36.442  20.526  25.324  1.00  0.00    -0.457 OA
BRANCH  56  57
ATOM     57  C   UNL A   1      36.005  21.649  24.659  1.00  0.00     0.368 C 
ATOM     58  O   UNL A   1      36.641  22.167  23.739  1.00  0.00    -0.245 OA
BRANCH  57  59
ATOM     59  C   UNL A   1      34.666  22.198  25.220  1.00  0.00     0.197 C 
ATOM     60  C   UNL A   1      34.841  23.458  26.049  1.00  0.00     0.084 C 
ATOM     61  C   UNL A   1      33.770  22.784  24.085  1.00  0.00     0.113 C 
ATOM     62  C   UNL A   1      33.477  24.078  26.133  1.00  0.00     0.039 C 
ATOM     63  C   UNL A   1      32.954  23.949  24.717  1.00  0.00     0.125 C 
BRANCH  59  64
ATOM     64  N   UNL A   1      33.879  21.147  25.884  1.00  0.00    -0.330 N 
ATOM     65  H   UNL A   1      33.376  21.609  26.641  1.00  0.00     0.347 HD
ATOM     66  H   UNL A   1      34.599  20.456  26.095  1.00  0.00     0.347 HD
BRANCH  64  67
ATOM     67  C   UNL A   1      32.892  20.329  25.189  1.00  0.00     0.183 C 
ATOM     68  C   UNL A   1      33.087  19.222  24.196  1.00  0.00     0.071 C 
ATOM     69  C   UNL A   1      32.822  18.880  25.627  1.00  0.00     0.071 C 
ENDBRANCH  64  67
ENDBRANCH  59  64
BRANCH  63  70
ATOM     70  O   UNL A   1      31.552  23.717  24.736  1.00  0.00    -0.375 OA
BRANCH  70  71
ATOM     71  C   UNL A   1      30.638  24.768  24.306  1.00  0.00     0.118 C 
ATOM     72  C   UNL A   1      30.184  25.836  25.344  1.00  0.00     0.032 C 
ATOM     73  C   UNL A   1      31.119  25.967  23.447  1.00  0.00     0.032 C 
ATOM     74  C   UNL A   1      30.075  26.829  24.172  1.00  0.00     0.005 C 
ENDBRANCH  70  71
ENDBRANCH  63  70
ENDBRANCH  57  59
ENDBRANCH  56  57
ENDBRANCH  55  56
ENDBRANCH   1  55
TORSDOF 15
ENDMDL
MODEL 3
REMARK VINA RESULT:      -8.5      4.352      9.507
REMARK SMILES O=C(OCCOC(=O)[C@@]1([NH2+]C2CC2)CC[C@H](OC2CCC2)C1)c1ccc(-c2c3nc(c(-c4ccccc4)c4ccc([nH]4)c(-c4ccccc4)c4nc(c(-c5ccccc5)c5ccc2[nH]5)C=C4)C=C3)cc1
REMARK SMILES IDX 4 1 3 2 2 3 1 4 23 5 24 6 70 7 25 8 69 9 26 10 27 11 28 12
REMARK SMILES IDX 63 13 29 14 68 15 62 16 64 17 30 18 67 19 61 20 60 21 31 23
REMARK SMILES IDX 53 24 38 25 52 26 39 27 42 28 51 29 65 30 40 31 41 32 50 34
REMARK SMILES IDX 66 35 43 36 32 37 33 38 37 39 34 40 36 41 35 42 54 43 55 44
REMARK SMILES IDX 59 45 56 46 58 47 57 48 44 49 45 50 49 51 46 52 48 53 47 54
REMARK SMILES IDX 5 55 6 56 7 57 8 58 9 59 14 60 22 61 15 62 16 63 10 64 11 67
REMARK SMILES IDX 12 68 13 69 17 70 18 71 19 72 21 73 20 74
REMARK H PARENT 64 22 42 33 10 65 10 66
REMARK Flexibility Score: inf
ROOT
ATOM      1  C   UNL A   1      32.712  31.989  26.945  1.00  0.00     0.275 C 
ENDROOT
BRANCH   1   2
ATOM      2  O   UNL A   1      32.366  33.294  27.449  1.00  0.00    -0.458 OA
BRANCH   2   3
ATOM      3  C   UNL A   1      33.050  34.068  28.317  1.00  0.00     0.338 C 
ATOM      4  O   UNL A   1      32.547  35.132  28.692  1.00  0.00    -0.246 OA
BRANCH   3   5
ATOM      5  C   UNL A   1      34.396  33.698  28.854  1.00  0.00     0.060 A 
ATOM      6  C   UNL A   1      35.634  34.132  28.366  1.00  0.00     0.016 A 
ATOM      7  C   UNL A   1      34.399  32.836  29.959  1.00  0.00     0.016 A 
ATOM      8  C   UNL A   1      36.833  33.854  29.049  1.00  0.00     0.010 A 
ATOM      9  C   UNL A   1      35.583  32.573  30.650  1.00  0.00     0.010 A 
ATOM     10  C   UNL A   1      36.817  33.097  30.220  1.00  0.00    -0.014 A 
BRANCH  10  11
ATOM     11  C   UNL A   1      38.052  32.661  30.933  1.00  0.00     0.031 A 
ATOM     12  C   UNL A   1      38.682  31.388  30.436  1.00  0.00     0.074 A 
ATOM     13  C   UNL A   1      38.528  33.261  32.046  1.00  0.00     0.049 A 
ATOM     14  N   UNL A   1      39.516  30.578  31.029  1.00  0.00    -0.248 NA
ATOM     15  C   UNL A   1      38.225  30.927  29.111  1.00  0.00     0.031 C 
ATOM     16  C   UNL A   1      38.011  34.487  32.658  1.00  0.00     0.029 A 
ATOM     17  N   UNL A   1      39.514  32.855  32.920  1.00  0.00    -0.354 N 
ATOM     18  C   UNL A   1      39.656  29.512  30.150  1.00  0.00     0.074 A 
ATOM     19  C   UNL A   1      38.688  29.691  29.095  1.00  0.00     0.031 C 
ATOM     20  C   UNL A   1      38.610  34.675  33.851  1.00  0.00     0.029 A 
ATOM     21  C   UNL A   1      39.551  33.587  34.091  1.00  0.00     0.049 A 
ATOM     22  H   UNL A   1      40.134  32.115  32.728  1.00  0.00     0.167 HD
ATOM     23  C   UNL A   1      40.583  28.527  30.147  1.00  0.00     0.031 A 
ATOM     24  C   UNL A   1      40.221  33.360  35.242  1.00  0.00     0.031 A 
ATOM     25  C   UNL A   1      41.595  28.408  31.150  1.00  0.00     0.049 A 
ATOM     26  C   UNL A   1      41.173  32.187  35.301  1.00  0.00     0.074 A 
ATOM     27  C   UNL A   1      42.687  27.562  31.188  1.00  0.00     0.029 A 
ATOM     28  N   UNL A   1      41.640  29.189  32.294  1.00  0.00    -0.354 N 
ATOM     29  N   UNL A   1      41.382  31.245  34.410  1.00  0.00    -0.248 NA
ATOM     30  C   UNL A   1      42.016  32.071  36.501  1.00  0.00     0.031 C 
ATOM     31  C   UNL A   1      43.386  27.823  32.372  1.00  0.00     0.029 A 
ATOM     32  C   UNL A   1      42.744  28.851  33.048  1.00  0.00     0.049 A 
ATOM     33  H   UNL A   1      40.983  29.882  32.532  1.00  0.00     0.167 HD
ATOM     34  C   UNL A   1      42.445  30.491  34.893  1.00  0.00     0.074 A 
ATOM     35  C   UNL A   1      42.796  31.044  36.185  1.00  0.00     0.031 C 
ATOM     36  C   UNL A   1      43.103  29.465  34.301  1.00  0.00     0.031 A 
BRANCH  23  37
ATOM     37  C   UNL A   1      40.560  27.596  28.967  1.00  0.00    -0.014 A 
ATOM     38  C   UNL A   1      41.254  27.928  27.787  1.00  0.00     0.009 A 
ATOM     39  C   UNL A   1      39.775  26.437  28.988  1.00  0.00     0.009 A 
ATOM     40  C   UNL A   1      41.080  27.178  26.624  1.00  0.00     0.001 A 
ATOM     41  C   UNL A   1      39.639  25.661  27.832  1.00  0.00     0.001 A 
ATOM     42  C   UNL A   1      40.268  26.046  26.648  1.00  0.00     0.000 A 
ENDBRANCH  23  37
BRANCH  24  43
ATOM     43  C   UNL A   1      40.027  34.222  36.446  1.00  0.00    -0.014 A 
ATOM     44  C   UNL A   1      39.099  33.876  37.439  1.00  0.00     0.009 A 
ATOM     45  C   UNL A   1      40.712  35.442  36.580  1.00  0.00     0.009 A 
ATOM     46  C   UNL A   1      38.839  34.745  38.508  1.00  0.00     0.001 A 
ATOM     47  C   UNL A   1      40.461  36.304  37.652  1.00  0.00     0.001 A 
ATOM     48  C   UNL A   1      39.516  35.960  38.611  1.00  0.00     0.000 A 
ENDBRANCH  24  43
BRANCH  36  49
ATOM     49  C   UNL A   1      44.363  28.970  34.948  1.00  0.00    -0.014 A 
ATOM     50  C   UNL A   1      44.371  27.868  35.810  1.00  0.00     0.009 A 
ATOM     51  C   UNL A   1      45.583  29.556  34.568  1.00  0.00     0.009 A 
ATOM     52  C   UNL A   1      45.584  27.359  36.281  1.00  0.00     0.001 A 
ATOM     53  C   UNL A   1      46.792  29.032  35.020  1.00  0.00     0.001 A 
ATOM     54  C   UNL A   1      46.791  27.934  35.877  1.00  0.00     0.000 A 
ENDBRANCH  36  49
ENDBRANCH  10  11
ENDBRANCH   3   5
ENDBRANCH   2   3
ENDBRANCH   1   2
BRANCH   1  55
ATOM     55  C   UNL A   1      31.532  31.111  26.520  1.00  0.00     0.274 C 
BRANCH  55  56
ATOM     56  O   UNL A   1      31.924  29.930  25.802  1.00  0.00    -0.457 OA
BRANCH  56  57
ATOM     57  C   UNL A   1      31.836  28.768  26.534  1.00  0.00     0.368 C 
ATOM     58  O   UNL A   1      31.439  28.744  27.700  1.00  0.00    -0.245 OA
BRANCH  57  59
ATOM     59  C   UNL A   1      32.326  27.523  25.746  1.00  0.00     0.197 C 
ATOM     60  C   UNL A   1      33.763  27.148  26.062  1.00  0.00     0.084 C 
ATOM     61  C   UNL A   1      31.626  26.221  26.246  1.00  0.00     0.113 C 
ATOM     62  C   UNL A   1      33.924  25.733  25.585  1.00  0.00     0.039 C 
ATOM     63  C   UNL A   1      32.651  25.065  26.061  1.00  0.00     0.125 C 
BRANCH  59  64
ATOM     64  N   UNL A   1      32.037  27.637  24.307  1.00  0.00    -0.330 N 
ATOM     65  H   UNL A   1      32.719  27.042  23.837  1.00  0.00     0.347 HD
ATOM     66  H   UNL A   1      32.063  28.648  24.175  1.00  0.00     0.347 HD
BRANCH  64  67
ATOM     67  C   UNL A   1      30.744  27.302  23.724  1.00  0.00     0.183 C 
ATOM     68  C   UNL A   1      29.541  28.166  23.493  1.00  0.00     0.071 C 
ATOM     69  C   UNL A   1      30.474  27.897  22.357  1.00  0.00     0.071 C 
ENDBRANCH  64  67
ENDBRANCH  59  64
BRANCH  63  70
ATOM     70  O   UNL A   1      32.237  24.082  25.122  1.00  0.00    -0.375 OA
BRANCH  70  71
ATOM     71  C   UNL A   1      33.057  23.812  23.947  1.00  0.00     0.118 C 
ATOM     72  C   UNL A   1      32.884  22.450  23.210  1.00  0.00     0.032 C 
ATOM     73  C   UNL A   1      32.756  24.468  22.573  1.00  0.00     0.032 C 
ATOM     74  C   UNL A   1      33.274  23.182  21.912  1.00  0.00     0.005 C 
ENDBRANCH  70  71
ENDBRANCH  63  70
ENDBRANCH  57  59
ENDBRANCH  56  57
ENDBRANCH  55  56
ENDBRANCH   1  55
TORSDOF 15
ENDMDL
