MODEL 1
REMARK VINA RESULT:      -9.1      0.000      0.000
REMARK SMILES O=C(CCCC(=O)OCCOC(=O)c1ccc(-c2c3nc(c(-c4ccccc4)c4ccc([nH]4)c(-c4ccccc4)c4nc(c(-c5ccccc5)c5ccc2[nH]5)C=C4)C=C3)cc1)Nc1ccccc1F
REMARK SMILES IDX 9 1 8 2 6 3 7 4 5 5 4 6 3 7 2 8 1 9 62 10 63 12 64 13 68 14
REMARK SMILES IDX 65 15 67 16 69 17 66 18 10 19 11 20 12 21 13 22 14 23 15 24
REMARK SMILES IDX 61 25 16 26 60 27 17 28 18 29 19 30 54 31 20 32 59 33 53 34
REMARK SMILES IDX 55 35 21 36 58 37 52 38 51 39 22 41 44 42 29 43 43 44 30 45
REMARK SMILES IDX 33 46 42 47 56 48 31 49 32 50 41 52 57 53 34 54 23 55 24 56
REMARK SMILES IDX 28 57 25 58 27 59 26 60 45 61 46 62 50 63 47 64 49 65 48 66
REMARK SMILES IDX 35 67 36 68 40 69 37 70 39 71 38 72
REMARK H PARENT 62 11 55 40 33 51
REMARK Flexibility Score: inf
ROOT
ATOM      1  C   UNL A   1      44.038  18.439  25.734  1.00  0.00     0.274 C 
ENDROOT
BRANCH   1   2
ATOM      2  O   UNL A   1      44.169  19.134  24.475  1.00  0.00    -0.462 OA
BRANCH   2   3
ATOM      3  C   UNL A   1      45.407  19.242  23.941  1.00  0.00     0.305 C 
ATOM      4  O   UNL A   1      45.809  18.598  22.980  1.00  0.00    -0.252 OA
BRANCH   3   5
ATOM      5  C   UNL A   1      46.303  20.198  24.709  1.00  0.00     0.123 C 
BRANCH   5   6
ATOM      6  C   UNL A   1      45.688  21.504  25.220  1.00  0.00     0.022 C 
BRANCH   6   7
ATOM      7  C   UNL A   1      45.962  22.791  24.428  1.00  0.00     0.101 C 
BRANCH   7   8
ATOM      8  C   UNL A   1      46.476  23.940  25.276  1.00  0.00     0.224 C 
ATOM      9  O   UNL A   1      47.147  23.737  26.282  1.00  0.00    -0.275 OA
ATOM     10  N   UNL A   1      46.014  25.172  24.846  1.00  0.00    -0.324 N 
ATOM     11  H   UNL A   1      45.497  25.206  24.009  1.00  0.00     0.170 HD
BRANCH  10  12
ATOM     12  C   UNL A   1      46.239  26.378  25.529  1.00  0.00     0.077 A 
ATOM     13  C   UNL A   1      47.565  26.796  25.689  1.00  0.00     0.029 A 
ATOM     14  C   UNL A   1      45.207  27.147  26.072  1.00  0.00     0.146 A 
ATOM     15  C   UNL A   1      47.846  28.002  26.335  1.00  0.00     0.002 A 
ATOM     16  C   UNL A   1      45.488  28.327  26.754  1.00  0.00     0.041 A 
ATOM     17  F   UNL A   1      43.939  26.710  26.047  1.00  0.00    -0.205 F 
ATOM     18  C   UNL A   1      46.808  28.764  26.873  1.00  0.00     0.003 A 
ENDBRANCH  10  12
ENDBRANCH   7   8
ENDBRANCH   6   7
ENDBRANCH   5   6
ENDBRANCH   3   5
ENDBRANCH   2   3
ENDBRANCH   1   2
BRANCH   1  19
ATOM     19  C   UNL A   1      42.604  18.523  26.264  1.00  0.00     0.275 C 
BRANCH  19  20
ATOM     20  O   UNL A   1      41.751  19.223  25.338  1.00  0.00    -0.458 OA
BRANCH  20  21
ATOM     21  C   UNL A   1      40.756  19.940  25.910  1.00  0.00     0.338 C 
ATOM     22  O   UNL A   1      39.595  19.606  26.066  1.00  0.00    -0.246 OA
BRANCH  21  23
ATOM     23  C   UNL A   1      41.318  21.162  26.498  1.00  0.00     0.060 A 
ATOM     24  C   UNL A   1      41.082  21.395  27.852  1.00  0.00     0.016 A 
ATOM     25  C   UNL A   1      41.990  22.104  25.722  1.00  0.00     0.016 A 
ATOM     26  C   UNL A   1      41.503  22.576  28.446  1.00  0.00     0.010 A 
ATOM     27  C   UNL A   1      42.423  23.292  26.321  1.00  0.00     0.010 A 
ATOM     28  C   UNL A   1      42.170  23.537  27.684  1.00  0.00    -0.014 A 
BRANCH  28  29
ATOM     29  C   UNL A   1      42.539  24.824  28.313  1.00  0.00     0.031 A 
ATOM     30  C   UNL A   1      41.494  25.886  28.494  1.00  0.00     0.074 A 
ATOM     31  C   UNL A   1      43.791  25.013  28.769  1.00  0.00     0.049 A 
ATOM     32  N   UNL A   1      41.630  27.109  28.934  1.00  0.00    -0.248 NA
ATOM     33  C   UNL A   1      40.114  25.520  28.136  1.00  0.00     0.031 C 
ATOM     34  C   UNL A   1      44.869  24.023  28.723  1.00  0.00     0.029 A 
ATOM     35  N   UNL A   1      44.363  26.103  29.371  1.00  0.00    -0.354 N 
ATOM     36  C   UNL A   1      40.360  27.669  28.883  1.00  0.00     0.074 A 
ATOM     37  C   UNL A   1      39.467  26.656  28.362  1.00  0.00     0.031 C 
ATOM     38  C   UNL A   1      45.970  24.550  29.282  1.00  0.00     0.029 A 
ATOM     39  C   UNL A   1      45.692  25.928  29.670  1.00  0.00     0.049 A 
ATOM     40  H   UNL A   1      43.869  26.931  29.570  1.00  0.00     0.167 HD
ATOM     41  C   UNL A   1      39.976  28.917  29.238  1.00  0.00     0.031 A 
ATOM     42  C   UNL A   1      46.591  26.797  30.170  1.00  0.00     0.031 A 
ATOM     43  C   UNL A   1      40.866  29.918  29.761  1.00  0.00     0.049 A 
ATOM     44  C   UNL A   1      46.153  28.200  30.483  1.00  0.00     0.074 A 
ATOM     45  C   UNL A   1      40.582  31.223  30.122  1.00  0.00     0.029 A 
ATOM     46  N   UNL A   1      42.215  29.718  30.007  1.00  0.00    -0.354 N 
ATOM     47  N   UNL A   1      44.960  28.735  30.383  1.00  0.00    -0.248 NA
ATOM     48  C   UNL A   1      47.188  29.121  30.971  1.00  0.00     0.031 C 
ATOM     49  C   UNL A   1      41.768  31.823  30.556  1.00  0.00     0.029 A 
ATOM     50  C   UNL A   1      42.780  30.878  30.506  1.00  0.00     0.049 A 
ATOM     51  H   UNL A   1      42.699  28.875  29.849  1.00  0.00     0.167 HD
ATOM     52  C   UNL A   1      45.098  30.047  30.812  1.00  0.00     0.074 A 
ATOM     53  C   UNL A   1      46.485  30.222  31.192  1.00  0.00     0.031 C 
ATOM     54  C   UNL A   1      44.161  31.024  30.883  1.00  0.00     0.031 A 
BRANCH  41  55
ATOM     55  C   UNL A   1      38.534  29.281  29.033  1.00  0.00    -0.014 A 
ATOM     56  C   UNL A   1      37.612  29.225  30.089  1.00  0.00     0.009 A 
ATOM     57  C   UNL A   1      38.102  29.720  27.772  1.00  0.00     0.009 A 
ATOM     58  C   UNL A   1      36.277  29.581  29.878  1.00  0.00     0.001 A 
ATOM     59  C   UNL A   1      36.773  30.096  27.570  1.00  0.00     0.001 A 
ATOM     60  C   UNL A   1      35.861  30.021  28.621  1.00  0.00     0.000 A 
ENDBRANCH  41  55
BRANCH  42  61
ATOM     61  C   UNL A   1      48.005  26.384  30.356  1.00  0.00    -0.014 A 
ATOM     62  C   UNL A   1      48.937  26.524  29.317  1.00  0.00     0.009 A 
ATOM     63  C   UNL A   1      48.425  25.821  31.572  1.00  0.00     0.009 A 
ATOM     64  C   UNL A   1      50.253  26.084  29.483  1.00  0.00     0.001 A 
ATOM     65  C   UNL A   1      49.748  25.410  31.746  1.00  0.00     0.001 A 
ATOM     66  C   UNL A   1      50.657  25.532  30.698  1.00  0.00     0.000 A 
ENDBRANCH  42  61
BRANCH  54  67
ATOM     67  C   UNL A   1      44.602  32.352  31.425  1.00  0.00    -0.014 A 
ATOM     68  C   UNL A   1      44.488  32.652  32.791  1.00  0.00     0.009 A 
ATOM     69  C   UNL A   1      45.169  33.299  30.561  1.00  0.00     0.009 A 
ATOM     70  C   UNL A   1      44.908  33.891  33.276  1.00  0.00     0.001 A 
ATOM     71  C   UNL A   1      45.610  34.528  31.052  1.00  0.00     0.001 A 
ATOM     72  C   UNL A   1      45.471  34.826  32.407  1.00  0.00     0.000 A 
ENDBRANCH  54  67
ENDBRANCH  28  29
ENDBRANCH  21  23
ENDBRANCH  20  21
ENDBRANCH  19  20
ENDBRANCH   1  19
TORSDOF 15
ENDMDL
MODEL 2
REMARK VINA RESULT:      -8.7      3.576      7.990
REMARK SMILES O=C(CCCC(=O)OCCOC(=O)c1ccc(-c2c3nc(c(-c4ccccc4)c4ccc([nH]4)c(-c4ccccc4)c4nc(c(-c5ccccc5)c5ccc2[nH]5)C=C4)C=C3)cc1)Nc1ccccc1F
REMARK SMILES IDX 9 1 8 2 6 3 7 4 5 5 4 6 3 7 2 8 1 9 62 10 63 12 64 13 68 14
REMARK SMILES IDX 65 15 67 16 69 17 66 18 10 19 11 20 12 21 13 22 14 23 15 24
REMARK SMILES IDX 61 25 16 26 60 27 17 28 18 29 19 30 54 31 20 32 59 33 53 34
REMARK SMILES IDX 55 35 21 36 58 37 52 38 51 39 22 41 44 42 29 43 43 44 30 45
REMARK SMILES IDX 33 46 42 47 56 48 31 49 32 50 41 52 57 53 34 54 23 55 24 56
REMARK SMILES IDX 28 57 25 58 27 59 26 60 45 61 46 62 50 63 47 64 49 65 48 66
REMARK SMILES IDX 35 67 36 68 40 69 37 70 39 71 38 72
REMARK H PARENT 62 11 55 40 33 51
REMARK Flexibility Score: inf
ROOT
ATOM      1  C   UNL A   1      46.143  21.164  24.376  1.00  0.00     0.274 C 
ENDROOT
BRANCH   1   2
ATOM      2  O   UNL A   1      46.265  20.134  25.380  1.00  0.00    -0.462 OA
BRANCH   2   3
ATOM      3  C   UNL A   1      45.505  19.024  25.240  1.00  0.00     0.305 C 
ATOM      4  O   UNL A   1      45.935  17.877  25.267  1.00  0.00    -0.252 OA
BRANCH   3   5
ATOM      5  C   UNL A   1      44.046  19.337  24.958  1.00  0.00     0.123 C 
BRANCH   5   6
ATOM      6  C   UNL A   1      43.167  19.779  26.133  1.00  0.00     0.022 C 
BRANCH   6   7
ATOM      7  C   UNL A   1      41.699  19.329  26.148  1.00  0.00     0.101 C 
BRANCH   7   8
ATOM      8  C   UNL A   1      40.732  20.396  26.626  1.00  0.00     0.224 C 
ATOM      9  O   UNL A   1      40.593  20.640  27.820  1.00  0.00    -0.275 OA
ATOM     10  N   UNL A   1      39.986  20.944  25.596  1.00  0.00    -0.324 N 
ATOM     11  H   UNL A   1      40.206  20.679  24.674  1.00  0.00     0.170 HD
BRANCH  10  12
ATOM     12  C   UNL A   1      38.936  21.857  25.786  1.00  0.00     0.077 A 
ATOM     13  C   UNL A   1      39.244  23.087  26.377  1.00  0.00     0.029 A 
ATOM     14  C   UNL A   1      37.613  21.574  25.437  1.00  0.00     0.146 A 
ATOM     15  C   UNL A   1      38.244  24.044  26.563  1.00  0.00     0.002 A 
ATOM     16  C   UNL A   1      36.608  22.510  25.662  1.00  0.00     0.041 A 
ATOM     17  F   UNL A   1      37.266  20.360  24.987  1.00  0.00    -0.205 F 
ATOM     18  C   UNL A   1      36.925  23.753  26.212  1.00  0.00     0.003 A 
ENDBRANCH  10  12
ENDBRANCH   7   8
ENDBRANCH   6   7
ENDBRANCH   5   6
ENDBRANCH   3   5
ENDBRANCH   2   3
ENDBRANCH   1   2
BRANCH   1  19
ATOM     19  C   UNL A   1      46.095  22.555  25.016  1.00  0.00     0.275 C 
BRANCH  19  20
ATOM     20  O   UNL A   1      44.982  22.669  25.922  1.00  0.00    -0.458 OA
BRANCH  20  21
ATOM     21  C   UNL A   1      43.861  23.205  25.386  1.00  0.00     0.338 C 
ATOM     22  O   UNL A   1      43.319  22.898  24.340  1.00  0.00    -0.246 OA
BRANCH  21  23
ATOM     23  C   UNL A   1      43.258  24.130  26.353  1.00  0.00     0.060 A 
ATOM     24  C   UNL A   1      43.548  25.487  26.217  1.00  0.00     0.016 A 
ATOM     25  C   UNL A   1      42.492  23.671  27.423  1.00  0.00     0.016 A 
ATOM     26  C   UNL A   1      43.087  26.401  27.154  1.00  0.00     0.010 A 
ATOM     27  C   UNL A   1      42.019  24.593  28.363  1.00  0.00     0.010 A 
ATOM     28  C   UNL A   1      42.325  25.960  28.238  1.00  0.00    -0.014 A 
BRANCH  28  29
ATOM     29  C   UNL A   1      41.912  26.937  29.270  1.00  0.00     0.031 A 
ATOM     30  C   UNL A   1      42.744  27.101  30.508  1.00  0.00     0.074 A 
ATOM     31  C   UNL A   1      40.829  27.709  29.067  1.00  0.00     0.049 A 
ATOM     32  N   UNL A   1      42.509  27.829  31.568  1.00  0.00    -0.248 NA
ATOM     33  C   UNL A   1      44.010  26.351  30.557  1.00  0.00     0.031 C 
ATOM     34  C   UNL A   1      39.991  27.696  27.866  1.00  0.00     0.029 A 
ATOM     35  N   UNL A   1      40.255  28.663  29.865  1.00  0.00    -0.354 N 
ATOM     36  C   UNL A   1      43.581  27.606  32.422  1.00  0.00     0.074 A 
ATOM     37  C   UNL A   1      44.465  26.669  31.761  1.00  0.00     0.031 C 
ATOM     38  C   UNL A   1      39.014  28.607  28.005  1.00  0.00     0.029 A 
ATOM     39  C   UNL A   1      39.124  29.223  29.323  1.00  0.00     0.049 A 
ATOM     40  H   UNL A   1      40.619  28.922  30.743  1.00  0.00     0.167 HD
ATOM     41  C   UNL A   1      43.805  28.135  33.647  1.00  0.00     0.031 A 
ATOM     42  C   UNL A   1      38.256  30.107  29.848  1.00  0.00     0.031 A 
ATOM     43  C   UNL A   1      42.926  29.070  34.296  1.00  0.00     0.049 A 
ATOM     44  C   UNL A   1      38.489  30.620  31.241  1.00  0.00     0.074 A 
ATOM     45  C   UNL A   1      43.048  29.642  35.551  1.00  0.00     0.029 A 
ATOM     46  N   UNL A   1      41.766  29.578  33.733  1.00  0.00    -0.354 N 
ATOM     47  N   UNL A   1      39.481  30.363  32.060  1.00  0.00    -0.248 NA
ATOM     48  C   UNL A   1      37.480  31.538  31.785  1.00  0.00     0.031 C 
ATOM     49  C   UNL A   1      41.942  30.471  35.760  1.00  0.00     0.029 A 
ATOM     50  C   UNL A   1      41.157  30.449  34.619  1.00  0.00     0.049 A 
ATOM     51  H   UNL A   1      41.427  29.352  32.838  1.00  0.00     0.167 HD
ATOM     52  C   UNL A   1      39.223  31.101  33.207  1.00  0.00     0.074 A 
ATOM     53  C   UNL A   1      37.994  31.830  32.970  1.00  0.00     0.031 C 
ATOM     54  C   UNL A   1      39.938  31.168  34.356  1.00  0.00     0.031 A 
BRANCH  41  55
ATOM     55  C   UNL A   1      45.033  27.681  34.382  1.00  0.00    -0.014 A 
ATOM     56  C   UNL A   1      45.011  26.545  35.206  1.00  0.00     0.009 A 
ATOM     57  C   UNL A   1      46.237  28.381  34.217  1.00  0.00     0.009 A 
ATOM     58  C   UNL A   1      46.169  26.133  35.869  1.00  0.00     0.001 A 
ATOM     59  C   UNL A   1      47.399  27.954  34.864  1.00  0.00     0.001 A 
ATOM     60  C   UNL A   1      47.363  26.835  35.693  1.00  0.00     0.000 A 
ENDBRANCH  41  55
BRANCH  42  61
ATOM     61  C   UNL A   1      37.058  30.526  29.076  1.00  0.00    -0.014 A 
ATOM     62  C   UNL A   1      36.047  29.605  28.764  1.00  0.00     0.009 A 
ATOM     63  C   UNL A   1      36.933  31.849  28.624  1.00  0.00     0.009 A 
ATOM     64  C   UNL A   1      34.949  29.996  27.993  1.00  0.00     0.001 A 
ATOM     65  C   UNL A   1      35.820  32.244  27.879  1.00  0.00     0.001 A 
ATOM     66  C   UNL A   1      34.835  31.315  27.555  1.00  0.00     0.000 A 
ENDBRANCH  42  61
BRANCH  54  67
ATOM     67  C   UNL A   1      39.424  32.089  35.424  1.00  0.00    -0.014 A 
ATOM     68  C   UNL A   1      38.429  31.675  36.322  1.00  0.00     0.009 A 
ATOM     69  C   UNL A   1      39.969  33.374  35.551  1.00  0.00     0.009 A 
ATOM     70  C   UNL A   1      37.967  32.546  37.310  1.00  0.00     0.001 A 
ATOM     71  C   UNL A   1      39.523  34.234  36.555  1.00  0.00     0.001 A 
ATOM     72  C   UNL A   1      38.517  33.822  37.428  1.00  0.00     0.000 A 
ENDBRANCH  54  67
ENDBRANCH  28  29
ENDBRANCH  21  23
ENDBRANCH  20  21
ENDBRANCH  19  20
ENDBRANCH   1  19
TORSDOF 15
ENDMDL
MODEL 3
REMARK VINA RESULT:      -8.5      5.433     10.877
REMARK SMILES O=C(CCCC(=O)OCCOC(=O)c1ccc(-c2c3nc(c(-c4ccccc4)c4ccc([nH]4)c(-c4ccccc4)c4nc(c(-c5ccccc5)c5ccc2[nH]5)C=C4)C=C3)cc1)Nc1ccccc1F
REMARK SMILES IDX 9 1 8 2 6 3 7 4 5 5 4 6 3 7 2 8 1 9 62 10 63 12 64 13 68 14
REMARK SMILES IDX 65 15 67 16 69 17 66 18 10 19 11 20 12 21 13 22 14 23 15 24
REMARK SMILES IDX 61 25 16 26 60 27 17 28 18 29 19 30 54 31 20 32 59 33 53 34
REMARK SMILES IDX 55 35 21 36 58 37 52 38 51 39 22 41 44 42 29 43 43 44 30 45
REMARK SMILES IDX 33 46 42 47 56 48 31 49 32 50 41 52 57 53 34 54 23 55 24 56
REMARK SMILES IDX 28 57 25 58 27 59 26 60 45 61 46 62 50 63 47 64 49 65 48 66
REMARK SMILES IDX 35 67 36 68 40 69 37 70 39 71 38 72
REMARK H PARENT 62 11 55 40 33 51
REMARK Flexibility Score: inf
ROOT
ATOM      1  C   UNL A   1      34.071  34.583  29.232  1.00  0.00     0.274 C 
ENDROOT
BRANCH   1   2
ATOM      2  O   UNL A   1      32.985  34.877  30.137  1.00  0.00    -0.462 OA
BRANCH   2   3
ATOM      3  C   UNL A   1      32.928  36.119  30.671  1.00  0.00     0.305 C 
ATOM      4  O   UNL A   1      32.970  37.158  30.023  1.00  0.00    -0.252 OA
BRANCH   3   5
ATOM      5  C   UNL A   1      32.890  36.111  32.189  1.00  0.00     0.123 C 
BRANCH   5   6
ATOM      6  C   UNL A   1      34.164  35.705  32.936  1.00  0.00     0.022 C 
BRANCH   6   7
ATOM      7  C   UNL A   1      34.385  34.214  33.233  1.00  0.00     0.101 C 
BRANCH   7   8
ATOM      8  C   UNL A   1      35.703  33.670  32.714  1.00  0.00     0.224 C 
ATOM      9  O   UNL A   1      36.025  32.502  32.900  1.00  0.00    -0.275 OA
ATOM     10  N   UNL A   1      36.495  34.647  32.136  1.00  0.00    -0.324 N 
ATOM     11  H   UNL A   1      36.114  35.547  32.027  1.00  0.00     0.170 HD
BRANCH  10  12
ATOM     12  C   UNL A   1      37.810  34.431  31.693  1.00  0.00     0.077 A 
ATOM     13  C   UNL A   1      37.990  34.025  30.366  1.00  0.00     0.029 A 
ATOM     14  C   UNL A   1      38.924  34.576  32.524  1.00  0.00     0.146 A 
ATOM     15  C   UNL A   1      39.278  33.824  29.864  1.00  0.00     0.002 A 
ATOM     16  C   UNL A   1      40.205  34.334  32.037  1.00  0.00     0.041 A 
ATOM     17  F   UNL A   1      38.776  34.839  33.830  1.00  0.00    -0.205 F 
ATOM     18  C   UNL A   1      40.385  33.972  30.701  1.00  0.00     0.003 A 
ENDBRANCH  10  12
ENDBRANCH   7   8
ENDBRANCH   6   7
ENDBRANCH   5   6
ENDBRANCH   3   5
ENDBRANCH   2   3
ENDBRANCH   1   2
BRANCH   1  19
ATOM     19  C   UNL A   1      34.397  33.087  29.230  1.00  0.00     0.275 C 
BRANCH  19  20
ATOM     20  O   UNL A   1      34.714  32.628  27.903  1.00  0.00    -0.458 OA
BRANCH  20  21
ATOM     21  C   UNL A   1      34.743  31.284  27.755  1.00  0.00     0.338 C 
ATOM     22  O   UNL A   1      34.011  30.596  27.068  1.00  0.00    -0.246 OA
BRANCH  21  23
ATOM     23  C   UNL A   1      35.934  30.751  28.428  1.00  0.00     0.060 A 
ATOM     24  C   UNL A   1      37.179  31.220  28.008  1.00  0.00     0.016 A 
ATOM     25  C   UNL A   1      35.842  29.749  29.392  1.00  0.00     0.016 A 
ATOM     26  C   UNL A   1      38.346  30.687  28.535  1.00  0.00     0.010 A 
ATOM     27  C   UNL A   1      37.018  29.217  29.932  1.00  0.00     0.010 A 
ATOM     28  C   UNL A   1      38.275  29.676  29.496  1.00  0.00    -0.014 A 
BRANCH  28  29
ATOM     29  C   UNL A   1      39.528  29.063  29.988  1.00  0.00     0.031 A 
ATOM     30  C   UNL A   1      40.177  29.600  31.230  1.00  0.00     0.074 A 
ATOM     31  C   UNL A   1      40.046  27.995  29.354  1.00  0.00     0.049 A 
ATOM     32  N   UNL A   1      41.320  29.269  31.772  1.00  0.00    -0.248 NA
ATOM     33  C   UNL A   1      39.441  30.646  31.959  1.00  0.00     0.031 C 
ATOM     34  C   UNL A   1      39.458  27.334  28.187  1.00  0.00     0.029 A 
ATOM     35  N   UNL A   1      41.180  27.271  29.612  1.00  0.00    -0.354 N 
ATOM     36  C   UNL A   1      41.454  30.080  32.890  1.00  0.00     0.074 A 
ATOM     37  C   UNL A   1      40.280  30.927  32.947  1.00  0.00     0.031 C 
ATOM     38  C   UNL A   1      40.235  26.297  27.835  1.00  0.00     0.029 A 
ATOM     39  C   UNL A   1      41.399  26.256  28.713  1.00  0.00     0.049 A 
ATOM     40  H   UNL A   1      41.781  27.461  30.369  1.00  0.00     0.167 HD
ATOM     41  C   UNL A   1      42.466  30.116  33.787  1.00  0.00     0.031 A 
ATOM     42  C   UNL A   1      42.440  25.412  28.593  1.00  0.00     0.031 A 
ATOM     43  C   UNL A   1      43.626  29.269  33.730  1.00  0.00     0.049 A 
ATOM     44  C   UNL A   1      43.586  25.525  29.559  1.00  0.00     0.074 A 
ATOM     45  C   UNL A   1      44.723  29.248  34.575  1.00  0.00     0.029 A 
ATOM     46  N   UNL A   1      43.833  28.283  32.778  1.00  0.00    -0.354 N 
ATOM     47  N   UNL A   1      43.726  26.331  30.583  1.00  0.00    -0.248 NA
ATOM     48  C   UNL A   1      44.721  24.617  29.345  1.00  0.00     0.031 C 
ATOM     49  C   UNL A   1      45.610  28.270  34.111  1.00  0.00     0.029 A 
ATOM     50  C   UNL A   1      45.044  27.655  33.007  1.00  0.00     0.049 A 
ATOM     51  H   UNL A   1      43.211  28.065  32.047  1.00  0.00     0.167 HD
ATOM     52  C   UNL A   1      44.954  26.015  31.146  1.00  0.00     0.074 A 
ATOM     53  C   UNL A   1      45.510  24.932  30.362  1.00  0.00     0.031 C 
ATOM     54  C   UNL A   1      45.571  26.574  32.216  1.00  0.00     0.031 A 
BRANCH  41  55
ATOM     55  C   UNL A   1      42.379  31.135  34.887  1.00  0.00    -0.014 A 
ATOM     56  C   UNL A   1      41.804  30.820  36.128  1.00  0.00     0.009 A 
ATOM     57  C   UNL A   1      42.914  32.416  34.689  1.00  0.00     0.009 A 
ATOM     58  C   UNL A   1      41.746  31.780  37.141  1.00  0.00     0.001 A 
ATOM     59  C   UNL A   1      42.875  33.367  35.711  1.00  0.00     0.001 A 
ATOM     60  C   UNL A   1      42.286  33.050  36.934  1.00  0.00     0.000 A 
ENDBRANCH  41  55
BRANCH  42  61
ATOM     61  C   UNL A   1      42.474  24.420  27.488  1.00  0.00    -0.014 A 
ATOM     62  C   UNL A   1      43.058  24.740  26.254  1.00  0.00     0.009 A 
ATOM     63  C   UNL A   1      41.895  23.152  27.656  1.00  0.00     0.009 A 
ATOM     64  C   UNL A   1      43.039  23.819  25.203  1.00  0.00     0.001 A 
ATOM     65  C   UNL A   1      41.904  22.223  26.614  1.00  0.00     0.001 A 
ATOM     66  C   UNL A   1      42.466  22.561  25.385  1.00  0.00     0.000 A 
ENDBRANCH  42  61
BRANCH  54  67
ATOM     67  C   UNL A   1      46.896  25.995  32.617  1.00  0.00    -0.014 A 
ATOM     68  C   UNL A   1      48.093  26.467  32.059  1.00  0.00     0.009 A 
ATOM     69  C   UNL A   1      46.945  24.986  33.590  1.00  0.00     0.009 A 
ATOM     70  C   UNL A   1      49.315  25.916  32.448  1.00  0.00     0.001 A 
ATOM     71  C   UNL A   1      48.169  24.455  33.994  1.00  0.00     0.001 A 
ATOM     72  C   UNL A   1      49.353  24.914  33.417  1.00  0.00     0.000 A 
ENDBRANCH  54  67
ENDBRANCH  28  29
ENDBRANCH  21  23
ENDBRANCH  20  21
ENDBRANCH  19  20
ENDBRANCH   1  19
TORSDOF 15
ENDMDL
