MODEL 1
REMARK VINA RESULT:     -11.0      0.000      0.000
REMARK SMILES CCC[C@@]1(C(=O)OCCOC(=O)c2ccc(-c3c4nc(c(-c5ccccc5)c5ccc([nH]5)c(-c5ccccc5)c5nc(c(-c6ccccc6)c6ccc3[nH]6)C=C5)C=C4)cc2)CCCN(C(=O)C[C@H]2CCCCO2)C1
REMARK SMILES IDX 8 1 7 2 5 3 6 4 4 5 61 6 74 7 62 8 64 9 63 10 3 11 2 12 1 13
REMARK SMILES IDX 65 14 66 15 67 16 68 17 69 18 73 19 70 20 72 21 71 22 9 23
REMARK SMILES IDX 10 24 11 25 12 26 13 27 14 28 60 29 15 30 59 31 16 32 17 33
REMARK SMILES IDX 18 34 53 35 19 36 58 37 52 38 54 39 20 40 57 41 51 42 50 43
REMARK SMILES IDX 21 45 43 46 28 47 42 48 29 49 32 50 41 51 55 52 30 53 31 54
REMARK SMILES IDX 40 56 56 57 33 58 22 59 23 60 27 61 24 62 26 63 25 64 44 65
REMARK SMILES IDX 45 66 49 67 46 68 48 69 47 70 34 71 35 72 39 73 36 74 38 75
REMARK SMILES IDX 37 76
REMARK H PARENT 54 44 32 55
REMARK Flexibility Score: inf
ROOT
ATOM      1  C   UNL A   1      31.775  28.086  27.410  1.00  0.00     0.274 C 
ENDROOT
BRANCH   1   2
ATOM      2  O   UNL A   1      32.341  26.877  26.855  1.00  0.00    -0.462 OA
BRANCH   2   3
ATOM      3  C   UNL A   1      31.475  26.013  26.242  1.00  0.00     0.314 C 
ATOM      4  O   UNL A   1      30.281  25.947  26.503  1.00  0.00    -0.252 OA
BRANCH   3   5
ATOM      5  C   UNL A   1      32.183  25.144  25.179  1.00  0.00     0.086 C 
ATOM      6  C   UNL A   1      33.609  25.650  24.811  1.00  0.00     0.022 C 
ATOM      7  C   UNL A   1      31.296  25.178  23.893  1.00  0.00     0.138 C 
ATOM      8  C   UNL A   1      33.645  26.911  23.965  1.00  0.00     0.023 C 
ATOM      9  N   UNL A   1      31.398  26.483  23.216  1.00  0.00    -0.341 N 
ATOM     10  C   UNL A   1      32.741  26.793  22.754  1.00  0.00     0.119 C 
BRANCH   5  11
ATOM     11  C   UNL A   1      32.322  23.694  25.710  1.00  0.00     0.020 C 
BRANCH  11  12
ATOM     12  C   UNL A   1      33.339  23.418  26.846  1.00  0.00    -0.002 C 
ATOM     13  C   UNL A   1      34.495  22.454  26.597  1.00  0.00     0.004 C 
ENDBRANCH  11  12
ENDBRANCH   5  11
BRANCH   9  14
ATOM     14  C   UNL A   1      30.341  27.380  23.250  1.00  0.00     0.225 C 
ATOM     15  O   UNL A   1      29.206  27.027  23.586  1.00  0.00    -0.275 OA
BRANCH  14  16
ATOM     16  C   UNL A   1      30.569  28.851  22.890  1.00  0.00     0.132 C 
BRANCH  16  17
ATOM     17  C   UNL A   1      29.301  29.688  22.626  1.00  0.00     0.127 C 
ATOM     18  C   UNL A   1      29.161  30.893  23.559  1.00  0.00     0.033 C 
ATOM     19  O   UNL A   1      29.275  30.080  21.249  1.00  0.00    -0.378 OA
ATOM     20  C   UNL A   1      27.988  31.790  23.188  1.00  0.00     0.005 C 
ATOM     21  C   UNL A   1      28.145  30.868  20.878  1.00  0.00     0.160 C 
ATOM     22  C   UNL A   1      28.037  32.138  21.709  1.00  0.00     0.029 C 
ENDBRANCH  16  17
ENDBRANCH  14  16
ENDBRANCH   9  14
ENDBRANCH   3   5
ENDBRANCH   2   3
ENDBRANCH   1   2
BRANCH   1  23
ATOM     23  C   UNL A   1      31.711  29.197  26.361  1.00  0.00     0.275 C 
BRANCH  23  24
ATOM     24  O   UNL A   1      33.033  29.731  26.181  1.00  0.00    -0.458 OA
BRANCH  24  25
ATOM     25  C   UNL A   1      33.283  30.856  26.880  1.00  0.00     0.338 C 
ATOM     26  O   UNL A   1      32.503  31.727  27.229  1.00  0.00    -0.246 OA
BRANCH  25  27
ATOM     27  C   UNL A   1      34.635  30.731  27.427  1.00  0.00     0.060 A 
ATOM     28  C   UNL A   1      35.090  29.433  27.630  1.00  0.00     0.016 A 
ATOM     29  C   UNL A   1      35.409  31.823  27.801  1.00  0.00     0.016 A 
ATOM     30  C   UNL A   1      36.291  29.195  28.275  1.00  0.00     0.010 A 
ATOM     31  C   UNL A   1      36.642  31.587  28.416  1.00  0.00     0.010 A 
ATOM     32  C   UNL A   1      37.076  30.271  28.680  1.00  0.00    -0.014 A 
BRANCH  32  33
ATOM     33  C   UNL A   1      38.273  30.015  29.505  1.00  0.00     0.031 A 
ATOM     34  C   UNL A   1      39.394  29.221  28.904  1.00  0.00     0.074 A 
ATOM     35  C   UNL A   1      38.403  30.540  30.736  1.00  0.00     0.049 A 
ATOM     36  N   UNL A   1      40.423  28.670  29.487  1.00  0.00    -0.248 NA
ATOM     37  C   UNL A   1      39.346  29.033  27.443  1.00  0.00     0.031 C 
ATOM     38  C   UNL A   1      37.474  31.477  31.368  1.00  0.00     0.029 A 
ATOM     39  N   UNL A   1      39.382  30.352  31.678  1.00  0.00    -0.354 N 
ATOM     40  C   UNL A   1      41.118  28.022  28.475  1.00  0.00     0.074 A 
ATOM     41  C   UNL A   1      40.405  28.264  27.239  1.00  0.00     0.031 C 
ATOM     42  C   UNL A   1      37.925  31.775  32.598  1.00  0.00     0.029 A 
ATOM     43  C   UNL A   1      39.120  30.983  32.869  1.00  0.00     0.049 A 
ATOM     44  H   UNL A   1      40.193  29.818  31.516  1.00  0.00     0.167 HD
ATOM     45  C   UNL A   1      42.239  27.272  28.578  1.00  0.00     0.031 A 
ATOM     46  C   UNL A   1      39.741  30.877  34.060  1.00  0.00     0.031 A 
ATOM     47  C   UNL A   1      42.933  27.044  29.815  1.00  0.00     0.049 A 
ATOM     48  C   UNL A   1      40.901  29.926  34.188  1.00  0.00     0.074 A 
ATOM     49  C   UNL A   1      44.033  26.242  30.057  1.00  0.00     0.029 A 
ATOM     50  N   UNL A   1      42.592  27.637  31.022  1.00  0.00    -0.354 N 
ATOM     51  N   UNL A   1      41.487  29.207  33.261  1.00  0.00    -0.248 NA
ATOM     52  C   UNL A   1      41.468  29.752  35.533  1.00  0.00     0.031 C 
ATOM     53  C   UNL A   1      44.333  26.318  31.422  1.00  0.00     0.029 A 
ATOM     54  C   UNL A   1      43.452  27.210  32.016  1.00  0.00     0.049 A 
ATOM     55  H   UNL A   1      41.848  28.268  31.151  1.00  0.00     0.167 HD
ATOM     56  C   UNL A   1      42.507  28.517  33.905  1.00  0.00     0.074 A 
ATOM     57  C   UNL A   1      42.465  28.911  35.298  1.00  0.00     0.031 C 
ATOM     58  C   UNL A   1      43.398  27.633  33.391  1.00  0.00     0.031 A 
BRANCH  45  59
ATOM     59  C   UNL A   1      42.716  26.581  27.336  1.00  0.00    -0.014 A 
ATOM     60  C   UNL A   1      42.237  25.316  26.965  1.00  0.00     0.009 A 
ATOM     61  C   UNL A   1      43.676  27.211  26.528  1.00  0.00     0.009 A 
ATOM     62  C   UNL A   1      42.736  24.681  25.826  1.00  0.00     0.001 A 
ATOM     63  C   UNL A   1      44.155  26.585  25.377  1.00  0.00     0.001 A 
ATOM     64  C   UNL A   1      43.692  25.317  25.032  1.00  0.00     0.000 A 
ENDBRANCH  45  59
BRANCH  46  65
ATOM     65  C   UNL A   1      39.227  31.611  35.246  1.00  0.00    -0.014 A 
ATOM     66  C   UNL A   1      38.306  31.012  36.118  1.00  0.00     0.009 A 
ATOM     67  C   UNL A   1      39.630  32.934  35.495  1.00  0.00     0.009 A 
ATOM     68  C   UNL A   1      37.782  31.728  37.197  1.00  0.00     0.001 A 
ATOM     69  C   UNL A   1      39.130  33.637  36.592  1.00  0.00     0.001 A 
ATOM     70  C   UNL A   1      38.197  33.038  37.436  1.00  0.00     0.000 A 
ENDBRANCH  46  65
BRANCH  58  71
ATOM     71  C   UNL A   1      44.437  27.083  34.324  1.00  0.00    -0.014 A 
ATOM     72  C   UNL A   1      45.648  27.753  34.547  1.00  0.00     0.009 A 
ATOM     73  C   UNL A   1      44.165  25.904  35.036  1.00  0.00     0.009 A 
ATOM     74  C   UNL A   1      46.580  27.237  35.451  1.00  0.00     0.001 A 
ATOM     75  C   UNL A   1      45.086  25.406  35.957  1.00  0.00     0.001 A 
ATOM     76  C   UNL A   1      46.295  26.070  36.159  1.00  0.00     0.000 A 
ENDBRANCH  58  71
ENDBRANCH  32  33
ENDBRANCH  25  27
ENDBRANCH  24  25
ENDBRANCH  23  24
ENDBRANCH   1  23
TORSDOF 16
ENDMDL
MODEL 2
REMARK VINA RESULT:     -10.8      3.664      6.615
REMARK SMILES CCC[C@@]1(C(=O)OCCOC(=O)c2ccc(-c3c4nc(c(-c5ccccc5)c5ccc([nH]5)c(-c5ccccc5)c5nc(c(-c6ccccc6)c6ccc3[nH]6)C=C5)C=C4)cc2)CCCN(C(=O)C[C@H]2CCCCO2)C1
REMARK SMILES IDX 8 1 7 2 5 3 6 4 4 5 61 6 74 7 62 8 64 9 63 10 3 11 2 12 1 13
REMARK SMILES IDX 65 14 66 15 67 16 68 17 69 18 73 19 70 20 72 21 71 22 9 23
REMARK SMILES IDX 10 24 11 25 12 26 13 27 14 28 60 29 15 30 59 31 16 32 17 33
REMARK SMILES IDX 18 34 53 35 19 36 58 37 52 38 54 39 20 40 57 41 51 42 50 43
REMARK SMILES IDX 21 45 43 46 28 47 42 48 29 49 32 50 41 51 55 52 30 53 31 54
REMARK SMILES IDX 40 56 56 57 33 58 22 59 23 60 27 61 24 62 26 63 25 64 44 65
REMARK SMILES IDX 45 66 49 67 46 68 48 69 47 70 34 71 35 72 39 73 36 74 38 75
REMARK SMILES IDX 37 76
REMARK H PARENT 54 44 32 55
REMARK Flexibility Score: inf
ROOT
ATOM      1  C   UNL A   1      32.099  28.048  27.065  1.00  0.00     0.274 C 
ENDROOT
BRANCH   1   2
ATOM      2  O   UNL A   1      32.605  26.837  26.458  1.00  0.00    -0.462 OA
BRANCH   2   3
ATOM      3  C   UNL A   1      31.678  25.938  26.004  1.00  0.00     0.314 C 
ATOM      4  O   UNL A   1      30.576  25.782  26.515  1.00  0.00    -0.252 OA
BRANCH   3   5
ATOM      5  C   UNL A   1      32.186  25.157  24.772  1.00  0.00     0.086 C 
ATOM      6  C   UNL A   1      33.479  25.757  24.146  1.00  0.00     0.022 C 
ATOM      7  C   UNL A   1      31.049  25.197  23.702  1.00  0.00     0.138 C 
ATOM      8  C   UNL A   1      33.280  27.053  23.379  1.00  0.00     0.023 C 
ATOM      9  N   UNL A   1      30.947  26.535  23.090  1.00  0.00    -0.341 N 
ATOM     10  C   UNL A   1      32.148  26.938  22.377  1.00  0.00     0.119 C 
BRANCH   5  11
ATOM     11  C   UNL A   1      32.499  23.695  25.185  1.00  0.00     0.020 C 
BRANCH  11  12
ATOM     12  C   UNL A   1      33.132  23.440  26.576  1.00  0.00    -0.002 C 
ATOM     13  C   UNL A   1      34.594  23.014  26.665  1.00  0.00     0.004 C 
ENDBRANCH  11  12
ENDBRANCH   5  11
BRANCH   9  14
ATOM     14  C   UNL A   1      29.882  27.369  23.390  1.00  0.00     0.225 C 
ATOM     15  O   UNL A   1      28.732  26.930  23.507  1.00  0.00    -0.275 OA
BRANCH  14  16
ATOM     16  C   UNL A   1      30.114  28.866  23.610  1.00  0.00     0.132 C 
BRANCH  16  17
ATOM     17  C   UNL A   1      29.009  29.808  23.090  1.00  0.00     0.127 C 
ATOM     18  C   UNL A   1      29.116  31.232  23.639  1.00  0.00     0.033 C 
ATOM     19  O   UNL A   1      29.013  29.791  21.659  1.00  0.00    -0.378 OA
ATOM     20  C   UNL A   1      28.110  32.183  23.003  1.00  0.00     0.005 C 
ATOM     21  C   UNL A   1      28.031  30.632  21.054  1.00  0.00     0.160 C 
ATOM     22  C   UNL A   1      28.177  32.083  21.488  1.00  0.00     0.029 C 
ENDBRANCH  16  17
ENDBRANCH  14  16
ENDBRANCH   9  14
ENDBRANCH   3   5
ENDBRANCH   2   3
ENDBRANCH   1   2
BRANCH   1  23
ATOM     23  C   UNL A   1      33.048  29.223  26.823  1.00  0.00     0.275 C 
BRANCH  23  24
ATOM     24  O   UNL A   1      34.207  29.053  27.655  1.00  0.00    -0.458 OA
BRANCH  24  25
ATOM     25  C   UNL A   1      34.801  30.202  28.032  1.00  0.00     0.338 C 
ATOM     26  O   UNL A   1      34.283  31.268  28.325  1.00  0.00    -0.246 OA
BRANCH  25  27
ATOM     27  C   UNL A   1      36.199  29.888  28.327  1.00  0.00     0.060 A 
ATOM     28  C   UNL A   1      37.091  30.044  27.272  1.00  0.00     0.016 A 
ATOM     29  C   UNL A   1      36.626  29.390  29.552  1.00  0.00     0.016 A 
ATOM     30  C   UNL A   1      38.410  29.641  27.392  1.00  0.00     0.010 A 
ATOM     31  C   UNL A   1      37.968  29.019  29.690  1.00  0.00     0.010 A 
ATOM     32  C   UNL A   1      38.858  29.118  28.602  1.00  0.00    -0.014 A 
BRANCH  32  33
ATOM     33  C   UNL A   1      40.217  28.544  28.675  1.00  0.00     0.031 A 
ATOM     34  C   UNL A   1      41.350  29.446  29.056  1.00  0.00     0.074 A 
ATOM     35  C   UNL A   1      40.435  27.230  28.484  1.00  0.00     0.049 A 
ATOM     36  N   UNL A   1      42.637  29.247  28.960  1.00  0.00    -0.248 NA
ATOM     37  C   UNL A   1      40.977  30.750  29.633  1.00  0.00     0.031 C 
ATOM     38  C   UNL A   1      39.403  26.212  28.288  1.00  0.00     0.029 A 
ATOM     39  N   UNL A   1      41.613  26.530  28.425  1.00  0.00    -0.354 N 
ATOM     40  C   UNL A   1      43.228  30.419  29.411  1.00  0.00     0.074 A 
ATOM     41  C   UNL A   1      42.163  31.317  29.799  1.00  0.00     0.031 C 
ATOM     42  C   UNL A   1      39.995  25.017  28.121  1.00  0.00     0.029 A 
ATOM     43  C   UNL A   1      41.443  25.204  28.110  1.00  0.00     0.049 A 
ATOM     44  H   UNL A   1      42.493  26.937  28.592  1.00  0.00     0.167 HD
ATOM     45  C   UNL A   1      44.545  30.720  29.472  1.00  0.00     0.031 A 
ATOM     46  C   UNL A   1      42.354  24.268  27.785  1.00  0.00     0.031 A 
ATOM     47  C   UNL A   1      45.588  29.813  29.081  1.00  0.00     0.049 A 
ATOM     48  C   UNL A   1      43.806  24.664  27.720  1.00  0.00     0.074 A 
ATOM     49  C   UNL A   1      46.953  30.033  29.026  1.00  0.00     0.029 A 
ATOM     50  N   UNL A   1      45.375  28.500  28.690  1.00  0.00    -0.354 N 
ATOM     51  N   UNL A   1      44.364  25.811  28.021  1.00  0.00    -0.248 NA
ATOM     52  C   UNL A   1      44.749  23.642  27.243  1.00  0.00     0.031 C 
ATOM     53  C   UNL A   1      47.561  28.863  28.560  1.00  0.00     0.029 A 
ATOM     54  C   UNL A   1      46.580  27.899  28.379  1.00  0.00     0.049 A 
ATOM     55  H   UNL A   1      44.495  28.061  28.641  1.00  0.00     0.167 HD
ATOM     56  C   UNL A   1      45.725  25.641  27.796  1.00  0.00     0.074 A 
ATOM     57  C   UNL A   1      45.907  24.278  27.342  1.00  0.00     0.031 C 
ATOM     58  C   UNL A   1      46.734  26.534  27.948  1.00  0.00     0.031 A 
BRANCH  45  59
ATOM     59  C   UNL A   1      44.909  32.114  29.889  1.00  0.00    -0.014 A 
ATOM     60  C   UNL A   1      45.208  32.432  31.222  1.00  0.00     0.009 A 
ATOM     61  C   UNL A   1      44.938  33.132  28.922  1.00  0.00     0.009 A 
ATOM     62  C   UNL A   1      45.498  33.749  31.583  1.00  0.00     0.001 A 
ATOM     63  C   UNL A   1      45.253  34.442  29.281  1.00  0.00     0.001 A 
ATOM     64  C   UNL A   1      45.523  34.752  30.613  1.00  0.00     0.000 A 
ENDBRANCH  45  59
BRANCH  46  65
ATOM     65  C   UNL A   1      41.924  22.897  27.405  1.00  0.00    -0.014 A 
ATOM     66  C   UNL A   1      41.541  22.604  26.087  1.00  0.00     0.009 A 
ATOM     67  C   UNL A   1      41.861  21.876  28.368  1.00  0.00     0.009 A 
ATOM     68  C   UNL A   1      41.081  21.328  25.749  1.00  0.00     0.001 A 
ATOM     69  C   UNL A   1      41.432  20.593  28.022  1.00  0.00     0.001 A 
ATOM     70  C   UNL A   1      41.031  20.324  26.715  1.00  0.00     0.000 A 
ENDBRANCH  46  65
BRANCH  58  71
ATOM     71  C   UNL A   1      48.128  26.047  27.682  1.00  0.00    -0.014 A 
ATOM     72  C   UNL A   1      48.744  26.238  26.437  1.00  0.00     0.009 A 
ATOM     73  C   UNL A   1      48.854  25.441  28.720  1.00  0.00     0.009 A 
ATOM     74  C   UNL A   1      50.057  25.809  26.229  1.00  0.00     0.001 A 
ATOM     75  C   UNL A   1      50.174  25.037  28.517  1.00  0.00     0.001 A 
ATOM     76  C   UNL A   1      50.771  25.216  27.270  1.00  0.00     0.000 A 
ENDBRANCH  58  71
ENDBRANCH  32  33
ENDBRANCH  25  27
ENDBRANCH  24  25
ENDBRANCH  23  24
ENDBRANCH   1  23
TORSDOF 16
ENDMDL
MODEL 3
REMARK VINA RESULT:     -10.6      4.513      7.578
REMARK SMILES CCC[C@@]1(C(=O)OCCOC(=O)c2ccc(-c3c4nc(c(-c5ccccc5)c5ccc([nH]5)c(-c5ccccc5)c5nc(c(-c6ccccc6)c6ccc3[nH]6)C=C5)C=C4)cc2)CCCN(C(=O)C[C@H]2CCCCO2)C1
REMARK SMILES IDX 8 1 7 2 5 3 6 4 4 5 61 6 74 7 62 8 64 9 63 10 3 11 2 12 1 13
REMARK SMILES IDX 65 14 66 15 67 16 68 17 69 18 73 19 70 20 72 21 71 22 9 23
REMARK SMILES IDX 10 24 11 25 12 26 13 27 14 28 60 29 15 30 59 31 16 32 17 33
REMARK SMILES IDX 18 34 53 35 19 36 58 37 52 38 54 39 20 40 57 41 51 42 50 43
REMARK SMILES IDX 21 45 43 46 28 47 42 48 29 49 32 50 41 51 55 52 30 53 31 54
REMARK SMILES IDX 40 56 56 57 33 58 22 59 23 60 27 61 24 62 26 63 25 64 44 65
REMARK SMILES IDX 45 66 49 67 46 68 48 69 47 70 34 71 35 72 39 73 36 74 38 75
REMARK SMILES IDX 37 76
REMARK H PARENT 54 44 32 55
REMARK Flexibility Score: inf
ROOT
ATOM      1  C   UNL A   1      36.023  21.438  24.588  1.00  0.00     0.274 C 
ENDROOT
BRANCH   1   2
ATOM      2  O   UNL A   1      35.706  22.787  25.001  1.00  0.00    -0.462 OA
BRANCH   2   3
ATOM      3  C   UNL A   1      34.759  22.929  25.978  1.00  0.00     0.314 C 
ATOM      4  O   UNL A   1      34.769  22.305  27.031  1.00  0.00    -0.252 OA
BRANCH   3   5
ATOM      5  C   UNL A   1      33.688  23.975  25.596  1.00  0.00     0.086 C 
ATOM      6  C   UNL A   1      32.621  24.207  26.705  1.00  0.00     0.022 C 
ATOM      7  C   UNL A   1      32.968  23.446  24.314  1.00  0.00     0.138 C 
ATOM      8  C   UNL A   1      31.618  23.079  26.877  1.00  0.00     0.023 C 
ATOM      9  N   UNL A   1      32.074  22.320  24.638  1.00  0.00    -0.341 N 
ATOM     10  C   UNL A   1      31.001  22.678  25.551  1.00  0.00     0.119 C 
BRANCH   5  11
ATOM     11  C   UNL A   1      34.376  25.336  25.315  1.00  0.00     0.020 C 
BRANCH  11  12
ATOM     12  C   UNL A   1      33.505  26.617  25.314  1.00  0.00    -0.002 C 
ATOM     13  C   UNL A   1      33.840  27.750  26.280  1.00  0.00     0.004 C 
ENDBRANCH  11  12
ENDBRANCH   5  11
BRANCH   9  14
ATOM     14  C   UNL A   1      32.403  21.026  24.266  1.00  0.00     0.225 C 
ATOM     15  O   UNL A   1      32.419  20.681  23.079  1.00  0.00    -0.275 OA
BRANCH  14  16
ATOM     16  C   UNL A   1      32.784  19.992  25.328  1.00  0.00     0.132 C 
BRANCH  16  17
ATOM     17  C   UNL A   1      32.874  18.529  24.850  1.00  0.00     0.127 C 
ATOM     18  C   UNL A   1      34.242  18.161  24.271  1.00  0.00     0.033 C 
ATOM     19  O   UNL A   1      32.503  17.660  25.925  1.00  0.00    -0.378 OA
ATOM     20  C   UNL A   1      34.361  16.679  23.942  1.00  0.00     0.005 C 
ATOM     21  C   UNL A   1      32.551  16.270  25.606  1.00  0.00     0.160 C 
ATOM     22  C   UNL A   1      33.932  15.839  25.135  1.00  0.00     0.029 C 
ENDBRANCH  16  17
ENDBRANCH  14  16
ENDBRANCH   9  14
ENDBRANCH   3   5
ENDBRANCH   2   3
ENDBRANCH   1   2
BRANCH   1  23
ATOM     23  C   UNL A   1      37.521  21.158  24.724  1.00  0.00     0.275 C 
BRANCH  23  24
ATOM     24  O   UNL A   1      37.931  21.508  26.056  1.00  0.00    -0.458 OA
BRANCH  24  25
ATOM     25  C   UNL A   1      39.251  21.365  26.292  1.00  0.00     0.338 C 
ATOM     26  O   UNL A   1      39.991  20.452  25.960  1.00  0.00    -0.246 OA
BRANCH  25  27
ATOM     27  C   UNL A   1      39.744  22.653  26.779  1.00  0.00     0.060 A 
ATOM     28  C   UNL A   1      39.099  23.778  26.276  1.00  0.00     0.016 A 
ATOM     29  C   UNL A   1      40.835  22.779  27.629  1.00  0.00     0.016 A 
ATOM     30  C   UNL A   1      39.572  25.049  26.551  1.00  0.00     0.010 A 
ATOM     31  C   UNL A   1      41.291  24.064  27.943  1.00  0.00     0.010 A 
ATOM     32  C   UNL A   1      40.678  25.203  27.384  1.00  0.00    -0.014 A 
BRANCH  32  33
ATOM     33  C   UNL A   1      41.272  26.545  27.546  1.00  0.00     0.031 A 
ATOM     34  C   UNL A   1      42.587  26.824  26.885  1.00  0.00     0.074 A 
ATOM     35  C   UNL A   1      40.623  27.526  28.199  1.00  0.00     0.049 A 
ATOM     36  N   UNL A   1      43.412  27.820  27.068  1.00  0.00    -0.248 NA
ATOM     37  C   UNL A   1      43.026  25.848  25.872  1.00  0.00     0.031 C 
ATOM     38  C   UNL A   1      39.262  27.444  28.731  1.00  0.00     0.029 A 
ATOM     39  N   UNL A   1      41.036  28.792  28.526  1.00  0.00    -0.354 N 
ATOM     40  C   UNL A   1      44.493  27.563  26.236  1.00  0.00     0.074 A 
ATOM     41  C   UNL A   1      44.213  26.331  25.533  1.00  0.00     0.031 C 
ATOM     42  C   UNL A   1      38.956  28.610  29.325  1.00  0.00     0.029 A 
ATOM     43  C   UNL A   1      40.127  29.480  29.293  1.00  0.00     0.049 A 
ATOM     44  H   UNL A   1      41.898  29.171  28.240  1.00  0.00     0.167 HD
ATOM     45  C   UNL A   1      45.627  28.285  26.094  1.00  0.00     0.031 A 
ATOM     46  C   UNL A   1      40.257  30.649  29.948  1.00  0.00     0.031 A 
ATOM     47  C   UNL A   1      45.886  29.508  26.802  1.00  0.00     0.049 A 
ATOM     48  C   UNL A   1      41.580  31.366  29.892  1.00  0.00     0.074 A 
ATOM     49  C   UNL A   1      47.030  30.286  26.798  1.00  0.00     0.029 A 
ATOM     50  N   UNL A   1      44.973  30.137  27.635  1.00  0.00    -0.354 N 
ATOM     51  N   UNL A   1      42.657  31.063  29.209  1.00  0.00    -0.248 NA
ATOM     52  C   UNL A   1      41.713  32.574  30.721  1.00  0.00     0.031 C 
ATOM     53  C   UNL A   1      46.822  31.366  27.664  1.00  0.00     0.029 A 
ATOM     54  C   UNL A   1      45.530  31.287  28.162  1.00  0.00     0.049 A 
ATOM     55  H   UNL A   1      44.063  29.811  27.823  1.00  0.00     0.167 HD
ATOM     56  C   UNL A   1      43.585  32.055  29.503  1.00  0.00     0.074 A 
ATOM     57  C   UNL A   1      42.941  32.973  30.419  1.00  0.00     0.031 C 
ATOM     58  C   UNL A   1      44.858  32.192  29.057  1.00  0.00     0.031 A 
BRANCH  45  59
ATOM     59  C   UNL A   1      46.696  27.713  25.210  1.00  0.00    -0.014 A 
ATOM     60  C   UNL A   1      47.614  26.763  25.682  1.00  0.00     0.009 A 
ATOM     61  C   UNL A   1      46.787  28.148  23.878  1.00  0.00     0.009 A 
ATOM     62  C   UNL A   1      48.623  26.285  24.844  1.00  0.00     0.001 A 
ATOM     63  C   UNL A   1      47.781  27.650  23.036  1.00  0.00     0.001 A 
ATOM     64  C   UNL A   1      48.705  26.726  23.523  1.00  0.00     0.000 A 
ENDBRANCH  45  59
BRANCH  46  65
ATOM     65  C   UNL A   1      39.147  31.170  30.789  1.00  0.00    -0.014 A 
ATOM     66  C   UNL A   1      39.019  30.781  32.131  1.00  0.00     0.009 A 
ATOM     67  C   UNL A   1      38.185  32.035  30.243  1.00  0.00     0.009 A 
ATOM     68  C   UNL A   1      37.940  31.227  32.898  1.00  0.00     0.001 A 
ATOM     69  C   UNL A   1      37.125  32.505  31.020  1.00  0.00     0.001 A 
ATOM     70  C   UNL A   1      36.997  32.092  32.344  1.00  0.00     0.000 A 
ENDBRANCH  46  65
BRANCH  58  71
ATOM     71  C   UNL A   1      45.615  33.409  29.504  1.00  0.00    -0.014 A 
ATOM     72  C   UNL A   1      46.426  33.386  30.647  1.00  0.00     0.009 A 
ATOM     73  C   UNL A   1      45.557  34.578  28.728  1.00  0.00     0.009 A 
ATOM     74  C   UNL A   1      47.149  34.522  31.019  1.00  0.00     0.001 A 
ATOM     75  C   UNL A   1      46.301  35.702  29.087  1.00  0.00     0.001 A 
ATOM     76  C   UNL A   1      47.091  35.674  30.235  1.00  0.00     0.000 A 
ENDBRANCH  58  71
ENDBRANCH  32  33
ENDBRANCH  25  27
ENDBRANCH  24  25
ENDBRANCH  23  24
ENDBRANCH   1  23
TORSDOF 16
ENDMDL
