MODEL 1
REMARK VINA RESULT:     -11.6      0.000      0.000
REMARK SMILES Cc1cc(S(F)(F)(F)(F)F)cc2c1O[C@H](C(F)(F)F)C(C(=O)OCCOC(=O)c1ccc(-c3c4nc(c(-c5ccccc5)c5ccc([nH]5)c(-c5ccccc5)c5nc(c(-c6ccccc6)c6ccc3[nH]6)C=C5)C=C4)cc1)=C2
REMARK SMILES IDX 25 1 24 2 23 3 21 4 22 5 20 6 1 7 2 8 3 9 13 10 4 11 12 12
REMARK SMILES IDX 14 13 11 14 77 15 15 16 5 17 6 18 7 19 8 20 9 21 10 22 16 23
REMARK SMILES IDX 17 24 18 25 19 26 26 27 27 28 28 29 29 30 30 31 76 32 31 33
REMARK SMILES IDX 75 34 32 35 33 36 34 37 69 38 35 39 74 40 68 41 70 42 36 43
REMARK SMILES IDX 73 44 67 45 66 46 37 48 59 49 44 50 58 51 45 52 48 53 57 54
REMARK SMILES IDX 71 55 46 56 47 57 56 59 72 60 49 61 38 62 39 63 43 64 40 65
REMARK SMILES IDX 42 66 41 67 60 68 61 69 65 70 62 71 64 72 63 73 50 74 51 75
REMARK SMILES IDX 55 76 52 77 54 78 53 79
REMARK H PARENT 70 47 48 58
REMARK Flexibility Score: inf
ROOT
ATOM      1  C   UNL A   1      37.366  21.669  24.783  1.00  0.00     0.275 C 
ENDROOT
BRANCH   1   2
ATOM      2  C   UNL A   1      36.120  21.044  25.389  1.00  0.00     0.275 C 
BRANCH   2   3
ATOM      3  O   UNL A   1      34.974  21.498  24.685  1.00  0.00    -0.459 OA
BRANCH   3   4
ATOM      4  C   UNL A   1      34.059  22.385  25.312  1.00  0.00     0.338 C 
ATOM      5  O   UNL A   1      33.316  21.968  26.256  1.00  0.00    -0.246 OA
BRANCH   4   6
ATOM      6  C   UNL A   1      33.968  23.832  24.855  1.00  0.00     0.087 C 
ATOM      7  C   UNL A   1      33.763  28.082  22.063  1.00  0.00     0.048 C 
ATOM      8  C   UNL A   1      33.721  27.802  23.557  1.00  0.00    -0.007 A 
ATOM      9  C   UNL A   1      33.651  28.802  24.501  1.00  0.00     0.031 A 
ATOM     10  C   UNL A   1      33.804  26.474  23.970  1.00  0.00     0.130 A 
ATOM     11  C   UNL A   1      33.666  28.499  25.857  1.00  0.00     0.108 A 
ATOM     12  C   UNL A   1      33.814  26.169  25.350  1.00  0.00     0.019 A 
ATOM     13  O   UNL A   1      33.881  25.364  23.013  1.00  0.00    -0.475 OA
ATOM     14  C   UNL A   1      33.741  27.203  26.286  1.00  0.00     0.036 A 
ATOM     15  C   UNL A   1      33.901  24.766  25.756  1.00  0.00     0.027 C 
ATOM     16  C   UNL A   1      33.960  24.102  23.487  1.00  0.00     0.316 C 
BRANCH  11  17
ATOM     17  S   UNL A   1      33.588  29.838  27.072  1.00  0.00     0.310 S 
ATOM     18  F   UNL A   1      34.216  28.921  28.203  1.00  0.00    -0.094 F 
ATOM     19  F   UNL A   1      32.175  29.306  27.521  1.00  0.00    -0.094 F 
ATOM     20  F   UNL A   1      33.522  30.983  28.123  1.00  0.00    -0.094 F 
ATOM     21  F   UNL A   1      35.063  30.270  26.706  1.00  0.00    -0.094 F 
ATOM     22  F   UNL A   1      33.716  28.614  26.081  1.00  0.00    -0.094 F 
ENDBRANCH  11  17
BRANCH  16  23
ATOM     23  C   UNL A   1      32.631  23.509  23.049  1.00  0.00     0.430 C 
ATOM     24  F   UNL A   1      32.818  22.259  22.635  1.00  0.00    -0.167 F 
ATOM     25  F   UNL A   1      31.784  23.514  24.075  1.00  0.00    -0.167 F 
ATOM     26  F   UNL A   1      32.127  24.235  22.054  1.00  0.00    -0.167 F 
ENDBRANCH  16  23
ENDBRANCH   4   6
ENDBRANCH   3   4
ENDBRANCH   2   3
ENDBRANCH   1   2
BRANCH   1  27
ATOM     27  O   UNL A   1      37.662  22.884  25.455  1.00  0.00    -0.458 OA
BRANCH  27  28
ATOM     28  C   UNL A   1      38.911  23.044  26.114  1.00  0.00     0.338 C 
ATOM     29  O   UNL A   1      39.746  22.087  26.134  1.00  0.00    -0.246 OA
BRANCH  28  30
ATOM     30  C   UNL A   1      39.246  24.361  26.795  1.00  0.00     0.060 A 
ATOM     31  C   UNL A   1      38.644  24.699  28.002  1.00  0.00     0.016 A 
ATOM     32  C   UNL A   1      40.131  25.189  26.285  1.00  0.00     0.016 A 
ATOM     33  C   UNL A   1      39.351  25.600  28.829  1.00  0.00     0.010 A 
ATOM     34  C   UNL A   1      40.452  26.386  26.935  1.00  0.00     0.010 A 
ATOM     35  C   UNL A   1      40.077  26.596  28.179  1.00  0.00    -0.014 A 
BRANCH  35  36
ATOM     36  C   UNL A   1      40.427  27.894  28.889  1.00  0.00     0.031 A 
ATOM     37  C   UNL A   1      39.453  28.893  28.911  1.00  0.00     0.074 A 
ATOM     38  C   UNL A   1      41.666  28.007  29.499  1.00  0.00     0.049 A 
ATOM     39  N   UNL A   1      39.514  30.076  29.525  1.00  0.00    -0.248 NA
ATOM     40  C   UNL A   1      38.151  28.789  28.235  1.00  0.00     0.031 C 
ATOM     41  C   UNL A   1      42.650  27.000  29.489  1.00  0.00     0.029 A 
ATOM     42  N   UNL A   1      42.164  29.078  30.207  1.00  0.00    -0.354 N 
ATOM     43  C   UNL A   1      38.378  30.753  29.335  1.00  0.00     0.074 A 
ATOM     44  C   UNL A   1      37.488  29.937  28.497  1.00  0.00     0.031 C 
ATOM     45  C   UNL A   1      43.732  27.462  30.171  1.00  0.00     0.029 A 
ATOM     46  C   UNL A   1      43.440  28.764  30.620  1.00  0.00     0.049 A 
ATOM     47  H   UNL A   1      41.690  29.922  30.387  1.00  0.00     0.167 HD
ATOM     48  C   UNL A   1      38.051  32.017  29.828  1.00  0.00     0.031 A 
ATOM     49  C   UNL A   1      44.317  29.557  31.345  1.00  0.00     0.031 A 
ATOM     50  C   UNL A   1      38.912  32.790  30.590  1.00  0.00     0.049 A 
ATOM     51  C   UNL A   1      44.010  30.844  31.789  1.00  0.00     0.074 A 
ATOM     52  C   UNL A   1      38.594  34.063  31.102  1.00  0.00     0.029 A 
ATOM     53  N   UNL A   1      40.198  32.487  30.981  1.00  0.00    -0.354 N 
ATOM     54  N   UNL A   1      42.862  31.505  31.633  1.00  0.00    -0.248 NA
ATOM     55  C   UNL A   1      44.943  31.705  32.530  1.00  0.00     0.031 C 
ATOM     56  C   UNL A   1      39.676  34.525  31.784  1.00  0.00     0.029 A 
ATOM     57  C   UNL A   1      40.687  33.549  31.709  1.00  0.00     0.049 A 
ATOM     58  H   UNL A   1      40.682  31.655  30.776  1.00  0.00     0.167 HD
ATOM     59  C   UNL A   1      42.938  32.705  32.211  1.00  0.00     0.074 A 
ATOM     60  C   UNL A   1      44.280  32.854  32.790  1.00  0.00     0.031 C 
ATOM     61  C   UNL A   1      41.942  33.680  32.283  1.00  0.00     0.031 A 
BRANCH  48  62
ATOM     62  C   UNL A   1      36.673  32.575  29.512  1.00  0.00    -0.014 A 
ATOM     63  C   UNL A   1      35.635  32.439  30.427  1.00  0.00     0.009 A 
ATOM     64  C   UNL A   1      36.476  33.326  28.450  1.00  0.00     0.009 A 
ATOM     65  C   UNL A   1      34.668  33.469  30.442  1.00  0.00     0.001 A 
ATOM     66  C   UNL A   1      35.248  33.965  28.243  1.00  0.00     0.001 A 
ATOM     67  C   UNL A   1      34.358  34.043  29.210  1.00  0.00     0.000 A 
ENDBRANCH  48  62
BRANCH  49  68
ATOM     68  C   UNL A   1      45.689  28.991  31.675  1.00  0.00    -0.014 A 
ATOM     69  C   UNL A   1      45.812  28.305  32.878  1.00  0.00     0.009 A 
ATOM     70  C   UNL A   1      46.776  29.214  30.967  1.00  0.00     0.009 A 
ATOM     71  C   UNL A   1      46.947  27.475  33.018  1.00  0.00     0.001 A 
ATOM     72  C   UNL A   1      48.025  28.779  31.420  1.00  0.00     0.001 A 
ATOM     73  C   UNL A   1      48.121  27.928  32.420  1.00  0.00     0.000 A 
ENDBRANCH  49  68
BRANCH  61  74
ATOM     74  C   UNL A   1      42.253  34.963  33.035  1.00  0.00    -0.014 A 
ATOM     75  C   UNL A   1      41.725  35.183  34.303  1.00  0.00     0.009 A 
ATOM     76  C   UNL A   1      43.047  35.879  32.522  1.00  0.00     0.009 A 
ATOM     77  C   UNL A   1      42.437  36.070  35.139  1.00  0.00     0.001 A 
ATOM     78  C   UNL A   1      43.343  37.049  33.231  1.00  0.00     0.001 A 
ATOM     79  C   UNL A   1      43.052  37.152  34.510  1.00  0.00     0.000 A 
ENDBRANCH  61  74
ENDBRANCH  35  36
ENDBRANCH  28  30
ENDBRANCH  27  28
ENDBRANCH   1  27
TORSDOF 13
ENDMDL
MODEL 2
REMARK VINA RESULT:     -11.5      3.042      7.500
REMARK SMILES Cc1cc(S(F)(F)(F)(F)F)cc2c1O[C@H](C(F)(F)F)C(C(=O)OCCOC(=O)c1ccc(-c3c4nc(c(-c5ccccc5)c5ccc([nH]5)c(-c5ccccc5)c5nc(c(-c6ccccc6)c6ccc3[nH]6)C=C5)C=C4)cc1)=C2
REMARK SMILES IDX 25 1 24 2 23 3 21 4 22 5 20 6 1 7 2 8 3 9 13 10 4 11 12 12
REMARK SMILES IDX 14 13 11 14 77 15 15 16 5 17 6 18 7 19 8 20 9 21 10 22 16 23
REMARK SMILES IDX 17 24 18 25 19 26 26 27 27 28 28 29 29 30 30 31 76 32 31 33
REMARK SMILES IDX 75 34 32 35 33 36 34 37 69 38 35 39 74 40 68 41 70 42 36 43
REMARK SMILES IDX 73 44 67 45 66 46 37 48 59 49 44 50 58 51 45 52 48 53 57 54
REMARK SMILES IDX 71 55 46 56 47 57 56 59 72 60 49 61 38 62 39 63 43 64 40 65
REMARK SMILES IDX 42 66 41 67 60 68 61 69 65 70 62 71 64 72 63 73 50 74 51 75
REMARK SMILES IDX 55 76 52 77 54 78 53 79
REMARK H PARENT 70 47 48 58
REMARK Flexibility Score: inf
ROOT
ATOM      1  C   UNL A   1      32.219  30.051  27.115  1.00  0.00     0.275 C 
ENDROOT
BRANCH   1   2
ATOM      2  C   UNL A   1      32.091  30.019  25.600  1.00  0.00     0.275 C 
BRANCH   2   3
ATOM      3  O   UNL A   1      31.328  28.887  25.214  1.00  0.00    -0.459 OA
BRANCH   3   4
ATOM      4  C   UNL A   1      31.928  27.853  24.446  1.00  0.00     0.338 C 
ATOM      5  O   UNL A   1      32.071  27.996  23.192  1.00  0.00    -0.246 OA
BRANCH   4   6
ATOM      6  C   UNL A   1      32.400  26.578  25.126  1.00  0.00     0.087 C 
ATOM      7  C   UNL A   1      32.738  22.413  28.032  1.00  0.00     0.048 C 
ATOM      8  C   UNL A   1      33.663  23.065  27.016  1.00  0.00    -0.007 A 
ATOM      9  C   UNL A   1      34.917  22.574  26.727  1.00  0.00     0.031 A 
ATOM     10  C   UNL A   1      33.225  24.234  26.396  1.00  0.00     0.130 A 
ATOM     11  C   UNL A   1      35.747  23.233  25.828  1.00  0.00     0.108 A 
ATOM     12  C   UNL A   1      34.070  24.899  25.479  1.00  0.00     0.019 A 
ATOM     13  O   UNL A   1      31.900  24.807  26.663  1.00  0.00    -0.475 OA
ATOM     14  C   UNL A   1      35.336  24.377  25.204  1.00  0.00     0.036 A 
ATOM     15  C   UNL A   1      33.585  26.123  24.843  1.00  0.00     0.027 C 
ATOM     16  C   UNL A   1      31.545  25.943  26.026  1.00  0.00     0.316 C 
BRANCH  11  17
ATOM     17  S   UNL A   1      37.394  22.569  25.482  1.00  0.00     0.310 S 
ATOM     18  F   UNL A   1      37.721  23.755  24.481  1.00  0.00    -0.094 F 
ATOM     19  F   UNL A   1      36.788  21.791  24.253  1.00  0.00    -0.094 F 
ATOM     20  F   UNL A   1      38.810  22.003  25.176  1.00  0.00    -0.094 F 
ATOM     21  F   UNL A   1      38.008  23.464  26.629  1.00  0.00    -0.094 F 
ATOM     22  F   UNL A   1      35.984  23.238  25.733  1.00  0.00    -0.094 F 
ENDBRANCH  11  17
BRANCH  16  23
ATOM     23  C   UNL A   1      30.420  25.466  25.121  1.00  0.00     0.430 C 
ATOM     24  F   UNL A   1      30.929  25.044  23.967  1.00  0.00    -0.167 F 
ATOM     25  F   UNL A   1      29.770  24.467  25.711  1.00  0.00    -0.167 F 
ATOM     26  F   UNL A   1      29.579  26.471  24.893  1.00  0.00    -0.167 F 
ENDBRANCH  16  23
ENDBRANCH   4   6
ENDBRANCH   3   4
ENDBRANCH   2   3
ENDBRANCH   1   2
BRANCH   1  27
ATOM     27  O   UNL A   1      33.530  29.658  27.489  1.00  0.00    -0.458 OA
BRANCH  27  28
ATOM     28  C   UNL A   1      34.430  30.613  28.032  1.00  0.00     0.338 C 
ATOM     29  O   UNL A   1      34.028  31.791  28.288  1.00  0.00    -0.246 OA
BRANCH  28  30
ATOM     30  C   UNL A   1      35.874  30.226  28.307  1.00  0.00     0.060 A 
ATOM     31  C   UNL A   1      36.300  29.981  29.608  1.00  0.00     0.016 A 
ATOM     32  C   UNL A   1      36.741  30.081  27.328  1.00  0.00     0.016 A 
ATOM     33  C   UNL A   1      37.420  29.134  29.756  1.00  0.00     0.010 A 
ATOM     34  C   UNL A   1      38.061  29.697  27.591  1.00  0.00     0.010 A 
ATOM     35  C   UNL A   1      38.404  29.232  28.773  1.00  0.00    -0.014 A 
BRANCH  35  36
ATOM     36  C   UNL A   1      39.836  28.811  29.060  1.00  0.00     0.031 A 
ATOM     37  C   UNL A   1      40.655  29.737  29.708  1.00  0.00     0.074 A 
ATOM     38  C   UNL A   1      40.242  27.538  28.699  1.00  0.00     0.049 A 
ATOM     39  N   UNL A   1      41.914  29.565  30.115  1.00  0.00    -0.248 NA
ATOM     40  C   UNL A   1      40.237  31.102  30.061  1.00  0.00     0.031 C 
ATOM     41  C   UNL A   1      39.419  26.595  28.053  1.00  0.00     0.029 A 
ATOM     42  N   UNL A   1      41.477  26.958  28.890  1.00  0.00    -0.354 N 
ATOM     43  C   UNL A   1      42.360  30.672  30.714  1.00  0.00     0.074 A 
ATOM     44  C   UNL A   1      41.290  31.679  30.682  1.00  0.00     0.031 C 
ATOM     45  C   UNL A   1      40.150  25.468  27.846  1.00  0.00     0.029 A 
ATOM     46  C   UNL A   1      41.442  25.688  28.360  1.00  0.00     0.049 A 
ATOM     47  H   UNL A   1      42.251  27.381  29.328  1.00  0.00     0.167 HD
ATOM     48  C   UNL A   1      43.616  30.880  31.286  1.00  0.00     0.031 A 
ATOM     49  C   UNL A   1      42.470  24.758  28.317  1.00  0.00     0.031 A 
ATOM     50  C   UNL A   1      44.629  29.934  31.280  1.00  0.00     0.049 A 
ATOM     51  C   UNL A   1      43.745  24.987  28.838  1.00  0.00     0.074 A 
ATOM     52  C   UNL A   1      45.898  30.126  31.860  1.00  0.00     0.029 A 
ATOM     53  N   UNL A   1      44.602  28.672  30.729  1.00  0.00    -0.354 N 
ATOM     54  N   UNL A   1      44.178  26.079  29.471  1.00  0.00    -0.248 NA
ATOM     55  C   UNL A   1      44.851  24.022  28.768  1.00  0.00     0.031 C 
ATOM     56  C   UNL A   1      46.630  28.998  31.652  1.00  0.00     0.029 A 
ATOM     57  C   UNL A   1      45.831  28.085  30.940  1.00  0.00     0.049 A 
ATOM     58  H   UNL A   1      43.838  28.261  30.265  1.00  0.00     0.167 HD
ATOM     59  C   UNL A   1      45.451  25.922  29.841  1.00  0.00     0.074 A 
ATOM     60  C   UNL A   1      45.904  24.599  29.388  1.00  0.00     0.031 C 
ATOM     61  C   UNL A   1      46.251  26.826  30.541  1.00  0.00     0.031 A 
BRANCH  48  62
ATOM     62  C   UNL A   1      43.888  32.219  31.951  1.00  0.00    -0.014 A 
ATOM     63  C   UNL A   1      44.343  33.296  31.199  1.00  0.00     0.009 A 
ATOM     64  C   UNL A   1      43.552  32.431  33.206  1.00  0.00     0.009 A 
ATOM     65  C   UNL A   1      43.948  34.582  31.633  1.00  0.00     0.001 A 
ATOM     66  C   UNL A   1      43.659  33.707  33.770  1.00  0.00     0.001 A 
ATOM     67  C   UNL A   1      43.850  34.765  33.011  1.00  0.00     0.000 A 
ENDBRANCH  48  62
BRANCH  49  68
ATOM     68  C   UNL A   1      42.192  23.412  27.666  1.00  0.00    -0.014 A 
ATOM     69  C   UNL A   1      42.413  23.320  26.296  1.00  0.00     0.009 A 
ATOM     70  C   UNL A   1      41.645  22.386  28.282  1.00  0.00     0.009 A 
ATOM     71  C   UNL A   1      42.519  22.016  25.761  1.00  0.00     0.001 A 
ATOM     72  C   UNL A   1      41.287  21.234  27.575  1.00  0.00     0.001 A 
ATOM     73  C   UNL A   1      41.710  21.042  26.343  1.00  0.00     0.000 A 
ENDBRANCH  49  68
BRANCH  61  74
ATOM     74  C   UNL A   1      47.670  26.405  30.885  1.00  0.00    -0.014 A 
ATOM     75  C   UNL A   1      47.976  25.937  32.159  1.00  0.00     0.009 A 
ATOM     76  C   UNL A   1      48.630  26.443  29.986  1.00  0.00     0.009 A 
ATOM     77  C   UNL A   1      49.100  25.088  32.267  1.00  0.00     0.001 A 
ATOM     78  C   UNL A   1      49.929  26.034  30.307  1.00  0.00     0.001 A 
ATOM     79  C   UNL A   1      50.170  25.369  31.417  1.00  0.00     0.000 A 
ENDBRANCH  61  74
ENDBRANCH  35  36
ENDBRANCH  28  30
ENDBRANCH  27  28
ENDBRANCH   1  27
TORSDOF 13
ENDMDL
MODEL 3
REMARK VINA RESULT:     -11.5      2.501      6.708
REMARK SMILES Cc1cc(S(F)(F)(F)(F)F)cc2c1O[C@H](C(F)(F)F)C(C(=O)OCCOC(=O)c1ccc(-c3c4nc(c(-c5ccccc5)c5ccc([nH]5)c(-c5ccccc5)c5nc(c(-c6ccccc6)c6ccc3[nH]6)C=C5)C=C4)cc1)=C2
REMARK SMILES IDX 25 1 24 2 23 3 21 4 22 5 20 6 1 7 2 8 3 9 13 10 4 11 12 12
REMARK SMILES IDX 14 13 11 14 77 15 15 16 5 17 6 18 7 19 8 20 9 21 10 22 16 23
REMARK SMILES IDX 17 24 18 25 19 26 26 27 27 28 28 29 29 30 30 31 76 32 31 33
REMARK SMILES IDX 75 34 32 35 33 36 34 37 69 38 35 39 74 40 68 41 70 42 36 43
REMARK SMILES IDX 73 44 67 45 66 46 37 48 59 49 44 50 58 51 45 52 48 53 57 54
REMARK SMILES IDX 71 55 46 56 47 57 56 59 72 60 49 61 38 62 39 63 43 64 40 65
REMARK SMILES IDX 42 66 41 67 60 68 61 69 65 70 62 71 64 72 63 73 50 74 51 75
REMARK SMILES IDX 55 76 52 77 54 78 53 79
REMARK H PARENT 70 47 48 58
REMARK Flexibility Score: inf
ROOT
ATOM      1  C   UNL A   1      38.795  20.522  25.381  1.00  0.00     0.275 C 
ENDROOT
BRANCH   1   2
ATOM      2  C   UNL A   1      37.412  20.063  24.944  1.00  0.00     0.275 C 
BRANCH   2   3
ATOM      3  O   UNL A   1      36.679  21.175  24.452  1.00  0.00    -0.459 OA
BRANCH   3   4
ATOM      4  C   UNL A   1      35.695  21.794  25.268  1.00  0.00     0.338 C 
ATOM      5  O   UNL A   1      35.475  21.355  26.441  1.00  0.00    -0.246 OA
BRANCH   4   6
ATOM      6  C   UNL A   1      34.906  22.980  24.739  1.00  0.00     0.087 C 
ATOM      7  C   UNL A   1      32.125  26.118  21.854  1.00  0.00     0.048 C 
ATOM      8  C   UNL A   1      32.724  26.224  23.247  1.00  0.00    -0.007 A 
ATOM      9  C   UNL A   1      32.620  27.360  24.020  1.00  0.00     0.031 A 
ATOM     10  C   UNL A   1      33.447  25.134  23.727  1.00  0.00     0.130 A 
ATOM     11  C   UNL A   1      33.228  27.428  25.267  1.00  0.00     0.108 A 
ATOM     12  C   UNL A   1      34.060  25.205  24.999  1.00  0.00     0.019 A 
ATOM     13  O   UNL A   1      33.596  23.896  22.952  1.00  0.00    -0.475 OA
ATOM     14  C   UNL A   1      33.936  26.368  25.761  1.00  0.00     0.036 A 
ATOM     15  C   UNL A   1      34.812  24.045  25.478  1.00  0.00     0.027 C 
ATOM     16  C   UNL A   1      34.310  22.881  23.482  1.00  0.00     0.316 C 
BRANCH  11  17
ATOM     17  S   UNL A   1      33.082  28.941  26.250  1.00  0.00     0.310 S 
ATOM     18  F   UNL A   1      33.535  28.190  27.572  1.00  0.00    -0.094 F 
ATOM     19  F   UNL A   1      31.603  28.531  26.605  1.00  0.00    -0.094 F 
ATOM     20  F   UNL A   1      32.957  30.236  27.102  1.00  0.00    -0.094 F 
ATOM     21  F   UNL A   1      34.608  29.263  25.998  1.00  0.00    -0.094 F 
ATOM     22  F   UNL A   1      33.258  27.574  25.475  1.00  0.00    -0.094 F 
ENDBRANCH  11  17
BRANCH  16  23
ATOM     23  C   UNL A   1      33.245  21.821  23.711  1.00  0.00     0.430 C 
ATOM     24  F   UNL A   1      33.826  20.632  23.847  1.00  0.00    -0.167 F 
ATOM     25  F   UNL A   1      32.564  22.110  24.816  1.00  0.00    -0.167 F 
ATOM     26  F   UNL A   1      32.416  21.794  22.672  1.00  0.00    -0.167 F 
ENDBRANCH  16  23
ENDBRANCH   4   6
ENDBRANCH   3   4
ENDBRANCH   2   3
ENDBRANCH   1   2
BRANCH   1  27
ATOM     27  O   UNL A   1      39.626  19.391  25.589  1.00  0.00    -0.458 OA
BRANCH  27  28
ATOM     28  C   UNL A   1      40.975  19.566  26.000  1.00  0.00     0.338 C 
ATOM     29  O   UNL A   1      41.793  18.597  25.922  1.00  0.00    -0.246 OA
BRANCH  28  30
ATOM     30  C   UNL A   1      41.437  20.912  26.533  1.00  0.00     0.060 A 
ATOM     31  C   UNL A   1      42.077  21.817  25.692  1.00  0.00     0.016 A 
ATOM     32  C   UNL A   1      41.216  21.267  27.780  1.00  0.00     0.016 A 
ATOM     33  C   UNL A   1      41.991  23.180  26.051  1.00  0.00     0.010 A 
ATOM     34  C   UNL A   1      41.623  22.520  28.252  1.00  0.00     0.010 A 
ATOM     35  C   UNL A   1      42.002  23.463  27.416  1.00  0.00    -0.014 A 
BRANCH  35  36
ATOM     36  C   UNL A   1      42.441  24.826  27.925  1.00  0.00     0.031 A 
ATOM     37  C   UNL A   1      43.813  25.053  28.041  1.00  0.00     0.074 A 
ATOM     38  C   UNL A   1      41.472  25.773  28.214  1.00  0.00     0.049 A 
ATOM     39  N   UNL A   1      44.423  26.182  28.401  1.00  0.00    -0.248 NA
ATOM     40  C   UNL A   1      44.842  24.037  27.769  1.00  0.00     0.031 C 
ATOM     41  C   UNL A   1      40.087  25.554  28.092  1.00  0.00     0.029 A 
ATOM     42  N   UNL A   1      41.658  27.063  28.660  1.00  0.00    -0.354 N 
ATOM     43  C   UNL A   1      45.748  26.019  28.377  1.00  0.00     0.074 A 
ATOM     44  C   UNL A   1      46.036  24.634  27.976  1.00  0.00     0.031 C 
ATOM     45  C   UNL A   1      39.446  26.692  28.469  1.00  0.00     0.029 A 
ATOM     46  C   UNL A   1      40.420  27.640  28.833  1.00  0.00     0.049 A 
ATOM     47  H   UNL A   1      42.527  27.496  28.827  1.00  0.00     0.167 HD
ATOM     48  C   UNL A   1      46.727  26.970  28.672  1.00  0.00     0.031 A 
ATOM     49  C   UNL A   1      40.137  28.920  29.284  1.00  0.00     0.031 A 
ATOM     50  C   UNL A   1      46.443  28.262  29.082  1.00  0.00     0.049 A 
ATOM     51  C   UNL A   1      41.115  29.853  29.635  1.00  0.00     0.074 A 
ATOM     52  C   UNL A   1      47.417  29.235  29.376  1.00  0.00     0.029 A 
ATOM     53  N   UNL A   1      45.204  28.833  29.279  1.00  0.00    -0.354 N 
ATOM     54  N   UNL A   1      42.439  29.702  29.574  1.00  0.00    -0.248 NA
ATOM     55  C   UNL A   1      40.825  31.200  30.146  1.00  0.00     0.031 C 
ATOM     56  C   UNL A   1      46.776  30.373  29.754  1.00  0.00     0.029 A 
ATOM     57  C   UNL A   1      45.391  30.130  29.703  1.00  0.00     0.049 A 
ATOM     58  H   UNL A   1      44.336  28.390  29.140  1.00  0.00     0.167 HD
ATOM     59  C   UNL A   1      43.049  30.819  29.974  1.00  0.00     0.074 A 
ATOM     60  C   UNL A   1      42.020  31.797  30.354  1.00  0.00     0.031 C 
ATOM     61  C   UNL A   1      44.422  31.064  30.033  1.00  0.00     0.031 A 
BRANCH  48  62
ATOM     62  C   UNL A   1      48.185  26.563  28.537  1.00  0.00    -0.014 A 
ATOM     63  C   UNL A   1      48.850  25.975  29.607  1.00  0.00     0.009 A 
ATOM     64  C   UNL A   1      48.795  26.612  27.373  1.00  0.00     0.009 A 
ATOM     65  C   UNL A   1      49.867  25.047  29.286  1.00  0.00     0.001 A 
ATOM     66  C   UNL A   1      50.085  26.093  27.218  1.00  0.00     0.001 A 
ATOM     67  C   UNL A   1      50.618  25.326  28.145  1.00  0.00     0.000 A 
ENDBRANCH  48  62
BRANCH  49  68
ATOM     68  C   UNL A   1      38.678  29.331  29.403  1.00  0.00    -0.014 A 
ATOM     69  C   UNL A   1      38.136  30.039  28.336  1.00  0.00     0.009 A 
ATOM     70  C   UNL A   1      37.946  29.173  30.485  1.00  0.00     0.009 A 
ATOM     71  C   UNL A   1      36.726  30.096  28.268  1.00  0.00     0.001 A 
ATOM     72  C   UNL A   1      36.657  29.712  30.562  1.00  0.00     0.001 A 
ATOM     73  C   UNL A   1      36.051  30.164  29.485  1.00  0.00     0.000 A 
ENDBRANCH  49  68
BRANCH  61  74
ATOM     74  C   UNL A   1      44.882  32.439  30.489  1.00  0.00    -0.014 A 
ATOM     75  C   UNL A   1      45.056  33.465  29.567  1.00  0.00     0.009 A 
ATOM     76  C   UNL A   1      45.095  32.700  31.761  1.00  0.00     0.009 A 
ATOM     77  C   UNL A   1      44.950  34.784  30.061  1.00  0.00     0.001 A 
ATOM     78  C   UNL A   1      45.500  33.974  32.173  1.00  0.00     0.001 A 
ATOM     79  C   UNL A   1      45.431  35.000  31.352  1.00  0.00     0.000 A 
ENDBRANCH  61  74
ENDBRANCH  35  36
ENDBRANCH  28  30
ENDBRANCH  27  28
ENDBRANCH   1  27
TORSDOF 13
ENDMDL
