MODEL 1
REMARK VINA RESULT:     -10.5      0.000      0.000
REMARK SMILES CCCn1cc(Br)cc1C(=O)NC[C@H]1CC[C@@H](C(=O)OCCOC(=O)c2ccc(-c3c4nc(c(-c5ccccc5)c5ccc([nH]5)c(-c5ccccc5)c5nc(c(-c6ccccc6)c6ccc3[nH]6)C=C5)C=C4)cc2)O1
REMARK SMILES IDX 20 1 18 2 19 3 17 4 14 5 15 6 74 7 16 8 13 9 12 10 10 11
REMARK SMILES IDX 11 12 9 14 4 15 5 16 6 17 8 18 7 19 3 20 2 21 1 22 21 23
REMARK SMILES IDX 22 24 23 25 24 26 25 27 26 28 27 29 73 30 28 31 72 32 29 33
REMARK SMILES IDX 30 34 31 35 66 36 32 37 71 38 65 39 67 40 33 41 70 42 64 43
REMARK SMILES IDX 63 44 34 46 56 47 41 48 55 49 42 50 45 51 54 52 68 53 43 54
REMARK SMILES IDX 44 55 53 57 69 58 46 59 35 60 36 61 40 62 37 63 39 64 38 65
REMARK SMILES IDX 57 66 58 67 62 68 59 69 61 70 60 71 47 72 48 73 52 74 49 75
REMARK SMILES IDX 51 76 50 77
REMARK H PARENT 12 13 67 45 45 56
REMARK Flexibility Score: inf
ROOT
ATOM      1  O   UNL A   1      33.757  29.793  26.229  1.00  0.00    -0.460 OA
ENDROOT
BRANCH   1   2
ATOM      2  C   UNL A   1      33.470  28.461  26.183  1.00  0.00     0.335 C 
ATOM      3  O   UNL A   1      34.224  27.568  26.551  1.00  0.00    -0.249 OA
BRANCH   2   4
ATOM      4  C   UNL A   1      32.054  28.233  25.658  1.00  0.00     0.228 C 
ATOM      5  C   UNL A   1      31.666  26.527  24.117  1.00  0.00     0.138 C 
ATOM      6  C   UNL A   1      30.676  26.335  25.257  1.00  0.00     0.037 C 
ATOM      7  O   UNL A   1      32.123  27.876  24.264  1.00  0.00    -0.361 OA
ATOM      8  C   UNL A   1      31.331  27.097  26.387  1.00  0.00     0.047 C 
BRANCH   5   9
ATOM      9  C   UNL A   1      32.824  25.531  24.270  1.00  0.00     0.148 C 
BRANCH   9  10
ATOM     10  N   UNL A   1      33.313  24.900  23.083  1.00  0.00    -0.348 N 
ATOM     11  C   UNL A   1      33.531  23.575  22.820  1.00  0.00     0.268 C 
ATOM     12  O   UNL A   1      33.644  23.308  21.619  1.00  0.00    -0.268 OA
ATOM     13  H   UNL A   1      33.523  25.513  22.340  1.00  0.00     0.163 HD
BRANCH  11  14
ATOM     14  C   UNL A   1      33.785  22.558  23.838  1.00  0.00     0.108 A 
ATOM     15  N   UNL A   1      34.585  22.445  24.973  1.00  0.00    -0.342 N 
ATOM     16  C   UNL A   1      34.497  21.132  25.447  1.00  0.00     0.102 A 
ATOM     17  C   UNL A   1      33.508  20.489  24.770  1.00  0.00     0.036 A 
ATOM     18  C   UNL A   1      33.039  21.368  23.796  1.00  0.00     0.049 A 
ATOM     19  Br  UNL A   1      32.883  18.752  25.050  1.00  0.00    -0.049 Br
BRANCH  15  20
ATOM     20  C   UNL A   1      35.421  23.336  25.763  1.00  0.00     0.122 C 
BRANCH  20  21
ATOM     21  C   UNL A   1      36.877  23.706  25.493  1.00  0.00     0.018 C 
ATOM     22  C   UNL A   1      37.931  22.652  25.754  1.00  0.00     0.006 C 
ENDBRANCH  20  21
ENDBRANCH  15  20
ENDBRANCH  11  14
ENDBRANCH   9  10
ENDBRANCH   5   9
ENDBRANCH   2   4
ENDBRANCH   1   2
BRANCH   1  23
ATOM     23  C   UNL A   1      32.827  30.598  26.970  1.00  0.00     0.274 C 
BRANCH  23  24
ATOM     24  C   UNL A   1      33.543  31.732  27.690  1.00  0.00     0.275 C 
BRANCH  24  25
ATOM     25  O   UNL A   1      34.966  31.614  27.611  1.00  0.00    -0.458 OA
BRANCH  25  26
ATOM     26  C   UNL A   1      35.603  31.498  28.798  1.00  0.00     0.338 C 
ATOM     27  O   UNL A   1      35.323  32.045  29.850  1.00  0.00    -0.246 OA
BRANCH  26  28
ATOM     28  C   UNL A   1      36.865  30.773  28.599  1.00  0.00     0.060 A 
ATOM     29  C   UNL A   1      36.782  29.431  28.215  1.00  0.00     0.016 A 
ATOM     30  C   UNL A   1      38.066  31.333  29.057  1.00  0.00     0.016 A 
ATOM     31  C   UNL A   1      37.872  28.611  28.433  1.00  0.00     0.010 A 
ATOM     32  C   UNL A   1      39.149  30.512  29.282  1.00  0.00     0.010 A 
ATOM     33  C   UNL A   1      39.018  29.148  29.032  1.00  0.00    -0.014 A 
BRANCH  33  34
ATOM     34  C   UNL A   1      40.108  28.241  29.336  1.00  0.00     0.031 A 
ATOM     35  C   UNL A   1      40.513  28.218  30.759  1.00  0.00     0.074 A 
ATOM     36  C   UNL A   1      40.632  27.393  28.434  1.00  0.00     0.049 A 
ATOM     37  N   UNL A   1      41.663  28.520  31.265  1.00  0.00    -0.248 NA
ATOM     38  C   UNL A   1      39.473  27.909  31.753  1.00  0.00     0.031 C 
ATOM     39  C   UNL A   1      40.141  27.077  27.090  1.00  0.00     0.029 A 
ATOM     40  N   UNL A   1      41.673  26.532  28.598  1.00  0.00    -0.354 N 
ATOM     41  C   UNL A   1      41.546  28.293  32.631  1.00  0.00     0.074 A 
ATOM     42  C   UNL A   1      40.152  28.042  32.891  1.00  0.00     0.031 C 
ATOM     43  C   UNL A   1      40.734  25.938  26.664  1.00  0.00     0.029 A 
ATOM     44  C   UNL A   1      41.732  25.533  27.640  1.00  0.00     0.049 A 
ATOM     45  H   UNL A   1      42.325  26.611  29.331  1.00  0.00     0.167 HD
ATOM     46  C   UNL A   1      42.635  28.122  33.428  1.00  0.00     0.031 A 
ATOM     47  C   UNL A   1      42.495  24.416  27.693  1.00  0.00     0.031 A 
ATOM     48  C   UNL A   1      43.843  28.601  32.813  1.00  0.00     0.049 A 
ATOM     49  C   UNL A   1      43.573  24.643  28.683  1.00  0.00     0.074 A 
ATOM     50  C   UNL A   1      44.278  29.826  32.350  1.00  0.00     0.029 A 
ATOM     51  N   UNL A   1      44.694  27.670  32.269  1.00  0.00    -0.354 N 
ATOM     52  N   UNL A   1      44.557  25.476  28.501  1.00  0.00    -0.248 NA
ATOM     53  C   UNL A   1      43.341  24.246  30.063  1.00  0.00     0.031 C 
ATOM     54  C   UNL A   1      45.051  29.529  31.189  1.00  0.00     0.029 A 
ATOM     55  C   UNL A   1      45.073  28.141  31.039  1.00  0.00     0.049 A 
ATOM     56  H   UNL A   1      44.978  26.824  32.684  1.00  0.00     0.167 HD
ATOM     57  C   UNL A   1      44.785  26.034  29.751  1.00  0.00     0.074 A 
ATOM     58  C   UNL A   1      44.091  25.157  30.690  1.00  0.00     0.031 C 
ATOM     59  C   UNL A   1      45.273  27.304  29.877  1.00  0.00     0.031 A 
BRANCH  46  60
ATOM     60  C   UNL A   1      42.653  27.177  34.600  1.00  0.00    -0.014 A 
ATOM     61  C   UNL A   1      42.934  25.818  34.374  1.00  0.00     0.009 A 
ATOM     62  C   UNL A   1      42.128  27.514  35.863  1.00  0.00     0.009 A 
ATOM     63  C   UNL A   1      42.641  24.845  35.337  1.00  0.00     0.001 A 
ATOM     64  C   UNL A   1      41.876  26.552  36.842  1.00  0.00     0.001 A 
ATOM     65  C   UNL A   1      42.106  25.212  36.567  1.00  0.00     0.000 A 
ENDBRANCH  46  60
BRANCH  47  66
ATOM     66  C   UNL A   1      42.196  23.078  27.144  1.00  0.00    -0.014 A 
ATOM     67  C   UNL A   1      43.109  22.426  26.303  1.00  0.00     0.009 A 
ATOM     68  C   UNL A   1      41.121  22.328  27.655  1.00  0.00     0.009 A 
ATOM     69  C   UNL A   1      42.968  21.062  26.012  1.00  0.00     0.001 A 
ATOM     70  C   UNL A   1      40.978  20.968  27.361  1.00  0.00     0.001 A 
ATOM     71  C   UNL A   1      41.911  20.333  26.551  1.00  0.00     0.000 A 
ENDBRANCH  47  66
BRANCH  59  72
ATOM     72  C   UNL A   1      45.787  27.992  28.636  1.00  0.00    -0.014 A 
ATOM     73  C   UNL A   1      47.134  27.928  28.235  1.00  0.00     0.009 A 
ATOM     74  C   UNL A   1      44.861  28.583  27.765  1.00  0.00     0.009 A 
ATOM     75  C   UNL A   1      47.544  28.471  27.014  1.00  0.00     0.001 A 
ATOM     76  C   UNL A   1      45.267  29.105  26.534  1.00  0.00     0.001 A 
ATOM     77  C   UNL A   1      46.609  29.054  26.162  1.00  0.00     0.000 A 
ENDBRANCH  59  72
ENDBRANCH  33  34
ENDBRANCH  26  28
ENDBRANCH  25  26
ENDBRANCH  24  25
ENDBRANCH  23  24
ENDBRANCH   1  23
TORSDOF 16
ENDMDL
MODEL 2
REMARK VINA RESULT:     -10.3      1.840      2.372
REMARK SMILES CCCn1cc(Br)cc1C(=O)NC[C@H]1CC[C@@H](C(=O)OCCOC(=O)c2ccc(-c3c4nc(c(-c5ccccc5)c5ccc([nH]5)c(-c5ccccc5)c5nc(c(-c6ccccc6)c6ccc3[nH]6)C=C5)C=C4)cc2)O1
REMARK SMILES IDX 20 1 18 2 19 3 17 4 14 5 15 6 74 7 16 8 13 9 12 10 10 11
REMARK SMILES IDX 11 12 9 14 4 15 5 16 6 17 8 18 7 19 3 20 2 21 1 22 21 23
REMARK SMILES IDX 22 24 23 25 24 26 25 27 26 28 27 29 73 30 28 31 72 32 29 33
REMARK SMILES IDX 30 34 31 35 66 36 32 37 71 38 65 39 67 40 33 41 70 42 64 43
REMARK SMILES IDX 63 44 34 46 56 47 41 48 55 49 42 50 45 51 54 52 68 53 43 54
REMARK SMILES IDX 44 55 53 57 69 58 46 59 35 60 36 61 40 62 37 63 39 64 38 65
REMARK SMILES IDX 57 66 58 67 62 68 59 69 61 70 60 71 47 72 48 73 52 74 49 75
REMARK SMILES IDX 51 76 50 77
REMARK H PARENT 12 13 67 45 45 56
REMARK Flexibility Score: inf
ROOT
ATOM      1  O   UNL A   1      32.568  29.001  25.195  1.00  0.00    -0.460 OA
ENDROOT
BRANCH   1   2
ATOM      2  C   UNL A   1      32.860  28.797  23.880  1.00  0.00     0.335 C 
ATOM      3  O   UNL A   1      33.950  29.010  23.362  1.00  0.00    -0.249 OA
BRANCH   2   4
ATOM      4  C   UNL A   1      31.655  28.214  23.144  1.00  0.00     0.228 C 
ATOM      5  C   UNL A   1      31.148  25.951  23.394  1.00  0.00     0.138 C 
ATOM      6  C   UNL A   1      29.878  26.732  23.702  1.00  0.00     0.037 C 
ATOM      7  O   UNL A   1      31.980  26.885  22.694  1.00  0.00    -0.361 OA
ATOM      8  C   UNL A   1      30.415  28.106  24.036  1.00  0.00     0.047 C 
BRANCH   5   9
ATOM      9  C   UNL A   1      31.804  25.501  24.706  1.00  0.00     0.148 C 
BRANCH   9  10
ATOM     10  N   UNL A   1      30.996  24.764  25.628  1.00  0.00    -0.348 N 
ATOM     11  C   UNL A   1      31.271  23.606  26.305  1.00  0.00     0.268 C 
ATOM     12  O   UNL A   1      30.521  23.389  27.262  1.00  0.00    -0.268 OA
ATOM     13  H   UNL A   1      30.107  25.150  25.805  1.00  0.00     0.163 HD
BRANCH  11  14
ATOM     14  C   UNL A   1      32.241  22.603  25.871  1.00  0.00     0.108 A 
ATOM     15  N   UNL A   1      33.629  22.478  25.864  1.00  0.00    -0.342 N 
ATOM     16  C   UNL A   1      33.964  21.320  25.155  1.00  0.00     0.102 A 
ATOM     17  C   UNL A   1      32.828  20.616  24.906  1.00  0.00     0.036 A 
ATOM     18  C   UNL A   1      31.761  21.381  25.371  1.00  0.00     0.049 A 
ATOM     19  Br  UNL A   1      32.684  18.946  24.082  1.00  0.00    -0.049 Br
BRANCH  15  20
ATOM     20  C   UNL A   1      34.752  23.211  26.425  1.00  0.00     0.122 C 
BRANCH  20  21
ATOM     21  C   UNL A   1      35.767  24.059  25.660  1.00  0.00     0.018 C 
ATOM     22  C   UNL A   1      37.179  23.526  25.539  1.00  0.00     0.006 C 
ENDBRANCH  20  21
ENDBRANCH  15  20
ENDBRANCH  11  14
ENDBRANCH   9  10
ENDBRANCH   5   9
ENDBRANCH   2   4
ENDBRANCH   1   2
BRANCH   1  23
ATOM     23  C   UNL A   1      33.644  29.521  25.991  1.00  0.00     0.274 C 
BRANCH  23  24
ATOM     24  C   UNL A   1      33.221  30.794  26.713  1.00  0.00     0.275 C 
BRANCH  24  25
ATOM     25  O   UNL A   1      33.829  30.916  28.000  1.00  0.00    -0.458 OA
BRANCH  25  26
ATOM     26  C   UNL A   1      34.868  31.779  28.070  1.00  0.00     0.338 C 
ATOM     27  O   UNL A   1      34.979  32.858  27.513  1.00  0.00    -0.246 OA
BRANCH  26  28
ATOM     28  C   UNL A   1      35.993  31.127  28.752  1.00  0.00     0.060 A 
ATOM     29  C   UNL A   1      37.104  31.918  29.061  1.00  0.00     0.016 A 
ATOM     30  C   UNL A   1      36.047  29.727  28.817  1.00  0.00     0.016 A 
ATOM     31  C   UNL A   1      38.316  31.297  29.291  1.00  0.00     0.010 A 
ATOM     32  C   UNL A   1      37.259  29.110  29.040  1.00  0.00     0.010 A 
ATOM     33  C   UNL A   1      38.392  29.902  29.206  1.00  0.00    -0.014 A 
BRANCH  33  34
ATOM     34  C   UNL A   1      39.697  29.287  29.357  1.00  0.00     0.031 A 
ATOM     35  C   UNL A   1      40.115  29.060  30.759  1.00  0.00     0.074 A 
ATOM     36  C   UNL A   1      40.422  28.838  28.318  1.00  0.00     0.049 A 
ATOM     37  N   UNL A   1      41.142  29.548  31.372  1.00  0.00    -0.248 NA
ATOM     38  C   UNL A   1      39.218  28.265  31.612  1.00  0.00     0.031 C 
ATOM     39  C   UNL A   1      40.018  28.705  26.916  1.00  0.00     0.029 A 
ATOM     40  N   UNL A   1      41.664  28.283  28.339  1.00  0.00    -0.354 N 
ATOM     41  C   UNL A   1      41.116  29.000  32.648  1.00  0.00     0.074 A 
ATOM     42  C   UNL A   1      39.851  28.323  32.782  1.00  0.00     0.031 C 
ATOM     43  C   UNL A   1      40.897  27.897  26.280  1.00  0.00     0.029 A 
ATOM     44  C   UNL A   1      41.984  27.577  27.191  1.00  0.00     0.049 A 
ATOM     45  H   UNL A   1      42.280  28.374  29.102  1.00  0.00     0.167 HD
ATOM     46  C   UNL A   1      42.222  28.963  33.439  1.00  0.00     0.031 A 
ATOM     47  C   UNL A   1      43.030  26.731  27.036  1.00  0.00     0.031 A 
ATOM     48  C   UNL A   1      43.238  29.880  33.000  1.00  0.00     0.049 A 
ATOM     49  C   UNL A   1      44.017  27.020  28.101  1.00  0.00     0.074 A 
ATOM     50  C   UNL A   1      43.307  31.249  32.836  1.00  0.00     0.029 A 
ATOM     51  N   UNL A   1      44.306  29.365  32.308  1.00  0.00    -0.354 N 
ATOM     52  N   UNL A   1      44.726  28.110  28.151  1.00  0.00    -0.248 NA
ATOM     53  C   UNL A   1      43.927  26.279  29.350  1.00  0.00     0.031 C 
ATOM     54  C   UNL A   1      44.113  31.441  31.676  1.00  0.00     0.029 A 
ATOM     55  C   UNL A   1      44.519  30.182  31.229  1.00  0.00     0.049 A 
ATOM     56  H   UNL A   1      44.822  28.559  32.542  1.00  0.00     0.167 HD
ATOM     57  C   UNL A   1      44.810  28.418  29.501  1.00  0.00     0.074 A 
ATOM     58  C   UNL A   1      44.403  27.198  30.194  1.00  0.00     0.031 C 
ATOM     59  C   UNL A   1      44.926  29.713  29.924  1.00  0.00     0.031 A 
BRANCH  46  60
ATOM     60  C   UNL A   1      42.521  27.824  34.377  1.00  0.00    -0.014 A 
ATOM     61  C   UNL A   1      43.101  26.652  33.861  1.00  0.00     0.009 A 
ATOM     62  C   UNL A   1      41.998  27.751  35.683  1.00  0.00     0.009 A 
ATOM     63  C   UNL A   1      43.094  25.456  34.588  1.00  0.00     0.001 A 
ATOM     64  C   UNL A   1      42.029  26.572  36.429  1.00  0.00     0.001 A 
ATOM     65  C   UNL A   1      42.552  25.415  35.869  1.00  0.00     0.000 A 
ENDBRANCH  46  60
BRANCH  47  66
ATOM     66  C   UNL A   1      43.107  25.519  26.196  1.00  0.00    -0.014 A 
ATOM     67  C   UNL A   1      44.163  25.338  25.290  1.00  0.00     0.009 A 
ATOM     68  C   UNL A   1      42.279  24.414  26.469  1.00  0.00     0.009 A 
ATOM     69  C   UNL A   1      44.399  24.086  24.706  1.00  0.00     0.001 A 
ATOM     70  C   UNL A   1      42.512  23.166  25.882  1.00  0.00     0.001 A 
ATOM     71  C   UNL A   1      43.583  23.000  25.012  1.00  0.00     0.000 A 
ENDBRANCH  47  66
BRANCH  59  72
ATOM     72  C   UNL A   1      45.208  30.772  28.888  1.00  0.00    -0.014 A 
ATOM     73  C   UNL A   1      44.195  31.368  28.114  1.00  0.00     0.009 A 
ATOM     74  C   UNL A   1      46.506  31.298  28.803  1.00  0.00     0.009 A 
ATOM     75  C   UNL A   1      44.481  32.434  27.257  1.00  0.00     0.001 A 
ATOM     76  C   UNL A   1      46.786  32.379  27.962  1.00  0.00     0.001 A 
ATOM     77  C   UNL A   1      45.776  32.942  27.186  1.00  0.00     0.000 A 
ENDBRANCH  59  72
ENDBRANCH  33  34
ENDBRANCH  26  28
ENDBRANCH  25  26
ENDBRANCH  24  25
ENDBRANCH  23  24
ENDBRANCH   1  23
TORSDOF 16
ENDMDL
MODEL 3
REMARK VINA RESULT:     -10.2      3.206      8.118
REMARK SMILES CCCn1cc(Br)cc1C(=O)NC[C@H]1CC[C@@H](C(=O)OCCOC(=O)c2ccc(-c3c4nc(c(-c5ccccc5)c5ccc([nH]5)c(-c5ccccc5)c5nc(c(-c6ccccc6)c6ccc3[nH]6)C=C5)C=C4)cc2)O1
REMARK SMILES IDX 20 1 18 2 19 3 17 4 14 5 15 6 74 7 16 8 13 9 12 10 10 11
REMARK SMILES IDX 11 12 9 14 4 15 5 16 6 17 8 18 7 19 3 20 2 21 1 22 21 23
REMARK SMILES IDX 22 24 23 25 24 26 25 27 26 28 27 29 73 30 28 31 72 32 29 33
REMARK SMILES IDX 30 34 31 35 66 36 32 37 71 38 65 39 67 40 33 41 70 42 64 43
REMARK SMILES IDX 63 44 34 46 56 47 41 48 55 49 42 50 45 51 54 52 68 53 43 54
REMARK SMILES IDX 44 55 53 57 69 58 46 59 35 60 36 61 40 62 37 63 39 64 38 65
REMARK SMILES IDX 57 66 58 67 62 68 59 69 61 70 60 71 47 72 48 73 52 74 49 75
REMARK SMILES IDX 51 76 50 77
REMARK H PARENT 12 13 67 45 45 56
REMARK Flexibility Score: inf
ROOT
ATOM      1  O   UNL A   1      36.270  22.170  25.900  1.00  0.00    -0.460 OA
ENDROOT
BRANCH   1   2
ATOM      2  C   UNL A   1      35.609  23.094  25.146  1.00  0.00     0.335 C 
ATOM      3  O   UNL A   1      35.845  24.296  25.146  1.00  0.00    -0.249 OA
BRANCH   2   4
ATOM      4  C   UNL A   1      34.568  22.419  24.256  1.00  0.00     0.228 C 
ATOM      5  C   UNL A   1      32.519  23.470  23.891  1.00  0.00     0.138 C 
ATOM      6  C   UNL A   1      33.097  23.126  22.524  1.00  0.00     0.037 C 
ATOM      7  O   UNL A   1      33.258  22.654  24.807  1.00  0.00    -0.361 OA
ATOM      8  C   UNL A   1      34.569  22.966  22.826  1.00  0.00     0.047 C 
BRANCH   5   9
ATOM      9  C   UNL A   1      32.740  24.962  24.179  1.00  0.00     0.148 C 
BRANCH   9  10
ATOM     10  N   UNL A   1      32.973  25.822  23.060  1.00  0.00    -0.348 N 
ATOM     11  C   UNL A   1      33.361  27.134  23.028  1.00  0.00     0.268 C 
ATOM     12  O   UNL A   1      33.791  27.509  21.932  1.00  0.00    -0.268 OA
ATOM     13  H   UNL A   1      32.835  25.406  22.178  1.00  0.00     0.163 HD
BRANCH  11  14
ATOM     14  C   UNL A   1      33.148  28.089  24.114  1.00  0.00     0.108 A 
ATOM     15  N   UNL A   1      32.150  28.989  24.485  1.00  0.00    -0.342 N 
ATOM     16  C   UNL A   1      32.618  29.745  25.565  1.00  0.00     0.102 A 
ATOM     17  C   UNL A   1      33.782  29.201  26.007  1.00  0.00     0.036 A 
ATOM     18  C   UNL A   1      34.104  28.159  25.140  1.00  0.00     0.049 A 
ATOM     19  Br  UNL A   1      34.798  29.735  27.481  1.00  0.00    -0.049 Br
BRANCH  15  20
ATOM     20  C   UNL A   1      30.792  29.287  24.058  1.00  0.00     0.122 C 
BRANCH  20  21
ATOM     21  C   UNL A   1      30.036  28.648  22.895  1.00  0.00     0.018 C 
ATOM     22  C   UNL A   1      28.594  29.058  22.685  1.00  0.00     0.006 C 
ENDBRANCH  20  21
ENDBRANCH  15  20
ENDBRANCH  11  14
ENDBRANCH   9  10
ENDBRANCH   5   9
ENDBRANCH   2   4
ENDBRANCH   1   2
BRANCH   1  23
ATOM     23  C   UNL A   1      37.076  21.238  25.165  1.00  0.00     0.274 C 
BRANCH  23  24
ATOM     24  C   UNL A   1      38.541  21.351  25.565  1.00  0.00     0.275 C 
BRANCH  24  25
ATOM     25  O   UNL A   1      38.767  22.404  26.506  1.00  0.00    -0.458 OA
BRANCH  25  26
ATOM     26  C   UNL A   1      40.025  22.482  26.995  1.00  0.00     0.338 C 
ATOM     27  O   UNL A   1      40.716  21.573  27.422  1.00  0.00    -0.246 OA
BRANCH  26  28
ATOM     28  C   UNL A   1      40.390  23.894  27.165  1.00  0.00     0.060 A 
ATOM     29  C   UNL A   1      41.489  24.181  27.981  1.00  0.00     0.016 A 
ATOM     30  C   UNL A   1      39.497  24.896  26.757  1.00  0.00     0.016 A 
ATOM     31  C   UNL A   1      41.606  25.451  28.512  1.00  0.00     0.010 A 
ATOM     32  C   UNL A   1      39.611  26.159  27.294  1.00  0.00     0.010 A 
ATOM     33  C   UNL A   1      40.624  26.404  28.218  1.00  0.00    -0.014 A 
BRANCH  33  34
ATOM     34  C   UNL A   1      40.722  27.697  28.868  1.00  0.00     0.031 A 
ATOM     35  C   UNL A   1      41.716  28.616  28.268  1.00  0.00     0.074 A 
ATOM     36  C   UNL A   1      39.896  28.089  29.853  1.00  0.00     0.049 A 
ATOM     37  N   UNL A   1      42.760  29.132  28.826  1.00  0.00    -0.248 NA
ATOM     38  C   UNL A   1      41.578  28.919  26.835  1.00  0.00     0.031 C 
ATOM     39  C   UNL A   1      38.681  27.430  30.338  1.00  0.00     0.029 A 
ATOM     40  N   UNL A   1      39.920  29.255  30.554  1.00  0.00    -0.354 N 
ATOM     41  C   UNL A   1      43.334  29.954  27.864  1.00  0.00     0.074 A 
ATOM     42  C   UNL A   1      42.644  29.689  26.628  1.00  0.00     0.031 C 
ATOM     43  C   UNL A   1      37.966  28.312  31.074  1.00  0.00     0.029 A 
ATOM     44  C   UNL A   1      38.738  29.535  31.220  1.00  0.00     0.049 A 
ATOM     45  H   UNL A   1      40.706  29.846  30.586  1.00  0.00     0.167 HD
ATOM     46  C   UNL A   1      44.202  30.950  28.192  1.00  0.00     0.031 A 
ATOM     47  C   UNL A   1      38.395  30.719  31.780  1.00  0.00     0.031 A 
ATOM     48  C   UNL A   1      44.750  30.783  29.511  1.00  0.00     0.049 A 
ATOM     49  C   UNL A   1      39.632  31.511  31.973  1.00  0.00     0.074 A 
ATOM     50  C   UNL A   1      45.508  29.812  30.133  1.00  0.00     0.029 A 
ATOM     51  N   UNL A   1      44.232  31.558  30.519  1.00  0.00    -0.354 N 
ATOM     52  N   UNL A   1      40.555  31.209  32.839  1.00  0.00    -0.248 NA
ATOM     53  C   UNL A   1      40.046  32.419  30.914  1.00  0.00     0.031 C 
ATOM     54  C   UNL A   1      45.020  29.764  31.471  1.00  0.00     0.029 A 
ATOM     55  C   UNL A   1      44.024  30.734  31.594  1.00  0.00     0.049 A 
ATOM     56  H   UNL A   1      44.045  32.524  30.477  1.00  0.00     0.167 HD
ATOM     57  C   UNL A   1      41.750  31.528  32.212  1.00  0.00     0.074 A 
ATOM     58  C   UNL A   1      41.371  32.375  31.083  1.00  0.00     0.031 C 
ATOM     59  C   UNL A   1      42.901  30.848  32.497  1.00  0.00     0.031 A 
BRANCH  46  60
ATOM     60  C   UNL A   1      44.254  32.265  27.462  1.00  0.00    -0.014 A 
ATOM     61  C   UNL A   1      43.779  33.420  28.108  1.00  0.00     0.009 A 
ATOM     62  C   UNL A   1      44.484  32.362  26.076  1.00  0.00     0.009 A 
ATOM     63  C   UNL A   1      43.487  34.586  27.390  1.00  0.00     0.001 A 
ATOM     64  C   UNL A   1      44.236  33.537  25.364  1.00  0.00     0.001 A 
ATOM     65  C   UNL A   1      43.709  34.641  26.018  1.00  0.00     0.000 A 
ENDBRANCH  46  60
BRANCH  47  66
ATOM     66  C   UNL A   1      37.050  31.313  31.910  1.00  0.00    -0.014 A 
ATOM     67  C   UNL A   1      36.609  31.833  33.137  1.00  0.00     0.009 A 
ATOM     68  C   UNL A   1      36.289  31.604  30.762  1.00  0.00     0.009 A 
ATOM     69  C   UNL A   1      35.467  32.642  33.203  1.00  0.00     0.001 A 
ATOM     70  C   UNL A   1      35.147  32.407  30.829  1.00  0.00     0.001 A 
ATOM     71  C   UNL A   1      34.745  32.939  32.049  1.00  0.00     0.000 A 
ENDBRANCH  47  66
BRANCH  59  72
ATOM     72  C   UNL A   1      42.895  29.913  33.681  1.00  0.00    -0.014 A 
ATOM     73  C   UNL A   1      42.430  28.588  33.601  1.00  0.00     0.009 A 
ATOM     74  C   UNL A   1      43.522  30.327  34.865  1.00  0.00     0.009 A 
ATOM     75  C   UNL A   1      42.559  27.716  34.686  1.00  0.00     0.001 A 
ATOM     76  C   UNL A   1      43.671  29.448  35.941  1.00  0.00     0.001 A 
ATOM     77  C   UNL A   1      43.184  28.146  35.854  1.00  0.00     0.000 A 
ENDBRANCH  59  72
ENDBRANCH  33  34
ENDBRANCH  26  28
ENDBRANCH  25  26
ENDBRANCH  24  25
ENDBRANCH  23  24
ENDBRANCH   1  23
TORSDOF 16
ENDMDL
