MODEL 1
REMARK VINA RESULT:     -11.2      0.000      0.000
REMARK SMILES CC[C@@]1(C)NC(=O)N(/N=C/c2ccccc2C(=O)OCCOC(=O)c2ccc(-c3c4nc(c(-c5ccccc5)c5ccc([nH]5)c(-c5ccccc5)c5nc(c(-c6ccccc6)c6ccc3[nH]6)C=C5)C=C4)cc2)C1=O
REMARK SMILES IDX 20 1 19 2 17 3 18 4 16 5 11 6 12 7 13 8 15 9 14 10 10 11
REMARK SMILES IDX 9 12 8 13 3 14 4 15 5 16 73 17 6 18 74 20 7 21 2 22 1 23
REMARK SMILES IDX 21 24 22 25 23 26 24 27 25 28 26 29 72 30 27 31 71 32 28 33
REMARK SMILES IDX 29 34 30 35 65 36 31 37 70 38 64 39 66 40 32 41 69 42 63 43
REMARK SMILES IDX 62 44 33 46 55 47 40 48 54 49 41 50 44 51 53 52 67 53 42 54
REMARK SMILES IDX 43 55 52 57 68 58 45 59 34 60 35 61 39 62 36 63 38 64 37 65
REMARK SMILES IDX 56 66 57 67 61 68 58 69 60 70 59 71 46 72 47 73 51 74 48 75
REMARK SMILES IDX 50 76 49 77
REMARK H PARENT 5 19 66 45 44 56
REMARK Flexibility Score: inf
ROOT
ATOM      1  C   UNL A   1      32.194  28.939  24.900  1.00  0.00     0.275 C 
ENDROOT
BRANCH   1   2
ATOM      2  O   UNL A   1      32.034  29.007  23.468  1.00  0.00    -0.458 OA
BRANCH   2   3
ATOM      3  C   UNL A   1      31.431  27.942  22.883  1.00  0.00     0.338 C 
ATOM      4  O   UNL A   1      31.983  27.006  22.328  1.00  0.00    -0.246 OA
BRANCH   3   5
ATOM      5  C   UNL A   1      29.976  27.944  23.163  1.00  0.00     0.068 A 
ATOM      6  C   UNL A   1      29.273  26.869  23.719  1.00  0.00     0.009 A 
ATOM      7  C   UNL A   1      27.878  26.953  23.876  1.00  0.00     0.010 A 
ATOM      8  C   UNL A   1      27.190  28.108  23.499  1.00  0.00     0.001 A 
ATOM      9  C   UNL A   1      29.274  29.118  22.829  1.00  0.00     0.016 A 
ATOM     10  C   UNL A   1      27.889  29.193  22.979  1.00  0.00     0.001 A 
BRANCH   6  11
ATOM     11  C   UNL A   1      29.905  25.621  24.193  1.00  0.00     0.143 C 
ATOM     12  N   UNL A   1      30.523  25.561  25.323  1.00  0.00    -0.169 NA
BRANCH  12  13
ATOM     13  N   UNL A   1      31.154  24.406  25.700  1.00  0.00    -0.146 N 
ATOM     14  C   UNL A   1      32.614  22.578  26.041  1.00  0.00     0.120 C 
ATOM     15  C   UNL A   1      32.563  21.419  25.050  1.00  0.00     0.045 C 
ATOM     16  N   UNL A   1      31.463  22.550  26.907  1.00  0.00    -0.322 N 
ATOM     17  C   UNL A   1      32.365  23.895  25.275  1.00  0.00     0.276 C 
ATOM     18  C   UNL A   1      30.590  23.589  26.658  1.00  0.00     0.346 C 
ATOM     19  H   UNL A   1      31.316  21.865  27.599  1.00  0.00     0.166 HD
ATOM     20  O   UNL A   1      33.135  24.337  24.429  1.00  0.00    -0.270 OA
ATOM     21  O   UNL A   1      29.529  23.701  27.251  1.00  0.00    -0.246 OA
BRANCH  14  22
ATOM     22  C   UNL A   1      33.938  22.679  26.814  1.00  0.00     0.035 C 
ATOM     23  C   UNL A   1      35.062  21.821  26.251  1.00  0.00     0.007 C 
ENDBRANCH  14  22
ENDBRANCH  12  13
ENDBRANCH   6  11
ENDBRANCH   3   5
ENDBRANCH   2   3
ENDBRANCH   1   2
BRANCH   1  24
ATOM     24  C   UNL A   1      31.669  30.205  25.568  1.00  0.00     0.275 C 
BRANCH  24  25
ATOM     25  O   UNL A   1      32.237  30.329  26.880  1.00  0.00    -0.458 OA
BRANCH  25  26
ATOM     26  C   UNL A   1      32.846  31.505  27.127  1.00  0.00     0.338 C 
ATOM     27  O   UNL A   1      32.392  32.637  27.020  1.00  0.00    -0.246 OA
BRANCH  26  28
ATOM     28  C   UNL A   1      34.177  31.231  27.665  1.00  0.00     0.060 A 
ATOM     29  C   UNL A   1      34.512  29.906  27.936  1.00  0.00     0.016 A 
ATOM     30  C   UNL A   1      35.041  32.270  27.998  1.00  0.00     0.016 A 
ATOM     31  C   UNL A   1      35.693  29.610  28.607  1.00  0.00     0.010 A 
ATOM     32  C   UNL A   1      36.257  31.967  28.615  1.00  0.00     0.010 A 
ATOM     33  C   UNL A   1      36.579  30.638  28.956  1.00  0.00    -0.014 A 
BRANCH  33  34
ATOM     34  C   UNL A   1      37.811  30.340  29.733  1.00  0.00     0.031 A 
ATOM     35  C   UNL A   1      38.917  29.538  29.100  1.00  0.00     0.074 A 
ATOM     36  C   UNL A   1      37.948  30.788  30.995  1.00  0.00     0.049 A 
ATOM     37  N   UNL A   1      39.982  29.017  29.654  1.00  0.00    -0.248 NA
ATOM     38  C   UNL A   1      38.801  29.278  27.657  1.00  0.00     0.031 C 
ATOM     39  C   UNL A   1      36.984  31.624  31.712  1.00  0.00     0.029 A 
ATOM     40  N   UNL A   1      38.964  30.602  31.900  1.00  0.00    -0.354 N 
ATOM     41  C   UNL A   1      40.628  28.316  28.643  1.00  0.00     0.074 A 
ATOM     42  C   UNL A   1      39.838  28.481  27.441  1.00  0.00     0.031 C 
ATOM     43  C   UNL A   1      37.468  31.903  32.933  1.00  0.00     0.029 A 
ATOM     44  C   UNL A   1      38.733  31.200  33.114  1.00  0.00     0.049 A 
ATOM     45  H   UNL A   1      39.780  30.088  31.698  1.00  0.00     0.167 HD
ATOM     46  C   UNL A   1      41.772  27.595  28.711  1.00  0.00     0.031 A 
ATOM     47  C   UNL A   1      39.438  31.157  34.260  1.00  0.00     0.031 A 
ATOM     48  C   UNL A   1      42.578  27.469  29.897  1.00  0.00     0.049 A 
ATOM     49  C   UNL A   1      40.687  30.325  34.322  1.00  0.00     0.074 A 
ATOM     50  C   UNL A   1      43.761  26.769  30.065  1.00  0.00     0.029 A 
ATOM     51  N   UNL A   1      42.291  28.071  31.111  1.00  0.00    -0.354 N 
ATOM     52  N   UNL A   1      41.257  29.620  33.375  1.00  0.00    -0.248 NA
ATOM     53  C   UNL A   1      41.381  30.271  35.617  1.00  0.00     0.031 C 
ATOM     54  C   UNL A   1      44.171  26.920  31.395  1.00  0.00     0.029 A 
ATOM     55  C   UNL A   1      43.269  27.751  32.038  1.00  0.00     0.049 A 
ATOM     56  H   UNL A   1      41.509  28.641  31.289  1.00  0.00     0.167 HD
ATOM     57  C   UNL A   1      42.382  29.049  33.955  1.00  0.00     0.074 A 
ATOM     58  C   UNL A   1      42.424  29.505  35.329  1.00  0.00     0.031 C 
ATOM     59  C   UNL A   1      43.294  28.216  33.399  1.00  0.00     0.031 A 
BRANCH  46  60
ATOM     60  C   UNL A   1      42.197  26.849  27.478  1.00  0.00    -0.014 A 
ATOM     61  C   UNL A   1      41.761  25.539  27.223  1.00  0.00     0.009 A 
ATOM     62  C   UNL A   1      43.026  27.485  26.541  1.00  0.00     0.009 A 
ATOM     63  C   UNL A   1      42.175  24.871  26.068  1.00  0.00     0.001 A 
ATOM     64  C   UNL A   1      43.417  26.824  25.375  1.00  0.00     0.001 A 
ATOM     65  C   UNL A   1      42.998  25.515  25.143  1.00  0.00     0.000 A 
ENDBRANCH  46  60
BRANCH  47  66
ATOM     66  C   UNL A   1      38.948  31.887  35.458  1.00  0.00    -0.014 A 
ATOM     67  C   UNL A   1      38.153  31.236  36.414  1.00  0.00     0.009 A 
ATOM     68  C   UNL A   1      39.282  33.236  35.658  1.00  0.00     0.009 A 
ATOM     69  C   UNL A   1      37.695  31.927  37.539  1.00  0.00     0.001 A 
ATOM     70  C   UNL A   1      38.847  33.914  36.797  1.00  0.00     0.001 A 
ATOM     71  C   UNL A   1      38.047  33.261  37.732  1.00  0.00     0.000 A 
ENDBRANCH  47  66
BRANCH  59  72
ATOM     72  C   UNL A   1      44.434  27.774  34.271  1.00  0.00    -0.014 A 
ATOM     73  C   UNL A   1      45.610  28.532  34.365  1.00  0.00     0.009 A 
ATOM     74  C   UNL A   1      44.313  26.602  35.031  1.00  0.00     0.009 A 
ATOM     75  C   UNL A   1      46.656  28.108  35.187  1.00  0.00     0.001 A 
ATOM     76  C   UNL A   1      45.350  26.192  35.870  1.00  0.00     0.001 A 
ATOM     77  C   UNL A   1      46.525  26.941  35.939  1.00  0.00     0.000 A 
ENDBRANCH  59  72
ENDBRANCH  33  34
ENDBRANCH  26  28
ENDBRANCH  25  26
ENDBRANCH  24  25
ENDBRANCH   1  24
TORSDOF 14
ENDMDL
MODEL 2
REMARK VINA RESULT:     -11.1      4.208      8.686
REMARK SMILES CC[C@@]1(C)NC(=O)N(/N=C/c2ccccc2C(=O)OCCOC(=O)c2ccc(-c3c4nc(c(-c5ccccc5)c5ccc([nH]5)c(-c5ccccc5)c5nc(c(-c6ccccc6)c6ccc3[nH]6)C=C5)C=C4)cc2)C1=O
REMARK SMILES IDX 20 1 19 2 17 3 18 4 16 5 11 6 12 7 13 8 15 9 14 10 10 11
REMARK SMILES IDX 9 12 8 13 3 14 4 15 5 16 73 17 6 18 74 20 7 21 2 22 1 23
REMARK SMILES IDX 21 24 22 25 23 26 24 27 25 28 26 29 72 30 27 31 71 32 28 33
REMARK SMILES IDX 29 34 30 35 65 36 31 37 70 38 64 39 66 40 32 41 69 42 63 43
REMARK SMILES IDX 62 44 33 46 55 47 40 48 54 49 41 50 44 51 53 52 67 53 42 54
REMARK SMILES IDX 43 55 52 57 68 58 45 59 34 60 35 61 39 62 36 63 38 64 37 65
REMARK SMILES IDX 56 66 57 67 61 68 58 69 60 70 59 71 46 72 47 73 51 74 48 75
REMARK SMILES IDX 50 76 49 77
REMARK H PARENT 5 19 66 45 44 56
REMARK Flexibility Score: inf
ROOT
ATOM      1  C   UNL A   1      36.602  22.598  23.583  1.00  0.00     0.275 C 
ENDROOT
BRANCH   1   2
ATOM      2  O   UNL A   1      35.825  23.539  24.352  1.00  0.00    -0.458 OA
BRANCH   2   3
ATOM      3  C   UNL A   1      34.662  23.953  23.791  1.00  0.00     0.338 C 
ATOM      4  O   UNL A   1      34.437  24.094  22.600  1.00  0.00    -0.246 OA
BRANCH   3   5
ATOM      5  C   UNL A   1      33.591  24.044  24.811  1.00  0.00     0.068 A 
ATOM      6  C   UNL A   1      32.867  22.952  25.303  1.00  0.00     0.009 A 
ATOM      7  C   UNL A   1      31.821  23.162  26.218  1.00  0.00     0.010 A 
ATOM      8  C   UNL A   1      31.510  24.450  26.657  1.00  0.00     0.001 A 
ATOM      9  C   UNL A   1      33.294  25.332  25.296  1.00  0.00     0.016 A 
ATOM     10  C   UNL A   1      32.250  25.536  26.198  1.00  0.00     0.001 A 
BRANCH   6  11
ATOM     11  C   UNL A   1      33.141  21.546  24.942  1.00  0.00     0.143 C 
ATOM     12  N   UNL A   1      32.188  20.715  24.683  1.00  0.00    -0.169 NA
BRANCH  12  13
ATOM     13  N   UNL A   1      32.475  19.403  24.418  1.00  0.00    -0.146 N 
ATOM     14  C   UNL A   1      33.033  17.106  24.464  1.00  0.00     0.120 C 
ATOM     15  C   UNL A   1      34.510  16.721  24.445  1.00  0.00     0.045 C 
ATOM     16  N   UNL A   1      32.616  17.559  23.161  1.00  0.00    -0.322 N 
ATOM     17  C   UNL A   1      32.870  18.403  25.285  1.00  0.00     0.276 C 
ATOM     18  C   UNL A   1      32.350  18.913  23.134  1.00  0.00     0.346 C 
ATOM     19  H   UNL A   1      32.531  16.969  22.378  1.00  0.00     0.166 HD
ATOM     20  O   UNL A   1      33.097  18.471  26.488  1.00  0.00    -0.270 OA
ATOM     21  O   UNL A   1      32.039  19.493  22.105  1.00  0.00    -0.246 OA
BRANCH  14  22
ATOM     22  C   UNL A   1      32.113  16.019  25.038  1.00  0.00     0.035 C 
ATOM     23  C   UNL A   1      32.843  14.792  25.568  1.00  0.00     0.007 C 
ENDBRANCH  14  22
ENDBRANCH  12  13
ENDBRANCH   6  11
ENDBRANCH   3   5
ENDBRANCH   2   3
ENDBRANCH   1   2
BRANCH   1  24
ATOM     24  C   UNL A   1      36.921  21.354  24.405  1.00  0.00     0.275 C 
BRANCH  24  25
ATOM     25  O   UNL A   1      37.347  21.741  25.720  1.00  0.00    -0.458 OA
BRANCH  25  26
ATOM     26  C   UNL A   1      38.629  21.448  26.011  1.00  0.00     0.338 C 
ATOM     27  O   UNL A   1      39.243  20.410  25.796  1.00  0.00    -0.246 OA
BRANCH  26  28
ATOM     28  C   UNL A   1      39.261  22.642  26.568  1.00  0.00     0.060 A 
ATOM     29  C   UNL A   1      38.769  23.885  26.174  1.00  0.00     0.016 A 
ATOM     30  C   UNL A   1      40.387  22.543  27.379  1.00  0.00     0.016 A 
ATOM     31  C   UNL A   1      39.442  25.046  26.536  1.00  0.00     0.010 A 
ATOM     32  C   UNL A   1      41.026  23.714  27.795  1.00  0.00     0.010 A 
ATOM     33  C   UNL A   1      40.580  24.974  27.350  1.00  0.00    -0.014 A 
BRANCH  33  34
ATOM     34  C   UNL A   1      41.344  26.203  27.687  1.00  0.00     0.031 A 
ATOM     35  C   UNL A   1      40.753  27.216  28.630  1.00  0.00     0.074 A 
ATOM     36  C   UNL A   1      42.566  26.413  27.161  1.00  0.00     0.049 A 
ATOM     37  N   UNL A   1      41.167  28.426  28.911  1.00  0.00    -0.248 NA
ATOM     38  C   UNL A   1      39.527  26.819  29.341  1.00  0.00     0.031 C 
ATOM     39  C   UNL A   1      43.285  25.491  26.281  1.00  0.00     0.029 A 
ATOM     40  N   UNL A   1      43.422  27.478  27.297  1.00  0.00    -0.354 N 
ATOM     41  C   UNL A   1      40.220  28.955  29.780  1.00  0.00     0.074 A 
ATOM     42  C   UNL A   1      39.212  27.936  29.982  1.00  0.00     0.031 C 
ATOM     43  C   UNL A   1      44.484  26.016  25.981  1.00  0.00     0.029 A 
ATOM     44  C   UNL A   1      44.584  27.343  26.578  1.00  0.00     0.049 A 
ATOM     45  H   UNL A   1      43.223  28.264  27.856  1.00  0.00     0.167 HD
ATOM     46  C   UNL A   1      40.189  30.183  30.351  1.00  0.00     0.031 A 
ATOM     47  C   UNL A   1      45.600  28.205  26.384  1.00  0.00     0.031 A 
ATOM     48  C   UNL A   1      41.214  31.179  30.181  1.00  0.00     0.049 A 
ATOM     49  C   UNL A   1      45.530  29.572  27.001  1.00  0.00     0.074 A 
ATOM     50  C   UNL A   1      41.280  32.450  30.726  1.00  0.00     0.029 A 
ATOM     51  N   UNL A   1      42.360  31.007  29.421  1.00  0.00    -0.354 N 
ATOM     52  N   UNL A   1      44.601  30.082  27.774  1.00  0.00    -0.248 NA
ATOM     53  C   UNL A   1      46.641  30.488  26.706  1.00  0.00     0.031 C 
ATOM     54  C   UNL A   1      42.452  33.061  30.266  1.00  0.00     0.029 A 
ATOM     55  C   UNL A   1      43.136  32.153  29.475  1.00  0.00     0.049 A 
ATOM     56  H   UNL A   1      42.589  30.193  28.919  1.00  0.00     0.167 HD
ATOM     57  C   UNL A   1      45.021  31.373  28.066  1.00  0.00     0.074 A 
ATOM     58  C   UNL A   1      46.296  31.560  27.405  1.00  0.00     0.031 C 
ATOM     59  C   UNL A   1      44.402  32.320  28.812  1.00  0.00     0.031 A 
BRANCH  46  60
ATOM     60  C   UNL A   1      38.985  30.534  31.177  1.00  0.00    -0.014 A 
ATOM     61  C   UNL A   1      38.942  30.290  32.559  1.00  0.00     0.009 A 
ATOM     62  C   UNL A   1      37.883  31.149  30.562  1.00  0.00     0.009 A 
ATOM     63  C   UNL A   1      37.807  30.626  33.300  1.00  0.00     0.001 A 
ATOM     64  C   UNL A   1      36.760  31.507  31.310  1.00  0.00     0.001 A 
ATOM     65  C   UNL A   1      36.719  31.239  32.676  1.00  0.00     0.000 A 
ENDBRANCH  46  60
BRANCH  47  66
ATOM     66  C   UNL A   1      46.748  27.814  25.525  1.00  0.00    -0.014 A 
ATOM     67  C   UNL A   1      47.891  27.225  26.088  1.00  0.00     0.009 A 
ATOM     68  C   UNL A   1      46.703  28.019  24.137  1.00  0.00     0.009 A 
ATOM     69  C   UNL A   1      48.968  26.860  25.277  1.00  0.00     0.001 A 
ATOM     70  C   UNL A   1      47.769  27.626  23.326  1.00  0.00     0.001 A 
ATOM     71  C   UNL A   1      48.904  27.054  23.898  1.00  0.00     0.000 A 
ENDBRANCH  47  66
BRANCH  59  72
ATOM     72  C   UNL A   1      45.115  33.630  28.979  1.00  0.00    -0.014 A 
ATOM     73  C   UNL A   1      44.888  34.697  28.098  1.00  0.00     0.009 A 
ATOM     74  C   UNL A   1      45.999  33.806  30.054  1.00  0.00     0.009 A 
ATOM     75  C   UNL A   1      45.556  35.910  28.276  1.00  0.00     0.001 A 
ATOM     76  C   UNL A   1      46.647  35.027  30.243  1.00  0.00     0.001 A 
ATOM     77  C   UNL A   1      46.432  36.075  29.348  1.00  0.00     0.000 A 
ENDBRANCH  59  72
ENDBRANCH  33  34
ENDBRANCH  26  28
ENDBRANCH  25  26
ENDBRANCH  24  25
ENDBRANCH   1  24
TORSDOF 14
ENDMDL
MODEL 3
REMARK VINA RESULT:     -11.0      3.781      8.965
REMARK SMILES CC[C@@]1(C)NC(=O)N(/N=C/c2ccccc2C(=O)OCCOC(=O)c2ccc(-c3c4nc(c(-c5ccccc5)c5ccc([nH]5)c(-c5ccccc5)c5nc(c(-c6ccccc6)c6ccc3[nH]6)C=C5)C=C4)cc2)C1=O
REMARK SMILES IDX 20 1 19 2 17 3 18 4 16 5 11 6 12 7 13 8 15 9 14 10 10 11
REMARK SMILES IDX 9 12 8 13 3 14 4 15 5 16 73 17 6 18 74 20 7 21 2 22 1 23
REMARK SMILES IDX 21 24 22 25 23 26 24 27 25 28 26 29 72 30 27 31 71 32 28 33
REMARK SMILES IDX 29 34 30 35 65 36 31 37 70 38 64 39 66 40 32 41 69 42 63 43
REMARK SMILES IDX 62 44 33 46 55 47 40 48 54 49 41 50 44 51 53 52 67 53 42 54
REMARK SMILES IDX 43 55 52 57 68 58 45 59 34 60 35 61 39 62 36 63 38 64 37 65
REMARK SMILES IDX 56 66 57 67 61 68 58 69 60 70 59 71 46 72 47 73 51 74 48 75
REMARK SMILES IDX 50 76 49 77
REMARK H PARENT 5 19 66 45 44 56
REMARK Flexibility Score: inf
ROOT
ATOM      1  C   UNL A   1      35.635  21.921  25.783  1.00  0.00     0.275 C 
ENDROOT
BRANCH   1   2
ATOM      2  O   UNL A   1      34.650  21.287  26.625  1.00  0.00    -0.458 OA
BRANCH   2   3
ATOM      3  C   UNL A   1      33.353  21.533  26.317  1.00  0.00     0.338 C 
ATOM      4  O   UNL A   1      32.613  22.335  26.863  1.00  0.00    -0.246 OA
BRANCH   3   5
ATOM      5  C   UNL A   1      32.966  20.826  25.072  1.00  0.00     0.068 A 
ATOM      6  C   UNL A   1      32.640  21.459  23.868  1.00  0.00     0.009 A 
ATOM      7  C   UNL A   1      32.217  20.692  22.768  1.00  0.00     0.010 A 
ATOM      8  C   UNL A   1      32.139  19.301  22.861  1.00  0.00     0.001 A 
ATOM      9  C   UNL A   1      32.925  19.420  25.137  1.00  0.00     0.016 A 
ATOM     10  C   UNL A   1      32.497  18.664  24.046  1.00  0.00     0.001 A 
BRANCH   6  11
ATOM     11  C   UNL A   1      32.730  22.917  23.646  1.00  0.00     0.143 C 
ATOM     12  N   UNL A   1      31.840  23.554  22.963  1.00  0.00    -0.169 NA
BRANCH  12  13
ATOM     13  N   UNL A   1      31.991  24.893  22.722  1.00  0.00    -0.146 N 
ATOM     14  C   UNL A   1      32.052  27.256  22.771  1.00  0.00     0.120 C 
ATOM     15  C   UNL A   1      30.798  28.020  22.355  1.00  0.00     0.045 C 
ATOM     16  N   UNL A   1      32.706  26.698  21.615  1.00  0.00    -0.322 N 
ATOM     17  C   UNL A   1      31.627  25.968  23.508  1.00  0.00     0.276 C 
ATOM     18  C   UNL A   1      32.613  25.322  21.567  1.00  0.00     0.346 C 
ATOM     19  H   UNL A   1      33.169  27.239  20.934  1.00  0.00     0.166 HD
ATOM     20  O   UNL A   1      31.043  25.973  24.587  1.00  0.00    -0.270 OA
ATOM     21  O   UNL A   1      33.056  24.673  20.633  1.00  0.00    -0.246 OA
BRANCH  14  22
ATOM     22  C   UNL A   1      33.007  28.064  23.663  1.00  0.00     0.035 C 
ATOM     23  C   UNL A   1      34.171  28.704  22.921  1.00  0.00     0.007 C 
ENDBRANCH  14  22
ENDBRANCH  12  13
ENDBRANCH   6  11
ENDBRANCH   3   5
ENDBRANCH   2   3
ENDBRANCH   1   2
BRANCH   1  24
ATOM     24  C   UNL A   1      36.639  20.902  25.256  1.00  0.00     0.275 C 
BRANCH  24  25
ATOM     25  O   UNL A   1      37.899  21.546  25.016  1.00  0.00    -0.458 OA
BRANCH  25  26
ATOM     26  C   UNL A   1      38.889  21.187  25.855  1.00  0.00     0.338 C 
ATOM     27  O   UNL A   1      39.330  20.067  26.082  1.00  0.00    -0.246 OA
BRANCH  26  28
ATOM     28  C   UNL A   1      39.471  22.400  26.427  1.00  0.00     0.060 A 
ATOM     29  C   UNL A   1      38.943  23.627  26.032  1.00  0.00     0.016 A 
ATOM     30  C   UNL A   1      40.588  22.334  27.255  1.00  0.00     0.016 A 
ATOM     31  C   UNL A   1      39.571  24.808  26.409  1.00  0.00     0.010 A 
ATOM     32  C   UNL A   1      41.180  23.524  27.686  1.00  0.00     0.010 A 
ATOM     33  C   UNL A   1      40.698  24.771  27.240  1.00  0.00    -0.014 A 
BRANCH  33  34
ATOM     34  C   UNL A   1      41.416  26.023  27.594  1.00  0.00     0.031 A 
ATOM     35  C   UNL A   1      40.774  27.012  28.529  1.00  0.00     0.074 A 
ATOM     36  C   UNL A   1      42.639  26.276  27.091  1.00  0.00     0.049 A 
ATOM     37  N   UNL A   1      41.142  28.235  28.821  1.00  0.00    -0.248 NA
ATOM     38  C   UNL A   1      39.549  26.574  29.217  1.00  0.00     0.031 C 
ATOM     39  C   UNL A   1      43.404  25.380  26.222  1.00  0.00     0.029 A 
ATOM     40  N   UNL A   1      43.457  27.368  27.246  1.00  0.00    -0.354 N 
ATOM     41  C   UNL A   1      40.163  28.730  29.673  1.00  0.00     0.074 A 
ATOM     42  C   UNL A   1      39.186  27.677  29.854  1.00  0.00     0.031 C 
ATOM     43  C   UNL A   1      44.590  25.946  25.945  1.00  0.00     0.029 A 
ATOM     44  C   UNL A   1      44.636  27.273  26.547  1.00  0.00     0.049 A 
ATOM     45  H   UNL A   1      43.221  28.144  27.803  1.00  0.00     0.167 HD
ATOM     46  C   UNL A   1      40.081  29.954  30.247  1.00  0.00     0.031 A 
ATOM     47  C   UNL A   1      45.625  28.169  26.374  1.00  0.00     0.031 A 
ATOM     48  C   UNL A   1      41.075  30.983  30.099  1.00  0.00     0.049 A 
ATOM     49  C   UNL A   1      45.499  29.531  26.994  1.00  0.00     0.074 A 
ATOM     50  C   UNL A   1      41.089  32.254  30.649  1.00  0.00     0.029 A 
ATOM     51  N   UNL A   1      42.240  30.853  29.360  1.00  0.00    -0.354 N 
ATOM     52  N   UNL A   1      44.540  30.008  27.751  1.00  0.00    -0.248 NA
ATOM     53  C   UNL A   1      46.585  30.484  26.721  1.00  0.00     0.031 C 
ATOM     54  C   UNL A   1      42.248  32.905  30.212  1.00  0.00     0.029 A 
ATOM     55  C   UNL A   1      42.976  32.023  29.431  1.00  0.00     0.049 A 
ATOM     56  H   UNL A   1      42.505  30.048  28.860  1.00  0.00     0.167 HD
ATOM     57  C   UNL A   1      44.911  31.311  28.054  1.00  0.00     0.074 A 
ATOM     58  C   UNL A   1      46.192  31.542  27.417  1.00  0.00     0.031 C 
ATOM     59  C   UNL A   1      44.248  32.234  28.791  1.00  0.00     0.031 A 
BRANCH  46  60
ATOM     60  C   UNL A   1      38.851  30.262  31.053  1.00  0.00    -0.014 A 
ATOM     61  C   UNL A   1      38.815  30.077  32.444  1.00  0.00     0.009 A 
ATOM     62  C   UNL A   1      37.716  30.777  30.406  1.00  0.00     0.009 A 
ATOM     63  C   UNL A   1      37.655  30.370  33.164  1.00  0.00     0.001 A 
ATOM     64  C   UNL A   1      36.568  31.094  31.133  1.00  0.00     0.001 A 
ATOM     65  C   UNL A   1      36.535  30.884  32.510  1.00  0.00     0.000 A 
ENDBRANCH  46  60
BRANCH  47  66
ATOM     66  C   UNL A   1      46.802  27.819  25.536  1.00  0.00    -0.014 A 
ATOM     67  C   UNL A   1      47.969  27.309  26.123  1.00  0.00     0.009 A 
ATOM     68  C   UNL A   1      46.758  27.985  24.142  1.00  0.00     0.009 A 
ATOM     69  C   UNL A   1      49.073  26.982  25.331  1.00  0.00     0.001 A 
ATOM     70  C   UNL A   1      47.852  27.630  23.351  1.00  0.00     0.001 A 
ATOM     71  C   UNL A   1      49.010  27.136  23.947  1.00  0.00     0.000 A 
ENDBRANCH  47  66
BRANCH  59  72
ATOM     72  C   UNL A   1      44.914  33.566  28.975  1.00  0.00    -0.014 A 
ATOM     73  C   UNL A   1      44.668  34.628  28.093  1.00  0.00     0.009 A 
ATOM     74  C   UNL A   1      45.771  33.769  30.067  1.00  0.00     0.009 A 
ATOM     75  C   UNL A   1      45.293  35.862  28.286  1.00  0.00     0.001 A 
ATOM     76  C   UNL A   1      46.375  35.009  30.271  1.00  0.00     0.001 A 
ATOM     77  C   UNL A   1      46.142  36.052  29.375  1.00  0.00     0.000 A 
ENDBRANCH  59  72
ENDBRANCH  33  34
ENDBRANCH  26  28
ENDBRANCH  25  26
ENDBRANCH  24  25
ENDBRANCH   1  24
TORSDOF 14
ENDMDL
