MODEL 1
REMARK VINA RESULT:     -11.2      0.000      0.000
REMARK SMILES Cc1nc(CCc2ccc(S(=O)(=O)N3CCCC3)cc2)ncc1C(=O)OCCOC(=O)c1ccc(-c2c3nc(c(-c4ccccc4)c4ccc([nH]4)c(-c4ccccc4)c4nc(c(-c5ccccc5)c5ccc2[nH]5)C=C4)C=C3)cc1
REMARK SMILES IDX 26 1 24 2 25 3 23 4 1 5 2 6 3 7 4 8 22 9 21 10 5 11 6 12
REMARK SMILES IDX 7 13 8 14 20 15 9 16 19 17 10 18 11 19 12 20 13 21 14 22
REMARK SMILES IDX 15 23 18 24 16 25 17 26 27 27 28 28 29 29 30 30 31 31 32 32
REMARK SMILES IDX 33 33 79 34 34 35 78 36 35 37 36 38 37 39 72 40 38 41 77 42
REMARK SMILES IDX 71 43 73 44 39 45 76 46 70 47 69 48 40 50 62 51 47 52 61 53
REMARK SMILES IDX 48 54 51 55 60 56 74 57 49 58 50 59 59 61 75 62 52 63 41 64
REMARK SMILES IDX 42 65 46 66 43 67 45 68 44 69 63 70 64 71 68 72 65 73 67 74
REMARK SMILES IDX 66 75 53 76 54 77 58 78 55 79 57 80 56 81
REMARK H PARENT 73 49 51 60
REMARK Flexibility Score: inf
ROOT
ATOM      1  O   UNL A   1      34.223  33.144  29.099  1.00  0.00    -0.458 OA
ENDROOT
BRANCH   1   2
ATOM      2  C   UNL A   1      34.840  32.479  28.088  1.00  0.00     0.341 C 
ATOM      3  O   UNL A   1      35.914  32.753  27.582  1.00  0.00    -0.246 OA
BRANCH   2   4
ATOM      4  C   UNL A   1      34.040  31.315  27.675  1.00  0.00     0.099 A 
ATOM      5  C   UNL A   1      36.013  29.803  27.869  1.00  0.00     0.068 C 
ATOM      6  C   UNL A   1      34.570  30.049  27.632  1.00  0.00     0.056 A 
ATOM      7  N   UNL A   1      33.849  28.967  27.269  1.00  0.00    -0.237 NA
ATOM      8  C   UNL A   1      32.580  29.158  26.876  1.00  0.00     0.128 A 
ATOM      9  C   UNL A   1      32.699  31.390  27.371  1.00  0.00     0.130 A 
ATOM     10  N   UNL A   1      31.956  30.346  26.930  1.00  0.00    -0.240 NA
BRANCH   8  11
ATOM     11  C   UNL A   1      31.870  27.980  26.269  1.00  0.00     0.082 C 
BRANCH  11  12
ATOM     12  C   UNL A   1      32.648  27.356  25.097  1.00  0.00     0.043 C 
BRANCH  12  13
ATOM     13  C   UNL A   1      33.141  25.943  25.343  1.00  0.00    -0.047 A 
ATOM     14  C   UNL A   1      32.419  25.065  26.159  1.00  0.00     0.005 A 
ATOM     15  C   UNL A   1      34.363  25.505  24.803  1.00  0.00     0.005 A 
ATOM     16  C   UNL A   1      32.923  23.794  26.454  1.00  0.00     0.022 A 
ATOM     17  C   UNL A   1      34.876  24.235  25.102  1.00  0.00     0.022 A 
ATOM     18  C   UNL A   1      34.160  23.379  25.938  1.00  0.00     0.082 A 
BRANCH  18  19
ATOM     19  S   UNL A   1      34.742  21.742  26.363  1.00  0.00     0.243 S 
ATOM     20  O   UNL A   1      36.166  21.733  26.083  1.00  0.00    -0.207 OA
ATOM     21  O   UNL A   1      34.233  21.447  27.683  1.00  0.00    -0.207 OA
BRANCH  19  22
ATOM     22  N   UNL A   1      34.056  20.652  25.288  1.00  0.00    -0.198 NA
ATOM     23  C   UNL A   1      32.621  20.356  25.315  1.00  0.00     0.102 C 
ATOM     24  C   UNL A   1      34.818  19.509  24.750  1.00  0.00     0.102 C 
ATOM     25  C   UNL A   1      32.599  18.841  25.232  1.00  0.00     0.018 C 
ATOM     26  C   UNL A   1      33.752  18.505  24.316  1.00  0.00     0.018 C 
ENDBRANCH  19  22
ENDBRANCH  18  19
ENDBRANCH  12  13
ENDBRANCH  11  12
ENDBRANCH   8  11
ENDBRANCH   2   4
ENDBRANCH   1   2
BRANCH   1  27
ATOM     27  C   UNL A   1      34.231  34.591  29.057  1.00  0.00     0.275 C 
BRANCH  27  28
ATOM     28  C   UNL A   1      32.943  35.182  29.634  1.00  0.00     0.275 C 
BRANCH  28  29
ATOM     29  O   UNL A   1      33.260  36.201  30.595  1.00  0.00    -0.458 OA
BRANCH  29  30
ATOM     30  C   UNL A   1      32.851  35.929  31.853  1.00  0.00     0.338 C 
ATOM     31  O   UNL A   1      31.750  36.123  32.341  1.00  0.00    -0.246 OA
BRANCH  30  32
ATOM     32  C   UNL A   1      33.879  35.141  32.538  1.00  0.00     0.060 A 
ATOM     33  C   UNL A   1      35.149  35.694  32.586  1.00  0.00     0.016 A 
ATOM     34  C   UNL A   1      33.674  33.827  32.936  1.00  0.00     0.016 A 
ATOM     35  C   UNL A   1      36.251  34.911  32.874  1.00  0.00     0.010 A 
ATOM     36  C   UNL A   1      34.773  33.074  33.371  1.00  0.00     0.010 A 
ATOM     37  C   UNL A   1      36.081  33.594  33.301  1.00  0.00    -0.014 A 
BRANCH  37  38
ATOM     38  C   UNL A   1      37.279  32.771  33.621  1.00  0.00     0.031 A 
ATOM     39  C   UNL A   1      37.964  32.930  34.951  1.00  0.00     0.074 A 
ATOM     40  C   UNL A   1      37.729  31.851  32.741  1.00  0.00     0.049 A 
ATOM     41  N   UNL A   1      39.122  32.465  35.344  1.00  0.00    -0.248 NA
ATOM     42  C   UNL A   1      37.264  33.732  35.969  1.00  0.00     0.031 C 
ATOM     43  C   UNL A   1      37.112  31.525  31.451  1.00  0.00     0.029 A 
ATOM     44  N   UNL A   1      38.808  31.005  32.805  1.00  0.00    -0.354 N 
ATOM     45  C   UNL A   1      39.322  32.978  36.620  1.00  0.00     0.074 A 
ATOM     46  C   UNL A   1      38.167  33.789  36.938  1.00  0.00     0.031 C 
ATOM     47  C   UNL A   1      37.788  30.520  30.875  1.00  0.00     0.029 A 
ATOM     48  C   UNL A   1      38.957  30.220  31.687  1.00  0.00     0.049 A 
ATOM     49  H   UNL A   1      39.418  30.966  33.578  1.00  0.00     0.167 HD
ATOM     50  C   UNL A   1      40.380  32.794  37.445  1.00  0.00     0.031 A 
ATOM     51  C   UNL A   1      39.955  29.394  31.318  1.00  0.00     0.031 A 
ATOM     52  C   UNL A   1      41.501  31.946  37.134  1.00  0.00     0.049 A 
ATOM     53  C   UNL A   1      41.150  29.268  32.216  1.00  0.00     0.074 A 
ATOM     54  C   UNL A   1      42.622  31.682  37.902  1.00  0.00     0.029 A 
ATOM     55  N   UNL A   1      41.635  31.214  35.964  1.00  0.00    -0.354 N 
ATOM     56  N   UNL A   1      41.360  29.809  33.391  1.00  0.00    -0.248 NA
ATOM     57  C   UNL A   1      42.252  28.430  31.729  1.00  0.00     0.031 C 
ATOM     58  C   UNL A   1      43.462  30.837  37.170  1.00  0.00     0.029 A 
ATOM     59  C   UNL A   1      42.831  30.518  35.978  1.00  0.00     0.049 A 
ATOM     60  H   UNL A   1      40.977  31.193  35.232  1.00  0.00     0.167 HD
ATOM     61  C   UNL A   1      42.609  29.359  33.795  1.00  0.00     0.074 A 
ATOM     62  C   UNL A   1      43.097  28.484  32.749  1.00  0.00     0.031 C 
ATOM     63  C   UNL A   1      43.294  29.647  34.928  1.00  0.00     0.031 A 
BRANCH  50  64
ATOM     64  C   UNL A   1      40.406  33.567  38.735  1.00  0.00    -0.014 A 
ATOM     65  C   UNL A   1      39.897  33.039  39.931  1.00  0.00     0.009 A 
ATOM     66  C   UNL A   1      40.994  34.842  38.756  1.00  0.00     0.009 A 
ATOM     67  C   UNL A   1      39.948  33.785  41.112  1.00  0.00     0.001 A 
ATOM     68  C   UNL A   1      41.071  35.573  39.943  1.00  0.00     0.001 A 
ATOM     69  C   UNL A   1      40.540  35.047  41.118  1.00  0.00     0.000 A 
ENDBRANCH  50  64
BRANCH  51  70
ATOM     70  C   UNL A   1      39.905  28.693  30.007  1.00  0.00    -0.014 A 
ATOM     71  C   UNL A   1      40.313  29.341  28.832  1.00  0.00     0.009 A 
ATOM     72  C   UNL A   1      39.436  27.370  29.921  1.00  0.00     0.009 A 
ATOM     73  C   UNL A   1      40.226  28.690  27.597  1.00  0.00     0.001 A 
ATOM     74  C   UNL A   1      39.387  26.709  28.693  1.00  0.00     0.001 A 
ATOM     75  C   UNL A   1      39.771  27.374  27.530  1.00  0.00     0.000 A 
ENDBRANCH  51  70
BRANCH  63  76
ATOM     76  C   UNL A   1      44.618  28.964  35.115  1.00  0.00    -0.014 A 
ATOM     77  C   UNL A   1      45.813  29.543  34.663  1.00  0.00     0.009 A 
ATOM     78  C   UNL A   1      44.667  27.729  35.782  1.00  0.00     0.009 A 
ATOM     79  C   UNL A   1      47.028  28.880  34.841  1.00  0.00     0.001 A 
ATOM     80  C   UNL A   1      45.886  27.085  35.989  1.00  0.00     0.001 A 
ATOM     81  C   UNL A   1      47.064  27.656  35.507  1.00  0.00     0.000 A 
ENDBRANCH  63  76
ENDBRANCH  37  38
ENDBRANCH  30  32
ENDBRANCH  29  30
ENDBRANCH  28  29
ENDBRANCH  27  28
ENDBRANCH   1  27
TORSDOF 16
ENDMDL
MODEL 2
REMARK VINA RESULT:     -11.0      4.464     10.168
REMARK SMILES Cc1nc(CCc2ccc(S(=O)(=O)N3CCCC3)cc2)ncc1C(=O)OCCOC(=O)c1ccc(-c2c3nc(c(-c4ccccc4)c4ccc([nH]4)c(-c4ccccc4)c4nc(c(-c5ccccc5)c5ccc2[nH]5)C=C4)C=C3)cc1
REMARK SMILES IDX 26 1 24 2 25 3 23 4 1 5 2 6 3 7 4 8 22 9 21 10 5 11 6 12
REMARK SMILES IDX 7 13 8 14 20 15 9 16 19 17 10 18 11 19 12 20 13 21 14 22
REMARK SMILES IDX 15 23 18 24 16 25 17 26 27 27 28 28 29 29 30 30 31 31 32 32
REMARK SMILES IDX 33 33 79 34 34 35 78 36 35 37 36 38 37 39 72 40 38 41 77 42
REMARK SMILES IDX 71 43 73 44 39 45 76 46 70 47 69 48 40 50 62 51 47 52 61 53
REMARK SMILES IDX 48 54 51 55 60 56 74 57 49 58 50 59 59 61 75 62 52 63 41 64
REMARK SMILES IDX 42 65 46 66 43 67 45 68 44 69 63 70 64 71 68 72 65 73 67 74
REMARK SMILES IDX 66 75 53 76 54 77 58 78 55 79 57 80 56 81
REMARK H PARENT 73 49 51 60
REMARK Flexibility Score: inf
ROOT
ATOM      1  O   UNL A   1      33.745  21.944  24.330  1.00  0.00    -0.458 OA
ENDROOT
BRANCH   1   2
ATOM      2  C   UNL A   1      34.010  23.143  23.748  1.00  0.00     0.341 C 
ATOM      3  O   UNL A   1      34.623  23.332  22.712  1.00  0.00    -0.246 OA
BRANCH   2   4
ATOM      4  C   UNL A   1      33.416  24.237  24.533  1.00  0.00     0.099 A 
ATOM      5  C   UNL A   1      31.147  23.754  23.617  1.00  0.00     0.068 C 
ATOM      6  C   UNL A   1      32.066  24.487  24.523  1.00  0.00     0.056 A 
ATOM      7  N   UNL A   1      31.500  25.476  25.245  1.00  0.00    -0.237 NA
ATOM      8  C   UNL A   1      32.308  26.282  25.951  1.00  0.00     0.128 A 
ATOM      9  C   UNL A   1      34.145  25.041  25.380  1.00  0.00     0.130 A 
ATOM     10  N   UNL A   1      33.633  26.092  26.065  1.00  0.00    -0.240 NA
BRANCH   8  11
ATOM     11  C   UNL A   1      31.685  27.505  26.566  1.00  0.00     0.082 C 
BRANCH  11  12
ATOM     12  C   UNL A   1      31.864  28.764  25.700  1.00  0.00     0.043 C 
BRANCH  12  13
ATOM     13  C   UNL A   1      32.354  29.988  26.451  1.00  0.00    -0.047 A 
ATOM     14  C   UNL A   1      31.617  31.177  26.436  1.00  0.00     0.005 A 
ATOM     15  C   UNL A   1      33.585  29.969  27.129  1.00  0.00     0.005 A 
ATOM     16  C   UNL A   1      32.116  32.328  27.056  1.00  0.00     0.022 A 
ATOM     17  C   UNL A   1      34.092  31.122  27.746  1.00  0.00     0.022 A 
ATOM     18  C   UNL A   1      33.362  32.308  27.700  1.00  0.00     0.082 A 
BRANCH  18  19
ATOM     19  S   UNL A   1      33.937  33.819  28.466  1.00  0.00     0.243 S 
ATOM     20  O   UNL A   1      34.599  34.577  27.421  1.00  0.00    -0.207 OA
ATOM     21  O   UNL A   1      32.818  34.369  29.199  1.00  0.00    -0.207 OA
BRANCH  19  22
ATOM     22  N   UNL A   1      35.133  33.419  29.572  1.00  0.00    -0.198 NA
ATOM     23  C   UNL A   1      34.949  33.643  31.008  1.00  0.00     0.102 C 
ATOM     24  C   UNL A   1      36.563  33.455  29.213  1.00  0.00     0.102 C 
ATOM     25  C   UNL A   1      36.263  34.288  31.408  1.00  0.00     0.018 C 
ATOM     26  C   UNL A   1      37.292  33.593  30.549  1.00  0.00     0.018 C 
ENDBRANCH  19  22
ENDBRANCH  18  19
ENDBRANCH  12  13
ENDBRANCH  11  12
ENDBRANCH   8  11
ENDBRANCH   2   4
ENDBRANCH   1   2
BRANCH   1  27
ATOM     27  C   UNL A   1      34.838  21.006  24.467  1.00  0.00     0.275 C 
BRANCH  27  28
ATOM     28  C   UNL A   1      35.865  21.479  25.498  1.00  0.00     0.275 C 
BRANCH  28  29
ATOM     29  O   UNL A   1      37.124  21.734  24.853  1.00  0.00    -0.458 OA
BRANCH  29  30
ATOM     30  C   UNL A   1      38.194  21.218  25.495  1.00  0.00     0.338 C 
ATOM     31  O   UNL A   1      38.669  20.101  25.381  1.00  0.00    -0.246 OA
BRANCH  30  32
ATOM     32  C   UNL A   1      38.879  22.285  26.230  1.00  0.00     0.060 A 
ATOM     33  C   UNL A   1      38.347  23.559  26.106  1.00  0.00     0.016 A 
ATOM     34  C   UNL A   1      40.109  22.099  26.846  1.00  0.00     0.016 A 
ATOM     35  C   UNL A   1      39.092  24.673  26.445  1.00  0.00     0.010 A 
ATOM     36  C   UNL A   1      40.801  23.220  27.325  1.00  0.00     0.010 A 
ATOM     37  C   UNL A   1      40.321  24.524  27.088  1.00  0.00    -0.014 A 
BRANCH  37  38
ATOM     38  C   UNL A   1      41.101  25.735  27.458  1.00  0.00     0.031 A 
ATOM     39  C   UNL A   1      40.532  26.721  28.441  1.00  0.00     0.074 A 
ATOM     40  C   UNL A   1      42.337  25.932  26.950  1.00  0.00     0.049 A 
ATOM     41  N   UNL A   1      40.953  27.923  28.741  1.00  0.00    -0.248 NA
ATOM     42  C   UNL A   1      39.321  26.311  29.172  1.00  0.00     0.031 C 
ATOM     43  C   UNL A   1      43.052  25.015  26.056  1.00  0.00     0.029 A 
ATOM     44  N   UNL A   1      43.221  26.967  27.126  1.00  0.00    -0.354 N 
ATOM     45  C   UNL A   1      40.020  28.439  29.634  1.00  0.00     0.074 A 
ATOM     46  C   UNL A   1      39.011  27.421  29.829  1.00  0.00     0.031 C 
ATOM     47  C   UNL A   1      44.276  25.501  25.807  1.00  0.00     0.029 A 
ATOM     48  C   UNL A   1      44.387  26.819  26.412  1.00  0.00     0.049 A 
ATOM     49  H   UNL A   1      43.038  27.741  27.706  1.00  0.00     0.167 HD
ATOM     50  C   UNL A   1      40.005  29.656  30.227  1.00  0.00     0.031 A 
ATOM     51  C   UNL A   1      45.409  27.672  26.210  1.00  0.00     0.031 A 
ATOM     52  C   UNL A   1      41.040  30.642  30.060  1.00  0.00     0.049 A 
ATOM     53  C   UNL A   1      45.330  29.041  26.817  1.00  0.00     0.074 A 
ATOM     54  C   UNL A   1      41.129  31.904  30.621  1.00  0.00     0.029 A 
ATOM     55  N   UNL A   1      42.175  30.469  29.281  1.00  0.00    -0.354 N 
ATOM     56  N   UNL A   1      44.412  29.543  27.606  1.00  0.00    -0.248 NA
ATOM     57  C   UNL A   1      46.422  29.967  26.492  1.00  0.00     0.031 C 
ATOM     58  C   UNL A   1      42.288  32.517  30.135  1.00  0.00     0.029 A 
ATOM     59  C   UNL A   1      42.957  31.610  29.328  1.00  0.00     0.049 A 
ATOM     60  H   UNL A   1      42.393  29.655  28.772  1.00  0.00     0.167 HD
ATOM     61  C   UNL A   1      44.826  30.836  27.891  1.00  0.00     0.074 A 
ATOM     62  C   UNL A   1      46.088  31.032  27.208  1.00  0.00     0.031 C 
ATOM     63  C   UNL A   1      44.214  31.781  28.646  1.00  0.00     0.031 A 
BRANCH  50  64
ATOM     64  C   UNL A   1      38.807  30.014  31.063  1.00  0.00    -0.014 A 
ATOM     65  C   UNL A   1      37.504  30.004  30.543  1.00  0.00     0.009 A 
ATOM     66  C   UNL A   1      38.991  30.332  32.419  1.00  0.00     0.009 A 
ATOM     67  C   UNL A   1      36.416  30.335  31.355  1.00  0.00     0.001 A 
ATOM     68  C   UNL A   1      37.900  30.633  33.236  1.00  0.00     0.001 A 
ATOM     69  C   UNL A   1      36.613  30.642  32.701  1.00  0.00     0.000 A 
ENDBRANCH  50  64
BRANCH  51  70
ATOM     70  C   UNL A   1      46.547  27.288  25.331  1.00  0.00    -0.014 A 
ATOM     71  C   UNL A   1      47.495  26.346  25.757  1.00  0.00     0.009 A 
ATOM     72  C   UNL A   1      46.698  27.871  24.061  1.00  0.00     0.009 A 
ATOM     73  C   UNL A   1      48.584  26.019  24.944  1.00  0.00     0.001 A 
ATOM     74  C   UNL A   1      47.764  27.513  23.234  1.00  0.00     0.001 A 
ATOM     75  C   UNL A   1      48.713  26.597  23.682  1.00  0.00     0.000 A 
ENDBRANCH  51  70
BRANCH  63  76
ATOM     76  C   UNL A   1      44.934  33.088  28.816  1.00  0.00    -0.014 A 
ATOM     77  C   UNL A   1      44.671  34.183  27.981  1.00  0.00     0.009 A 
ATOM     78  C   UNL A   1      45.873  33.227  29.850  1.00  0.00     0.009 A 
ATOM     79  C   UNL A   1      45.363  35.383  28.155  1.00  0.00     0.001 A 
ATOM     80  C   UNL A   1      46.538  34.437  30.043  1.00  0.00     0.001 A 
ATOM     81  C   UNL A   1      46.291  35.510  29.188  1.00  0.00     0.000 A 
ENDBRANCH  63  76
ENDBRANCH  37  38
ENDBRANCH  30  32
ENDBRANCH  29  30
ENDBRANCH  28  29
ENDBRANCH  27  28
ENDBRANCH   1  27
TORSDOF 16
ENDMDL
MODEL 3
REMARK VINA RESULT:     -11.0      3.749      9.935
REMARK SMILES Cc1nc(CCc2ccc(S(=O)(=O)N3CCCC3)cc2)ncc1C(=O)OCCOC(=O)c1ccc(-c2c3nc(c(-c4ccccc4)c4ccc([nH]4)c(-c4ccccc4)c4nc(c(-c5ccccc5)c5ccc2[nH]5)C=C4)C=C3)cc1
REMARK SMILES IDX 26 1 24 2 25 3 23 4 1 5 2 6 3 7 4 8 22 9 21 10 5 11 6 12
REMARK SMILES IDX 7 13 8 14 20 15 9 16 19 17 10 18 11 19 12 20 13 21 14 22
REMARK SMILES IDX 15 23 18 24 16 25 17 26 27 27 28 28 29 29 30 30 31 31 32 32
REMARK SMILES IDX 33 33 79 34 34 35 78 36 35 37 36 38 37 39 72 40 38 41 77 42
REMARK SMILES IDX 71 43 73 44 39 45 76 46 70 47 69 48 40 50 62 51 47 52 61 53
REMARK SMILES IDX 48 54 51 55 60 56 74 57 49 58 50 59 59 61 75 62 52 63 41 64
REMARK SMILES IDX 42 65 46 66 43 67 45 68 44 69 63 70 64 71 68 72 65 73 67 74
REMARK SMILES IDX 66 75 53 76 54 77 58 78 55 79 57 80 56 81
REMARK H PARENT 73 49 51 60
REMARK Flexibility Score: inf
ROOT
ATOM      1  O   UNL A   1      42.565  20.502  25.610  1.00  0.00    -0.458 OA
ENDROOT
BRANCH   1   2
ATOM      2  C   UNL A   1      41.687  20.282  26.624  1.00  0.00     0.341 C 
ATOM      3  O   UNL A   1      41.960  19.997  27.777  1.00  0.00    -0.246 OA
BRANCH   2   4
ATOM      4  C   UNL A   1      40.305  20.467  26.155  1.00  0.00     0.099 A 
ATOM      5  C   UNL A   1      40.279  22.830  26.952  1.00  0.00     0.068 C 
ATOM      6  C   UNL A   1      39.663  21.677  26.250  1.00  0.00     0.056 A 
ATOM      7  N   UNL A   1      38.400  21.871  25.814  1.00  0.00    -0.237 NA
ATOM      8  C   UNL A   1      37.733  20.813  25.327  1.00  0.00     0.128 A 
ATOM      9  C   UNL A   1      39.580  19.476  25.532  1.00  0.00     0.130 A 
ATOM     10  N   UNL A   1      38.286  19.603  25.148  1.00  0.00    -0.240 NA
BRANCH   8  11
ATOM     11  C   UNL A   1      36.266  20.999  25.055  1.00  0.00     0.082 C 
BRANCH  11  12
ATOM     12  C   UNL A   1      35.687  22.248  25.744  1.00  0.00     0.043 C 
BRANCH  12  13
ATOM     13  C   UNL A   1      34.979  23.215  24.814  1.00  0.00    -0.047 A 
ATOM     14  C   UNL A   1      34.579  22.814  23.535  1.00  0.00     0.005 A 
ATOM     15  C   UNL A   1      34.763  24.550  25.197  1.00  0.00     0.005 A 
ATOM     16  C   UNL A   1      34.006  23.734  22.650  1.00  0.00     0.022 A 
ATOM     17  C   UNL A   1      34.197  25.478  24.310  1.00  0.00     0.022 A 
ATOM     18  C   UNL A   1      33.826  25.072  23.029  1.00  0.00     0.082 A 
BRANCH  18  19
ATOM     19  S   UNL A   1      33.093  26.192  21.842  1.00  0.00     0.243 S 
ATOM     20  O   UNL A   1      33.981  27.336  21.761  1.00  0.00    -0.207 OA
ATOM     21  O   UNL A   1      32.769  25.407  20.672  1.00  0.00    -0.207 OA
BRANCH  19  22
ATOM     22  N   UNL A   1      31.658  26.770  22.491  1.00  0.00    -0.198 NA
ATOM     23  C   UNL A   1      31.570  28.115  23.065  1.00  0.00     0.102 C 
ATOM     24  C   UNL A   1      30.669  25.868  23.111  1.00  0.00     0.102 C 
ATOM     25  C   UNL A   1      30.836  27.866  24.369  1.00  0.00     0.018 C 
ATOM     26  C   UNL A   1      29.853  26.769  24.036  1.00  0.00     0.018 C 
ENDBRANCH  19  22
ENDBRANCH  18  19
ENDBRANCH  12  13
ENDBRANCH  11  12
ENDBRANCH   8  11
ENDBRANCH   2   4
ENDBRANCH   1   2
BRANCH   1  27
ATOM     27  C   UNL A   1      43.503  21.594  25.756  1.00  0.00     0.275 C 
BRANCH  27  28
ATOM     28  C   UNL A   1      43.402  22.586  24.596  1.00  0.00     0.275 C 
BRANCH  28  29
ATOM     29  O   UNL A   1      43.078  23.893  25.097  1.00  0.00    -0.458 OA
BRANCH  29  30
ATOM     30  C   UNL A   1      44.150  24.676  25.349  1.00  0.00     0.338 C 
ATOM     31  O   UNL A   1      45.104  24.897  24.622  1.00  0.00    -0.246 OA
BRANCH  30  32
ATOM     32  C   UNL A   1      43.919  25.432  26.583  1.00  0.00     0.060 A 
ATOM     33  C   UNL A   1      43.333  24.738  27.630  1.00  0.00     0.016 A 
ATOM     34  C   UNL A   1      44.069  26.809  26.655  1.00  0.00     0.016 A 
ATOM     35  C   UNL A   1      42.749  25.412  28.687  1.00  0.00     0.010 A 
ATOM     36  C   UNL A   1      43.608  27.480  27.797  1.00  0.00     0.010 A 
ATOM     37  C   UNL A   1      42.900  26.793  28.805  1.00  0.00    -0.014 A 
BRANCH  37  38
ATOM     38  C   UNL A   1      42.277  27.499  29.956  1.00  0.00     0.031 A 
ATOM     39  C   UNL A   1      40.927  28.144  29.798  1.00  0.00     0.074 A 
ATOM     40  C   UNL A   1      42.897  27.528  31.156  1.00  0.00     0.049 A 
ATOM     41  N   UNL A   1      40.307  28.969  30.602  1.00  0.00    -0.248 NA
ATOM     42  C   UNL A   1      40.182  27.835  28.566  1.00  0.00     0.031 C 
ATOM     43  C   UNL A   1      44.167  26.869  31.480  1.00  0.00     0.029 A 
ATOM     44  N   UNL A   1      42.532  28.125  32.336  1.00  0.00    -0.354 N 
ATOM     45  C   UNL A   1      39.139  29.335  29.941  1.00  0.00     0.074 A 
ATOM     46  C   UNL A   1      39.135  28.643  28.672  1.00  0.00     0.031 C 
ATOM     47  C   UNL A   1      44.445  27.055  32.778  1.00  0.00     0.029 A 
ATOM     48  C   UNL A   1      43.449  27.949  33.346  1.00  0.00     0.049 A 
ATOM     49  H   UNL A   1      41.695  28.633  32.448  1.00  0.00     0.167 HD
ATOM     50  C   UNL A   1      38.167  30.180  30.358  1.00  0.00     0.031 A 
ATOM     51  C   UNL A   1      43.520  28.495  34.574  1.00  0.00     0.031 A 
ATOM     52  C   UNL A   1      38.162  30.826  31.644  1.00  0.00     0.049 A 
ATOM     53  C   UNL A   1      42.469  29.486  34.980  1.00  0.00     0.074 A 
ATOM     54  C   UNL A   1      37.221  31.694  32.170  1.00  0.00     0.029 A 
ATOM     55  N   UNL A   1      39.141  30.660  32.612  1.00  0.00    -0.354 N 
ATOM     56  N   UNL A   1      41.405  29.877  34.323  1.00  0.00    -0.248 NA
ATOM     57  C   UNL A   1      42.640  30.125  36.291  1.00  0.00     0.031 C 
ATOM     58  C   UNL A   1      37.661  32.100  33.433  1.00  0.00     0.029 A 
ATOM     59  C   UNL A   1      38.839  31.431  33.722  1.00  0.00     0.049 A 
ATOM     60  H   UNL A   1      39.932  30.082  32.523  1.00  0.00     0.167 HD
ATOM     61  C   UNL A   1      40.765  30.790  35.150  1.00  0.00     0.074 A 
ATOM     62  C   UNL A   1      41.551  30.876  36.364  1.00  0.00     0.031 C 
ATOM     63  C   UNL A   1      39.632  31.497  34.923  1.00  0.00     0.031 A 
BRANCH  50  64
ATOM     64  C   UNL A   1      37.058  30.503  29.393  1.00  0.00    -0.014 A 
ATOM     65  C   UNL A   1      36.069  29.567  29.053  1.00  0.00     0.009 A 
ATOM     66  C   UNL A   1      36.985  31.793  28.843  1.00  0.00     0.009 A 
ATOM     67  C   UNL A   1      35.050  29.908  28.159  1.00  0.00     0.001 A 
ATOM     68  C   UNL A   1      35.949  32.141  27.975  1.00  0.00     0.001 A 
ATOM     69  C   UNL A   1      34.987  31.195  27.627  1.00  0.00     0.000 A 
ENDBRANCH  50  64
BRANCH  51  70
ATOM     70  C   UNL A   1      44.666  28.183  35.471  1.00  0.00    -0.014 A 
ATOM     71  C   UNL A   1      44.751  26.941  36.118  1.00  0.00     0.009 A 
ATOM     72  C   UNL A   1      45.677  29.133  35.695  1.00  0.00     0.009 A 
ATOM     73  C   UNL A   1      45.809  26.669  36.990  1.00  0.00     0.001 A 
ATOM     74  C   UNL A   1      46.754  28.843  36.536  1.00  0.00     0.001 A 
ATOM     75  C   UNL A   1      46.811  27.616  37.193  1.00  0.00     0.000 A 
ENDBRANCH  51  70
BRANCH  63  76
ATOM     76  C   UNL A   1      39.149  32.382  36.036  1.00  0.00    -0.014 A 
ATOM     77  C   UNL A   1      38.228  31.923  36.990  1.00  0.00     0.009 A 
ATOM     78  C   UNL A   1      39.648  33.689  36.143  1.00  0.00     0.009 A 
ATOM     79  C   UNL A   1      37.788  32.771  38.008  1.00  0.00     0.001 A 
ATOM     80  C   UNL A   1      39.233  34.523  37.180  1.00  0.00     0.001 A 
ATOM     81  C   UNL A   1      38.294  34.067  38.105  1.00  0.00     0.000 A 
ENDBRANCH  63  76
ENDBRANCH  37  38
ENDBRANCH  30  32
ENDBRANCH  29  30
ENDBRANCH  28  29
ENDBRANCH  27  28
ENDBRANCH   1  27
TORSDOF 16
ENDMDL
