MODEL 1
REMARK VINA RESULT:      -9.7      0.000      0.000
REMARK SMILES CC(C)c1nc(C(=O)OCCOC(=O)c2ccc(-c3c4nc(c(-c5ccccc5)c5ccc([nH]5)c(-c5ccccc5)c5nc(c(-c6ccccc6)c6ccc3[nH]6)C=C5)C=C4)cc2)nn1-c1ccccc1F
REMARK SMILES IDX 11 1 10 2 9 3 7 4 8 5 6 6 4 7 5 8 64 9 63 10 2 11 1 12 3 13
REMARK SMILES IDX 65 14 66 15 70 16 67 17 69 18 71 19 68 20 12 21 13 22 14 23
REMARK SMILES IDX 15 24 16 25 62 26 17 27 61 28 18 29 19 30 20 31 55 32 21 33
REMARK SMILES IDX 60 34 54 35 56 36 22 37 59 38 53 39 52 40 23 42 45 43 30 44
REMARK SMILES IDX 44 45 31 46 34 47 43 48 57 49 32 50 33 51 42 53 58 54 35 55
REMARK SMILES IDX 24 56 25 57 29 58 26 59 28 60 27 61 46 62 47 63 51 64 48 65
REMARK SMILES IDX 50 66 49 67 36 68 37 69 41 70 38 71 40 72 39 73
REMARK H PARENT 56 41 34 52
REMARK Flexibility Score: inf
ROOT
ATOM      1  C   UNL A   1      33.818  34.015  29.047  1.00  0.00     0.275 C 
ENDROOT
BRANCH   1   2
ATOM      2  C   UNL A   1      33.611  35.111  30.081  1.00  0.00     0.275 C 
BRANCH   2   3
ATOM      3  O   UNL A   1      33.573  34.574  31.410  1.00  0.00    -0.456 OA
BRANCH   3   4
ATOM      4  C   UNL A   1      34.370  35.170  32.356  1.00  0.00     0.378 C 
ATOM      5  O   UNL A   1      34.057  36.187  32.973  1.00  0.00    -0.242 OA
BRANCH   4   6
ATOM      6  C   UNL A   1      35.618  34.418  32.572  1.00  0.00     0.260 A 
ATOM      7  C   UNL A   1      37.011  32.798  32.751  1.00  0.00     0.136 A 
ATOM      8  N   UNL A   1      35.724  33.043  32.550  1.00  0.00    -0.205 NA
ATOM      9  N   UNL A   1      37.674  34.016  32.838  1.00  0.00    -0.214 N 
ATOM     10  N   UNL A   1      36.778  35.027  32.856  1.00  0.00    -0.138 NA
BRANCH   7  11
ATOM     11  C   UNL A   1      37.528  31.412  33.057  1.00  0.00     0.051 C 
ATOM     12  C   UNL A   1      37.883  31.250  34.534  1.00  0.00     0.016 C 
ATOM     13  C   UNL A   1      36.698  30.237  32.553  1.00  0.00     0.016 C 
ENDBRANCH   7  11
BRANCH   9  14
ATOM     14  C   UNL A   1      39.024  34.346  33.041  1.00  0.00     0.102 A 
ATOM     15  C   UNL A   1      39.903  34.243  31.952  1.00  0.00     0.031 A 
ATOM     16  C   UNL A   1      39.506  34.722  34.288  1.00  0.00     0.148 A 
ATOM     17  C   UNL A   1      41.240  34.600  32.102  1.00  0.00     0.002 A 
ATOM     18  C   UNL A   1      40.849  35.053  34.446  1.00  0.00     0.041 A 
ATOM     19  F   UNL A   1      38.707  34.737  35.363  1.00  0.00    -0.205 F 
ATOM     20  C   UNL A   1      41.713  35.010  33.349  1.00  0.00     0.003 A 
ENDBRANCH   9  14
ENDBRANCH   4   6
ENDBRANCH   3   4
ENDBRANCH   2   3
ENDBRANCH   1   2
BRANCH   1  21
ATOM     21  O   UNL A   1      35.125  33.452  29.155  1.00  0.00    -0.458 OA
BRANCH  21  22
ATOM     22  C   UNL A   1      35.383  32.409  28.335  1.00  0.00     0.338 C 
ATOM     23  O   UNL A   1      34.745  32.066  27.355  1.00  0.00    -0.246 OA
BRANCH  22  24
ATOM     24  C   UNL A   1      36.444  31.594  28.940  1.00  0.00     0.060 A 
ATOM     25  C   UNL A   1      37.602  32.250  29.364  1.00  0.00     0.016 A 
ATOM     26  C   UNL A   1      36.384  30.195  28.840  1.00  0.00     0.016 A 
ATOM     27  C   UNL A   1      38.754  31.507  29.531  1.00  0.00     0.010 A 
ATOM     28  C   UNL A   1      37.534  29.457  28.996  1.00  0.00     0.010 A 
ATOM     29  C   UNL A   1      38.720  30.131  29.269  1.00  0.00    -0.014 A 
BRANCH  29  30
ATOM     30  C   UNL A   1      39.953  29.384  29.379  1.00  0.00     0.031 A 
ATOM     31  C   UNL A   1      40.363  29.118  30.775  1.00  0.00     0.074 A 
ATOM     32  C   UNL A   1      40.608  28.880  28.317  1.00  0.00     0.049 A 
ATOM     33  N   UNL A   1      41.395  29.581  31.393  1.00  0.00    -0.248 NA
ATOM     34  C   UNL A   1      39.436  28.355  31.626  1.00  0.00     0.031 C 
ATOM     35  C   UNL A   1      40.172  28.804  26.921  1.00  0.00     0.029 A 
ATOM     36  N   UNL A   1      41.794  28.220  28.304  1.00  0.00    -0.354 N 
ATOM     37  C   UNL A   1      41.347  29.039  32.672  1.00  0.00     0.074 A 
ATOM     38  C   UNL A   1      40.054  28.417  32.806  1.00  0.00     0.031 C 
ATOM     39  C   UNL A   1      40.967  27.933  26.255  1.00  0.00     0.029 A 
ATOM     40  C   UNL A   1      42.045  27.516  27.138  1.00  0.00     0.049 A 
ATOM     41  H   UNL A   1      42.425  28.240  29.061  1.00  0.00     0.167 HD
ATOM     42  C   UNL A   1      42.461  28.947  33.446  1.00  0.00     0.031 A 
ATOM     43  C   UNL A   1      43.033  26.607  26.951  1.00  0.00     0.031 A 
ATOM     44  C   UNL A   1      43.520  29.795  32.966  1.00  0.00     0.049 A 
ATOM     45  C   UNL A   1      44.059  26.841  27.997  1.00  0.00     0.074 A 
ATOM     46  C   UNL A   1      43.670  31.156  32.788  1.00  0.00     0.029 A 
ATOM     47  N   UNL A   1      44.504  29.202  32.212  1.00  0.00    -0.354 N 
ATOM     48  N   UNL A   1      44.806  27.907  28.043  1.00  0.00    -0.248 NA
ATOM     49  C   UNL A   1      43.943  26.106  29.248  1.00  0.00     0.031 C 
ATOM     50  C   UNL A   1      44.411  31.286  31.578  1.00  0.00     0.029 A 
ATOM     51  C   UNL A   1      44.721  30.003  31.122  1.00  0.00     0.049 A 
ATOM     52  H   UNL A   1      44.968  28.358  32.418  1.00  0.00     0.167 HD
ATOM     53  C   UNL A   1      44.894  28.219  29.391  1.00  0.00     0.074 A 
ATOM     54  C   UNL A   1      44.428  27.023  30.090  1.00  0.00     0.031 C 
ATOM     55  C   UNL A   1      45.067  29.508  29.808  1.00  0.00     0.031 A 
BRANCH  42  56
ATOM     56  C   UNL A   1      42.722  27.790  34.371  1.00  0.00    -0.014 A 
ATOM     57  C   UNL A   1      43.251  26.604  33.834  1.00  0.00     0.009 A 
ATOM     58  C   UNL A   1      42.197  27.718  35.676  1.00  0.00     0.009 A 
ATOM     59  C   UNL A   1      43.182  25.396  34.535  1.00  0.00     0.001 A 
ATOM     60  C   UNL A   1      42.164  26.522  36.396  1.00  0.00     0.001 A 
ATOM     61  C   UNL A   1      42.629  25.354  35.812  1.00  0.00     0.000 A 
ENDBRANCH  42  56
BRANCH  43  62
ATOM     62  C   UNL A   1      43.001  25.367  26.148  1.00  0.00    -0.014 A 
ATOM     63  C   UNL A   1      44.007  25.090  25.209  1.00  0.00     0.009 A 
ATOM     64  C   UNL A   1      42.133  24.319  26.506  1.00  0.00     0.009 A 
ATOM     65  C   UNL A   1      44.161  23.802  24.678  1.00  0.00     0.001 A 
ATOM     66  C   UNL A   1      42.286  23.033  25.974  1.00  0.00     0.001 A 
ATOM     67  C   UNL A   1      43.310  22.772  25.071  1.00  0.00     0.000 A 
ENDBRANCH  43  62
BRANCH  55  68
ATOM     68  C   UNL A   1      45.381  30.556  28.770  1.00  0.00    -0.014 A 
ATOM     69  C   UNL A   1      46.696  30.912  28.417  1.00  0.00     0.009 A 
ATOM     70  C   UNL A   1      44.324  31.059  27.998  1.00  0.00     0.009 A 
ATOM     71  C   UNL A   1      46.938  31.760  27.329  1.00  0.00     0.001 A 
ATOM     72  C   UNL A   1      44.568  31.888  26.903  1.00  0.00     0.001 A 
ATOM     73  C   UNL A   1      45.874  32.240  26.569  1.00  0.00     0.000 A 
ENDBRANCH  55  68
ENDBRANCH  29  30
ENDBRANCH  22  24
ENDBRANCH  21  22
ENDBRANCH   1  21
TORSDOF 13
ENDMDL
MODEL 2
REMARK VINA RESULT:      -9.5      4.302      6.594
REMARK SMILES CC(C)c1nc(C(=O)OCCOC(=O)c2ccc(-c3c4nc(c(-c5ccccc5)c5ccc([nH]5)c(-c5ccccc5)c5nc(c(-c6ccccc6)c6ccc3[nH]6)C=C5)C=C4)cc2)nn1-c1ccccc1F
REMARK SMILES IDX 11 1 10 2 9 3 7 4 8 5 6 6 4 7 5 8 64 9 63 10 2 11 1 12 3 13
REMARK SMILES IDX 65 14 66 15 70 16 67 17 69 18 71 19 68 20 12 21 13 22 14 23
REMARK SMILES IDX 15 24 16 25 62 26 17 27 61 28 18 29 19 30 20 31 55 32 21 33
REMARK SMILES IDX 60 34 54 35 56 36 22 37 59 38 53 39 52 40 23 42 45 43 30 44
REMARK SMILES IDX 44 45 31 46 34 47 43 48 57 49 32 50 33 51 42 53 58 54 35 55
REMARK SMILES IDX 24 56 25 57 29 58 26 59 28 60 27 61 46 62 47 63 51 64 48 65
REMARK SMILES IDX 50 66 49 67 36 68 37 69 41 70 38 71 40 72 39 73
REMARK H PARENT 56 41 34 52
REMARK Flexibility Score: inf
ROOT
ATOM      1  C   UNL A   1      33.186  30.927  27.427  1.00  0.00     0.275 C 
ENDROOT
BRANCH   1   2
ATOM      2  C   UNL A   1      32.362  30.254  26.341  1.00  0.00     0.275 C 
BRANCH   2   3
ATOM      3  O   UNL A   1      32.722  28.874  26.193  1.00  0.00    -0.456 OA
BRANCH   3   4
ATOM      4  C   UNL A   1      32.011  27.953  26.922  1.00  0.00     0.378 C 
ATOM      5  O   UNL A   1      31.157  28.251  27.757  1.00  0.00    -0.242 OA
BRANCH   4   6
ATOM      6  C   UNL A   1      32.361  26.571  26.548  1.00  0.00     0.260 A 
ATOM      7  C   UNL A   1      32.231  24.453  26.241  1.00  0.00     0.136 A 
ATOM      8  N   UNL A   1      31.553  25.471  26.751  1.00  0.00    -0.205 NA
ATOM      9  N   UNL A   1      33.406  24.950  25.690  1.00  0.00    -0.214 N 
ATOM     10  N   UNL A   1      33.543  26.257  26.001  1.00  0.00    -0.138 NA
BRANCH   7  11
ATOM     11  C   UNL A   1      31.826  23.017  26.479  1.00  0.00     0.051 C 
ATOM     12  C   UNL A   1      32.703  22.347  27.535  1.00  0.00     0.016 C 
ATOM     13  C   UNL A   1      30.347  22.748  26.731  1.00  0.00     0.016 C 
ENDBRANCH   7  11
BRANCH   9  14
ATOM     14  C   UNL A   1      34.477  24.327  25.028  1.00  0.00     0.102 A 
ATOM     15  C   UNL A   1      35.724  24.293  25.670  1.00  0.00     0.031 A 
ATOM     16  C   UNL A   1      34.339  23.795  23.753  1.00  0.00     0.148 A 
ATOM     17  C   UNL A   1      36.800  23.649  25.065  1.00  0.00     0.002 A 
ATOM     18  C   UNL A   1      35.421  23.174  23.135  1.00  0.00     0.041 A 
ATOM     19  F   UNL A   1      33.185  23.897  23.081  1.00  0.00    -0.205 F 
ATOM     20  C   UNL A   1      36.647  23.085  23.798  1.00  0.00     0.003 A 
ENDBRANCH   9  14
ENDBRANCH   4   6
ENDBRANCH   3   4
ENDBRANCH   2   3
ENDBRANCH   1   2
BRANCH   1  21
ATOM     21  O   UNL A   1      34.581  30.840  27.137  1.00  0.00    -0.458 OA
BRANCH  21  22
ATOM     22  C   UNL A   1      35.367  31.741  27.766  1.00  0.00     0.338 C 
ATOM     23  O   UNL A   1      35.370  32.951  27.614  1.00  0.00    -0.246 OA
BRANCH  22  24
ATOM     24  C   UNL A   1      36.399  31.014  28.515  1.00  0.00     0.060 A 
ATOM     25  C   UNL A   1      37.487  31.746  28.996  1.00  0.00     0.016 A 
ATOM     26  C   UNL A   1      36.405  29.610  28.502  1.00  0.00     0.016 A 
ATOM     27  C   UNL A   1      38.648  31.068  29.313  1.00  0.00     0.010 A 
ATOM     28  C   UNL A   1      37.563  28.936  28.808  1.00  0.00     0.010 A 
ATOM     29  C   UNL A   1      38.692  29.678  29.140  1.00  0.00    -0.014 A 
BRANCH  29  30
ATOM     30  C   UNL A   1      39.939  28.997  29.408  1.00  0.00     0.031 A 
ATOM     31  C   UNL A   1      40.217  28.814  30.849  1.00  0.00     0.074 A 
ATOM     32  C   UNL A   1      40.718  28.477  28.442  1.00  0.00     0.049 A 
ATOM     33  N   UNL A   1      41.162  29.353  31.541  1.00  0.00    -0.248 NA
ATOM     34  C   UNL A   1      39.242  28.047  31.642  1.00  0.00     0.031 C 
ATOM     35  C   UNL A   1      40.427  28.316  27.016  1.00  0.00     0.029 A 
ATOM     36  N   UNL A   1      41.926  27.873  28.579  1.00  0.00    -0.354 N 
ATOM     37  C   UNL A   1      41.008  28.867  32.835  1.00  0.00     0.074 A 
ATOM     38  C   UNL A   1      39.736  28.191  32.872  1.00  0.00     0.031 C 
ATOM     39  C   UNL A   1      41.321  27.455  26.475  1.00  0.00     0.029 A 
ATOM     40  C   UNL A   1      42.322  27.130  27.479  1.00  0.00     0.049 A 
ATOM     41  H   UNL A   1      42.476  27.957  29.392  1.00  0.00     0.167 HD
ATOM     42  C   UNL A   1      42.041  28.863  33.718  1.00  0.00     0.031 A 
ATOM     43  C   UNL A   1      43.361  26.260  27.436  1.00  0.00     0.031 A 
ATOM     44  C   UNL A   1      43.106  29.738  33.303  1.00  0.00     0.049 A 
ATOM     45  C   UNL A   1      44.266  26.590  28.565  1.00  0.00     0.074 A 
ATOM     46  C   UNL A   1      43.215  31.094  33.074  1.00  0.00     0.029 A 
ATOM     47  N   UNL A   1      44.185  29.158  32.680  1.00  0.00    -0.354 N 
ATOM     48  N   UNL A   1      44.959  27.691  28.630  1.00  0.00    -0.248 NA
ATOM     49  C   UNL A   1      44.057  25.907  29.833  1.00  0.00     0.031 C 
ATOM     50  C   UNL A   1      44.068  31.204  31.937  1.00  0.00     0.029 A 
ATOM     51  C   UNL A   1      44.477  29.918  31.578  1.00  0.00     0.049 A 
ATOM     52  H   UNL A   1      44.662  28.347  32.972  1.00  0.00     0.167 HD
ATOM     53  C   UNL A   1      44.898  28.068  29.964  1.00  0.00     0.074 A 
ATOM     54  C   UNL A   1      44.416  26.884  30.673  1.00  0.00     0.031 C 
ATOM     55  C   UNL A   1      44.973  29.381  30.331  1.00  0.00     0.031 A 
BRANCH  42  56
ATOM     56  C   UNL A   1      42.257  27.763  34.721  1.00  0.00    -0.014 A 
ATOM     57  C   UNL A   1      42.717  26.516  34.265  1.00  0.00     0.009 A 
ATOM     58  C   UNL A   1      41.749  27.811  36.034  1.00  0.00     0.009 A 
ATOM     59  C   UNL A   1      42.596  25.366  35.052  1.00  0.00     0.001 A 
ATOM     60  C   UNL A   1      41.666  26.673  36.838  1.00  0.00     0.001 A 
ATOM     61  C   UNL A   1      42.062  25.443  36.334  1.00  0.00     0.000 A 
ENDBRANCH  42  56
BRANCH  43  62
ATOM     62  C   UNL A   1      43.463  24.985  26.697  1.00  0.00    -0.014 A 
ATOM     63  C   UNL A   1      42.620  23.905  27.004  1.00  0.00     0.009 A 
ATOM     64  C   UNL A   1      44.196  24.922  25.498  1.00  0.00     0.009 A 
ATOM     65  C   UNL A   1      42.487  22.822  26.123  1.00  0.00     0.001 A 
ATOM     66  C   UNL A   1      44.066  23.840  24.620  1.00  0.00     0.001 A 
ATOM     67  C   UNL A   1      43.199  22.797  24.927  1.00  0.00     0.000 A 
ENDBRANCH  43  62
BRANCH  55  68
ATOM     68  C   UNL A   1      45.346  30.394  29.278  1.00  0.00    -0.014 A 
ATOM     69  C   UNL A   1      44.403  30.983  28.414  1.00  0.00     0.009 A 
ATOM     70  C   UNL A   1      46.652  30.904  29.285  1.00  0.00     0.009 A 
ATOM     71  C   UNL A   1      44.767  32.041  27.574  1.00  0.00     0.001 A 
ATOM     72  C   UNL A   1      47.009  31.972  28.461  1.00  0.00     0.001 A 
ATOM     73  C   UNL A   1      46.069  32.539  27.605  1.00  0.00     0.000 A 
ENDBRANCH  55  68
ENDBRANCH  29  30
ENDBRANCH  22  24
ENDBRANCH  21  22
ENDBRANCH   1  21
TORSDOF 13
ENDMDL
MODEL 3
REMARK VINA RESULT:      -9.3      4.395      8.629
REMARK SMILES CC(C)c1nc(C(=O)OCCOC(=O)c2ccc(-c3c4nc(c(-c5ccccc5)c5ccc([nH]5)c(-c5ccccc5)c5nc(c(-c6ccccc6)c6ccc3[nH]6)C=C5)C=C4)cc2)nn1-c1ccccc1F
REMARK SMILES IDX 11 1 10 2 9 3 7 4 8 5 6 6 4 7 5 8 64 9 63 10 2 11 1 12 3 13
REMARK SMILES IDX 65 14 66 15 70 16 67 17 69 18 71 19 68 20 12 21 13 22 14 23
REMARK SMILES IDX 15 24 16 25 62 26 17 27 61 28 18 29 19 30 20 31 55 32 21 33
REMARK SMILES IDX 60 34 54 35 56 36 22 37 59 38 53 39 52 40 23 42 45 43 30 44
REMARK SMILES IDX 44 45 31 46 34 47 43 48 57 49 32 50 33 51 42 53 58 54 35 55
REMARK SMILES IDX 24 56 25 57 29 58 26 59 28 60 27 61 46 62 47 63 51 64 48 65
REMARK SMILES IDX 50 66 49 67 36 68 37 69 41 70 38 71 40 72 39 73
REMARK H PARENT 56 41 34 52
REMARK Flexibility Score: inf
ROOT
ATOM      1  C   UNL A   1      35.537  31.715  28.032  1.00  0.00     0.275 C 
ENDROOT
BRANCH   1   2
ATOM      2  C   UNL A   1      34.028  31.894  27.979  1.00  0.00     0.275 C 
BRANCH   2   3
ATOM      3  O   UNL A   1      33.371  30.681  27.586  1.00  0.00    -0.456 OA
BRANCH   3   4
ATOM      4  C   UNL A   1      32.232  30.796  26.829  1.00  0.00     0.378 C 
ATOM      5  O   UNL A   1      31.579  31.834  26.726  1.00  0.00    -0.242 OA
BRANCH   4   6
ATOM      6  C   UNL A   1      31.917  29.543  26.120  1.00  0.00     0.260 A 
ATOM      7  C   UNL A   1      31.261  28.172  24.608  1.00  0.00     0.136 A 
ATOM      8  N   UNL A   1      31.322  29.468  24.878  1.00  0.00    -0.205 NA
ATOM      9  N   UNL A   1      31.865  27.484  25.654  1.00  0.00    -0.214 N 
ATOM     10  N   UNL A   1      32.157  28.339  26.658  1.00  0.00    -0.138 NA
BRANCH   7  11
ATOM     11  C   UNL A   1      30.447  27.627  23.457  1.00  0.00     0.051 C 
ATOM     12  C   UNL A   1      29.481  28.672  22.900  1.00  0.00     0.016 C 
ATOM     13  C   UNL A   1      31.211  26.924  22.341  1.00  0.00     0.016 C 
ENDBRANCH   7  11
BRANCH   9  14
ATOM     14  C   UNL A   1      32.079  26.116  25.887  1.00  0.00     0.102 A 
ATOM     15  C   UNL A   1      33.392  25.627  25.804  1.00  0.00     0.031 A 
ATOM     16  C   UNL A   1      31.030  25.246  26.149  1.00  0.00     0.148 A 
ATOM     17  C   UNL A   1      33.651  24.284  26.068  1.00  0.00     0.002 A 
ATOM     18  C   UNL A   1      31.284  23.897  26.387  1.00  0.00     0.041 A 
ATOM     19  F   UNL A   1      29.760  25.670  26.141  1.00  0.00    -0.205 F 
ATOM     20  C   UNL A   1      32.597  23.420  26.365  1.00  0.00     0.003 A 
ENDBRANCH   9  14
ENDBRANCH   4   6
ENDBRANCH   3   4
ENDBRANCH   2   3
ENDBRANCH   1   2
BRANCH   1  21
ATOM     21  O   UNL A   1      35.890  30.335  27.938  1.00  0.00    -0.458 OA
BRANCH  21  22
ATOM     22  C   UNL A   1      36.428  29.792  29.053  1.00  0.00     0.338 C 
ATOM     23  O   UNL A   1      36.104  30.006  30.208  1.00  0.00    -0.246 OA
BRANCH  22  24
ATOM     24  C   UNL A   1      37.640  29.056  28.672  1.00  0.00     0.060 A 
ATOM     25  C   UNL A   1      38.164  28.149  29.596  1.00  0.00     0.016 A 
ATOM     26  C   UNL A   1      38.369  29.459  27.541  1.00  0.00     0.016 A 
ATOM     27  C   UNL A   1      39.487  27.772  29.469  1.00  0.00     0.010 A 
ATOM     28  C   UNL A   1      39.688  29.092  27.422  1.00  0.00     0.010 A 
ATOM     29  C   UNL A   1      40.250  28.311  28.426  1.00  0.00    -0.014 A 
BRANCH  29  30
ATOM     30  C   UNL A   1      41.651  27.960  28.354  1.00  0.00     0.031 A 
ATOM     31  C   UNL A   1      41.912  26.708  27.611  1.00  0.00     0.074 A 
ATOM     32  C   UNL A   1      42.635  28.752  28.819  1.00  0.00     0.049 A 
ATOM     33  N   UNL A   1      42.369  25.598  28.080  1.00  0.00    -0.248 NA
ATOM     34  C   UNL A   1      41.482  26.645  26.205  1.00  0.00     0.031 C 
ATOM     35  C   UNL A   1      42.552  30.134  29.297  1.00  0.00     0.029 A 
ATOM     36  N   UNL A   1      43.968  28.495  28.854  1.00  0.00    -0.354 N 
ATOM     37  C   UNL A   1      42.443  24.731  26.995  1.00  0.00     0.074 A 
ATOM     38  C   UNL A   1      41.753  25.375  25.907  1.00  0.00     0.031 C 
ATOM     39  C   UNL A   1      43.798  30.661  29.347  1.00  0.00     0.029 A 
ATOM     40  C   UNL A   1      44.761  29.613  29.050  1.00  0.00     0.049 A 
ATOM     41  H   UNL A   1      44.339  27.589  28.749  1.00  0.00     0.167 HD
ATOM     42  C   UNL A   1      43.263  23.646  27.009  1.00  0.00     0.031 A 
ATOM     43  C   UNL A   1      46.108  29.670  28.906  1.00  0.00     0.031 A 
ATOM     44  C   UNL A   1      43.691  23.313  28.342  1.00  0.00     0.049 A 
ATOM     45  C   UNL A   1      46.625  28.282  28.981  1.00  0.00     0.074 A 
ATOM     46  C   UNL A   1      43.047  22.929  29.501  1.00  0.00     0.029 A 
ATOM     47  N   UNL A   1      44.941  23.740  28.723  1.00  0.00    -0.354 N 
ATOM     48  N   UNL A   1      46.594  27.562  30.066  1.00  0.00    -0.248 NA
ATOM     49  C   UNL A   1      46.763  27.534  27.739  1.00  0.00     0.031 C 
ATOM     50  C   UNL A   1      43.754  23.591  30.547  1.00  0.00     0.029 A 
ATOM     51  C   UNL A   1      44.820  24.287  29.974  1.00  0.00     0.049 A 
ATOM     52  H   UNL A   1      45.769  23.664  28.197  1.00  0.00     0.167 HD
ATOM     53  C   UNL A   1      46.269  26.285  29.634  1.00  0.00     0.074 A 
ATOM     54  C   UNL A   1      46.483  26.306  28.188  1.00  0.00     0.031 C 
ATOM     55  C   UNL A   1      45.591  25.417  30.441  1.00  0.00     0.031 A 
BRANCH  42  56
ATOM     56  C   UNL A   1      43.999  23.160  25.790  1.00  0.00    -0.014 A 
ATOM     57  C   UNL A   1      43.888  21.806  25.432  1.00  0.00     0.009 A 
ATOM     58  C   UNL A   1      45.019  23.902  25.163  1.00  0.00     0.009 A 
ATOM     59  C   UNL A   1      44.802  21.210  24.556  1.00  0.00     0.001 A 
ATOM     60  C   UNL A   1      45.908  23.320  24.257  1.00  0.00     0.001 A 
ATOM     61  C   UNL A   1      45.818  21.965  23.978  1.00  0.00     0.000 A 
ENDBRANCH  42  56
BRANCH  43  62
ATOM     62  C   UNL A   1      46.931  30.787  28.396  1.00  0.00    -0.014 A 
ATOM     63  C   UNL A   1      46.828  31.206  27.060  1.00  0.00     0.009 A 
ATOM     64  C   UNL A   1      47.613  31.627  29.295  1.00  0.00     0.009 A 
ATOM     65  C   UNL A   1      47.355  32.439  26.649  1.00  0.00     0.001 A 
ATOM     66  C   UNL A   1      48.140  32.857  28.885  1.00  0.00     0.001 A 
ATOM     67  C   UNL A   1      47.997  33.269  27.564  1.00  0.00     0.000 A 
ENDBRANCH  43  62
BRANCH  55  68
ATOM     68  C   UNL A   1      45.397  25.795  31.888  1.00  0.00    -0.014 A 
ATOM     69  C   UNL A   1      44.295  26.544  32.343  1.00  0.00     0.009 A 
ATOM     70  C   UNL A   1      46.251  25.221  32.841  1.00  0.00     0.009 A 
ATOM     71  C   UNL A   1      44.068  26.720  33.712  1.00  0.00     0.001 A 
ATOM     72  C   UNL A   1      46.013  25.382  34.206  1.00  0.00     0.001 A 
ATOM     73  C   UNL A   1      44.924  26.133  34.642  1.00  0.00     0.000 A 
ENDBRANCH  55  68
ENDBRANCH  29  30
ENDBRANCH  22  24
ENDBRANCH  21  22
ENDBRANCH   1  21
TORSDOF 13
ENDMDL
