MODEL 1
REMARK VINA RESULT:     -10.7      0.000      0.000
REMARK SMILES O=C(OCCOC(=O)c1ccc(-c2c3nc(c(-c4ccccc4)c4ccc([nH]4)c(-c4ccccc4)c4nc(c(-c5ccccc5)c5ccc2[nH]5)C=C4)C=C3)cc1)c1ccc(CN2C(=O)CSC2=S)cc1
REMARK SMILES IDX 4 1 3 2 2 3 1 4 57 5 58 6 70 7 59 8 69 9 60 10 61 11 62 12
REMARK SMILES IDX 63 13 67 14 64 15 65 16 66 17 68 18 5 19 6 20 7 21 8 22 9 23
REMARK SMILES IDX 10 24 56 25 11 26 55 27 12 28 13 29 14 30 49 31 15 32 54 33
REMARK SMILES IDX 48 34 50 35 16 36 53 37 47 38 46 39 17 41 39 42 24 43 38 44
REMARK SMILES IDX 25 45 28 46 37 47 51 48 26 49 27 50 36 52 52 53 29 54 18 55
REMARK SMILES IDX 19 56 23 57 20 58 22 59 21 60 40 61 41 62 45 63 42 64 44 65
REMARK SMILES IDX 43 66 30 67 31 68 35 69 32 70 34 71 33 72
REMARK H PARENT 50 40 28 51
REMARK Flexibility Score: inf
ROOT
ATOM      1  C   UNL A   1      42.602  20.705  25.749  1.00  0.00     0.275 C 
ENDROOT
BRANCH   1   2
ATOM      2  O   UNL A   1      41.317  21.320  25.539  1.00  0.00    -0.458 OA
BRANCH   2   3
ATOM      3  C   UNL A   1      40.307  21.521  26.419  1.00  0.00     0.338 C 
ATOM      4  O   UNL A   1      40.478  21.172  27.587  1.00  0.00    -0.246 OA
BRANCH   3   5
ATOM      5  C   UNL A   1      38.936  22.005  26.035  1.00  0.00     0.060 A 
ATOM      6  C   UNL A   1      37.931  21.247  25.439  1.00  0.00     0.016 A 
ATOM      7  C   UNL A   1      38.607  23.326  26.388  1.00  0.00     0.016 A 
ATOM      8  C   UNL A   1      36.623  21.723  25.335  1.00  0.00     0.006 A 
ATOM      9  C   UNL A   1      37.310  23.833  26.218  1.00  0.00     0.006 A 
ATOM     10  C   UNL A   1      36.285  23.010  25.751  1.00  0.00    -0.028 A 
BRANCH  10  11
ATOM     11  C   UNL A   1      34.842  23.470  25.694  1.00  0.00     0.162 C 
BRANCH  11  12
ATOM     12  N   UNL A   1      33.970  22.374  25.285  1.00  0.00    -0.293 N 
ATOM     13  C   UNL A   1      33.583  21.441  26.229  1.00  0.00     0.238 C 
ATOM     14  C   UNL A   1      33.513  22.184  24.002  1.00  0.00     0.143 C 
ATOM     15  O   UNL A   1      33.754  21.538  27.442  1.00  0.00    -0.273 OA
ATOM     16  C   UNL A   1      32.980  20.221  25.596  1.00  0.00     0.177 C 
ATOM     17  S   UNL A   1      32.572  20.704  23.913  1.00  0.00    -0.086 SA
ATOM     18  S   UNL A   1      33.743  23.157  22.667  1.00  0.00    -0.052 S 
ENDBRANCH  11  12
ENDBRANCH  10  11
ENDBRANCH   3   5
ENDBRANCH   2   3
ENDBRANCH   1   2
BRANCH   1  19
ATOM     19  C   UNL A   1      43.756  21.567  25.213  1.00  0.00     0.275 C 
BRANCH  19  20
ATOM     20  O   UNL A   1      43.299  22.817  24.656  1.00  0.00    -0.458 OA
BRANCH  20  21
ATOM     21  C   UNL A   1      44.090  23.893  24.914  1.00  0.00     0.338 C 
ATOM     22  O   UNL A   1      45.086  24.217  24.297  1.00  0.00    -0.246 OA
BRANCH  21  23
ATOM     23  C   UNL A   1      43.494  24.735  25.988  1.00  0.00     0.060 A 
ATOM     24  C   UNL A   1      44.092  25.976  26.243  1.00  0.00     0.016 A 
ATOM     25  C   UNL A   1      42.381  24.343  26.738  1.00  0.00     0.016 A 
ATOM     26  C   UNL A   1      43.592  26.817  27.245  1.00  0.00     0.010 A 
ATOM     27  C   UNL A   1      41.874  25.193  27.736  1.00  0.00     0.010 A 
ATOM     28  C   UNL A   1      42.480  26.434  28.007  1.00  0.00    -0.014 A 
BRANCH  28  29
ATOM     29  C   UNL A   1      41.974  27.310  29.105  1.00  0.00     0.031 A 
ATOM     30  C   UNL A   1      42.637  27.298  30.455  1.00  0.00     0.074 A 
ATOM     31  C   UNL A   1      40.918  28.125  28.916  1.00  0.00     0.049 A 
ATOM     32  N   UNL A   1      42.335  27.994  31.524  1.00  0.00    -0.248 NA
ATOM     33  C   UNL A   1      43.796  26.409  30.620  1.00  0.00     0.031 C 
ATOM     34  C   UNL A   1      40.211  28.308  27.655  1.00  0.00     0.029 A 
ATOM     35  N   UNL A   1      40.241  28.942  29.792  1.00  0.00    -0.354 N 
ATOM     36  C   UNL A   1      43.281  27.650  32.478  1.00  0.00     0.074 A 
ATOM     37  C   UNL A   1      44.133  26.643  31.881  1.00  0.00     0.031 C 
ATOM     38  C   UNL A   1      39.159  29.122  27.846  1.00  0.00     0.029 A 
ATOM     39  C   UNL A   1      39.132  29.540  29.245  1.00  0.00     0.049 A 
ATOM     40  H   UNL A   1      40.526  29.085  30.724  1.00  0.00     0.167 HD
ATOM     41  C   UNL A   1      43.445  28.145  33.729  1.00  0.00     0.031 A 
ATOM     42  C   UNL A   1      38.192  30.332  29.799  1.00  0.00     0.031 A 
ATOM     43  C   UNL A   1      42.607  29.140  34.344  1.00  0.00     0.049 A 
ATOM     44  C   UNL A   1      38.321  30.758  31.235  1.00  0.00     0.074 A 
ATOM     45  C   UNL A   1      42.752  29.735  35.586  1.00  0.00     0.029 A 
ATOM     46  N   UNL A   1      41.460  29.671  33.780  1.00  0.00    -0.354 N 
ATOM     47  N   UNL A   1      39.275  30.493  32.091  1.00  0.00    -0.248 NA
ATOM     48  C   UNL A   1      37.255  31.620  31.773  1.00  0.00     0.031 C 
ATOM     49  C   UNL A   1      41.657  30.578  35.802  1.00  0.00     0.029 A 
ATOM     50  C   UNL A   1      40.858  30.545  34.672  1.00  0.00     0.049 A 
ATOM     51  H   UNL A   1      41.121  29.459  32.880  1.00  0.00     0.167 HD
ATOM     52  C   UNL A   1      38.948  31.187  33.250  1.00  0.00     0.074 A 
ATOM     53  C   UNL A   1      37.710  31.888  32.989  1.00  0.00     0.031 C 
ATOM     54  C   UNL A   1      39.625  31.243  34.422  1.00  0.00     0.031 A 
BRANCH  41  55
ATOM     55  C   UNL A   1      44.592  27.611  34.536  1.00  0.00    -0.014 A 
ATOM     56  C   UNL A   1      44.434  26.475  35.345  1.00  0.00     0.009 A 
ATOM     57  C   UNL A   1      45.859  28.202  34.423  1.00  0.00     0.009 A 
ATOM     58  C   UNL A   1      45.525  25.952  36.042  1.00  0.00     0.001 A 
ATOM     59  C   UNL A   1      46.950  27.663  35.105  1.00  0.00     0.001 A 
ATOM     60  C   UNL A   1      46.782  26.542  35.917  1.00  0.00     0.000 A 
ENDBRANCH  41  55
BRANCH  42  61
ATOM     61  C   UNL A   1      37.019  30.778  29.003  1.00  0.00    -0.014 A 
ATOM     62  C   UNL A   1      36.895  32.113  28.589  1.00  0.00     0.009 A 
ATOM     63  C   UNL A   1      35.981  29.878  28.718  1.00  0.00     0.009 A 
ATOM     64  C   UNL A   1      35.736  32.545  27.940  1.00  0.00     0.001 A 
ATOM     65  C   UNL A   1      34.835  30.308  28.046  1.00  0.00     0.001 A 
ATOM     66  C   UNL A   1      34.707  31.644  27.670  1.00  0.00     0.000 A 
ENDBRANCH  42  61
BRANCH  54  67
ATOM     67  C   UNL A   1      39.061  32.111  35.511  1.00  0.00    -0.014 A 
ATOM     68  C   UNL A   1      38.222  31.581  36.502  1.00  0.00     0.009 A 
ATOM     69  C   UNL A   1      39.402  33.472  35.567  1.00  0.00     0.009 A 
ATOM     70  C   UNL A   1      37.715  32.400  37.514  1.00  0.00     0.001 A 
ATOM     71  C   UNL A   1      38.918  34.283  36.595  1.00  0.00     0.001 A 
ATOM     72  C   UNL A   1      38.068  33.748  37.562  1.00  0.00     0.000 A 
ENDBRANCH  54  67
ENDBRANCH  28  29
ENDBRANCH  21  23
ENDBRANCH  20  21
ENDBRANCH  19  20
ENDBRANCH   1  19
TORSDOF 13
ENDMDL
MODEL 2
REMARK VINA RESULT:     -10.5      4.454      6.745
REMARK SMILES O=C(OCCOC(=O)c1ccc(-c2c3nc(c(-c4ccccc4)c4ccc([nH]4)c(-c4ccccc4)c4nc(c(-c5ccccc5)c5ccc2[nH]5)C=C4)C=C3)cc1)c1ccc(CN2C(=O)CSC2=S)cc1
REMARK SMILES IDX 4 1 3 2 2 3 1 4 57 5 58 6 70 7 59 8 69 9 60 10 61 11 62 12
REMARK SMILES IDX 63 13 67 14 64 15 65 16 66 17 68 18 5 19 6 20 7 21 8 22 9 23
REMARK SMILES IDX 10 24 56 25 11 26 55 27 12 28 13 29 14 30 49 31 15 32 54 33
REMARK SMILES IDX 48 34 50 35 16 36 53 37 47 38 46 39 17 41 39 42 24 43 38 44
REMARK SMILES IDX 25 45 28 46 37 47 51 48 26 49 27 50 36 52 52 53 29 54 18 55
REMARK SMILES IDX 19 56 23 57 20 58 22 59 21 60 40 61 41 62 45 63 42 64 44 65
REMARK SMILES IDX 43 66 30 67 31 68 35 69 32 70 34 71 33 72
REMARK H PARENT 50 40 28 51
REMARK Flexibility Score: inf
ROOT
ATOM      1  C   UNL A   1      42.122  19.233  26.750  1.00  0.00     0.275 C 
ENDROOT
BRANCH   1   2
ATOM      2  O   UNL A   1      41.386  20.276  26.084  1.00  0.00    -0.458 OA
BRANCH   2   3
ATOM      3  C   UNL A   1      41.125  21.540  26.496  1.00  0.00     0.338 C 
ATOM      4  O   UNL A   1      42.016  22.153  27.085  1.00  0.00    -0.246 OA
BRANCH   3   5
ATOM      5  C   UNL A   1      39.773  22.194  26.413  1.00  0.00     0.060 A 
ATOM      6  C   UNL A   1      39.443  23.466  26.873  1.00  0.00     0.016 A 
ATOM      7  C   UNL A   1      38.767  21.486  25.731  1.00  0.00     0.016 A 
ATOM      8  C   UNL A   1      38.228  24.068  26.542  1.00  0.00     0.006 A 
ATOM      9  C   UNL A   1      37.516  22.061  25.460  1.00  0.00     0.006 A 
ATOM     10  C   UNL A   1      37.259  23.388  25.806  1.00  0.00    -0.028 A 
BRANCH  10  11
ATOM     11  C   UNL A   1      35.981  24.095  25.400  1.00  0.00     0.162 C 
BRANCH  11  12
ATOM     12  N   UNL A   1      34.975  23.129  24.971  1.00  0.00    -0.293 N 
ATOM     13  C   UNL A   1      34.787  22.917  23.617  1.00  0.00     0.238 C 
ATOM     14  C   UNL A   1      34.168  22.417  25.827  1.00  0.00     0.143 C 
ATOM     15  O   UNL A   1      35.518  23.333  22.721  1.00  0.00    -0.273 OA
ATOM     16  C   UNL A   1      33.518  22.167  23.339  1.00  0.00     0.177 C 
ATOM     17  S   UNL A   1      33.034  21.439  24.909  1.00  0.00    -0.086 SA
ATOM     18  S   UNL A   1      34.192  22.398  27.494  1.00  0.00    -0.052 S 
ENDBRANCH  11  12
ENDBRANCH  10  11
ENDBRANCH   3   5
ENDBRANCH   2   3
ENDBRANCH   1   2
BRANCH   1  19
ATOM     19  C   UNL A   1      43.053  18.474  25.792  1.00  0.00     0.275 C 
BRANCH  19  20
ATOM     20  O   UNL A   1      43.337  19.221  24.590  1.00  0.00    -0.458 OA
BRANCH  20  21
ATOM     21  C   UNL A   1      44.632  19.609  24.437  1.00  0.00     0.338 C 
ATOM     22  O   UNL A   1      45.527  18.945  23.952  1.00  0.00    -0.246 OA
BRANCH  21  23
ATOM     23  C   UNL A   1      44.799  21.038  24.817  1.00  0.00     0.060 A 
ATOM     24  C   UNL A   1      45.245  21.314  26.116  1.00  0.00     0.016 A 
ATOM     25  C   UNL A   1      44.532  22.097  23.944  1.00  0.00     0.016 A 
ATOM     26  C   UNL A   1      45.416  22.636  26.546  1.00  0.00     0.010 A 
ATOM     27  C   UNL A   1      44.714  23.423  24.373  1.00  0.00     0.010 A 
ATOM     28  C   UNL A   1      45.148  23.707  25.683  1.00  0.00    -0.014 A 
BRANCH  28  29
ATOM     29  C   UNL A   1      45.286  25.116  26.155  1.00  0.00     0.031 A 
ATOM     30  C   UNL A   1      46.636  25.778  26.196  1.00  0.00     0.074 A 
ATOM     31  C   UNL A   1      44.211  25.825  26.556  1.00  0.00     0.049 A 
ATOM     32  N   UNL A   1      46.942  26.995  26.574  1.00  0.00    -0.248 NA
ATOM     33  C   UNL A   1      47.782  24.980  25.737  1.00  0.00     0.031 C 
ATOM     34  C   UNL A   1      42.831  25.359  26.511  1.00  0.00     0.029 A 
ATOM     35  N   UNL A   1      44.114  27.085  27.098  1.00  0.00    -0.354 N 
ATOM     36  C   UNL A   1      48.309  27.119  26.372  1.00  0.00     0.074 A 
ATOM     37  C   UNL A   1      48.781  25.838  25.891  1.00  0.00     0.031 C 
ATOM     38  C   UNL A   1      42.029  26.283  27.067  1.00  0.00     0.029 A 
ATOM     39  C   UNL A   1      42.840  27.422  27.487  1.00  0.00     0.049 A 
ATOM     40  H   UNL A   1      44.885  27.690  27.196  1.00  0.00     0.167 HD
ATOM     41  C   UNL A   1      49.097  28.208  26.543  1.00  0.00     0.031 A 
ATOM     42  C   UNL A   1      42.370  28.519  28.115  1.00  0.00     0.031 A 
ATOM     43  C   UNL A   1      48.650  29.488  27.026  1.00  0.00     0.049 A 
ATOM     44  C   UNL A   1      43.295  29.663  28.422  1.00  0.00     0.074 A 
ATOM     45  C   UNL A   1      49.382  30.655  27.165  1.00  0.00     0.029 A 
ATOM     46  N   UNL A   1      47.369  29.767  27.469  1.00  0.00    -0.354 N 
ATOM     47  N   UNL A   1      44.567  29.794  28.138  1.00  0.00    -0.248 NA
ATOM     48  C   UNL A   1      42.712  30.825  29.113  1.00  0.00     0.031 C 
ATOM     49  C   UNL A   1      48.562  31.623  27.753  1.00  0.00     0.029 A 
ATOM     50  C   UNL A   1      47.304  31.072  27.932  1.00  0.00     0.049 A 
ATOM     51  H   UNL A   1      46.616  29.133  27.456  1.00  0.00     0.167 HD
ATOM     52  C   UNL A   1      44.923  31.065  28.574  1.00  0.00     0.074 A 
ATOM     53  C   UNL A   1      43.735  31.667  29.139  1.00  0.00     0.031 C 
ATOM     54  C   UNL A   1      46.129  31.677  28.499  1.00  0.00     0.031 A 
BRANCH  41  55
ATOM     55  C   UNL A   1      50.552  28.066  26.205  1.00  0.00    -0.014 A 
ATOM     56  C   UNL A   1      51.033  28.424  24.936  1.00  0.00     0.009 A 
ATOM     57  C   UNL A   1      51.459  27.648  27.189  1.00  0.00     0.009 A 
ATOM     58  C   UNL A   1      52.398  28.346  24.654  1.00  0.00     0.001 A 
ATOM     59  C   UNL A   1      52.825  27.592  26.910  1.00  0.00     0.001 A 
ATOM     60  C   UNL A   1      53.293  27.936  25.642  1.00  0.00     0.000 A 
ENDBRANCH  41  55
BRANCH  42  61
ATOM     61  C   UNL A   1      40.942  28.601  28.518  1.00  0.00    -0.014 A 
ATOM     62  C   UNL A   1      40.504  28.053  29.733  1.00  0.00     0.009 A 
ATOM     63  C   UNL A   1      39.997  29.166  27.647  1.00  0.00     0.009 A 
ATOM     64  C   UNL A   1      39.143  28.035  30.049  1.00  0.00     0.001 A 
ATOM     65  C   UNL A   1      38.641  29.170  27.977  1.00  0.00     0.001 A 
ATOM     66  C   UNL A   1      38.213  28.592  29.171  1.00  0.00     0.000 A 
ENDBRANCH  42  61
BRANCH  54  67
ATOM     67  C   UNL A   1      46.228  33.084  29.018  1.00  0.00    -0.014 A 
ATOM     68  C   UNL A   1      45.946  34.184  28.195  1.00  0.00     0.009 A 
ATOM     69  C   UNL A   1      46.573  33.311  30.360  1.00  0.00     0.009 A 
ATOM     70  C   UNL A   1      46.033  35.485  28.697  1.00  0.00     0.001 A 
ATOM     71  C   UNL A   1      46.631  34.610  30.868  1.00  0.00     0.001 A 
ATOM     72  C   UNL A   1      46.370  35.696  30.033  1.00  0.00     0.000 A 
ENDBRANCH  54  67
ENDBRANCH  28  29
ENDBRANCH  21  23
ENDBRANCH  20  21
ENDBRANCH  19  20
ENDBRANCH   1  19
TORSDOF 13
ENDMDL
MODEL 3
REMARK VINA RESULT:     -10.4      4.293      7.989
REMARK SMILES O=C(OCCOC(=O)c1ccc(-c2c3nc(c(-c4ccccc4)c4ccc([nH]4)c(-c4ccccc4)c4nc(c(-c5ccccc5)c5ccc2[nH]5)C=C4)C=C3)cc1)c1ccc(CN2C(=O)CSC2=S)cc1
REMARK SMILES IDX 4 1 3 2 2 3 1 4 57 5 58 6 70 7 59 8 69 9 60 10 61 11 62 12
REMARK SMILES IDX 63 13 67 14 64 15 65 16 66 17 68 18 5 19 6 20 7 21 8 22 9 23
REMARK SMILES IDX 10 24 56 25 11 26 55 27 12 28 13 29 14 30 49 31 15 32 54 33
REMARK SMILES IDX 48 34 50 35 16 36 53 37 47 38 46 39 17 41 39 42 24 43 38 44
REMARK SMILES IDX 25 45 28 46 37 47 51 48 26 49 27 50 36 52 52 53 29 54 18 55
REMARK SMILES IDX 19 56 23 57 20 58 22 59 21 60 40 61 41 62 45 63 42 64 44 65
REMARK SMILES IDX 43 66 30 67 31 68 35 69 32 70 34 71 33 72
REMARK H PARENT 50 40 28 51
REMARK Flexibility Score: inf
ROOT
ATOM      1  C   UNL A   1      38.401  19.883  24.994  1.00  0.00     0.275 C 
ENDROOT
BRANCH   1   2
ATOM      2  O   UNL A   1      37.465  20.853  25.501  1.00  0.00    -0.458 OA
BRANCH   2   3
ATOM      3  C   UNL A   1      37.466  22.200  25.365  1.00  0.00     0.338 C 
ATOM      4  O   UNL A   1      38.384  22.834  25.886  1.00  0.00    -0.246 OA
BRANCH   3   5
ATOM      5  C   UNL A   1      36.344  22.989  24.748  1.00  0.00     0.060 A 
ATOM      6  C   UNL A   1      35.768  22.764  23.500  1.00  0.00     0.016 A 
ATOM      7  C   UNL A   1      35.765  23.996  25.540  1.00  0.00     0.016 A 
ATOM      8  C   UNL A   1      34.585  23.399  23.119  1.00  0.00     0.006 A 
ATOM      9  C   UNL A   1      34.617  24.690  25.128  1.00  0.00     0.006 A 
ATOM     10  C   UNL A   1      33.975  24.348  23.938  1.00  0.00    -0.028 A 
BRANCH  10  11
ATOM     11  C   UNL A   1      32.652  24.964  23.529  1.00  0.00     0.162 C 
BRANCH  11  12
ATOM     12  N   UNL A   1      32.775  26.414  23.418  1.00  0.00    -0.293 N 
ATOM     13  C   UNL A   1      33.371  26.949  22.290  1.00  0.00     0.238 C 
ATOM     14  C   UNL A   1      32.354  27.304  24.377  1.00  0.00     0.143 C 
ATOM     15  O   UNL A   1      33.653  26.329  21.269  1.00  0.00    -0.273 OA
ATOM     16  C   UNL A   1      33.718  28.397  22.475  1.00  0.00     0.177 C 
ATOM     17  S   UNL A   1      32.768  28.943  23.900  1.00  0.00    -0.086 SA
ATOM     18  S   UNL A   1      31.548  26.984  25.802  1.00  0.00    -0.052 S 
ENDBRANCH  11  12
ENDBRANCH  10  11
ENDBRANCH   3   5
ENDBRANCH   2   3
ENDBRANCH   1   2
BRANCH   1  19
ATOM     19  C   UNL A   1      39.515  19.565  26.003  1.00  0.00     0.275 C 
BRANCH  19  20
ATOM     20  O   UNL A   1      40.746  19.171  25.362  1.00  0.00    -0.458 OA
BRANCH  20  21
ATOM     21  C   UNL A   1      41.853  19.212  26.151  1.00  0.00     0.338 C 
ATOM     22  O   UNL A   1      42.564  18.269  26.441  1.00  0.00    -0.246 OA
BRANCH  21  23
ATOM     23  C   UNL A   1      42.185  20.617  26.514  1.00  0.00     0.060 A 
ATOM     24  C   UNL A   1      42.397  21.522  25.467  1.00  0.00     0.016 A 
ATOM     25  C   UNL A   1      42.290  21.061  27.836  1.00  0.00     0.016 A 
ATOM     26  C   UNL A   1      42.722  22.859  25.733  1.00  0.00     0.010 A 
ATOM     27  C   UNL A   1      42.606  22.404  28.102  1.00  0.00     0.010 A 
ATOM     28  C   UNL A   1      42.835  23.315  27.053  1.00  0.00    -0.014 A 
BRANCH  28  29
ATOM     29  C   UNL A   1      43.226  24.727  27.337  1.00  0.00     0.031 A 
ATOM     30  C   UNL A   1      42.200  25.724  27.802  1.00  0.00     0.074 A 
ATOM     31  C   UNL A   1      44.500  25.142  27.184  1.00  0.00     0.049 A 
ATOM     32  N   UNL A   1      42.361  26.990  28.098  1.00  0.00    -0.248 NA
ATOM     33  C   UNL A   1      40.825  25.232  27.974  1.00  0.00     0.031 C 
ATOM     34  C   UNL A   1      45.623  24.291  26.812  1.00  0.00     0.029 A 
ATOM     35  N   UNL A   1      45.061  26.392  27.304  1.00  0.00    -0.354 N 
ATOM     36  C   UNL A   1      41.118  27.440  28.519  1.00  0.00     0.074 A 
ATOM     37  C   UNL A   1      40.201  26.327  28.386  1.00  0.00     0.031 C 
ATOM     38  C   UNL A   1      46.725  25.046  26.664  1.00  0.00     0.029 A 
ATOM     39  C   UNL A   1      46.390  26.437  26.955  1.00  0.00     0.049 A 
ATOM     40  H   UNL A   1      44.558  27.181  27.613  1.00  0.00     0.167 HD
ATOM     41  C   UNL A   1      40.774  28.659  28.999  1.00  0.00     0.031 A 
ATOM     42  C   UNL A   1      47.246  27.474  26.873  1.00  0.00     0.031 A 
ATOM     43  C   UNL A   1      41.665  29.780  29.133  1.00  0.00     0.049 A 
ATOM     44  C   UNL A   1      46.799  28.851  27.280  1.00  0.00     0.074 A 
ATOM     45  C   UNL A   1      41.400  31.029  29.671  1.00  0.00     0.029 A 
ATOM     46  N   UNL A   1      42.983  29.802  28.709  1.00  0.00    -0.354 N 
ATOM     47  N   UNL A   1      45.644  29.234  27.762  1.00  0.00    -0.248 NA
ATOM     48  C   UNL A   1      47.788  29.936  27.158  1.00  0.00     0.031 C 
ATOM     49  C   UNL A   1      42.536  31.828  29.513  1.00  0.00     0.029 A 
ATOM     50  C   UNL A   1      43.526  31.059  28.924  1.00  0.00     0.049 A 
ATOM     51  H   UNL A   1      43.463  29.039  28.314  1.00  0.00     0.167 HD
ATOM     52  C   UNL A   1      45.780  30.588  28.041  1.00  0.00     0.074 A 
ATOM     53  C   UNL A   1      47.130  30.962  27.678  1.00  0.00     0.031 C 
ATOM     54  C   UNL A   1      44.865  31.440  28.562  1.00  0.00     0.031 A 
BRANCH  41  55
ATOM     55  C   UNL A   1      39.347  28.856  29.422  1.00  0.00    -0.014 A 
ATOM     56  C   UNL A   1      38.956  28.644  30.753  1.00  0.00     0.009 A 
ATOM     57  C   UNL A   1      38.406  29.335  28.499  1.00  0.00     0.009 A 
ATOM     58  C   UNL A   1      37.639  28.891  31.146  1.00  0.00     0.001 A 
ATOM     59  C   UNL A   1      37.097  29.600  28.901  1.00  0.00     0.001 A 
ATOM     60  C   UNL A   1      36.713  29.374  30.223  1.00  0.00     0.000 A 
ENDBRANCH  41  55
BRANCH  42  61
ATOM     61  C   UNL A   1      48.629  27.270  26.369  1.00  0.00    -0.014 A 
ATOM     62  C   UNL A   1      49.693  27.045  27.255  1.00  0.00     0.009 A 
ATOM     63  C   UNL A   1      48.898  27.374  24.995  1.00  0.00     0.009 A 
ATOM     64  C   UNL A   1      51.004  26.967  26.777  1.00  0.00     0.001 A 
ATOM     65  C   UNL A   1      50.207  27.270  24.519  1.00  0.00     0.001 A 
ATOM     66  C   UNL A   1      51.260  27.081  25.412  1.00  0.00     0.000 A 
ENDBRANCH  42  61
BRANCH  54  67
ATOM     67  C   UNL A   1      45.294  32.861  28.800  1.00  0.00    -0.014 A 
ATOM     68  C   UNL A   1      45.915  33.243  29.999  1.00  0.00     0.009 A 
ATOM     69  C   UNL A   1      45.107  33.825  27.795  1.00  0.00     0.009 A 
ATOM     70  C   UNL A   1      46.317  34.566  30.198  1.00  0.00     0.001 A 
ATOM     71  C   UNL A   1      45.534  35.140  27.986  1.00  0.00     0.001 A 
ATOM     72  C   UNL A   1      46.131  35.511  29.190  1.00  0.00     0.000 A 
ENDBRANCH  54  67
ENDBRANCH  28  29
ENDBRANCH  21  23
ENDBRANCH  20  21
ENDBRANCH  19  20
ENDBRANCH   1  19
TORSDOF 13
ENDMDL
