MODEL 1
REMARK VINA RESULT:     -12.9      0.000      0.000
REMARK SMILES Cc1ccc(S(=O)(=O)n2cc(C(=O)C(=O)N[C@@H](Cc3c[nH]c4ccccc34)C(=O)OCCOC(=O)c3ccc(-c4c5nc(c(-c6ccccc6)c6ccc([nH]6)c(-c6ccccc6)c6nc(c(-c7ccccc7)c7ccc4[nH]7)C=C6)C=C5)cc3)c3ccccc32)cc1
REMARK SMILES IDX 30 1 28 2 29 3 17 4 16 5 14 6 15 7 12 9 13 10 11 11 9 12
REMARK SMILES IDX 10 13 89 14 84 15 88 16 85 17 87 18 86 19 6 20 7 21 8 22
REMARK SMILES IDX 5 23 1 24 2 25 3 26 91 27 4 28 90 29 18 30 19 31 20 32 27 33
REMARK SMILES IDX 21 34 22 35 26 36 23 38 25 39 24 40 31 41 32 42 33 43 34 44
REMARK SMILES IDX 35 45 36 46 37 47 83 48 38 49 82 50 39 51 40 52 41 53 76 54
REMARK SMILES IDX 42 55 81 56 75 57 77 58 43 59 80 60 74 61 73 62 44 64 66 65
REMARK SMILES IDX 51 66 65 67 52 68 55 69 64 70 78 71 53 72 54 73 63 75 79 76
REMARK SMILES IDX 56 77 45 78 46 79 50 80 47 81 49 82 48 83 67 84 68 85 72 86
REMARK SMILES IDX 69 87 71 88 70 89 57 90 58 91 62 92 59 93 61 94 60 95
REMARK H PARENT 16 8 21 37 77 63 55 74
REMARK Flexibility Score: inf
ROOT
ATOM      1  O   UNL A   1      33.096  28.956  27.350  1.00  0.00    -0.461 OA
ENDROOT
BRANCH   1   2
ATOM      2  C   UNL A   1      32.189  27.939  27.357  1.00  0.00     0.329 C 
ATOM      3  O   UNL A   1      31.056  28.046  27.824  1.00  0.00    -0.250 OA
BRANCH   2   4
ATOM      4  C   UNL A   1      32.678  26.704  26.581  1.00  0.00     0.197 C 
BRANCH   4   5
ATOM      5  N   UNL A   1      31.584  26.003  25.849  1.00  0.00    -0.335 N 
ATOM      6  C   UNL A   1      31.204  24.662  25.802  1.00  0.00     0.293 C 
ATOM      7  O   UNL A   1      30.226  24.327  25.139  1.00  0.00    -0.265 OA
ATOM      8  H   UNL A   1      31.026  26.598  25.297  1.00  0.00     0.164 HD
BRANCH   6   9
ATOM      9  C   UNL A   1      32.011  23.590  26.546  1.00  0.00     0.252 C 
ATOM     10  O   UNL A   1      31.643  23.356  27.699  1.00  0.00    -0.283 OA
BRANCH   9  11
ATOM     11  C   UNL A   1      33.233  22.902  26.082  1.00  0.00     0.054 A 
ATOM     12  N   UNL A   1      35.154  21.731  25.985  1.00  0.00    -0.240 N 
ATOM     13  C   UNL A   1      34.606  22.961  26.378  1.00  0.00     0.117 A 
ATOM     14  C   UNL A   1      34.106  20.940  25.485  1.00  0.00     0.065 A 
ATOM     15  C   UNL A   1      33.119  21.841  25.132  1.00  0.00     0.012 A 
ATOM     16  C   UNL A   1      34.075  19.606  25.036  1.00  0.00     0.028 A 
ATOM     17  C   UNL A   1      32.206  21.487  24.118  1.00  0.00     0.011 A 
ATOM     18  C   UNL A   1      33.219  19.299  23.982  1.00  0.00     0.002 A 
ATOM     19  C   UNL A   1      32.332  20.247  23.489  1.00  0.00     0.001 A 
BRANCH  12  20
ATOM     20  S   UNL A   1      36.626  21.345  25.170  1.00  0.00     0.268 S 
ATOM     21  O   UNL A   1      36.561  22.188  23.985  1.00  0.00    -0.201 OA
ATOM     22  O   UNL A   1      36.498  19.894  25.067  1.00  0.00    -0.201 OA
BRANCH  20  23
ATOM     23  C   UNL A   1      38.297  21.453  25.665  1.00  0.00     0.088 A 
ATOM     24  C   UNL A   1      42.252  20.489  27.101  1.00  0.00     0.044 C 
ATOM     25  C   UNL A   1      40.912  20.883  26.551  1.00  0.00    -0.051 A 
ATOM     26  C   UNL A   1      40.178  19.886  25.930  1.00  0.00     0.005 A 
ATOM     27  C   UNL A   1      40.347  22.173  26.683  1.00  0.00     0.005 A 
ATOM     28  C   UNL A   1      38.906  20.180  25.484  1.00  0.00     0.022 A 
ATOM     29  C   UNL A   1      39.028  22.472  26.244  1.00  0.00     0.022 A 
ENDBRANCH  20  23
ENDBRANCH  12  20
ENDBRANCH   9  11
ENDBRANCH   6   9
ENDBRANCH   4   5
BRANCH   4  30
ATOM     30  C   UNL A   1      33.906  27.069  25.705  1.00  0.00     0.074 C 
BRANCH  30  31
ATOM     31  C   UNL A   1      33.540  27.273  24.263  1.00  0.00    -0.020 A 
ATOM     32  C   UNL A   1      32.950  28.392  23.706  1.00  0.00     0.087 A 
ATOM     33  C   UNL A   1      33.500  26.262  23.266  1.00  0.00     0.003 A 
ATOM     34  N   UNL A   1      32.472  28.071  22.469  1.00  0.00    -0.361 N 
ATOM     35  C   UNL A   1      32.733  26.750  22.210  1.00  0.00     0.046 A 
ATOM     36  C   UNL A   1      33.941  24.929  23.237  1.00  0.00     0.010 A 
ATOM     37  H   UNL A   1      32.010  28.691  21.858  1.00  0.00     0.166 HD
ATOM     38  C   UNL A   1      32.316  25.945  21.150  1.00  0.00     0.026 A 
ATOM     39  C   UNL A   1      33.532  24.109  22.188  1.00  0.00     0.001 A 
ATOM     40  C   UNL A   1      32.717  24.606  21.173  1.00  0.00     0.002 A 
ENDBRANCH  30  31
ENDBRANCH   4  30
ENDBRANCH   2   4
ENDBRANCH   1   2
BRANCH   1  41
ATOM     41  C   UNL A   1      32.549  30.222  26.976  1.00  0.00     0.274 C 
BRANCH  41  42
ATOM     42  C   UNL A   1      33.387  31.387  27.510  1.00  0.00     0.275 C 
BRANCH  42  43
ATOM     43  O   UNL A   1      34.829  31.252  27.720  1.00  0.00    -0.458 OA
BRANCH  43  44
ATOM     44  C   UNL A   1      35.634  31.851  28.635  1.00  0.00     0.338 C 
ATOM     45  O   UNL A   1      35.463  33.008  28.987  1.00  0.00    -0.246 OA
BRANCH  44  46
ATOM     46  C   UNL A   1      36.767  31.063  29.165  1.00  0.00     0.060 A 
ATOM     47  C   UNL A   1      36.566  29.741  29.612  1.00  0.00     0.016 A 
ATOM     48  C   UNL A   1      38.044  31.584  29.088  1.00  0.00     0.016 A 
ATOM     49  C   UNL A   1      37.657  28.879  29.801  1.00  0.00     0.010 A 
ATOM     50  C   UNL A   1      39.100  30.708  29.140  1.00  0.00     0.010 A 
ATOM     51  C   UNL A   1      38.932  29.354  29.505  1.00  0.00    -0.014 A 
BRANCH  51  52
ATOM     52  C   UNL A   1      40.218  28.668  29.673  1.00  0.00     0.031 A 
ATOM     53  C   UNL A   1      40.602  27.403  28.999  1.00  0.00     0.074 A 
ATOM     54  C   UNL A   1      41.123  29.468  30.279  1.00  0.00     0.049 A 
ATOM     55  N   UNL A   1      41.749  27.220  28.424  1.00  0.00    -0.248 NA
ATOM     56  C   UNL A   1      39.733  26.220  28.932  1.00  0.00     0.031 C 
ATOM     57  C   UNL A   1      42.567  29.410  30.349  1.00  0.00     0.029 A 
ATOM     58  N   UNL A   1      40.799  30.526  31.123  1.00  0.00    -0.354 N 
ATOM     59  C   UNL A   1      41.823  25.903  28.012  1.00  0.00     0.074 A 
ATOM     60  C   UNL A   1      40.513  25.334  28.289  1.00  0.00     0.031 C 
ATOM     61  C   UNL A   1      42.976  30.163  31.391  1.00  0.00     0.029 A 
ATOM     62  C   UNL A   1      41.780  30.614  32.100  1.00  0.00     0.049 A 
ATOM     63  H   UNL A   1      40.012  31.111  31.041  1.00  0.00     0.167 HD
ATOM     64  C   UNL A   1      42.979  25.196  28.153  1.00  0.00     0.031 A 
ATOM     65  C   UNL A   1      41.410  30.241  33.362  1.00  0.00     0.031 A 
ATOM     66  C   UNL A   1      43.793  25.731  29.215  1.00  0.00     0.049 A 
ATOM     67  C   UNL A   1      42.103  28.951  33.722  1.00  0.00     0.074 A 
ATOM     68  C   UNL A   1      44.765  26.709  29.286  1.00  0.00     0.029 A 
ATOM     69  N   UNL A   1      43.420  25.419  30.509  1.00  0.00    -0.354 N 
ATOM     70  N   UNL A   1      42.340  27.974  32.885  1.00  0.00    -0.248 NA
ATOM     71  C   UNL A   1      42.704  28.745  35.034  1.00  0.00     0.031 C 
ATOM     72  C   UNL A   1      44.909  27.052  30.657  1.00  0.00     0.029 A 
ATOM     73  C   UNL A   1      44.050  26.255  31.399  1.00  0.00     0.049 A 
ATOM     74  H   UNL A   1      42.792  24.702  30.756  1.00  0.00     0.167 HD
ATOM     75  C   UNL A   1      43.217  27.105  33.479  1.00  0.00     0.074 A 
ATOM     76  C   UNL A   1      43.370  27.596  34.837  1.00  0.00     0.031 C 
ATOM     77  C   UNL A   1      43.849  26.090  32.826  1.00  0.00     0.031 A 
BRANCH  64  78
ATOM     78  C   UNL A   1      43.496  24.285  27.073  1.00  0.00    -0.014 A 
ATOM     79  C   UNL A   1      44.611  23.467  27.356  1.00  0.00     0.009 A 
ATOM     80  C   UNL A   1      43.009  24.253  25.756  1.00  0.00     0.009 A 
ATOM     81  C   UNL A   1      45.245  22.699  26.371  1.00  0.00     0.001 A 
ATOM     82  C   UNL A   1      43.634  23.469  24.768  1.00  0.00     0.001 A 
ATOM     83  C   UNL A   1      44.759  22.706  25.072  1.00  0.00     0.000 A 
ENDBRANCH  64  78
BRANCH  65  84
ATOM     84  C   UNL A   1      39.976  30.588  33.671  1.00  0.00    -0.014 A 
ATOM     85  C   UNL A   1      39.671  31.950  33.914  1.00  0.00     0.009 A 
ATOM     86  C   UNL A   1      38.912  29.729  33.355  1.00  0.00     0.009 A 
ATOM     87  C   UNL A   1      38.383  32.459  33.705  1.00  0.00     0.001 A 
ATOM     88  C   UNL A   1      37.613  30.240  33.179  1.00  0.00     0.001 A 
ATOM     89  C   UNL A   1      37.359  31.606  33.313  1.00  0.00     0.000 A 
ENDBRANCH  65  84
BRANCH  77  90
ATOM     90  C   UNL A   1      44.442  24.882  33.503  1.00  0.00    -0.014 A 
ATOM     91  C   UNL A   1      43.677  23.781  33.909  1.00  0.00     0.009 A 
ATOM     92  C   UNL A   1      45.845  24.748  33.594  1.00  0.00     0.009 A 
ATOM     93  C   UNL A   1      44.273  22.637  34.448  1.00  0.00     0.001 A 
ATOM     94  C   UNL A   1      46.447  23.584  34.073  1.00  0.00     0.001 A 
ATOM     95  C   UNL A   1      45.656  22.535  34.521  1.00  0.00     0.000 A 
ENDBRANCH  77  90
ENDBRANCH  51  52
ENDBRANCH  44  46
ENDBRANCH  43  44
ENDBRANCH  42  43
ENDBRANCH  41  42
ENDBRANCH   1  41
TORSDOF 18
ENDMDL
MODEL 2
REMARK VINA RESULT:     -12.9      1.425      2.282
REMARK SMILES Cc1ccc(S(=O)(=O)n2cc(C(=O)C(=O)N[C@@H](Cc3c[nH]c4ccccc34)C(=O)OCCOC(=O)c3ccc(-c4c5nc(c(-c6ccccc6)c6ccc([nH]6)c(-c6ccccc6)c6nc(c(-c7ccccc7)c7ccc4[nH]7)C=C6)C=C5)cc3)c3ccccc32)cc1
REMARK SMILES IDX 30 1 28 2 29 3 17 4 16 5 14 6 15 7 12 9 13 10 11 11 9 12
REMARK SMILES IDX 10 13 89 14 84 15 88 16 85 17 87 18 86 19 6 20 7 21 8 22
REMARK SMILES IDX 5 23 1 24 2 25 3 26 91 27 4 28 90 29 18 30 19 31 20 32 27 33
REMARK SMILES IDX 21 34 22 35 26 36 23 38 25 39 24 40 31 41 32 42 33 43 34 44
REMARK SMILES IDX 35 45 36 46 37 47 83 48 38 49 82 50 39 51 40 52 41 53 76 54
REMARK SMILES IDX 42 55 81 56 75 57 77 58 43 59 80 60 74 61 73 62 44 64 66 65
REMARK SMILES IDX 51 66 65 67 52 68 55 69 64 70 78 71 53 72 54 73 63 75 79 76
REMARK SMILES IDX 56 77 45 78 46 79 50 80 47 81 49 82 48 83 67 84 68 85 72 86
REMARK SMILES IDX 69 87 71 88 70 89 57 90 58 91 62 92 59 93 61 94 60 95
REMARK H PARENT 16 8 21 37 77 63 55 74
REMARK Flexibility Score: inf
ROOT
ATOM      1  O   UNL A   1      32.643  29.509  27.127  1.00  0.00    -0.461 OA
ENDROOT
BRANCH   1   2
ATOM      2  C   UNL A   1      32.025  28.324  27.395  1.00  0.00     0.329 C 
ATOM      3  O   UNL A   1      31.137  28.200  28.236  1.00  0.00    -0.250 OA
BRANCH   2   4
ATOM      4  C   UNL A   1      32.444  27.206  26.426  1.00  0.00     0.197 C 
BRANCH   4   5
ATOM      5  N   UNL A   1      31.297  26.625  25.671  1.00  0.00    -0.335 N 
ATOM      6  C   UNL A   1      30.794  25.327  25.592  1.00  0.00     0.293 C 
ATOM      7  O   UNL A   1      29.795  25.099  24.915  1.00  0.00    -0.265 OA
ATOM      8  H   UNL A   1      30.801  27.281  25.129  1.00  0.00     0.164 HD
BRANCH   6   9
ATOM      9  C   UNL A   1      31.491  24.169  26.317  1.00  0.00     0.252 C 
ATOM     10  O   UNL A   1      30.910  23.744  27.318  1.00  0.00    -0.283 OA
BRANCH   9  11
ATOM     11  C   UNL A   1      32.819  23.592  26.021  1.00  0.00     0.054 A 
ATOM     12  N   UNL A   1      34.858  22.655  26.193  1.00  0.00    -0.240 N 
ATOM     13  C   UNL A   1      34.144  23.841  26.417  1.00  0.00     0.117 A 
ATOM     14  C   UNL A   1      33.954  21.703  25.692  1.00  0.00     0.065 A 
ATOM     15  C   UNL A   1      32.909  22.445  25.175  1.00  0.00     0.012 A 
ATOM     16  C   UNL A   1      34.112  20.340  25.376  1.00  0.00     0.028 A 
ATOM     17  C   UNL A   1      32.136  21.896  24.132  1.00  0.00     0.011 A 
ATOM     18  C   UNL A   1      33.394  19.841  24.293  1.00  0.00     0.002 A 
ATOM     19  C   UNL A   1      32.455  20.628  23.640  1.00  0.00     0.001 A 
BRANCH  12  20
ATOM     20  S   UNL A   1      36.432  22.375  25.539  1.00  0.00     0.268 S 
ATOM     21  O   UNL A   1      36.309  22.902  24.187  1.00  0.00    -0.201 OA
ATOM     22  O   UNL A   1      36.566  20.940  25.777  1.00  0.00    -0.201 OA
BRANCH  20  23
ATOM     23  C   UNL A   1      38.017  22.902  26.047  1.00  0.00     0.088 A 
ATOM     24  C   UNL A   1      42.002  23.008  27.703  1.00  0.00     0.044 C 
ATOM     25  C   UNL A   1      40.642  23.027  27.070  1.00  0.00    -0.051 A 
ATOM     26  C   UNL A   1      40.159  21.818  26.596  1.00  0.00     0.005 A 
ATOM     27  C   UNL A   1      39.821  24.176  26.984  1.00  0.00     0.005 A 
ATOM     28  C   UNL A   1      38.880  21.771  26.082  1.00  0.00     0.022 A 
ATOM     29  C   UNL A   1      38.495  24.125  26.475  1.00  0.00     0.022 A 
ENDBRANCH  20  23
ENDBRANCH  12  20
ENDBRANCH   9  11
ENDBRANCH   6   9
ENDBRANCH   4   5
BRANCH   4  30
ATOM     30  C   UNL A   1      33.626  27.676  25.537  1.00  0.00     0.074 C 
BRANCH  30  31
ATOM     31  C   UNL A   1      33.259  27.733  24.081  1.00  0.00    -0.020 A 
ATOM     32  C   UNL A   1      32.559  28.737  23.440  1.00  0.00     0.087 A 
ATOM     33  C   UNL A   1      33.343  26.654  23.162  1.00  0.00     0.003 A 
ATOM     34  N   UNL A   1      32.134  28.277  22.227  1.00  0.00    -0.361 N 
ATOM     35  C   UNL A   1      32.541  26.976  22.068  1.00  0.00     0.046 A 
ATOM     36  C   UNL A   1      33.926  25.379  23.234  1.00  0.00     0.010 A 
ATOM     37  H   UNL A   1      31.617  28.796  21.570  1.00  0.00     0.166 HD
ATOM     38  C   UNL A   1      32.228  26.055  21.069  1.00  0.00     0.026 A 
ATOM     39  C   UNL A   1      33.623  24.444  22.247  1.00  0.00     0.001 A 
ATOM     40  C   UNL A   1      32.772  24.774  21.193  1.00  0.00     0.002 A 
ENDBRANCH  30  31
ENDBRANCH   4  30
ENDBRANCH   2   4
ENDBRANCH   1   2
BRANCH   1  41
ATOM     41  C   UNL A   1      31.784  30.498  26.557  1.00  0.00     0.274 C 
BRANCH  41  42
ATOM     42  C   UNL A   1      31.926  31.852  27.259  1.00  0.00     0.275 C 
BRANCH  42  43
ATOM     43  O   UNL A   1      33.204  32.565  27.281  1.00  0.00    -0.458 OA
BRANCH  43  44
ATOM     44  C   UNL A   1      33.946  32.987  28.338  1.00  0.00     0.338 C 
ATOM     45  O   UNL A   1      33.500  33.757  29.174  1.00  0.00    -0.246 OA
BRANCH  44  46
ATOM     46  C   UNL A   1      35.344  32.513  28.421  1.00  0.00     0.060 A 
ATOM     47  C   UNL A   1      36.396  33.434  28.599  1.00  0.00     0.016 A 
ATOM     48  C   UNL A   1      35.594  31.155  28.461  1.00  0.00     0.016 A 
ATOM     49  C   UNL A   1      37.666  32.995  29.007  1.00  0.00     0.010 A 
ATOM     50  C   UNL A   1      36.790  30.737  28.989  1.00  0.00     0.010 A 
ATOM     51  C   UNL A   1      37.844  31.638  29.260  1.00  0.00    -0.014 A 
BRANCH  51  52
ATOM     52  C   UNL A   1      39.078  30.939  29.637  1.00  0.00     0.031 A 
ATOM     53  C   UNL A   1      39.618  29.737  28.957  1.00  0.00     0.074 A 
ATOM     54  C   UNL A   1      39.822  31.684  30.485  1.00  0.00     0.049 A 
ATOM     55  N   UNL A   1      40.863  29.603  28.623  1.00  0.00    -0.248 NA
ATOM     56  C   UNL A   1      38.803  28.564  28.609  1.00  0.00     0.031 C 
ATOM     57  C   UNL A   1      41.220  31.621  30.853  1.00  0.00     0.029 A 
ATOM     58  N   UNL A   1      39.309  32.667  31.327  1.00  0.00    -0.354 N 
ATOM     59  C   UNL A   1      41.046  28.326  28.127  1.00  0.00     0.074 A 
ATOM     60  C   UNL A   1      39.717  27.735  28.074  1.00  0.00     0.031 C 
ATOM     61  C   UNL A   1      41.386  32.282  32.017  1.00  0.00     0.029 A 
ATOM     62  C   UNL A   1      40.061  32.672  32.493  1.00  0.00     0.049 A 
ATOM     63  H   UNL A   1      38.546  33.257  31.130  1.00  0.00     0.167 HD
ATOM     64  C   UNL A   1      42.158  27.609  28.450  1.00  0.00     0.031 A 
ATOM     65  C   UNL A   1      39.441  32.192  33.613  1.00  0.00     0.031 A 
ATOM     66  C   UNL A   1      42.722  28.052  29.700  1.00  0.00     0.049 A 
ATOM     67  C   UNL A   1      40.066  30.876  34.003  1.00  0.00     0.074 A 
ATOM     68  C   UNL A   1      43.640  29.021  30.056  1.00  0.00     0.029 A 
ATOM     69  N   UNL A   1      42.091  27.631  30.856  1.00  0.00    -0.354 N 
ATOM     70  N   UNL A   1      40.490  29.974  33.155  1.00  0.00    -0.248 NA
ATOM     71  C   UNL A   1      40.381  30.559  35.389  1.00  0.00     0.031 C 
ATOM     72  C   UNL A   1      43.486  29.245  31.450  1.00  0.00     0.029 A 
ATOM     73  C   UNL A   1      42.505  28.388  31.925  1.00  0.00     0.049 A 
ATOM     74  H   UNL A   1      41.438  26.895  30.904  1.00  0.00     0.167 HD
ATOM     75  C   UNL A   1      41.238  29.057  33.847  1.00  0.00     0.074 A 
ATOM     76  C   UNL A   1      41.094  29.431  35.242  1.00  0.00     0.031 C 
ATOM     77  C   UNL A   1      42.011  28.101  33.259  1.00  0.00     0.031 A 
BRANCH  64  78
ATOM     78  C   UNL A   1      42.907  26.793  27.431  1.00  0.00    -0.014 A 
ATOM     79  C   UNL A   1      42.348  26.641  26.145  1.00  0.00     0.009 A 
ATOM     80  C   UNL A   1      44.091  26.082  27.692  1.00  0.00     0.009 A 
ATOM     81  C   UNL A   1      42.902  25.786  25.184  1.00  0.00     0.001 A 
ATOM     82  C   UNL A   1      44.659  25.234  26.723  1.00  0.00     0.001 A 
ATOM     83  C   UNL A   1      44.056  25.074  25.478  1.00  0.00     0.000 A 
ENDBRANCH  64  78
BRANCH  65  84
ATOM     84  C   UNL A   1      37.967  32.511  33.641  1.00  0.00    -0.014 A 
ATOM     85  C   UNL A   1      37.595  33.857  33.882  1.00  0.00     0.009 A 
ATOM     86  C   UNL A   1      37.005  31.662  33.074  1.00  0.00     0.009 A 
ATOM     87  C   UNL A   1      36.367  34.366  33.441  1.00  0.00     0.001 A 
ATOM     88  C   UNL A   1      35.760  32.171  32.663  1.00  0.00     0.001 A 
ATOM     89  C   UNL A   1      35.459  33.526  32.807  1.00  0.00     0.000 A 
ENDBRANCH  65  84
BRANCH  77  90
ATOM     90  C   UNL A   1      42.470  26.841  33.943  1.00  0.00    -0.014 A 
ATOM     91  C   UNL A   1      43.775  26.343  33.832  1.00  0.00     0.009 A 
ATOM     92  C   UNL A   1      41.624  26.204  34.879  1.00  0.00     0.009 A 
ATOM     93  C   UNL A   1      44.192  25.223  34.557  1.00  0.00     0.001 A 
ATOM     94  C   UNL A   1      42.057  25.123  35.650  1.00  0.00     0.001 A 
ATOM     95  C   UNL A   1      43.338  24.620  35.472  1.00  0.00     0.000 A 
ENDBRANCH  77  90
ENDBRANCH  51  52
ENDBRANCH  44  46
ENDBRANCH  43  44
ENDBRANCH  42  43
ENDBRANCH  41  42
ENDBRANCH   1  41
TORSDOF 18
ENDMDL
MODEL 3
REMARK VINA RESULT:     -12.8      2.086      3.053
REMARK SMILES Cc1ccc(S(=O)(=O)n2cc(C(=O)C(=O)N[C@@H](Cc3c[nH]c4ccccc34)C(=O)OCCOC(=O)c3ccc(-c4c5nc(c(-c6ccccc6)c6ccc([nH]6)c(-c6ccccc6)c6nc(c(-c7ccccc7)c7ccc4[nH]7)C=C6)C=C5)cc3)c3ccccc32)cc1
REMARK SMILES IDX 30 1 28 2 29 3 17 4 16 5 14 6 15 7 12 9 13 10 11 11 9 12
REMARK SMILES IDX 10 13 89 14 84 15 88 16 85 17 87 18 86 19 6 20 7 21 8 22
REMARK SMILES IDX 5 23 1 24 2 25 3 26 91 27 4 28 90 29 18 30 19 31 20 32 27 33
REMARK SMILES IDX 21 34 22 35 26 36 23 38 25 39 24 40 31 41 32 42 33 43 34 44
REMARK SMILES IDX 35 45 36 46 37 47 83 48 38 49 82 50 39 51 40 52 41 53 76 54
REMARK SMILES IDX 42 55 81 56 75 57 77 58 43 59 80 60 74 61 73 62 44 64 66 65
REMARK SMILES IDX 51 66 65 67 52 68 55 69 64 70 78 71 53 72 54 73 63 75 79 76
REMARK SMILES IDX 56 77 45 78 46 79 50 80 47 81 49 82 48 83 67 84 68 85 72 86
REMARK SMILES IDX 69 87 71 88 70 89 57 90 58 91 62 92 59 93 61 94 60 95
REMARK H PARENT 16 8 21 37 77 63 55 74
REMARK Flexibility Score: inf
ROOT
ATOM      1  O   UNL A   1      33.630  29.565  25.880  1.00  0.00    -0.461 OA
ENDROOT
BRANCH   1   2
ATOM      2  C   UNL A   1      33.138  28.294  25.897  1.00  0.00     0.329 C 
ATOM      3  O   UNL A   1      33.662  27.374  26.523  1.00  0.00    -0.250 OA
BRANCH   2   4
ATOM      4  C   UNL A   1      31.779  28.176  25.185  1.00  0.00     0.197 C 
BRANCH   4   5
ATOM      5  N   UNL A   1      30.821  27.284  25.898  1.00  0.00    -0.335 N 
ATOM      6  C   UNL A   1      30.528  25.928  25.757  1.00  0.00     0.293 C 
ATOM      7  O   UNL A   1      29.706  25.400  26.501  1.00  0.00    -0.265 OA
ATOM      8  H   UNL A   1      30.299  27.737  26.600  1.00  0.00     0.164 HD
BRANCH   6   9
ATOM      9  C   UNL A   1      31.198  25.089  24.661  1.00  0.00     0.252 C 
ATOM     10  O   UNL A   1      30.487  24.822  23.690  1.00  0.00    -0.283 OA
BRANCH   9  11
ATOM     11  C   UNL A   1      32.542  24.477  24.693  1.00  0.00     0.054 A 
ATOM     12  N   UNL A   1      34.766  24.142  24.794  1.00  0.00    -0.240 N 
ATOM     13  C   UNL A   1      33.738  24.616  23.966  1.00  0.00     0.117 A 
ATOM     14  C   UNL A   1      34.185  23.750  26.012  1.00  0.00     0.065 A 
ATOM     15  C   UNL A   1      32.853  23.528  25.713  1.00  0.00     0.012 A 
ATOM     16  C   UNL A   1      34.754  23.285  27.212  1.00  0.00     0.028 A 
ATOM     17  C   UNL A   1      32.122  22.618  26.503  1.00  0.00     0.011 A 
ATOM     18  C   UNL A   1      34.046  22.329  27.935  1.00  0.00     0.002 A 
ATOM     19  C   UNL A   1      32.764  21.957  27.553  1.00  0.00     0.001 A 
BRANCH  12  20
ATOM     20  S   UNL A   1      36.143  23.158  24.454  1.00  0.00     0.268 S 
ATOM     21  O   UNL A   1      36.563  23.644  23.148  1.00  0.00    -0.201 OA
ATOM     22  O   UNL A   1      35.562  21.827  24.608  1.00  0.00    -0.201 OA
BRANCH  20  23
ATOM     23  C   UNL A   1      37.646  22.917  25.310  1.00  0.00     0.088 A 
ATOM     24  C   UNL A   1      40.925  21.140  27.484  1.00  0.00     0.044 C 
ATOM     25  C   UNL A   1      39.840  21.810  26.692  1.00  0.00    -0.051 A 
ATOM     26  C   UNL A   1      39.105  21.006  25.837  1.00  0.00     0.005 A 
ATOM     27  C   UNL A   1      39.498  23.178  26.813  1.00  0.00     0.005 A 
ATOM     28  C   UNL A   1      38.045  21.561  25.153  1.00  0.00     0.022 A 
ATOM     29  C   UNL A   1      38.391  23.746  26.126  1.00  0.00     0.022 A 
ENDBRANCH  20  23
ENDBRANCH  12  20
ENDBRANCH   9  11
ENDBRANCH   6   9
ENDBRANCH   4   5
BRANCH   4  30
ATOM     30  C   UNL A   1      31.220  29.586  24.853  1.00  0.00     0.074 C 
BRANCH  30  31
ATOM     31  C   UNL A   1      30.275  29.565  23.686  1.00  0.00    -0.020 A 
ATOM     32  C   UNL A   1      30.207  28.610  22.689  1.00  0.00     0.087 A 
ATOM     33  C   UNL A   1      29.461  30.648  23.258  1.00  0.00     0.003 A 
ATOM     34  N   UNL A   1      29.477  29.107  21.648  1.00  0.00    -0.361 N 
ATOM     35  C   UNL A   1      29.073  30.383  21.946  1.00  0.00     0.046 A 
ATOM     36  C   UNL A   1      29.137  31.886  23.834  1.00  0.00     0.010 A 
ATOM     37  H   UNL A   1      29.274  28.625  20.814  1.00  0.00     0.166 HD
ATOM     38  C   UNL A   1      28.436  31.332  21.146  1.00  0.00     0.026 A 
ATOM     39  C   UNL A   1      28.504  32.847  23.049  1.00  0.00     0.001 A 
ATOM     40  C   UNL A   1      28.178  32.579  21.721  1.00  0.00     0.002 A 
ENDBRANCH  30  31
ENDBRANCH   4  30
ENDBRANCH   2   4
ENDBRANCH   1   2
BRANCH   1  41
ATOM     41  C   UNL A   1      34.035  30.050  27.162  1.00  0.00     0.274 C 
BRANCH  41  42
ATOM     42  C   UNL A   1      33.187  31.241  27.617  1.00  0.00     0.275 C 
BRANCH  42  43
ATOM     43  O   UNL A   1      33.784  32.561  27.826  1.00  0.00    -0.458 OA
BRANCH  43  44
ATOM     44  C   UNL A   1      34.314  33.107  28.951  1.00  0.00     0.338 C 
ATOM     45  O   UNL A   1      33.781  34.040  29.530  1.00  0.00    -0.246 OA
BRANCH  44  46
ATOM     46  C   UNL A   1      35.600  32.559  29.432  1.00  0.00     0.060 A 
ATOM     47  C   UNL A   1      35.621  31.603  30.469  1.00  0.00     0.016 A 
ATOM     48  C   UNL A   1      36.764  32.887  28.765  1.00  0.00     0.016 A 
ATOM     49  C   UNL A   1      36.774  30.838  30.709  1.00  0.00     0.010 A 
ATOM     50  C   UNL A   1      37.843  32.050  28.906  1.00  0.00     0.010 A 
ATOM     51  C   UNL A   1      37.875  31.026  29.878  1.00  0.00    -0.014 A 
BRANCH  51  52
ATOM     52  C   UNL A   1      39.195  30.392  29.965  1.00  0.00     0.031 A 
ATOM     53  C   UNL A   1      39.528  29.044  29.443  1.00  0.00     0.074 A 
ATOM     54  C   UNL A   1      40.146  31.289  30.309  1.00  0.00     0.049 A 
ATOM     55  N   UNL A   1      40.591  28.790  28.747  1.00  0.00    -0.248 NA
ATOM     56  C   UNL A   1      38.700  27.853  29.679  1.00  0.00     0.031 C 
ATOM     57  C   UNL A   1      41.588  31.263  30.182  1.00  0.00     0.029 A 
ATOM     58  N   UNL A   1      39.904  32.461  31.021  1.00  0.00    -0.354 N 
ATOM     59  C   UNL A   1      40.654  27.427  28.532  1.00  0.00     0.074 A 
ATOM     60  C   UNL A   1      39.416  26.888  29.074  1.00  0.00     0.031 C 
ATOM     61  C   UNL A   1      42.108  32.174  31.030  1.00  0.00     0.029 A 
ATOM     62  C   UNL A   1      41.006  32.713  31.824  1.00  0.00     0.049 A 
ATOM     63  H   UNL A   1      39.092  33.015  30.963  1.00  0.00     0.167 HD
ATOM     64  C   UNL A   1      41.843  26.766  28.614  1.00  0.00     0.031 A 
ATOM     65  C   UNL A   1      40.826  32.534  33.168  1.00  0.00     0.031 A 
ATOM     66  C   UNL A   1      42.776  27.471  29.456  1.00  0.00     0.049 A 
ATOM     67  C   UNL A   1      41.608  31.326  33.618  1.00  0.00     0.074 A 
ATOM     68  C   UNL A   1      43.713  28.462  29.240  1.00  0.00     0.029 A 
ATOM     69  N   UNL A   1      42.596  27.358  30.822  1.00  0.00    -0.354 N 
ATOM     70  N   UNL A   1      41.762  30.234  32.913  1.00  0.00    -0.248 NA
ATOM     71  C   UNL A   1      42.390  31.334  34.847  1.00  0.00     0.031 C 
ATOM     72  C   UNL A   1      44.032  29.015  30.509  1.00  0.00     0.029 A 
ATOM     73  C   UNL A   1      43.312  28.330  31.477  1.00  0.00     0.049 A 
ATOM     74  H   UNL A   1      42.034  26.679  31.261  1.00  0.00     0.167 HD
ATOM     75  C   UNL A   1      42.743  29.480  33.502  1.00  0.00     0.074 A 
ATOM     76  C   UNL A   1      43.063  30.178  34.734  1.00  0.00     0.031 C 
ATOM     77  C   UNL A   1      43.315  28.385  32.927  1.00  0.00     0.031 A 
BRANCH  64  78
ATOM     78  C   UNL A   1      42.240  25.706  27.622  1.00  0.00    -0.014 A 
ATOM     79  C   UNL A   1      42.933  24.569  28.089  1.00  0.00     0.009 A 
ATOM     80  C   UNL A   1      42.054  25.805  26.233  1.00  0.00     0.009 A 
ATOM     81  C   UNL A   1      43.464  23.607  27.221  1.00  0.00     0.001 A 
ATOM     82  C   UNL A   1      42.573  24.831  25.359  1.00  0.00     0.001 A 
ATOM     83  C   UNL A   1      43.290  23.743  25.852  1.00  0.00     0.000 A 
ENDBRANCH  64  78
BRANCH  65  84
ATOM     84  C   UNL A   1      39.437  32.905  33.620  1.00  0.00    -0.014 A 
ATOM     85  C   UNL A   1      38.962  34.197  33.284  1.00  0.00     0.009 A 
ATOM     86  C   UNL A   1      38.488  31.940  33.995  1.00  0.00     0.009 A 
ATOM     87  C   UNL A   1      37.593  34.469  33.183  1.00  0.00     0.001 A 
ATOM     88  C   UNL A   1      37.113  32.230  33.925  1.00  0.00     0.001 A 
ATOM     89  C   UNL A   1      36.668  33.476  33.479  1.00  0.00     0.000 A 
ENDBRANCH  65  84
BRANCH  77  90
ATOM     90  C   UNL A   1      44.038  27.306  33.689  1.00  0.00    -0.014 A 
ATOM     91  C   UNL A   1      43.401  26.461  34.607  1.00  0.00     0.009 A 
ATOM     92  C   UNL A   1      45.377  26.994  33.361  1.00  0.00     0.009 A 
ATOM     93  C   UNL A   1      44.083  25.408  35.225  1.00  0.00     0.001 A 
ATOM     94  C   UNL A   1      46.042  25.906  33.929  1.00  0.00     0.001 A 
ATOM     95  C   UNL A   1      45.398  25.125  34.879  1.00  0.00     0.000 A 
ENDBRANCH  77  90
ENDBRANCH  51  52
ENDBRANCH  44  46
ENDBRANCH  43  44
ENDBRANCH  42  43
ENDBRANCH  41  42
ENDBRANCH   1  41
TORSDOF 18
ENDMDL
