MODEL 1
REMARK VINA RESULT:     -11.5      0.000      0.000
REMARK SMILES Cc1ccccc1OCCN1C(=O)CC[C@H](C(=O)OCCOC(=O)c2ccc(-c3c4nc(c(-c5ccccc5)c5ccc([nH]5)c(-c5ccccc5)c5nc(c(-c6ccccc6)c6ccc3[nH]6)C=C5)C=C4)cc2)[C@@H]1c1ccco1
REMARK SMILES IDX 20 1 19 2 17 3 18 4 16 5 11 6 12 7 73 8 13 9 14 10 15 11
REMARK SMILES IDX 10 12 9 13 8 14 7 15 1 16 2 17 3 18 4 19 6 20 5 21 74 22
REMARK SMILES IDX 75 23 78 24 76 25 77 26 21 27 22 28 23 29 24 30 25 31 26 32
REMARK SMILES IDX 72 33 27 34 71 35 28 36 29 37 30 38 65 39 31 40 70 41 64 42
REMARK SMILES IDX 66 43 32 44 69 45 63 46 62 47 33 49 55 50 40 51 54 52 41 53
REMARK SMILES IDX 44 54 53 55 67 56 42 57 43 58 52 60 68 61 45 62 34 63 35 64
REMARK SMILES IDX 39 65 36 66 38 67 37 68 56 69 57 70 61 71 58 72 60 73 59 74
REMARK SMILES IDX 46 75 47 76 51 77 48 78 50 79 49 80
REMARK H PARENT 66 48 44 59
REMARK Flexibility Score: inf
ROOT
ATOM      1  C   UNL A   1      37.243  20.987  25.344  1.00  0.00     0.274 C 
ENDROOT
BRANCH   1   2
ATOM      2  O   UNL A   1      36.965  21.931  24.298  1.00  0.00    -0.462 OA
BRANCH   2   3
ATOM      3  C   UNL A   1      36.737  23.196  24.738  1.00  0.00     0.311 C 
ATOM      4  O   UNL A   1      37.428  23.744  25.586  1.00  0.00    -0.252 OA
BRANCH   3   5
ATOM      5  C   UNL A   1      35.599  23.905  24.054  1.00  0.00     0.130 C 
ATOM      6  N   UNL A   1      33.559  25.276  24.456  1.00  0.00    -0.328 N 
ATOM      7  C   UNL A   1      32.888  24.733  23.368  1.00  0.00     0.223 C 
ATOM      8  C   UNL A   1      34.659  24.540  25.102  1.00  0.00     0.166 C 
ATOM      9  O   UNL A   1      31.752  25.080  23.041  1.00  0.00    -0.275 OA
ATOM     10  C   UNL A   1      33.667  23.777  22.483  1.00  0.00     0.101 C 
ATOM     11  C   UNL A   1      34.794  23.001  23.137  1.00  0.00     0.028 C 
BRANCH   6  12
ATOM     12  C   UNL A   1      32.916  26.376  25.193  1.00  0.00     0.162 C 
BRANCH  12  13
ATOM     13  C   UNL A   1      33.811  27.579  25.545  1.00  0.00     0.251 C 
BRANCH  13  14
ATOM     14  O   UNL A   1      33.800  28.012  26.904  1.00  0.00    -0.491 OA
BRANCH  14  15
ATOM     15  C   UNL A   1      34.211  29.274  27.225  1.00  0.00     0.122 A 
ATOM     16  C   UNL A   1      31.998  30.523  26.872  1.00  0.00     0.048 C 
ATOM     17  C   UNL A   1      33.440  30.445  27.270  1.00  0.00    -0.009 A 
ATOM     18  C   UNL A   1      34.059  31.645  27.679  1.00  0.00     0.007 A 
ATOM     19  C   UNL A   1      35.425  31.701  27.955  1.00  0.00     0.001 A 
ATOM     20  C   UNL A   1      35.594  29.356  27.459  1.00  0.00     0.047 A 
ATOM     21  C   UNL A   1      36.200  30.558  27.824  1.00  0.00     0.004 A 
ENDBRANCH  14  15
ENDBRANCH  13  14
ENDBRANCH  12  13
ENDBRANCH   6  12
BRANCH   8  22
ATOM     22  C   UNL A   1      34.080  23.539  26.110  1.00  0.00     0.127 A 
ATOM     23  C   UNL A   1      34.556  22.932  27.264  1.00  0.00     0.048 A 
ATOM     24  O   UNL A   1      32.781  23.139  25.927  1.00  0.00    -0.467 OA
ATOM     25  C   UNL A   1      33.506  22.164  27.811  1.00  0.00     0.042 A 
ATOM     26  C   UNL A   1      32.449  22.321  26.955  1.00  0.00     0.195 A 
ENDBRANCH   8  22
ENDBRANCH   3   5
ENDBRANCH   2   3
ENDBRANCH   1   2
BRANCH   1  27
ATOM     27  C   UNL A   1      38.365  20.007  24.995  1.00  0.00     0.275 C 
BRANCH  27  28
ATOM     28  O   UNL A   1      39.324  19.611  26.016  1.00  0.00    -0.458 OA
BRANCH  28  29
ATOM     29  C   UNL A   1      40.654  19.840  26.115  1.00  0.00     0.338 C 
ATOM     30  O   UNL A   1      41.471  18.986  25.781  1.00  0.00    -0.246 OA
BRANCH  29  31
ATOM     31  C   UNL A   1      41.126  21.137  26.636  1.00  0.00     0.060 A 
ATOM     32  C   UNL A   1      41.377  22.194  25.737  1.00  0.00     0.016 A 
ATOM     33  C   UNL A   1      41.246  21.339  28.002  1.00  0.00     0.016 A 
ATOM     34  C   UNL A   1      41.604  23.492  26.216  1.00  0.00     0.010 A 
ATOM     35  C   UNL A   1      41.359  22.632  28.470  1.00  0.00     0.010 A 
ATOM     36  C   UNL A   1      41.538  23.720  27.592  1.00  0.00    -0.014 A 
BRANCH  36  37
ATOM     37  C   UNL A   1      41.756  25.011  28.254  1.00  0.00     0.031 A 
ATOM     38  C   UNL A   1      40.767  26.108  28.342  1.00  0.00     0.074 A 
ATOM     39  C   UNL A   1      42.946  25.097  28.886  1.00  0.00     0.049 A 
ATOM     40  N   UNL A   1      41.010  27.269  28.844  1.00  0.00    -0.248 NA
ATOM     41  C   UNL A   1      39.399  26.015  27.861  1.00  0.00     0.031 C 
ATOM     42  C   UNL A   1      43.470  26.090  29.807  1.00  0.00     0.029 A 
ATOM     43  N   UNL A   1      44.062  24.319  28.555  1.00  0.00    -0.354 N 
ATOM     44  C   UNL A   1      39.825  27.967  28.963  1.00  0.00     0.074 A 
ATOM     45  C   UNL A   1      38.840  27.146  28.315  1.00  0.00     0.031 C 
ATOM     46  C   UNL A   1      44.813  26.086  29.702  1.00  0.00     0.029 A 
ATOM     47  C   UNL A   1      45.148  25.192  28.597  1.00  0.00     0.049 A 
ATOM     48  H   UNL A   1      44.076  23.359  28.339  1.00  0.00     0.167 HD
ATOM     49  C   UNL A   1      39.829  29.128  29.676  1.00  0.00     0.031 A 
ATOM     50  C   UNL A   1      45.708  25.575  27.411  1.00  0.00     0.031 A 
ATOM     51  C   UNL A   1      41.201  29.579  29.867  1.00  0.00     0.049 A 
ATOM     52  C   UNL A   1      45.619  27.069  27.218  1.00  0.00     0.074 A 
ATOM     53  C   UNL A   1      42.112  29.453  30.901  1.00  0.00     0.029 A 
ATOM     54  N   UNL A   1      41.924  29.928  28.733  1.00  0.00    -0.354 N 
ATOM     55  N   UNL A   1      44.643  27.822  27.651  1.00  0.00    -0.248 NA
ATOM     56  C   UNL A   1      46.686  27.828  26.581  1.00  0.00     0.031 C 
ATOM     57  C   UNL A   1      43.412  29.605  30.341  1.00  0.00     0.029 A 
ATOM     58  C   UNL A   1      43.276  29.869  28.986  1.00  0.00     0.049 A 
ATOM     59  H   UNL A   1      41.524  30.183  27.870  1.00  0.00     0.167 HD
ATOM     60  C   UNL A   1      44.981  29.140  27.462  1.00  0.00     0.074 A 
ATOM     61  C   UNL A   1      46.253  29.087  26.761  1.00  0.00     0.031 C 
ATOM     62  C   UNL A   1      44.228  30.180  27.929  1.00  0.00     0.031 A 
BRANCH  49  63
ATOM     63  C   UNL A   1      38.645  29.772  30.353  1.00  0.00    -0.014 A 
ATOM     64  C   UNL A   1      38.684  31.163  30.595  1.00  0.00     0.009 A 
ATOM     65  C   UNL A   1      37.521  29.096  30.852  1.00  0.00     0.009 A 
ATOM     66  C   UNL A   1      37.694  31.830  31.331  1.00  0.00     0.001 A 
ATOM     67  C   UNL A   1      36.525  29.758  31.593  1.00  0.00     0.001 A 
ATOM     68  C   UNL A   1      36.617  31.122  31.842  1.00  0.00     0.000 A 
ENDBRANCH  49  63
BRANCH  50  69
ATOM     69  C   UNL A   1      45.618  24.546  26.318  1.00  0.00    -0.014 A 
ATOM     70  C   UNL A   1      46.076  23.233  26.589  1.00  0.00     0.009 A 
ATOM     71  C   UNL A   1      44.847  24.736  25.163  1.00  0.00     0.009 A 
ATOM     72  C   UNL A   1      45.683  22.141  25.806  1.00  0.00     0.001 A 
ATOM     73  C   UNL A   1      44.480  23.641  24.359  1.00  0.00     0.001 A 
ATOM     74  C   UNL A   1      44.870  22.344  24.698  1.00  0.00     0.000 A 
ENDBRANCH  50  69
BRANCH  62  75
ATOM     75  C   UNL A   1      44.347  31.628  27.501  1.00  0.00    -0.014 A 
ATOM     76  C   UNL A   1      44.639  32.049  26.199  1.00  0.00     0.009 A 
ATOM     77  C   UNL A   1      44.006  32.646  28.424  1.00  0.00     0.009 A 
ATOM     78  C   UNL A   1      44.645  33.406  25.849  1.00  0.00     0.001 A 
ATOM     79  C   UNL A   1      43.950  33.996  28.066  1.00  0.00     0.001 A 
ATOM     80  C   UNL A   1      44.287  34.376  26.778  1.00  0.00     0.000 A 
ENDBRANCH  62  75
ENDBRANCH  36  37
ENDBRANCH  29  31
ENDBRANCH  28  29
ENDBRANCH  27  28
ENDBRANCH   1  27
TORSDOF 16
ENDMDL
MODEL 2
REMARK VINA RESULT:     -11.3      2.671      8.353
REMARK SMILES Cc1ccccc1OCCN1C(=O)CC[C@H](C(=O)OCCOC(=O)c2ccc(-c3c4nc(c(-c5ccccc5)c5ccc([nH]5)c(-c5ccccc5)c5nc(c(-c6ccccc6)c6ccc3[nH]6)C=C5)C=C4)cc2)[C@@H]1c1ccco1
REMARK SMILES IDX 20 1 19 2 17 3 18 4 16 5 11 6 12 7 73 8 13 9 14 10 15 11
REMARK SMILES IDX 10 12 9 13 8 14 7 15 1 16 2 17 3 18 4 19 6 20 5 21 74 22
REMARK SMILES IDX 75 23 78 24 76 25 77 26 21 27 22 28 23 29 24 30 25 31 26 32
REMARK SMILES IDX 72 33 27 34 71 35 28 36 29 37 30 38 65 39 31 40 70 41 64 42
REMARK SMILES IDX 66 43 32 44 69 45 63 46 62 47 33 49 55 50 40 51 54 52 41 53
REMARK SMILES IDX 44 54 53 55 67 56 42 57 43 58 52 60 68 61 45 62 34 63 35 64
REMARK SMILES IDX 39 65 36 66 38 67 37 68 56 69 57 70 61 71 58 72 60 73 59 74
REMARK SMILES IDX 46 75 47 76 51 77 48 78 50 79 49 80
REMARK H PARENT 66 48 44 59
REMARK Flexibility Score: inf
ROOT
ATOM      1  C   UNL A   1      34.222  29.116  26.224  1.00  0.00     0.274 C 
ENDROOT
BRANCH   1   2
ATOM      2  O   UNL A   1      33.092  28.511  25.578  1.00  0.00    -0.462 OA
BRANCH   2   3
ATOM      3  C   UNL A   1      33.417  27.539  24.686  1.00  0.00     0.311 C 
ATOM      4  O   UNL A   1      34.063  27.753  23.670  1.00  0.00    -0.252 OA
BRANCH   3   5
ATOM      5  C   UNL A   1      32.972  26.154  25.075  1.00  0.00     0.130 C 
ATOM      6  N   UNL A   1      31.666  24.178  24.306  1.00  0.00    -0.328 N 
ATOM      7  C   UNL A   1      31.242  23.863  25.590  1.00  0.00     0.223 C 
ATOM      8  C   UNL A   1      32.080  25.550  23.968  1.00  0.00     0.166 C 
ATOM      9  O   UNL A   1      30.532  22.889  25.841  1.00  0.00    -0.275 OA
ATOM     10  C   UNL A   1      31.812  24.692  26.728  1.00  0.00     0.101 C 
ATOM     11  C   UNL A   1      32.230  26.112  26.399  1.00  0.00     0.028 C 
BRANCH   6  12
ATOM     12  C   UNL A   1      31.321  23.254  23.213  1.00  0.00     0.162 C 
BRANCH  12  13
ATOM     13  C   UNL A   1      32.419  22.262  22.784  1.00  0.00     0.251 C 
BRANCH  13  14
ATOM     14  O   UNL A   1      33.135  21.607  23.828  1.00  0.00    -0.491 OA
BRANCH  14  15
ATOM     15  C   UNL A   1      34.252  22.186  24.361  1.00  0.00     0.122 A 
ATOM     16  C   UNL A   1      33.878  21.590  26.829  1.00  0.00     0.048 C 
ATOM     17  C   UNL A   1      34.668  22.181  25.700  1.00  0.00    -0.009 A 
ATOM     18  C   UNL A   1      35.891  22.803  26.029  1.00  0.00     0.007 A 
ATOM     19  C   UNL A   1      36.641  23.485  25.070  1.00  0.00     0.001 A 
ATOM     20  C   UNL A   1      34.992  22.917  23.417  1.00  0.00     0.047 A 
ATOM     21  C   UNL A   1      36.179  23.561  23.764  1.00  0.00     0.004 A 
ENDBRANCH  14  15
ENDBRANCH  13  14
ENDBRANCH  12  13
ENDBRANCH   6  12
BRANCH   8  22
ATOM     22  C   UNL A   1      30.839  26.390  23.637  1.00  0.00     0.127 A 
ATOM     23  C   UNL A   1      29.526  26.406  24.086  1.00  0.00     0.048 A 
ATOM     24  O   UNL A   1      30.990  27.411  22.735  1.00  0.00    -0.467 OA
ATOM     25  C   UNL A   1      28.870  27.487  23.459  1.00  0.00     0.042 A 
ATOM     26  C   UNL A   1      29.806  28.063  22.642  1.00  0.00     0.195 A 
ENDBRANCH   8  22
ENDBRANCH   3   5
ENDBRANCH   2   3
ENDBRANCH   1   2
BRANCH   1  27
ATOM     27  C   UNL A   1      33.835  30.138  27.295  1.00  0.00     0.275 C 
BRANCH  27  28
ATOM     28  O   UNL A   1      34.839  31.053  27.818  1.00  0.00    -0.458 OA
BRANCH  28  29
ATOM     29  C   UNL A   1      35.684  30.932  28.868  1.00  0.00     0.338 C 
ATOM     30  O   UNL A   1      35.510  31.573  29.900  1.00  0.00    -0.246 OA
BRANCH  29  31
ATOM     31  C   UNL A   1      36.834  30.012  28.765  1.00  0.00     0.060 A 
ATOM     32  C   UNL A   1      37.603  29.995  27.583  1.00  0.00     0.016 A 
ATOM     33  C   UNL A   1      37.200  29.229  29.848  1.00  0.00     0.016 A 
ATOM     34  C   UNL A   1      38.824  29.306  27.544  1.00  0.00     0.010 A 
ATOM     35  C   UNL A   1      38.449  28.643  29.846  1.00  0.00     0.010 A 
ATOM     36  C   UNL A   1      39.274  28.672  28.703  1.00  0.00    -0.014 A 
BRANCH  36  37
ATOM     37  C   UNL A   1      40.518  27.906  28.829  1.00  0.00     0.031 A 
ATOM     38  C   UNL A   1      40.661  26.454  28.579  1.00  0.00     0.074 A 
ATOM     39  C   UNL A   1      41.594  28.669  29.114  1.00  0.00     0.049 A 
ATOM     40  N   UNL A   1      41.740  25.782  28.786  1.00  0.00    -0.248 NA
ATOM     41  C   UNL A   1      39.595  25.603  28.077  1.00  0.00     0.031 C 
ATOM     42  C   UNL A   1      43.013  28.357  29.128  1.00  0.00     0.029 A 
ATOM     43  N   UNL A   1      41.517  29.924  29.731  1.00  0.00    -0.354 N 
ATOM     44  C   UNL A   1      41.594  24.517  28.251  1.00  0.00     0.074 A 
ATOM     45  C   UNL A   1      40.222  24.444  27.831  1.00  0.00     0.031 C 
ATOM     46  C   UNL A   1      43.613  29.190  30.000  1.00  0.00     0.029 A 
ATOM     47  C   UNL A   1      42.553  29.942  30.665  1.00  0.00     0.049 A 
ATOM     48  H   UNL A   1      40.869  30.641  29.544  1.00  0.00     0.167 HD
ATOM     49  C   UNL A   1      42.697  23.723  28.166  1.00  0.00     0.031 A 
ATOM     50  C   UNL A   1      42.224  29.845  31.987  1.00  0.00     0.031 A 
ATOM     51  C   UNL A   1      43.756  24.264  29.009  1.00  0.00     0.049 A 
ATOM     52  C   UNL A   1      42.836  28.618  32.618  1.00  0.00     0.074 A 
ATOM     53  C   UNL A   1      44.855  25.067  28.763  1.00  0.00     0.029 A 
ATOM     54  N   UNL A   1      43.527  24.302  30.378  1.00  0.00    -0.354 N 
ATOM     55  N   UNL A   1      43.040  27.484  32.002  1.00  0.00    -0.248 NA
ATOM     56  C   UNL A   1      43.336  28.623  33.985  1.00  0.00     0.031 C 
ATOM     57  C   UNL A   1      45.204  25.693  29.992  1.00  0.00     0.029 A 
ATOM     58  C   UNL A   1      44.347  25.230  30.979  1.00  0.00     0.049 A 
ATOM     59  H   UNL A   1      42.869  23.743  30.853  1.00  0.00     0.167 HD
ATOM     60  C   UNL A   1      43.775  26.660  32.819  1.00  0.00     0.074 A 
ATOM     61  C   UNL A   1      43.906  27.409  34.057  1.00  0.00     0.031 C 
ATOM     62  C   UNL A   1      44.266  25.451  32.416  1.00  0.00     0.031 A 
BRANCH  49  63
ATOM     63  C   UNL A   1      42.907  22.572  27.212  1.00  0.00    -0.014 A 
ATOM     64  C   UNL A   1      42.058  21.448  27.318  1.00  0.00     0.009 A 
ATOM     65  C   UNL A   1      43.936  22.474  26.265  1.00  0.00     0.009 A 
ATOM     66  C   UNL A   1      42.254  20.280  26.567  1.00  0.00     0.001 A 
ATOM     67  C   UNL A   1      44.141  21.305  25.508  1.00  0.00     0.001 A 
ATOM     68  C   UNL A   1      43.306  20.205  25.668  1.00  0.00     0.000 A 
ENDBRANCH  49  63
BRANCH  50  69
ATOM     69  C   UNL A   1      40.887  30.436  32.342  1.00  0.00    -0.014 A 
ATOM     70  C   UNL A   1      39.894  29.581  32.882  1.00  0.00     0.009 A 
ATOM     71  C   UNL A   1      40.673  31.818  32.440  1.00  0.00     0.009 A 
ATOM     72  C   UNL A   1      38.799  30.085  33.592  1.00  0.00     0.001 A 
ATOM     73  C   UNL A   1      39.553  32.322  33.126  1.00  0.00     0.001 A 
ATOM     74  C   UNL A   1      38.637  31.458  33.728  1.00  0.00     0.000 A 
ENDBRANCH  50  69
BRANCH  62  75
ATOM     75  C   UNL A   1      44.797  24.359  33.321  1.00  0.00    -0.014 A 
ATOM     76  C   UNL A   1      44.071  23.227  33.709  1.00  0.00     0.009 A 
ATOM     77  C   UNL A   1      46.161  24.385  33.701  1.00  0.00     0.009 A 
ATOM     78  C   UNL A   1      44.653  22.208  34.475  1.00  0.00     0.001 A 
ATOM     79  C   UNL A   1      46.763  23.345  34.412  1.00  0.00     0.001 A 
ATOM     80  C   UNL A   1      46.000  22.260  34.814  1.00  0.00     0.000 A 
ENDBRANCH  62  75
ENDBRANCH  36  37
ENDBRANCH  29  31
ENDBRANCH  28  29
ENDBRANCH  27  28
ENDBRANCH   1  27
TORSDOF 16
ENDMDL
MODEL 3
REMARK VINA RESULT:     -11.3      1.581      2.509
REMARK SMILES Cc1ccccc1OCCN1C(=O)CC[C@H](C(=O)OCCOC(=O)c2ccc(-c3c4nc(c(-c5ccccc5)c5ccc([nH]5)c(-c5ccccc5)c5nc(c(-c6ccccc6)c6ccc3[nH]6)C=C5)C=C4)cc2)[C@@H]1c1ccco1
REMARK SMILES IDX 20 1 19 2 17 3 18 4 16 5 11 6 12 7 73 8 13 9 14 10 15 11
REMARK SMILES IDX 10 12 9 13 8 14 7 15 1 16 2 17 3 18 4 19 6 20 5 21 74 22
REMARK SMILES IDX 75 23 78 24 76 25 77 26 21 27 22 28 23 29 24 30 25 31 26 32
REMARK SMILES IDX 72 33 27 34 71 35 28 36 29 37 30 38 65 39 31 40 70 41 64 42
REMARK SMILES IDX 66 43 32 44 69 45 63 46 62 47 33 49 55 50 40 51 54 52 41 53
REMARK SMILES IDX 44 54 53 55 67 56 42 57 43 58 52 60 68 61 45 62 34 63 35 64
REMARK SMILES IDX 39 65 36 66 38 67 37 68 56 69 57 70 61 71 58 72 60 73 59 74
REMARK SMILES IDX 46 75 47 76 51 77 48 78 50 79 49 80
REMARK H PARENT 66 48 44 59
REMARK Flexibility Score: inf
ROOT
ATOM      1  C   UNL A   1      37.921  21.276  25.135  1.00  0.00     0.274 C 
ENDROOT
BRANCH   1   2
ATOM      2  O   UNL A   1      36.633  21.432  24.521  1.00  0.00    -0.462 OA
BRANCH   2   3
ATOM      3  C   UNL A   1      35.646  21.790  25.383  1.00  0.00     0.311 C 
ATOM      4  O   UNL A   1      35.579  21.376  26.532  1.00  0.00    -0.252 OA
BRANCH   3   5
ATOM      5  C   UNL A   1      34.666  22.794  24.836  1.00  0.00     0.130 C 
ATOM      6  N   UNL A   1      32.240  23.288  24.569  1.00  0.00    -0.328 N 
ATOM      7  C   UNL A   1      32.426  23.924  23.349  1.00  0.00     0.223 C 
ATOM      8  C   UNL A   1      33.220  22.303  25.058  1.00  0.00     0.166 C 
ATOM      9  O   UNL A   1      31.503  24.432  22.711  1.00  0.00    -0.275 OA
ATOM     10  C   UNL A   1      33.858  24.110  22.878  1.00  0.00     0.101 C 
ATOM     11  C   UNL A   1      34.875  23.095  23.362  1.00  0.00     0.028 C 
BRANCH   6  12
ATOM     12  C   UNL A   1      30.893  23.301  25.162  1.00  0.00     0.162 C 
BRANCH  12  13
ATOM     13  C   UNL A   1      30.741  24.050  26.500  1.00  0.00     0.251 C 
BRANCH  13  14
ATOM     14  O   UNL A   1      30.018  25.278  26.469  1.00  0.00    -0.491 OA
BRANCH  14  15
ATOM     15  C   UNL A   1      30.272  26.199  25.492  1.00  0.00     0.122 A 
ATOM     16  C   UNL A   1      32.508  27.106  26.363  1.00  0.00     0.048 C 
ATOM     17  C   UNL A   1      31.396  27.029  25.362  1.00  0.00    -0.009 A 
ATOM     18  C   UNL A   1      31.480  27.879  24.241  1.00  0.00     0.007 A 
ATOM     19  C   UNL A   1      30.441  27.967  23.315  1.00  0.00     0.001 A 
ATOM     20  C   UNL A   1      29.212  26.335  24.580  1.00  0.00     0.047 A 
ATOM     21  C   UNL A   1      29.293  27.209  23.496  1.00  0.00     0.004 A 
ENDBRANCH  14  15
ENDBRANCH  13  14
ENDBRANCH  12  13
ENDBRANCH   6  12
BRANCH   8  22
ATOM     22  C   UNL A   1      32.921  20.934  24.433  1.00  0.00     0.127 A 
ATOM     23  C   UNL A   1      32.967  19.624  24.889  1.00  0.00     0.048 A 
ATOM     24  O   UNL A   1      32.450  20.917  23.146  1.00  0.00    -0.467 OA
ATOM     25  C   UNL A   1      32.482  18.792  23.857  1.00  0.00     0.042 A 
ATOM     26  C   UNL A   1      32.185  19.630  22.816  1.00  0.00     0.195 A 
ENDBRANCH   8  22
ENDBRANCH   3   5
ENDBRANCH   2   3
ENDBRANCH   1   2
BRANCH   1  27
ATOM     27  C   UNL A   1      38.489  19.861  25.006  1.00  0.00     0.275 C 
BRANCH  27  28
ATOM     28  O   UNL A   1      39.457  19.378  25.980  1.00  0.00    -0.458 OA
BRANCH  28  29
ATOM     29  C   UNL A   1      40.786  19.605  26.093  1.00  0.00     0.338 C 
ATOM     30  O   UNL A   1      41.606  18.756  25.757  1.00  0.00    -0.246 OA
BRANCH  29  31
ATOM     31  C   UNL A   1      41.252  20.898  26.631  1.00  0.00     0.060 A 
ATOM     32  C   UNL A   1      41.595  21.936  25.741  1.00  0.00     0.016 A 
ATOM     33  C   UNL A   1      41.279  21.115  28.001  1.00  0.00     0.016 A 
ATOM     34  C   UNL A   1      41.820  23.234  26.220  1.00  0.00     0.010 A 
ATOM     35  C   UNL A   1      41.391  22.411  28.460  1.00  0.00     0.010 A 
ATOM     36  C   UNL A   1      41.661  23.482  27.584  1.00  0.00    -0.014 A 
BRANCH  36  37
ATOM     37  C   UNL A   1      41.865  24.776  28.246  1.00  0.00     0.031 A 
ATOM     38  C   UNL A   1      40.856  25.854  28.349  1.00  0.00     0.074 A 
ATOM     39  C   UNL A   1      43.062  24.884  28.861  1.00  0.00     0.049 A 
ATOM     40  N   UNL A   1      41.084  27.018  28.851  1.00  0.00    -0.248 NA
ATOM     41  C   UNL A   1      39.484  25.736  27.888  1.00  0.00     0.031 C 
ATOM     42  C   UNL A   1      43.580  25.885  29.776  1.00  0.00     0.029 A 
ATOM     43  N   UNL A   1      44.187  24.127  28.512  1.00  0.00    -0.354 N 
ATOM     44  C   UNL A   1      39.888  27.694  28.987  1.00  0.00     0.074 A 
ATOM     45  C   UNL A   1      38.910  26.855  28.352  1.00  0.00     0.031 C 
ATOM     46  C   UNL A   1      44.921  25.907  29.651  1.00  0.00     0.029 A 
ATOM     47  C   UNL A   1      45.257  25.021  28.540  1.00  0.00     0.049 A 
ATOM     48  H   UNL A   1      44.216  23.168  28.294  1.00  0.00     0.167 HD
ATOM     49  C   UNL A   1      39.881  28.853  29.702  1.00  0.00     0.031 A 
ATOM     50  C   UNL A   1      45.792  25.416  27.347  1.00  0.00     0.031 A 
ATOM     51  C   UNL A   1      41.247  29.330  29.874  1.00  0.00     0.049 A 
ATOM     52  C   UNL A   1      45.672  26.909  27.158  1.00  0.00     0.074 A 
ATOM     53  C   UNL A   1      42.174  29.220  30.895  1.00  0.00     0.029 A 
ATOM     54  N   UNL A   1      41.946  29.695  28.731  1.00  0.00    -0.354 N 
ATOM     55  N   UNL A   1      44.689  27.642  27.607  1.00  0.00    -0.248 NA
ATOM     56  C   UNL A   1      46.715  27.689  26.506  1.00  0.00     0.031 C 
ATOM     57  C   UNL A   1      43.462  29.398  30.316  1.00  0.00     0.029 A 
ATOM     58  C   UNL A   1      43.303  29.661  28.964  1.00  0.00     0.049 A 
ATOM     59  H   UNL A   1      41.529  29.943  27.874  1.00  0.00     0.167 HD
ATOM     60  C   UNL A   1      44.999  28.967  27.414  1.00  0.00     0.074 A 
ATOM     61  C   UNL A   1      46.261  28.939  26.695  1.00  0.00     0.031 C 
ATOM     62  C   UNL A   1      44.233  29.992  27.894  1.00  0.00     0.031 A 
BRANCH  49  63
ATOM     63  C   UNL A   1      38.694  29.474  30.398  1.00  0.00    -0.014 A 
ATOM     64  C   UNL A   1      38.672  29.482  31.810  1.00  0.00     0.009 A 
ATOM     65  C   UNL A   1      37.549  29.980  29.765  1.00  0.00     0.009 A 
ATOM     66  C   UNL A   1      37.559  29.917  32.546  1.00  0.00     0.001 A 
ATOM     67  C   UNL A   1      36.428  30.416  30.496  1.00  0.00     0.001 A 
ATOM     68  C   UNL A   1      36.430  30.374  31.885  1.00  0.00     0.000 A 
ENDBRANCH  49  63
BRANCH  50  69
ATOM     69  C   UNL A   1      45.706  24.387  26.254  1.00  0.00    -0.014 A 
ATOM     70  C   UNL A   1      46.061  23.050  26.557  1.00  0.00     0.009 A 
ATOM     71  C   UNL A   1      45.024  24.618  25.051  1.00  0.00     0.009 A 
ATOM     72  C   UNL A   1      45.649  21.980  25.754  1.00  0.00     0.001 A 
ATOM     73  C   UNL A   1      44.639  23.542  24.229  1.00  0.00     0.001 A 
ATOM     74  C   UNL A   1      44.923  22.226  24.596  1.00  0.00     0.000 A 
ENDBRANCH  50  69
BRANCH  62  75
ATOM     75  C   UNL A   1      44.318  31.442  27.467  1.00  0.00    -0.014 A 
ATOM     76  C   UNL A   1      44.152  31.894  26.153  1.00  0.00     0.009 A 
ATOM     77  C   UNL A   1      44.431  32.445  28.461  1.00  0.00     0.009 A 
ATOM     78  C   UNL A   1      44.153  33.259  25.839  1.00  0.00     0.001 A 
ATOM     79  C   UNL A   1      44.371  33.808  28.162  1.00  0.00     0.001 A 
ATOM     80  C   UNL A   1      44.248  34.215  26.844  1.00  0.00     0.000 A 
ENDBRANCH  62  75
ENDBRANCH  36  37
ENDBRANCH  29  31
ENDBRANCH  28  29
ENDBRANCH  27  28
ENDBRANCH   1  27
TORSDOF 16
ENDMDL
