MODEL 1
REMARK VINA RESULT:      -9.6      0.000      0.000
REMARK SMILES O=C(OCCOC(=O)[C@@H]1CCc2[nH]ncc2C1)c1ccc(-c2c3nc(c(-c4ccccc4)c4ccc([nH]4)c(-c4ccccc4)c4nc(c(-c5ccccc5)c5ccc2[nH]5)C=C4)C=C3)cc1
REMARK SMILES IDX 4 1 3 2 2 3 1 4 18 5 19 6 65 7 20 8 64 9 21 10 22 11 23 12
REMARK SMILES IDX 58 13 24 14 63 15 57 16 59 17 25 18 62 19 56 20 55 21 26 23
REMARK SMILES IDX 48 24 33 25 47 26 34 27 37 28 46 29 60 30 35 31 36 32 45 34
REMARK SMILES IDX 61 35 38 36 27 37 28 38 32 39 29 40 31 41 30 42 49 43 50 44
REMARK SMILES IDX 54 45 51 46 53 47 52 48 39 49 40 50 44 51 41 52 43 53 42 54
REMARK SMILES IDX 5 55 6 56 7 57 8 58 9 59 10 60 17 61 11 62 16 63 12 64 15 65
REMARK SMILES IDX 13 66 14 67
REMARK H PARENT 59 22 37 33 13 68
REMARK Flexibility Score: inf
ROOT
ATOM      1  C   UNL A   1      44.145  19.079  25.229  1.00  0.00     0.275 C 
ENDROOT
BRANCH   1   2
ATOM      2  O   UNL A   1      42.726  19.153  25.013  1.00  0.00    -0.458 OA
BRANCH   2   3
ATOM      3  C   UNL A   1      41.743  19.653  25.794  1.00  0.00     0.338 C 
ATOM      4  O   UNL A   1      40.650  19.086  25.784  1.00  0.00    -0.246 OA
BRANCH   3   5
ATOM      5  C   UNL A   1      41.845  20.929  26.578  1.00  0.00     0.060 A 
ATOM      6  C   UNL A   1      42.036  21.060  27.953  1.00  0.00     0.016 A 
ATOM      7  C   UNL A   1      41.783  22.116  25.821  1.00  0.00     0.016 A 
ATOM      8  C   UNL A   1      42.266  22.310  28.540  1.00  0.00     0.010 A 
ATOM      9  C   UNL A   1      42.044  23.362  26.398  1.00  0.00     0.010 A 
ATOM     10  C   UNL A   1      42.307  23.469  27.765  1.00  0.00    -0.014 A 
BRANCH  10  11
ATOM     11  C   UNL A   1      42.505  24.781  28.429  1.00  0.00     0.031 A 
ATOM     12  C   UNL A   1      43.891  25.164  28.863  1.00  0.00     0.074 A 
ATOM     13  C   UNL A   1      41.481  25.647  28.567  1.00  0.00     0.049 A 
ATOM     14  N   UNL A   1      44.321  26.304  29.335  1.00  0.00    -0.248 NA
ATOM     15  C   UNL A   1      44.930  24.125  28.760  1.00  0.00     0.031 C 
ATOM     16  C   UNL A   1      40.087  25.382  28.206  1.00  0.00     0.029 A 
ATOM     17  N   UNL A   1      41.457  26.945  29.019  1.00  0.00    -0.354 N 
ATOM     18  C   UNL A   1      45.679  26.121  29.561  1.00  0.00     0.074 A 
ATOM     19  C   UNL A   1      45.981  24.739  29.276  1.00  0.00     0.031 C 
ATOM     20  C   UNL A   1      39.353  26.488  28.413  1.00  0.00     0.029 A 
ATOM     21  C   UNL A   1      40.219  27.542  28.927  1.00  0.00     0.049 A 
ATOM     22  H   UNL A   1      42.251  27.404  29.375  1.00  0.00     0.167 HD
ATOM     23  C   UNL A   1      46.610  27.032  29.919  1.00  0.00     0.031 A 
ATOM     24  C   UNL A   1      39.836  28.804  29.206  1.00  0.00     0.031 A 
ATOM     25  C   UNL A   1      46.313  28.403  30.209  1.00  0.00     0.049 A 
ATOM     26  C   UNL A   1      40.886  29.787  29.660  1.00  0.00     0.074 A 
ATOM     27  C   UNL A   1      47.173  29.410  30.605  1.00  0.00     0.029 A 
ATOM     28  N   UNL A   1      45.045  28.959  30.132  1.00  0.00    -0.354 N 
ATOM     29  N   UNL A   1      42.179  29.611  29.802  1.00  0.00    -0.248 NA
ATOM     30  C   UNL A   1      40.429  31.150  29.966  1.00  0.00     0.031 C 
ATOM     31  C   UNL A   1      46.416  30.568  30.807  1.00  0.00     0.029 A 
ATOM     32  C   UNL A   1      45.095  30.295  30.483  1.00  0.00     0.049 A 
ATOM     33  H   UNL A   1      44.231  28.474  29.865  1.00  0.00     0.167 HD
ATOM     34  C   UNL A   1      42.690  30.844  30.188  1.00  0.00     0.074 A 
ATOM     35  C   UNL A   1      41.573  31.766  30.224  1.00  0.00     0.031 C 
ATOM     36  C   UNL A   1      43.965  31.187  30.497  1.00  0.00     0.031 A 
BRANCH  23  37
ATOM     37  C   UNL A   1      48.026  26.541  30.000  1.00  0.00    -0.014 A 
ATOM     38  C   UNL A   1      48.541  26.037  31.208  1.00  0.00     0.009 A 
ATOM     39  C   UNL A   1      48.871  26.635  28.886  1.00  0.00     0.009 A 
ATOM     40  C   UNL A   1      49.888  25.689  31.312  1.00  0.00     0.001 A 
ATOM     41  C   UNL A   1      50.211  26.257  28.985  1.00  0.00     0.001 A 
ATOM     42  C   UNL A   1      50.722  25.799  30.201  1.00  0.00     0.000 A 
ENDBRANCH  23  37
BRANCH  24  43
ATOM     43  C   UNL A   1      38.415  29.234  29.058  1.00  0.00    -0.014 A 
ATOM     44  C   UNL A   1      37.931  29.727  27.834  1.00  0.00     0.009 A 
ATOM     45  C   UNL A   1      37.551  29.224  30.164  1.00  0.00     0.009 A 
ATOM     46  C   UNL A   1      36.637  30.249  27.737  1.00  0.00     0.001 A 
ATOM     47  C   UNL A   1      36.247  29.717  30.056  1.00  0.00     0.001 A 
ATOM     48  C   UNL A   1      35.797  30.245  28.848  1.00  0.00     0.000 A 
ENDBRANCH  24  43
BRANCH  36  49
ATOM     49  C   UNL A   1      44.219  32.621  30.863  1.00  0.00    -0.014 A 
ATOM     50  C   UNL A   1      44.153  33.054  32.196  1.00  0.00     0.009 A 
ATOM     51  C   UNL A   1      44.578  33.539  29.864  1.00  0.00     0.009 A 
ATOM     52  C   UNL A   1      44.406  34.390  32.516  1.00  0.00     0.001 A 
ATOM     53  C   UNL A   1      44.864  34.864  30.191  1.00  0.00     0.001 A 
ATOM     54  C   UNL A   1      44.767  35.290  31.514  1.00  0.00     0.000 A 
ENDBRANCH  36  49
ENDBRANCH  10  11
ENDBRANCH   3   5
ENDBRANCH   2   3
ENDBRANCH   1   2
BRANCH   1  55
ATOM     55  C   UNL A   1      44.959  19.943  24.264  1.00  0.00     0.274 C 
BRANCH  55  56
ATOM     56  O   UNL A   1      45.170  21.279  24.751  1.00  0.00    -0.462 OA
BRANCH  56  57
ATOM     57  C   UNL A   1      44.867  22.311  23.904  1.00  0.00     0.309 C 
ATOM     58  O   UNL A   1      44.203  22.217  22.886  1.00  0.00    -0.252 OA
BRANCH  57  59
ATOM     59  C   UNL A   1      45.489  23.593  24.415  1.00  0.00     0.104 C 
ATOM     60  C   UNL A   1      46.470  23.354  25.586  1.00  0.00     0.022 C 
ATOM     61  C   UNL A   1      44.411  24.614  24.844  1.00  0.00     0.054 C 
ATOM     62  C   UNL A   1      47.296  24.631  25.871  1.00  0.00     0.057 C 
ATOM     63  C   UNL A   1      45.091  25.825  25.388  1.00  0.00    -0.006 A 
ATOM     64  C   UNL A   1      46.392  25.804  25.843  1.00  0.00     0.038 A 
ATOM     65  C   UNL A   1      44.686  27.157  25.566  1.00  0.00     0.138 A 
ATOM     66  N   UNL A   1      46.715  27.085  26.169  1.00  0.00    -0.282 N 
ATOM     67  N   UNL A   1      45.674  27.930  26.034  1.00  0.00    -0.184 NA
ATOM     68  H   UNL A   1      47.610  27.364  26.470  1.00  0.00     0.190 HD
ENDBRANCH  57  59
ENDBRANCH  56  57
ENDBRANCH  55  56
ENDBRANCH   1  55
TORSDOF 11
ENDMDL
MODEL 2
REMARK VINA RESULT:      -8.9      2.819      7.811
REMARK SMILES O=C(OCCOC(=O)[C@@H]1CCc2[nH]ncc2C1)c1ccc(-c2c3nc(c(-c4ccccc4)c4ccc([nH]4)c(-c4ccccc4)c4nc(c(-c5ccccc5)c5ccc2[nH]5)C=C4)C=C3)cc1
REMARK SMILES IDX 4 1 3 2 2 3 1 4 18 5 19 6 65 7 20 8 64 9 21 10 22 11 23 12
REMARK SMILES IDX 58 13 24 14 63 15 57 16 59 17 25 18 62 19 56 20 55 21 26 23
REMARK SMILES IDX 48 24 33 25 47 26 34 27 37 28 46 29 60 30 35 31 36 32 45 34
REMARK SMILES IDX 61 35 38 36 27 37 28 38 32 39 29 40 31 41 30 42 49 43 50 44
REMARK SMILES IDX 54 45 51 46 53 47 52 48 39 49 40 50 44 51 41 52 43 53 42 54
REMARK SMILES IDX 5 55 6 56 7 57 8 58 9 59 10 60 17 61 11 62 16 63 12 64 15 65
REMARK SMILES IDX 13 66 14 67
REMARK H PARENT 59 22 37 33 13 68
REMARK Flexibility Score: inf
ROOT
ATOM      1  C   UNL A   1      42.936  18.366  25.780  1.00  0.00     0.275 C 
ENDROOT
BRANCH   1   2
ATOM      2  O   UNL A   1      43.467  18.935  24.572  1.00  0.00    -0.458 OA
BRANCH   2   3
ATOM      3  C   UNL A   1      44.656  19.531  24.329  1.00  0.00     0.338 C 
ATOM      4  O   UNL A   1      45.608  18.817  24.013  1.00  0.00    -0.246 OA
BRANCH   3   5
ATOM      5  C   UNL A   1      44.937  20.990  24.544  1.00  0.00     0.060 A 
ATOM      6  C   UNL A   1      44.660  22.038  23.667  1.00  0.00     0.016 A 
ATOM      7  C   UNL A   1      45.501  21.325  25.790  1.00  0.00     0.016 A 
ATOM      8  C   UNL A   1      44.833  23.373  24.051  1.00  0.00     0.010 A 
ATOM      9  C   UNL A   1      45.646  22.657  26.189  1.00  0.00     0.010 A 
ATOM     10  C   UNL A   1      45.295  23.698  25.327  1.00  0.00    -0.014 A 
BRANCH  10  11
ATOM     11  C   UNL A   1      45.511  25.122  25.682  1.00  0.00     0.031 A 
ATOM     12  C   UNL A   1      44.356  25.910  26.227  1.00  0.00     0.074 A 
ATOM     13  C   UNL A   1      46.738  25.676  25.595  1.00  0.00     0.049 A 
ATOM     14  N   UNL A   1      44.344  27.118  26.727  1.00  0.00    -0.248 NA
ATOM     15  C   UNL A   1      43.035  25.257  26.201  1.00  0.00     0.031 C 
ATOM     16  C   UNL A   1      47.933  25.021  25.060  1.00  0.00     0.029 A 
ATOM     17  N   UNL A   1      47.195  26.912  25.987  1.00  0.00    -0.354 N 
ATOM     18  C   UNL A   1      43.026  27.354  27.091  1.00  0.00     0.074 A 
ATOM     19  C   UNL A   1      42.249  26.214  26.664  1.00  0.00     0.031 C 
ATOM     20  C   UNL A   1      48.989  25.840  25.191  1.00  0.00     0.029 A 
ATOM     21  C   UNL A   1      48.551  27.083  25.813  1.00  0.00     0.049 A 
ATOM     22  H   UNL A   1      46.607  27.609  26.357  1.00  0.00     0.167 HD
ATOM     23  C   UNL A   1      42.507  28.399  27.773  1.00  0.00     0.031 A 
ATOM     24  C   UNL A   1      49.348  28.119  26.142  1.00  0.00     0.031 A 
ATOM     25  C   UNL A   1      43.273  29.534  28.193  1.00  0.00     0.049 A 
ATOM     26  C   UNL A   1      48.733  29.300  26.851  1.00  0.00     0.074 A 
ATOM     27  C   UNL A   1      42.848  30.663  28.869  1.00  0.00     0.029 A 
ATOM     28  N   UNL A   1      44.634  29.681  27.972  1.00  0.00    -0.354 N 
ATOM     29  N   UNL A   1      47.494  29.474  27.248  1.00  0.00    -0.248 NA
ATOM     30  C   UNL A   1      49.631  30.415  27.181  1.00  0.00     0.031 C 
ATOM     31  C   UNL A   1      43.948  31.513  29.022  1.00  0.00     0.029 A 
ATOM     32  C   UNL A   1      45.066  30.888  28.490  1.00  0.00     0.049 A 
ATOM     33  H   UNL A   1      45.207  29.023  27.516  1.00  0.00     0.167 HD
ATOM     34  C   UNL A   1      47.472  30.703  27.895  1.00  0.00     0.074 A 
ATOM     35  C   UNL A   1      48.827  31.213  27.868  1.00  0.00     0.031 C 
ATOM     36  C   UNL A   1      46.426  31.360  28.455  1.00  0.00     0.031 A 
BRANCH  23  37
ATOM     37  C   UNL A   1      41.043  28.324  28.094  1.00  0.00    -0.014 A 
ATOM     38  C   UNL A   1      40.095  28.953  27.267  1.00  0.00     0.009 A 
ATOM     39  C   UNL A   1      40.608  27.676  29.259  1.00  0.00     0.009 A 
ATOM     40  C   UNL A   1      38.748  28.981  27.629  1.00  0.00     0.001 A 
ATOM     41  C   UNL A   1      39.255  27.680  29.602  1.00  0.00     0.001 A 
ATOM     42  C   UNL A   1      38.329  28.344  28.796  1.00  0.00     0.000 A 
ENDBRANCH  23  37
BRANCH  24  43
ATOM     43  C   UNL A   1      50.807  28.104  25.830  1.00  0.00    -0.014 A 
ATOM     44  C   UNL A   1      51.744  27.649  26.774  1.00  0.00     0.009 A 
ATOM     45  C   UNL A   1      51.279  28.615  24.611  1.00  0.00     0.009 A 
ATOM     46  C   UNL A   1      53.117  27.759  26.526  1.00  0.00     0.001 A 
ATOM     47  C   UNL A   1      52.651  28.694  24.353  1.00  0.00     0.001 A 
ATOM     48  C   UNL A   1      53.568  28.282  25.317  1.00  0.00     0.000 A 
ENDBRANCH  24  43
BRANCH  36  49
ATOM     49  C   UNL A   1      46.718  32.680  29.109  1.00  0.00    -0.014 A 
ATOM     50  C   UNL A   1      46.624  33.883  28.394  1.00  0.00     0.009 A 
ATOM     51  C   UNL A   1      47.043  32.720  30.474  1.00  0.00     0.009 A 
ATOM     52  C   UNL A   1      46.886  35.100  29.027  1.00  0.00     0.001 A 
ATOM     53  C   UNL A   1      47.271  33.939  31.111  1.00  0.00     0.001 A 
ATOM     54  C   UNL A   1      47.203  35.127  30.384  1.00  0.00     0.000 A 
ENDBRANCH  36  49
ENDBRANCH  10  11
ENDBRANCH   3   5
ENDBRANCH   2   3
ENDBRANCH   1   2
BRANCH   1  55
ATOM     55  C   UNL A   1      42.320  19.399  26.726  1.00  0.00     0.274 C 
BRANCH  55  56
ATOM     56  O   UNL A   1      41.857  20.577  26.046  1.00  0.00    -0.462 OA
BRANCH  56  57
ATOM     57  C   UNL A   1      41.739  21.724  26.785  1.00  0.00     0.309 C 
ATOM     58  O   UNL A   1      42.523  22.095  27.641  1.00  0.00    -0.252 OA
BRANCH  57  59
ATOM     59  C   UNL A   1      40.479  22.461  26.387  1.00  0.00     0.104 C 
ATOM     60  C   UNL A   1      40.024  23.484  27.452  1.00  0.00     0.022 C 
ATOM     61  C   UNL A   1      39.322  21.482  26.082  1.00  0.00     0.054 C 
ATOM     62  C   UNL A   1      38.926  24.412  26.880  1.00  0.00     0.057 C 
ATOM     63  C   UNL A   1      38.101  22.274  25.753  1.00  0.00    -0.006 A 
ATOM     64  C   UNL A   1      37.950  23.592  26.125  1.00  0.00     0.038 A 
ATOM     65  C   UNL A   1      36.918  21.974  25.060  1.00  0.00     0.138 A 
ATOM     66  N   UNL A   1      36.779  24.022  25.581  1.00  0.00    -0.282 N 
ATOM     67  N   UNL A   1      36.113  23.038  24.946  1.00  0.00    -0.184 NA
ATOM     68  H   UNL A   1      36.453  24.949  25.645  1.00  0.00     0.190 HD
ENDBRANCH  57  59
ENDBRANCH  56  57
ENDBRANCH  55  56
ENDBRANCH   1  55
TORSDOF 11
ENDMDL
MODEL 3
REMARK VINA RESULT:      -8.8      5.367     10.889
REMARK SMILES O=C(OCCOC(=O)[C@@H]1CCc2[nH]ncc2C1)c1ccc(-c2c3nc(c(-c4ccccc4)c4ccc([nH]4)c(-c4ccccc4)c4nc(c(-c5ccccc5)c5ccc2[nH]5)C=C4)C=C3)cc1
REMARK SMILES IDX 4 1 3 2 2 3 1 4 18 5 19 6 65 7 20 8 64 9 21 10 22 11 23 12
REMARK SMILES IDX 58 13 24 14 63 15 57 16 59 17 25 18 62 19 56 20 55 21 26 23
REMARK SMILES IDX 48 24 33 25 47 26 34 27 37 28 46 29 60 30 35 31 36 32 45 34
REMARK SMILES IDX 61 35 38 36 27 37 28 38 32 39 29 40 31 41 30 42 49 43 50 44
REMARK SMILES IDX 54 45 51 46 53 47 52 48 39 49 40 50 44 51 41 52 43 53 42 54
REMARK SMILES IDX 5 55 6 56 7 57 8 58 9 59 10 60 17 61 11 62 16 63 12 64 15 65
REMARK SMILES IDX 13 66 14 67
REMARK H PARENT 59 22 37 33 13 68
REMARK Flexibility Score: inf
ROOT
ATOM      1  C   UNL A   1      34.200  34.101  28.349  1.00  0.00     0.275 C 
ENDROOT
BRANCH   1   2
ATOM      2  O   UNL A   1      33.758  32.734  28.397  1.00  0.00    -0.458 OA
BRANCH   2   3
ATOM      3  C   UNL A   1      34.352  31.603  27.954  1.00  0.00     0.338 C 
ATOM      4  O   UNL A   1      33.766  30.937  27.100  1.00  0.00    -0.246 OA
BRANCH   3   5
ATOM      5  C   UNL A   1      35.616  31.027  28.523  1.00  0.00     0.060 A 
ATOM      6  C   UNL A   1      35.756  29.827  29.220  1.00  0.00     0.016 A 
ATOM      7  C   UNL A   1      36.788  31.769  28.278  1.00  0.00     0.016 A 
ATOM      8  C   UNL A   1      37.018  29.329  29.564  1.00  0.00     0.010 A 
ATOM      9  C   UNL A   1      38.051  31.261  28.593  1.00  0.00     0.010 A 
ATOM     10  C   UNL A   1      38.180  30.023  29.225  1.00  0.00    -0.014 A 
BRANCH  10  11
ATOM     11  C   UNL A   1      39.496  29.488  29.651  1.00  0.00     0.031 A 
ATOM     12  C   UNL A   1      40.122  30.032  30.902  1.00  0.00     0.074 A 
ATOM     13  C   UNL A   1      40.082  28.477  28.977  1.00  0.00     0.049 A 
ATOM     14  N   UNL A   1      41.190  29.624  31.534  1.00  0.00    -0.248 NA
ATOM     15  C   UNL A   1      39.462  31.194  31.524  1.00  0.00     0.031 C 
ATOM     16  C   UNL A   1      39.585  27.880  27.735  1.00  0.00     0.029 A 
ATOM     17  N   UNL A   1      41.211  27.746  29.257  1.00  0.00    -0.354 N 
ATOM     18  C   UNL A   1      41.314  30.465  32.632  1.00  0.00     0.074 A 
ATOM     19  C   UNL A   1      40.278  31.466  32.528  1.00  0.00     0.031 C 
ATOM     20  C   UNL A   1      40.378  26.855  27.383  1.00  0.00     0.029 A 
ATOM     21  C   UNL A   1      41.446  26.722  28.366  1.00  0.00     0.049 A 
ATOM     22  H   UNL A   1      41.798  27.937  30.023  1.00  0.00     0.167 HD
ATOM     23  C   UNL A   1      42.172  30.383  33.672  1.00  0.00     0.031 A 
ATOM     24  C   UNL A   1      42.401  25.772  28.361  1.00  0.00     0.031 A 
ATOM     25  C   UNL A   1      43.205  29.396  33.777  1.00  0.00     0.049 A 
ATOM     26  C   UNL A   1      43.385  25.739  29.504  1.00  0.00     0.074 A 
ATOM     27  C   UNL A   1      44.149  29.233  34.773  1.00  0.00     0.029 A 
ATOM     28  N   UNL A   1      43.425  28.397  32.841  1.00  0.00    -0.354 N 
ATOM     29  N   UNL A   1      43.442  26.503  30.570  1.00  0.00    -0.248 NA
ATOM     30  C   UNL A   1      44.420  24.697  29.457  1.00  0.00     0.031 C 
ATOM     31  C   UNL A   1      44.968  28.157  34.418  1.00  0.00     0.029 A 
ATOM     32  C   UNL A   1      44.499  27.617  33.230  1.00  0.00     0.049 A 
ATOM     33  H   UNL A   1      42.895  28.262  32.022  1.00  0.00     0.167 HD
ATOM     34  C   UNL A   1      44.499  26.017  31.328  1.00  0.00     0.074 A 
ATOM     35  C   UNL A   1      45.032  24.873  30.619  1.00  0.00     0.031 C 
ATOM     36  C   UNL A   1      44.996  26.478  32.504  1.00  0.00     0.031 A 
BRANCH  23  37
ATOM     37  C   UNL A   1      41.999  31.402  34.761  1.00  0.00    -0.014 A 
ATOM     38  C   UNL A   1      42.744  32.595  34.752  1.00  0.00     0.009 A 
ATOM     39  C   UNL A   1      41.134  31.147  35.834  1.00  0.00     0.009 A 
ATOM     40  C   UNL A   1      42.666  33.485  35.823  1.00  0.00     0.001 A 
ATOM     41  C   UNL A   1      41.036  32.055  36.890  1.00  0.00     0.001 A 
ATOM     42  C   UNL A   1      41.812  33.214  36.891  1.00  0.00     0.000 A 
ENDBRANCH  23  37
BRANCH  24  43
ATOM     43  C   UNL A   1      42.485  24.762  27.266  1.00  0.00    -0.014 A 
ATOM     44  C   UNL A   1      41.848  23.514  27.380  1.00  0.00     0.009 A 
ATOM     45  C   UNL A   1      43.267  25.012  26.127  1.00  0.00     0.009 A 
ATOM     46  C   UNL A   1      42.038  22.525  26.409  1.00  0.00     0.001 A 
ATOM     47  C   UNL A   1      43.429  24.033  25.143  1.00  0.00     0.001 A 
ATOM     48  C   UNL A   1      42.829  22.784  25.293  1.00  0.00     0.000 A 
ENDBRANCH  24  43
BRANCH  36  49
ATOM     49  C   UNL A   1      46.147  25.722  33.104  1.00  0.00    -0.014 A 
ATOM     50  C   UNL A   1      47.475  26.067  32.812  1.00  0.00     0.009 A 
ATOM     51  C   UNL A   1      45.895  24.683  34.013  1.00  0.00     0.009 A 
ATOM     52  C   UNL A   1      48.530  25.360  33.392  1.00  0.00     0.001 A 
ATOM     53  C   UNL A   1      46.950  24.001  34.617  1.00  0.00     0.001 A 
ATOM     54  C   UNL A   1      48.266  24.332  34.298  1.00  0.00     0.000 A 
ENDBRANCH  36  49
ENDBRANCH  10  11
ENDBRANCH   3   5
ENDBRANCH   2   3
ENDBRANCH   1   2
BRANCH   1  55
ATOM     55  C   UNL A   1      33.323  35.058  29.160  1.00  0.00     0.274 C 
BRANCH  55  56
ATOM     56  O   UNL A   1      33.155  34.644  30.526  1.00  0.00    -0.462 OA
BRANCH  56  57
ATOM     57  C   UNL A   1      33.883  35.308  31.477  1.00  0.00     0.309 C 
ATOM     58  O   UNL A   1      33.758  36.485  31.767  1.00  0.00    -0.252 OA
BRANCH  57  59
ATOM     59  C   UNL A   1      34.878  34.361  32.112  1.00  0.00     0.104 C 
ATOM     60  C   UNL A   1      34.574  32.878  31.801  1.00  0.00     0.022 C 
ATOM     61  C   UNL A   1      34.954  34.563  33.643  1.00  0.00     0.054 C 
ATOM     62  C   UNL A   1      35.766  31.981  32.210  1.00  0.00     0.057 C 
ATOM     63  C   UNL A   1      35.906  33.564  34.209  1.00  0.00    -0.006 A 
ATOM     64  C   UNL A   1      36.254  32.410  33.541  1.00  0.00     0.038 A 
ATOM     65  C   UNL A   1      36.639  33.504  35.404  1.00  0.00     0.138 A 
ATOM     66  N   UNL A   1      37.204  31.791  34.294  1.00  0.00    -0.282 N 
ATOM     67  N   UNL A   1      37.437  32.430  35.457  1.00  0.00    -0.184 NA
ATOM     68  H   UNL A   1      37.671  30.969  34.020  1.00  0.00     0.190 HD
ENDBRANCH  57  59
ENDBRANCH  56  57
ENDBRANCH  55  56
ENDBRANCH   1  55
TORSDOF 11
ENDMDL
