MODEL 1
REMARK VINA RESULT:     -11.7      0.000      0.000
REMARK SMILES CC1(C)C[C@@H]([NH2+]C[C@@H]2CCCC[C@@H]2C(=O)OCCOC(=O)c2ccc(-c3c4nc(c(-c5ccccc5)c5ccc([nH]5)c(-c5ccccc5)c5nc(c(-c6ccccc6)c6ccc3[nH]6)C=C5)C=C4)cc2)C(C)(C)O1
REMARK SMILES IDX 17 1 16 2 14 3 15 4 13 5 8 6 9 7 10 8 12 9 11 10 7 11 6 12
REMARK SMILES IDX 5 15 1 16 2 17 3 18 4 19 73 20 70 21 71 22 72 23 18 24 19 25
REMARK SMILES IDX 20 26 21 27 22 28 23 29 69 30 24 31 68 32 25 33 26 34 27 35
REMARK SMILES IDX 62 36 28 37 67 38 61 39 63 40 29 41 66 42 60 43 59 44 30 46
REMARK SMILES IDX 52 47 37 48 51 49 38 50 41 51 50 52 64 53 39 54 40 55 49 57
REMARK SMILES IDX 65 58 42 59 31 60 32 61 36 62 33 63 35 64 34 65 53 66 54 67
REMARK SMILES IDX 58 68 55 69 57 70 56 71 43 72 44 73 48 74 45 75 47 76 46 77
REMARK H PARENT 6 13 6 14 63 45 41 56
REMARK Flexibility Score: inf
ROOT
ATOM      1  C   UNL A   1      38.644  22.754  26.047  1.00  0.00     0.274 C 
ENDROOT
BRANCH   1   2
ATOM      2  O   UNL A   1      37.472  22.049  25.550  1.00  0.00    -0.462 OA
BRANCH   2   3
ATOM      3  C   UNL A   1      36.355  22.814  25.399  1.00  0.00     0.309 C 
ATOM      4  O   UNL A   1      36.366  24.026  25.597  1.00  0.00    -0.252 OA
BRANCH   3   5
ATOM      5  C   UNL A   1      35.061  21.985  25.093  1.00  0.00     0.108 C 
ATOM      6  C   UNL A   1      33.685  22.538  24.402  1.00  0.00     0.058 C 
ATOM      7  C   UNL A   1      32.658  23.099  25.469  1.00  0.00     0.010 C 
ATOM      8  C   UNL A   1      32.631  22.610  26.909  1.00  0.00     0.001 C 
ATOM      9  C   UNL A   1      34.738  21.383  26.498  1.00  0.00     0.016 C 
ATOM     10  C   UNL A   1      34.027  22.367  27.427  1.00  0.00     0.001 C 
BRANCH   6  11
ATOM     11  C   UNL A   1      33.651  23.399  22.847  1.00  0.00     0.265 C 
BRANCH  11  12
ATOM     12  N   UNL A   1      32.981  24.943  22.313  1.00  0.00    -0.341 N 
ATOM     13  H   UNL A   1      33.766  25.398  21.847  1.00  0.00     0.346 HD
ATOM     14  H   UNL A   1      32.130  24.564  21.896  1.00  0.00     0.346 HD
BRANCH  12  15
ATOM     15  C   UNL A   1      32.061  26.504  23.363  1.00  0.00     0.217 C 
ATOM     16  C   UNL A   1      31.758  28.338  26.913  1.00  0.00     0.042 C 
ATOM     17  C   UNL A   1      31.906  28.270  25.379  1.00  0.00     0.069 C 
ATOM     18  C   UNL A   1      32.907  29.341  24.939  1.00  0.00     0.042 C 
ATOM     19  C   UNL A   1      32.360  26.886  25.094  1.00  0.00     0.103 C 
ATOM     20  O   UNL A   1      30.677  28.373  24.681  1.00  0.00    -0.363 OA
ATOM     21  C   UNL A   1      30.541  27.416  23.515  1.00  0.00     0.115 C 
ATOM     22  C   UNL A   1      29.238  26.706  23.879  1.00  0.00     0.048 C 
ATOM     23  C   UNL A   1      30.289  28.419  22.373  1.00  0.00     0.048 C 
ENDBRANCH  12  15
ENDBRANCH  11  12
ENDBRANCH   6  11
ENDBRANCH   3   5
ENDBRANCH   2   3
ENDBRANCH   1   2
BRANCH   1  24
ATOM     24  C   UNL A   1      39.724  21.777  26.516  1.00  0.00     0.275 C 
BRANCH  24  25
ATOM     25  O   UNL A   1      40.595  22.457  27.425  1.00  0.00    -0.458 OA
BRANCH  25  26
ATOM     26  C   UNL A   1      41.889  22.380  27.061  1.00  0.00     0.338 C 
ATOM     27  O   UNL A   1      42.540  21.398  26.750  1.00  0.00    -0.246 OA
BRANCH  26  28
ATOM     28  C   UNL A   1      42.402  23.730  26.998  1.00  0.00     0.060 A 
ATOM     29  C   UNL A   1      42.826  24.569  25.437  1.00  0.00     0.016 A 
ATOM     30  C   UNL A   1      42.973  24.458  28.526  1.00  0.00     0.016 A 
ATOM     31  C   UNL A   1      44.032  26.014  25.455  1.00  0.00     0.010 A 
ATOM     32  C   UNL A   1      44.005  25.921  28.533  1.00  0.00     0.010 A 
ATOM     33  C   UNL A   1      44.600  26.687  27.021  1.00  0.00    -0.014 A 
BRANCH  33  34
ATOM     34  C   UNL A   1      45.610  27.821  27.059  1.00  0.00     0.031 A 
ATOM     35  C   UNL A   1      45.208  29.287  26.960  1.00  0.00     0.074 A 
ATOM     36  C   UNL A   1      46.936  27.550  27.099  1.00  0.00     0.049 A 
ATOM     37  N   UNL A   1      45.979  30.345  26.822  1.00  0.00    -0.248 NA
ATOM     38  C   UNL A   1      43.781  29.625  27.069  1.00  0.00     0.031 C 
ATOM     39  C   UNL A   1      47.542  26.245  27.302  1.00  0.00     0.029 A 
ATOM     40  N   UNL A   1      48.040  28.349  26.882  1.00  0.00    -0.354 N 
ATOM     41  C   UNL A   1      45.138  31.457  26.839  1.00  0.00     0.074 A 
ATOM     42  C   UNL A   1      43.788  30.945  26.928  1.00  0.00     0.031 C 
ATOM     43  C   UNL A   1      48.846  26.271  27.046  1.00  0.00     0.029 A 
ATOM     44  C   UNL A   1      49.208  27.628  26.726  1.00  0.00     0.049 A 
ATOM     45  H   UNL A   1      48.000  29.332  26.841  1.00  0.00     0.167 HD
ATOM     46  C   UNL A   1      45.457  32.778  26.826  1.00  0.00     0.031 A 
ATOM     47  C   UNL A   1      50.458  27.968  26.382  1.00  0.00     0.031 A 
ATOM     48  C   UNL A   1      46.806  33.292  26.745  1.00  0.00     0.049 A 
ATOM     49  C   UNL A   1      50.778  29.411  26.255  1.00  0.00     0.074 A 
ATOM     50  C   UNL A   1      47.234  34.610  26.783  1.00  0.00     0.029 A 
ATOM     51  N   UNL A   1      47.945  32.515  26.593  1.00  0.00    -0.354 N 
ATOM     52  N   UNL A   1      49.967  30.434  26.342  1.00  0.00    -0.248 NA
ATOM     53  C   UNL A   1      52.190  29.752  26.067  1.00  0.00     0.031 C 
ATOM     54  C   UNL A   1      48.617  34.633  26.573  1.00  0.00     0.029 A 
ATOM     55  C   UNL A   1      49.066  33.327  26.485  1.00  0.00     0.049 A 
ATOM     56  H   UNL A   1      47.956  31.531  26.565  1.00  0.00     0.167 HD
ATOM     57  C   UNL A   1      50.777  31.551  26.270  1.00  0.00     0.074 A 
ATOM     58  C   UNL A   1      52.142  31.072  26.148  1.00  0.00     0.031 C 
ATOM     59  C   UNL A   1      50.417  32.854  26.319  1.00  0.00     0.031 A 
BRANCH  46  60
ATOM     60  C   UNL A   1      44.327  33.782  26.894  1.00  0.00    -0.014 A 
ATOM     61  C   UNL A   1      43.836  34.261  28.121  1.00  0.00     0.009 A 
ATOM     62  C   UNL A   1      43.783  34.307  25.708  1.00  0.00     0.009 A 
ATOM     63  C   UNL A   1      42.799  35.200  28.159  1.00  0.00     0.001 A 
ATOM     64  C   UNL A   1      42.770  35.271  25.748  1.00  0.00     0.001 A 
ATOM     65  C   UNL A   1      42.269  35.706  26.974  1.00  0.00     0.000 A 
ENDBRANCH  46  60
BRANCH  47  66
ATOM     66  C   UNL A   1      51.494  26.910  26.229  1.00  0.00    -0.014 A 
ATOM     67  C   UNL A   1      51.754  26.339  24.974  1.00  0.00     0.009 A 
ATOM     68  C   UNL A   1      52.277  26.519  27.328  1.00  0.00     0.009 A 
ATOM     69  C   UNL A   1      52.748  25.367  24.833  1.00  0.00     0.001 A 
ATOM     70  C   UNL A   1      53.288  25.568  27.177  1.00  0.00     0.001 A 
ATOM     71  C   UNL A   1      53.514  24.984  25.933  1.00  0.00     0.000 A 
ENDBRANCH  47  66
BRANCH  59  72
ATOM     72  C   UNL A   1      51.536  33.850  26.244  1.00  0.00    -0.014 A 
ATOM     73  C   UNL A   1      52.137  34.357  27.408  1.00  0.00     0.009 A 
ATOM     74  C   UNL A   1      51.971  34.314  24.994  1.00  0.00     0.009 A 
ATOM     75  C   UNL A   1      53.110  35.353  27.323  1.00  0.00     0.001 A 
ATOM     76  C   UNL A   1      52.976  35.278  24.911  1.00  0.00     0.001 A 
ATOM     77  C   UNL A   1      53.531  35.809  26.074  1.00  0.00     0.000 A 
ENDBRANCH  59  72
ENDBRANCH  33  34
ENDBRANCH  26  28
ENDBRANCH  25  26
ENDBRANCH  24  25
ENDBRANCH   1  24
TORSDOF 14
ENDMDL
MODEL 2
REMARK VINA RESULT:     -11.5      6.650     10.003
REMARK SMILES CC1(C)C[C@@H]([NH2+]C[C@@H]2CCCC[C@@H]2C(=O)OCCOC(=O)c2ccc(-c3c4nc(c(-c5ccccc5)c5ccc([nH]5)c(-c5ccccc5)c5nc(c(-c6ccccc6)c6ccc3[nH]6)C=C5)C=C4)cc2)C(C)(C)O1
REMARK SMILES IDX 17 1 16 2 14 3 15 4 13 5 8 6 9 7 10 8 12 9 11 10 7 11 6 12
REMARK SMILES IDX 5 15 1 16 2 17 3 18 4 19 73 20 70 21 71 22 72 23 18 24 19 25
REMARK SMILES IDX 20 26 21 27 22 28 23 29 69 30 24 31 68 32 25 33 26 34 27 35
REMARK SMILES IDX 62 36 28 37 67 38 61 39 63 40 29 41 66 42 60 43 59 44 30 46
REMARK SMILES IDX 52 47 37 48 51 49 38 50 41 51 50 52 64 53 39 54 40 55 49 57
REMARK SMILES IDX 65 58 42 59 31 60 32 61 36 62 33 63 35 64 34 65 53 66 54 67
REMARK SMILES IDX 58 68 55 69 57 70 56 71 43 72 44 73 48 74 45 75 47 76 46 77
REMARK H PARENT 6 13 6 14 63 45 41 56
REMARK Flexibility Score: inf
ROOT
ATOM      1  C   UNL A   1      38.275  22.032  25.727  1.00  0.00     0.274 C 
ENDROOT
BRANCH   1   2
ATOM      2  O   UNL A   1      37.345  21.348  24.840  1.00  0.00    -0.462 OA
BRANCH   2   3
ATOM      3  C   UNL A   1      36.337  22.121  24.348  1.00  0.00     0.309 C 
ATOM      4  O   UNL A   1      36.529  23.271  23.964  1.00  0.00    -0.252 OA
BRANCH   3   5
ATOM      5  C   UNL A   1      34.924  21.454  24.453  1.00  0.00     0.108 C 
ATOM      6  C   UNL A   1      33.490  22.131  24.051  1.00  0.00     0.058 C 
ATOM      7  C   UNL A   1      32.830  22.912  25.260  1.00  0.00     0.010 C 
ATOM      8  C   UNL A   1      33.109  22.549  26.711  1.00  0.00     0.001 C 
ATOM      9  C   UNL A   1      34.896  21.018  25.953  1.00  0.00     0.016 C 
ATOM     10  C   UNL A   1      34.554  22.162  26.907  1.00  0.00     0.001 C 
BRANCH   6  11
ATOM     11  C   UNL A   1      33.165  22.858  22.461  1.00  0.00     0.265 C 
BRANCH  11  12
ATOM     12  N   UNL A   1      32.603  24.446  21.929  1.00  0.00    -0.341 N 
ATOM     13  H   UNL A   1      33.428  24.861  21.498  1.00  0.00     0.346 HD
ATOM     14  H   UNL A   1      31.748  24.121  21.477  1.00  0.00     0.346 HD
BRANCH  12  15
ATOM     15  C   UNL A   1      31.735  26.041  22.972  1.00  0.00     0.217 C 
ATOM     16  C   UNL A   1      29.618  29.425  22.622  1.00  0.00     0.042 C 
ATOM     17  C   UNL A   1      29.986  28.060  23.239  1.00  0.00     0.069 C 
ATOM     18  C   UNL A   1      28.693  27.315  23.576  1.00  0.00     0.042 C 
ATOM     19  C   UNL A   1      30.807  27.377  22.208  1.00  0.00     0.103 C 
ATOM     20  O   UNL A   1      30.854  28.151  24.356  1.00  0.00    -0.363 OA
ATOM     21  C   UNL A   1      31.956  27.113  24.374  1.00  0.00     0.115 C 
ATOM     22  C   UNL A   1      33.189  28.009  24.484  1.00  0.00     0.048 C 
ATOM     23  C   UNL A   1      31.672  26.444  25.732  1.00  0.00     0.048 C 
ENDBRANCH  12  15
ENDBRANCH  11  12
ENDBRANCH   6  11
ENDBRANCH   3   5
ENDBRANCH   2   3
ENDBRANCH   1   2
BRANCH   1  24
ATOM     24  C   UNL A   1      39.534  21.196  25.964  1.00  0.00     0.275 C 
BRANCH  24  25
ATOM     25  O   UNL A   1      40.388  21.899  26.872  1.00  0.00    -0.458 OA
BRANCH  25  26
ATOM     26  C   UNL A   1      41.344  22.608  26.243  1.00  0.00     0.338 C 
ATOM     27  O   UNL A   1      42.109  22.252  25.365  1.00  0.00    -0.246 OA
BRANCH  26  28
ATOM     28  C   UNL A   1      41.261  23.968  26.726  1.00  0.00     0.060 A 
ATOM     29  C   UNL A   1      42.669  25.125  26.708  1.00  0.00     0.016 A 
ATOM     30  C   UNL A   1      39.828  24.402  27.699  1.00  0.00     0.016 A 
ATOM     31  C   UNL A   1      42.677  26.599  27.880  1.00  0.00     0.010 A 
ATOM     32  C   UNL A   1      39.796  25.886  28.701  1.00  0.00     0.010 A 
ATOM     33  C   UNL A   1      41.219  26.971  28.861  1.00  0.00    -0.014 A 
BRANCH  33  34
ATOM     34  C   UNL A   1      41.220  28.126  29.848  1.00  0.00     0.031 A 
ATOM     35  C   UNL A   1      42.076  28.133  31.108  1.00  0.00     0.074 A 
ATOM     36  C   UNL A   1      40.375  29.169  29.675  1.00  0.00     0.049 A 
ATOM     37  N   UNL A   1      42.055  28.982  32.113  1.00  0.00    -0.248 NA
ATOM     38  C   UNL A   1      43.110  27.097  31.250  1.00  0.00     0.031 C 
ATOM     39  C   UNL A   1      39.551  29.425  28.504  1.00  0.00     0.029 A 
ATOM     40  N   UNL A   1      39.990  30.186  30.525  1.00  0.00    -0.354 N 
ATOM     41  C   UNL A   1      43.067  28.591  32.988  1.00  0.00     0.074 A 
ATOM     42  C   UNL A   1      43.639  27.383  32.434  1.00  0.00     0.031 C 
ATOM     43  C   UNL A   1      38.659  30.383  28.739  1.00  0.00     0.029 A 
ATOM     44  C   UNL A   1      38.887  30.883  30.071  1.00  0.00     0.049 A 
ATOM     45  H   UNL A   1      40.454  30.393  31.368  1.00  0.00     0.167 HD
ATOM     46  C   UNL A   1      43.509  29.198  34.121  1.00  0.00     0.031 A 
ATOM     47  C   UNL A   1      38.115  31.836  30.614  1.00  0.00     0.031 A 
ATOM     48  C   UNL A   1      42.944  30.409  34.672  1.00  0.00     0.049 A 
ATOM     49  C   UNL A   1      38.538  32.419  31.911  1.00  0.00     0.074 A 
ATOM     50  C   UNL A   1      43.358  31.131  35.781  1.00  0.00     0.029 A 
ATOM     51  N   UNL A   1      41.832  31.069  34.168  1.00  0.00    -0.354 N 
ATOM     52  N   UNL A   1      39.538  32.064  32.675  1.00  0.00    -0.248 NA
ATOM     53  C   UNL A   1      37.782  33.583  32.379  1.00  0.00     0.031 C 
ATOM     54  C   UNL A   1      42.451  32.176  35.992  1.00  0.00     0.029 A 
ATOM     55  C   UNL A   1      41.518  32.157  34.971  1.00  0.00     0.049 A 
ATOM     56  H   UNL A   1      41.338  30.803  33.359  1.00  0.00     0.167 HD
ATOM     57  C   UNL A   1      39.568  32.994  33.696  1.00  0.00     0.074 A 
ATOM     58  C   UNL A   1      38.493  33.934  33.439  1.00  0.00     0.031 C 
ATOM     59  C   UNL A   1      40.424  33.065  34.742  1.00  0.00     0.031 A 
BRANCH  46  60
ATOM     60  C   UNL A   1      44.667  28.564  34.861  1.00  0.00    -0.014 A 
ATOM     61  C   UNL A   1      44.465  27.588  35.851  1.00  0.00     0.009 A 
ATOM     62  C   UNL A   1      45.988  28.902  34.519  1.00  0.00     0.009 A 
ATOM     63  C   UNL A   1      45.551  27.005  36.515  1.00  0.00     0.001 A 
ATOM     64  C   UNL A   1      47.073  28.294  35.159  1.00  0.00     0.001 A 
ATOM     65  C   UNL A   1      46.853  27.357  36.166  1.00  0.00     0.000 A 
ENDBRANCH  46  60
BRANCH  47  66
ATOM     66  C   UNL A   1      36.927  32.335  29.869  1.00  0.00    -0.014 A 
ATOM     67  C   UNL A   1      37.037  33.425  28.993  1.00  0.00     0.009 A 
ATOM     68  C   UNL A   1      35.691  31.675  29.979  1.00  0.00     0.009 A 
ATOM     69  C   UNL A   1      35.925  33.869  28.276  1.00  0.00     0.001 A 
ATOM     70  C   UNL A   1      34.589  32.105  29.239  1.00  0.00     0.001 A 
ATOM     71  C   UNL A   1      34.703  33.209  28.398  1.00  0.00     0.000 A 
ENDBRANCH  47  66
BRANCH  59  72
ATOM     72  C   UNL A   1      40.221  34.218  35.681  1.00  0.00    -0.014 A 
ATOM     73  C   UNL A   1      40.813  35.467  35.437  1.00  0.00     0.009 A 
ATOM     74  C   UNL A   1      39.456  34.041  36.843  1.00  0.00     0.009 A 
ATOM     75  C   UNL A   1      40.693  36.499  36.369  1.00  0.00     0.001 A 
ATOM     76  C   UNL A   1      39.301  35.087  37.751  1.00  0.00     0.001 A 
ATOM     77  C   UNL A   1      39.934  36.309  37.523  1.00  0.00     0.000 A 
ENDBRANCH  59  72
ENDBRANCH  33  34
ENDBRANCH  26  28
ENDBRANCH  25  26
ENDBRANCH  24  25
ENDBRANCH   1  24
TORSDOF 14
ENDMDL
MODEL 3
REMARK VINA RESULT:     -11.4      3.611      7.721
REMARK SMILES CC1(C)C[C@@H]([NH2+]C[C@@H]2CCCC[C@@H]2C(=O)OCCOC(=O)c2ccc(-c3c4nc(c(-c5ccccc5)c5ccc([nH]5)c(-c5ccccc5)c5nc(c(-c6ccccc6)c6ccc3[nH]6)C=C5)C=C4)cc2)C(C)(C)O1
REMARK SMILES IDX 17 1 16 2 14 3 15 4 13 5 8 6 9 7 10 8 12 9 11 10 7 11 6 12
REMARK SMILES IDX 5 15 1 16 2 17 3 18 4 19 73 20 70 21 71 22 72 23 18 24 19 25
REMARK SMILES IDX 20 26 21 27 22 28 23 29 69 30 24 31 68 32 25 33 26 34 27 35
REMARK SMILES IDX 62 36 28 37 67 38 61 39 63 40 29 41 66 42 60 43 59 44 30 46
REMARK SMILES IDX 52 47 37 48 51 49 38 50 41 51 50 52 64 53 39 54 40 55 49 57
REMARK SMILES IDX 65 58 42 59 31 60 32 61 36 62 33 63 35 64 34 65 53 66 54 67
REMARK SMILES IDX 58 68 55 69 57 70 56 71 43 72 44 73 48 74 45 75 47 76 46 77
REMARK H PARENT 6 13 6 14 63 45 41 56
REMARK Flexibility Score: inf
ROOT
ATOM      1  C   UNL A   1      38.275  21.242  25.292  1.00  0.00     0.274 C 
ENDROOT
BRANCH   1   2
ATOM      2  O   UNL A   1      37.273  21.890  26.125  1.00  0.00    -0.462 OA
BRANCH   2   3
ATOM      3  C   UNL A   1      36.403  22.701  25.461  1.00  0.00     0.309 C 
ATOM      4  O   UNL A   1      36.644  23.889  25.266  1.00  0.00    -0.252 OA
BRANCH   3   5
ATOM      5  C   UNL A   1      35.041  22.011  25.111  1.00  0.00     0.108 C 
ATOM      6  C   UNL A   1      33.721  22.725  24.458  1.00  0.00     0.058 C 
ATOM      7  C   UNL A   1      32.746  23.311  25.560  1.00  0.00     0.010 C 
ATOM      8  C   UNL A   1      32.672  22.741  26.968  1.00  0.00     0.001 C 
ATOM      9  C   UNL A   1      34.663  21.358  26.478  1.00  0.00     0.016 C 
ATOM     10  C   UNL A   1      34.040  22.344  27.467  1.00  0.00     0.001 C 
BRANCH   6  11
ATOM     11  C   UNL A   1      33.768  23.676  22.957  1.00  0.00     0.265 C 
BRANCH  11  12
ATOM     12  N   UNL A   1      33.449  25.369  22.565  1.00  0.00    -0.341 N 
ATOM     13  H   UNL A   1      34.378  25.758  22.406  1.00  0.00     0.346 HD
ATOM     14  H   UNL A   1      32.710  25.194  21.885  1.00  0.00     0.346 HD
BRANCH  12  15
ATOM     15  C   UNL A   1      32.455  26.882  23.619  1.00  0.00     0.217 C 
ATOM     16  C   UNL A   1      31.629  28.349  27.255  1.00  0.00     0.042 C 
ATOM     17  C   UNL A   1      32.049  28.431  25.772  1.00  0.00     0.069 C 
ATOM     18  C   UNL A   1      33.180  29.454  25.644  1.00  0.00     0.042 C 
ATOM     19  C   UNL A   1      32.458  27.052  25.408  1.00  0.00     0.103 C 
ATOM     20  O   UNL A   1      30.977  28.711  24.889  1.00  0.00    -0.363 OA
ATOM     21  C   UNL A   1      30.995  27.898  23.611  1.00  0.00     0.115 C 
ATOM     22  C   UNL A   1      29.604  27.266  23.656  1.00  0.00     0.048 C 
ATOM     23  C   UNL A   1      31.021  29.034  22.571  1.00  0.00     0.048 C 
ENDBRANCH  12  15
ENDBRANCH  11  12
ENDBRANCH   6  11
ENDBRANCH   3   5
ENDBRANCH   2   3
ENDBRANCH   1   2
BRANCH   1  24
ATOM     24  C   UNL A   1      39.682  21.441  25.858  1.00  0.00     0.275 C 
BRANCH  24  25
ATOM     25  O   UNL A   1      40.223  20.162  26.203  1.00  0.00    -0.458 OA
BRANCH  25  26
ATOM     26  C   UNL A   1      41.542  20.069  25.948  1.00  0.00     0.338 C 
ATOM     27  O   UNL A   1      42.139  19.230  25.298  1.00  0.00    -0.246 OA
BRANCH  26  28
ATOM     28  C   UNL A   1      42.175  21.238  26.516  1.00  0.00     0.060 A 
ATOM     29  C   UNL A   1      42.114  21.649  28.291  1.00  0.00     0.016 A 
ATOM     30  C   UNL A   1      42.724  22.502  25.379  1.00  0.00     0.016 A 
ATOM     31  C   UNL A   1      42.393  23.426  28.845  1.00  0.00     0.010 A 
ATOM     32  C   UNL A   1      43.124  24.153  25.943  1.00  0.00     0.010 A 
ATOM     33  C   UNL A   1      42.914  24.665  27.652  1.00  0.00    -0.014 A 
BRANCH  33  34
ATOM     34  C   UNL A   1      43.098  26.114  28.067  1.00  0.00     0.031 A 
ATOM     35  C   UNL A   1      44.418  26.659  28.599  1.00  0.00     0.074 A 
ATOM     36  C   UNL A   1      42.045  26.965  28.054  1.00  0.00     0.049 A 
ATOM     37  N   UNL A   1      44.667  27.834  29.136  1.00  0.00    -0.248 NA
ATOM     38  C   UNL A   1      45.615  25.812  28.485  1.00  0.00     0.031 C 
ATOM     39  C   UNL A   1      40.730  26.699  27.492  1.00  0.00     0.029 A 
ATOM     40  N   UNL A   1      41.872  28.216  28.609  1.00  0.00    -0.354 N 
ATOM     41  C   UNL A   1      46.033  27.868  29.408  1.00  0.00     0.074 A 
ATOM     42  C   UNL A   1      46.553  26.567  29.045  1.00  0.00     0.031 C 
ATOM     43  C   UNL A   1      39.852  27.629  27.852  1.00  0.00     0.029 A 
ATOM     44  C   UNL A   1      40.553  28.626  28.622  1.00  0.00     0.049 A 
ATOM     45  H   UNL A   1      42.612  28.761  28.961  1.00  0.00     0.167 HD
ATOM     46  C   UNL A   1      46.795  28.893  29.873  1.00  0.00     0.031 A 
ATOM     47  C   UNL A   1      39.923  29.679  29.162  1.00  0.00     0.031 A 
ATOM     48  C   UNL A   1      46.279  30.197  30.229  1.00  0.00     0.049 A 
ATOM     49  C   UNL A   1      40.751  30.747  29.774  1.00  0.00     0.074 A 
ATOM     50  C   UNL A   1      46.977  31.317  30.654  1.00  0.00     0.029 A 
ATOM     51  N   UNL A   1      44.938  30.552  30.217  1.00  0.00    -0.354 N 
ATOM     52  N   UNL A   1      42.046  30.769  29.953  1.00  0.00    -0.248 NA
ATOM     53  C   UNL A   1      40.046  31.965  30.180  1.00  0.00     0.031 C 
ATOM     54  C   UNL A   1      46.054  32.317  30.976  1.00  0.00     0.029 A 
ATOM     55  C   UNL A   1      44.785  31.853  30.675  1.00  0.00     0.049 A 
ATOM     56  H   UNL A   1      44.203  29.966  29.927  1.00  0.00     0.167 HD
ATOM     57  C   UNL A   1      42.326  32.027  30.449  1.00  0.00     0.074 A 
ATOM     58  C   UNL A   1      41.063  32.739  30.525  1.00  0.00     0.031 C 
ATOM     59  C   UNL A   1      43.527  32.546  30.794  1.00  0.00     0.031 A 
BRANCH  46  60
ATOM     60  C   UNL A   1      48.281  28.658  30.037  1.00  0.00    -0.014 A 
ATOM     61  C   UNL A   1      49.192  28.933  29.004  1.00  0.00     0.009 A 
ATOM     62  C   UNL A   1      48.787  28.211  31.271  1.00  0.00     0.009 A 
ATOM     63  C   UNL A   1      50.563  28.720  29.183  1.00  0.00     0.001 A 
ATOM     64  C   UNL A   1      50.161  28.031  31.459  1.00  0.00     0.001 A 
ATOM     65  C   UNL A   1      51.047  28.272  30.411  1.00  0.00     0.000 A 
ENDBRANCH  46  60
BRANCH  47  66
ATOM     66  C   UNL A   1      38.442  29.788  29.052  1.00  0.00    -0.014 A 
ATOM     67  C   UNL A   1      37.617  29.453  30.136  1.00  0.00     0.009 A 
ATOM     68  C   UNL A   1      37.853  30.298  27.883  1.00  0.00     0.009 A 
ATOM     69  C   UNL A   1      36.231  29.586  30.035  1.00  0.00     0.001 A 
ATOM     70  C   UNL A   1      36.469  30.455  27.796  1.00  0.00     0.001 A 
ATOM     71  C   UNL A   1      35.657  30.087  28.867  1.00  0.00     0.000 A 
ENDBRANCH  47  66
BRANCH  59  72
ATOM     72  C   UNL A   1      43.517  33.965  31.280  1.00  0.00    -0.014 A 
ATOM     73  C   UNL A   1      43.668  35.040  30.389  1.00  0.00     0.009 A 
ATOM     74  C   UNL A   1      43.390  34.229  32.651  1.00  0.00     0.009 A 
ATOM     75  C   UNL A   1      43.752  36.347  30.868  1.00  0.00     0.001 A 
ATOM     76  C   UNL A   1      43.430  35.541  33.124  1.00  0.00     0.001 A 
ATOM     77  C   UNL A   1      43.629  36.597  32.234  1.00  0.00     0.000 A 
ENDBRANCH  59  72
ENDBRANCH  33  34
ENDBRANCH  26  28
ENDBRANCH  25  26
ENDBRANCH  24  25
ENDBRANCH   1  24
TORSDOF 14
ENDMDL
