MODEL 1
REMARK VINA RESULT:     -11.0      0.000      0.000
REMARK SMILES O=C(CCC1CC[NH+]([C@H]2CCO[C@@]3(CCSC3)C2)CC1)OCCOC(=O)c1ccc(-c2c3nc(c(-c4ccccc4)c4ccc([nH]4)c(-c4ccccc4)c4nc(c(-c5ccccc5)c5ccc2[nH]5)C=C4)C=C3)cc1
REMARK SMILES IDX 22 1 21 2 2 3 1 4 3 5 4 6 5 7 6 8 20 9 7 10 19 11 8 12 9 14
REMARK SMILES IDX 10 15 18 16 11 17 13 18 12 19 14 20 17 21 15 22 16 23 23 24
REMARK SMILES IDX 24 25 25 26 26 27 27 28 28 29 74 30 29 31 73 32 30 33 31 34
REMARK SMILES IDX 32 35 67 36 33 37 72 38 66 39 68 40 34 41 71 42 65 43 64 44
REMARK SMILES IDX 35 46 57 47 42 48 56 49 43 50 46 51 55 52 69 53 44 54 45 55
REMARK SMILES IDX 54 57 70 58 47 59 36 60 37 61 41 62 38 63 40 64 39 65 58 66
REMARK SMILES IDX 59 67 63 68 60 69 62 70 61 71 48 72 49 73 53 74 50 75 52 76
REMARK SMILES IDX 51 77
REMARK H PARENT 8 13 68 45 46 56
REMARK Flexibility Score: inf
ROOT
ATOM      1  C   UNL A   1      42.778  20.770  26.195  1.00  0.00     0.274 C 
ENDROOT
BRANCH   1   2
ATOM      2  O   UNL A   1      41.399  20.812  25.783  1.00  0.00    -0.462 OA
BRANCH   2   3
ATOM      3  C   UNL A   1      40.502  21.245  26.707  1.00  0.00     0.305 C 
ATOM      4  O   UNL A   1      40.623  20.998  27.900  1.00  0.00    -0.252 OA
BRANCH   3   5
ATOM      5  C   UNL A   1      39.281  21.930  26.117  1.00  0.00     0.123 C 
BRANCH   5   6
ATOM      6  C   UNL A   1      38.351  20.985  25.360  1.00  0.00     0.016 C 
BRANCH   6   7
ATOM      7  C   UNL A   1      37.169  21.747  24.731  1.00  0.00     0.001 C 
ATOM      8  C   UNL A   1      37.230  23.242  25.062  1.00  0.00     0.065 C 
ATOM      9  C   UNL A   1      35.821  21.042  24.983  1.00  0.00     0.065 C 
ATOM     10  C   UNL A   1      36.244  23.713  26.117  1.00  0.00     0.262 C 
ATOM     11  C   UNL A   1      34.956  21.693  26.054  1.00  0.00     0.262 C 
ATOM     12  N   UNL A   1      34.903  23.147  25.987  1.00  0.00    -0.332 N 
ATOM     13  H   UNL A   1      34.352  23.402  26.807  1.00  0.00     0.348 HD
BRANCH  12  14
ATOM     14  C   UNL A   1      34.021  23.807  25.002  1.00  0.00     0.189 C 
ATOM     15  C   UNL A   1      32.999  22.950  24.238  1.00  0.00     0.093 C 
ATOM     16  C   UNL A   1      33.301  25.031  25.611  1.00  0.00     0.101 C 
ATOM     17  C   UNL A   1      32.168  23.788  23.278  1.00  0.00     0.167 C 
ATOM     18  C   UNL A   1      32.469  25.792  24.557  1.00  0.00     0.084 C 
ATOM     19  O   UNL A   1      31.546  24.877  23.946  1.00  0.00    -0.374 OA
ATOM     20  C   UNL A   1      31.604  26.887  25.203  1.00  0.00     0.047 C 
ATOM     21  C   UNL A   1      33.313  26.536  23.502  1.00  0.00     0.105 C 
ATOM     22  C   UNL A   1      32.491  28.068  25.540  1.00  0.00     0.072 C 
ATOM     23  S   UNL A   1      33.637  28.203  24.147  1.00  0.00    -0.159 SA
ENDBRANCH  12  14
ENDBRANCH   6   7
ENDBRANCH   5   6
ENDBRANCH   3   5
ENDBRANCH   2   3
ENDBRANCH   1   2
BRANCH   1  24
ATOM     24  C   UNL A   1      43.689  21.595  25.282  1.00  0.00     0.275 C 
BRANCH  24  25
ATOM     25  O   UNL A   1      43.050  22.820  24.894  1.00  0.00    -0.458 OA
BRANCH  25  26
ATOM     26  C   UNL A   1      43.838  23.922  25.010  1.00  0.00     0.338 C 
ATOM     27  O   UNL A   1      44.819  24.197  24.351  1.00  0.00    -0.246 OA
BRANCH  26  28
ATOM     28  C   UNL A   1      43.192  24.866  25.950  1.00  0.00     0.060 A 
ATOM     29  C   UNL A   1      43.618  26.201  25.931  1.00  0.00     0.016 A 
ATOM     30  C   UNL A   1      42.156  24.464  26.796  1.00  0.00     0.016 A 
ATOM     31  C   UNL A   1      43.017  27.138  26.773  1.00  0.00     0.010 A 
ATOM     32  C   UNL A   1      41.574  25.395  27.656  1.00  0.00     0.010 A 
ATOM     33  C   UNL A   1      42.019  26.729  27.665  1.00  0.00    -0.014 A 
BRANCH  33  34
ATOM     34  C   UNL A   1      41.594  27.617  28.769  1.00  0.00     0.031 A 
ATOM     35  C   UNL A   1      42.325  27.505  30.076  1.00  0.00     0.074 A 
ATOM     36  C   UNL A   1      40.554  28.458  28.644  1.00  0.00     0.049 A 
ATOM     37  N   UNL A   1      42.085  28.101  31.215  1.00  0.00    -0.248 NA
ATOM     38  C   UNL A   1      43.474  26.584  30.102  1.00  0.00     0.031 C 
ATOM     39  C   UNL A   1      39.778  28.677  27.426  1.00  0.00     0.029 A 
ATOM     40  N   UNL A   1      39.959  29.269  29.578  1.00  0.00    -0.354 N 
ATOM     41  C   UNL A   1      43.048  27.622  32.093  1.00  0.00     0.074 A 
ATOM     42  C   UNL A   1      43.860  26.673  31.364  1.00  0.00     0.031 C 
ATOM     43  C   UNL A   1      38.784  29.542  27.696  1.00  0.00     0.029 A 
ATOM     44  C   UNL A   1      38.842  29.915  29.110  1.00  0.00     0.049 A 
ATOM     45  H   UNL A   1      40.300  29.376  30.496  1.00  0.00     0.167 HD
ATOM     46  C   UNL A   1      43.240  27.937  33.396  1.00  0.00     0.031 A 
ATOM     47  C   UNL A   1      37.954  30.694  29.758  1.00  0.00     0.031 A 
ATOM     48  C   UNL A   1      42.412  28.844  34.137  1.00  0.00     0.049 A 
ATOM     49  C   UNL A   1      38.140  30.977  31.225  1.00  0.00     0.074 A 
ATOM     50  C   UNL A   1      42.535  29.243  35.455  1.00  0.00     0.029 A 
ATOM     51  N   UNL A   1      41.289  29.475  33.627  1.00  0.00    -0.354 N 
ATOM     52  N   UNL A   1      39.088  30.564  32.033  1.00  0.00    -0.248 NA
ATOM     53  C   UNL A   1      37.136  31.837  31.870  1.00  0.00     0.031 C 
ATOM     54  C   UNL A   1      41.454  30.075  35.759  1.00  0.00     0.029 A 
ATOM     55  C   UNL A   1      40.689  30.236  34.614  1.00  0.00     0.049 A 
ATOM     56  H   UNL A   1      40.966  29.395  32.700  1.00  0.00     0.167 HD
ATOM     57  C   UNL A   1      38.809  31.135  33.270  1.00  0.00     0.074 A 
ATOM     58  C   UNL A   1      37.608  31.926  33.107  1.00  0.00     0.031 C 
ATOM     59  C   UNL A   1      39.493  31.019  34.435  1.00  0.00     0.031 A 
BRANCH  46  60
ATOM     60  C   UNL A   1      44.366  27.237  34.099  1.00  0.00    -0.014 A 
ATOM     61  C   UNL A   1      45.658  27.783  34.127  1.00  0.00     0.009 A 
ATOM     62  C   UNL A   1      44.133  26.001  34.721  1.00  0.00     0.009 A 
ATOM     63  C   UNL A   1      46.707  27.083  34.724  1.00  0.00     0.001 A 
ATOM     64  C   UNL A   1      45.178  25.316  35.340  1.00  0.00     0.001 A 
ATOM     65  C   UNL A   1      46.464  25.850  35.330  1.00  0.00     0.000 A 
ENDBRANCH  46  60
BRANCH  47  66
ATOM     66  C   UNL A   1      36.784  31.243  29.026  1.00  0.00    -0.014 A 
ATOM     67  C   UNL A   1      35.703  30.417  28.681  1.00  0.00     0.009 A 
ATOM     68  C   UNL A   1      36.747  32.598  28.662  1.00  0.00     0.009 A 
ATOM     69  C   UNL A   1      34.615  30.936  27.973  1.00  0.00     0.001 A 
ATOM     70  C   UNL A   1      35.649  33.118  27.974  1.00  0.00     0.001 A 
ATOM     71  C   UNL A   1      34.587  32.287  27.625  1.00  0.00     0.000 A 
ENDBRANCH  47  66
BRANCH  59  72
ATOM     72  C   UNL A   1      38.987  31.788  35.623  1.00  0.00    -0.014 A 
ATOM     73  C   UNL A   1      38.148  31.191  36.574  1.00  0.00     0.009 A 
ATOM     74  C   UNL A   1      39.430  33.104  35.834  1.00  0.00     0.009 A 
ATOM     75  C   UNL A   1      37.748  31.903  37.707  1.00  0.00     0.001 A 
ATOM     76  C   UNL A   1      39.049  33.805  36.979  1.00  0.00     0.001 A 
ATOM     77  C   UNL A   1      38.205  33.205  37.912  1.00  0.00     0.000 A 
ENDBRANCH  59  72
ENDBRANCH  33  34
ENDBRANCH  26  28
ENDBRANCH  25  26
ENDBRANCH  24  25
ENDBRANCH   1  24
TORSDOF 14
ENDMDL
MODEL 2
REMARK VINA RESULT:     -10.7      4.092      7.905
REMARK SMILES O=C(CCC1CC[NH+]([C@H]2CCO[C@@]3(CCSC3)C2)CC1)OCCOC(=O)c1ccc(-c2c3nc(c(-c4ccccc4)c4ccc([nH]4)c(-c4ccccc4)c4nc(c(-c5ccccc5)c5ccc2[nH]5)C=C4)C=C3)cc1
REMARK SMILES IDX 22 1 21 2 2 3 1 4 3 5 4 6 5 7 6 8 20 9 7 10 19 11 8 12 9 14
REMARK SMILES IDX 10 15 18 16 11 17 13 18 12 19 14 20 17 21 15 22 16 23 23 24
REMARK SMILES IDX 24 25 25 26 26 27 27 28 28 29 74 30 29 31 73 32 30 33 31 34
REMARK SMILES IDX 32 35 67 36 33 37 72 38 66 39 68 40 34 41 71 42 65 43 64 44
REMARK SMILES IDX 35 46 57 47 42 48 56 49 43 50 46 51 55 52 69 53 44 54 45 55
REMARK SMILES IDX 54 57 70 58 47 59 36 60 37 61 41 62 38 63 40 64 39 65 58 66
REMARK SMILES IDX 59 67 63 68 60 69 62 70 61 71 48 72 49 73 53 74 50 75 52 76
REMARK SMILES IDX 51 77
REMARK H PARENT 8 13 68 45 46 56
REMARK Flexibility Score: inf
ROOT
ATOM      1  C   UNL A   1      36.321  22.645  23.697  1.00  0.00     0.274 C 
ENDROOT
BRANCH   1   2
ATOM      2  O   UNL A   1      35.063  22.985  24.311  1.00  0.00    -0.462 OA
BRANCH   2   3
ATOM      3  C   UNL A   1      34.019  23.216  23.471  1.00  0.00     0.305 C 
ATOM      4  O   UNL A   1      34.175  23.387  22.269  1.00  0.00    -0.252 OA
BRANCH   3   5
ATOM      5  C   UNL A   1      32.681  23.379  24.171  1.00  0.00     0.123 C 
BRANCH   5   6
ATOM      6  C   UNL A   1      32.568  24.663  24.990  1.00  0.00     0.016 C 
BRANCH   6   7
ATOM      7  C   UNL A   1      31.335  25.486  24.573  1.00  0.00     0.001 C 
ATOM      8  C   UNL A   1      31.203  25.559  23.048  1.00  0.00     0.065 C 
ATOM      9  C   UNL A   1      31.242  26.824  25.334  1.00  0.00     0.065 C 
ATOM     10  C   UNL A   1      31.601  26.885  22.424  1.00  0.00     0.262 C 
ATOM     11  C   UNL A   1      31.649  28.046  24.520  1.00  0.00     0.262 C 
ATOM     12  N   UNL A   1      31.137  28.061  23.157  1.00  0.00    -0.332 N 
ATOM     13  H   UNL A   1      31.564  28.896  22.753  1.00  0.00     0.348 HD
BRANCH  12  14
ATOM     14  C   UNL A   1      29.740  28.467  22.899  1.00  0.00     0.189 C 
ATOM     15  C   UNL A   1      28.605  27.640  23.526  1.00  0.00     0.093 C 
ATOM     16  C   UNL A   1      29.513  29.962  23.217  1.00  0.00     0.101 C 
ATOM     17  C   UNL A   1      27.237  28.202  23.171  1.00  0.00     0.167 C 
ATOM     18  C   UNL A   1      28.087  30.419  22.841  1.00  0.00     0.084 C 
ATOM     19  O   UNL A   1      27.137  29.578  23.514  1.00  0.00    -0.374 OA
ATOM     20  C   UNL A   1      27.802  31.847  23.335  1.00  0.00     0.047 C 
ATOM     21  C   UNL A   1      27.821  30.474  21.322  1.00  0.00     0.105 C 
ATOM     22  C   UNL A   1      28.497  32.826  22.411  1.00  0.00     0.072 C 
ATOM     23  S   UNL A   1      28.281  32.136  20.753  1.00  0.00    -0.159 SA
ENDBRANCH  12  14
ENDBRANCH   6   7
ENDBRANCH   5   6
ENDBRANCH   3   5
ENDBRANCH   2   3
ENDBRANCH   1   2
BRANCH   1  24
ATOM     24  C   UNL A   1      36.979  21.424  24.344  1.00  0.00     0.275 C 
BRANCH  24  25
ATOM     25  O   UNL A   1      37.368  21.709  25.695  1.00  0.00    -0.458 OA
BRANCH  25  26
ATOM     26  C   UNL A   1      38.657  21.386  25.986  1.00  0.00     0.338 C 
ATOM     27  O   UNL A   1      39.236  20.355  25.710  1.00  0.00    -0.246 OA
BRANCH  26  28
ATOM     28  C   UNL A   1      39.335  22.587  26.524  1.00  0.00     0.060 A 
ATOM     29  C   UNL A   1      38.829  23.842  26.160  1.00  0.00     0.016 A 
ATOM     30  C   UNL A   1      40.413  22.486  27.406  1.00  0.00     0.016 A 
ATOM     31  C   UNL A   1      39.411  25.004  26.667  1.00  0.00     0.010 A 
ATOM     32  C   UNL A   1      41.012  23.648  27.893  1.00  0.00     0.010 A 
ATOM     33  C   UNL A   1      40.528  24.910  27.506  1.00  0.00    -0.014 A 
BRANCH  33  34
ATOM     34  C   UNL A   1      41.344  26.109  27.798  1.00  0.00     0.031 A 
ATOM     35  C   UNL A   1      40.729  27.181  28.652  1.00  0.00     0.074 A 
ATOM     36  C   UNL A   1      42.570  26.278  27.278  1.00  0.00     0.049 A 
ATOM     37  N   UNL A   1      41.199  28.358  28.973  1.00  0.00    -0.248 NA
ATOM     38  C   UNL A   1      39.397  26.886  29.208  1.00  0.00     0.031 C 
ATOM     39  C   UNL A   1      43.286  25.307  26.454  1.00  0.00     0.029 A 
ATOM     40  N   UNL A   1      43.419  27.355  27.351  1.00  0.00    -0.354 N 
ATOM     41  C   UNL A   1      40.218  28.946  29.761  1.00  0.00     0.074 A 
ATOM     42  C   UNL A   1      39.121  28.008  29.852  1.00  0.00     0.031 C 
ATOM     43  C   UNL A   1      44.457  25.846  26.069  1.00  0.00     0.029 A 
ATOM     44  C   UNL A   1      44.557  27.207  26.599  1.00  0.00     0.049 A 
ATOM     45  H   UNL A   1      43.228  28.156  27.891  1.00  0.00     0.167 HD
ATOM     46  C   UNL A   1      40.223  30.163  30.353  1.00  0.00     0.031 A 
ATOM     47  C   UNL A   1      45.550  28.082  26.345  1.00  0.00     0.031 A 
ATOM     48  C   UNL A   1      41.289  31.115  30.232  1.00  0.00     0.049 A 
ATOM     49  C   UNL A   1      45.506  29.458  26.954  1.00  0.00     0.074 A 
ATOM     50  C   UNL A   1      41.396  32.367  30.809  1.00  0.00     0.029 A 
ATOM     51  N   UNL A   1      42.423  30.928  29.459  1.00  0.00    -0.354 N 
ATOM     52  N   UNL A   1      44.600  29.984  27.745  1.00  0.00    -0.248 NA
ATOM     53  C   UNL A   1      46.622  30.362  26.638  1.00  0.00     0.031 C 
ATOM     54  C   UNL A   1      42.572  32.961  30.341  1.00  0.00     0.029 A 
ATOM     55  C   UNL A   1      43.222  32.056  29.516  1.00  0.00     0.049 A 
ATOM     56  H   UNL A   1      42.630  30.114  28.945  1.00  0.00     0.167 HD
ATOM     57  C   UNL A   1      45.052  31.265  28.041  1.00  0.00     0.074 A 
ATOM     58  C   UNL A   1      46.312  31.438  27.350  1.00  0.00     0.031 C 
ATOM     59  C   UNL A   1      44.475  32.211  28.823  1.00  0.00     0.031 A 
BRANCH  46  60
ATOM     60  C   UNL A   1      39.000  30.534  31.139  1.00  0.00    -0.014 A 
ATOM     61  C   UNL A   1      38.868  30.181  32.491  1.00  0.00     0.009 A 
ATOM     62  C   UNL A   1      37.955  31.225  30.508  1.00  0.00     0.009 A 
ATOM     63  C   UNL A   1      37.692  30.473  33.184  1.00  0.00     0.001 A 
ATOM     64  C   UNL A   1      36.791  31.538  31.211  1.00  0.00     0.001 A 
ATOM     65  C   UNL A   1      36.656  31.152  32.543  1.00  0.00     0.000 A 
ENDBRANCH  46  60
BRANCH  47  66
ATOM     66  C   UNL A   1      46.665  27.690  25.444  1.00  0.00    -0.014 A 
ATOM     67  C   UNL A   1      46.627  28.007  24.078  1.00  0.00     0.009 A 
ATOM     68  C   UNL A   1      47.771  26.989  25.949  1.00  0.00     0.009 A 
ATOM     69  C   UNL A   1      47.669  27.616  23.233  1.00  0.00     0.001 A 
ATOM     70  C   UNL A   1      48.821  26.619  25.106  1.00  0.00     0.001 A 
ATOM     71  C   UNL A   1      48.767  26.927  23.748  1.00  0.00     0.000 A 
ENDBRANCH  47  66
BRANCH  59  72
ATOM     72  C   UNL A   1      45.210  33.509  29.008  1.00  0.00    -0.014 A 
ATOM     73  C   UNL A   1      44.933  34.625  28.205  1.00  0.00     0.009 A 
ATOM     74  C   UNL A   1      46.132  33.638  30.059  1.00  0.00     0.009 A 
ATOM     75  C   UNL A   1      45.577  35.841  28.442  1.00  0.00     0.001 A 
ATOM     76  C   UNL A   1      46.756  34.860  30.310  1.00  0.00     0.001 A 
ATOM     77  C   UNL A   1      46.482  35.959  29.498  1.00  0.00     0.000 A 
ENDBRANCH  59  72
ENDBRANCH  33  34
ENDBRANCH  26  28
ENDBRANCH  25  26
ENDBRANCH  24  25
ENDBRANCH   1  24
TORSDOF 14
ENDMDL
MODEL 3
REMARK VINA RESULT:     -10.6      4.445      6.662
REMARK SMILES O=C(CCC1CC[NH+]([C@H]2CCO[C@@]3(CCSC3)C2)CC1)OCCOC(=O)c1ccc(-c2c3nc(c(-c4ccccc4)c4ccc([nH]4)c(-c4ccccc4)c4nc(c(-c5ccccc5)c5ccc2[nH]5)C=C4)C=C3)cc1
REMARK SMILES IDX 22 1 21 2 2 3 1 4 3 5 4 6 5 7 6 8 20 9 7 10 19 11 8 12 9 14
REMARK SMILES IDX 10 15 18 16 11 17 13 18 12 19 14 20 17 21 15 22 16 23 23 24
REMARK SMILES IDX 24 25 25 26 26 27 27 28 28 29 74 30 29 31 73 32 30 33 31 34
REMARK SMILES IDX 32 35 67 36 33 37 72 38 66 39 68 40 34 41 71 42 65 43 64 44
REMARK SMILES IDX 35 46 57 47 42 48 56 49 43 50 46 51 55 52 69 53 44 54 45 55
REMARK SMILES IDX 54 57 70 58 47 59 36 60 37 61 41 62 38 63 40 64 39 65 58 66
REMARK SMILES IDX 59 67 63 68 60 69 62 70 61 71 48 72 49 73 53 74 50 75 52 76
REMARK SMILES IDX 51 77
REMARK H PARENT 8 13 68 45 46 56
REMARK Flexibility Score: inf
ROOT
ATOM      1  C   UNL A   1      41.424  19.381  26.102  1.00  0.00     0.274 C 
ENDROOT
BRANCH   1   2
ATOM      2  O   UNL A   1      41.271  20.577  26.890  1.00  0.00    -0.462 OA
BRANCH   2   3
ATOM      3  C   UNL A   1      40.999  21.722  26.211  1.00  0.00     0.305 C 
ATOM      4  O   UNL A   1      41.825  22.264  25.488  1.00  0.00    -0.252 OA
BRANCH   3   5
ATOM      5  C   UNL A   1      39.647  22.334  26.537  1.00  0.00     0.123 C 
BRANCH   5   6
ATOM      6  C   UNL A   1      38.500  21.774  25.699  1.00  0.00     0.016 C 
BRANCH   6   7
ATOM      7  C   UNL A   1      37.609  22.902  25.146  1.00  0.00     0.001 C 
ATOM      8  C   UNL A   1      36.828  23.596  26.266  1.00  0.00     0.065 C 
ATOM      9  C   UNL A   1      36.792  22.451  23.918  1.00  0.00     0.065 C 
ATOM     10  C   UNL A   1      35.355  23.237  26.349  1.00  0.00     0.262 C 
ATOM     11  C   UNL A   1      35.321  22.176  24.200  1.00  0.00     0.262 C 
ATOM     12  N   UNL A   1      34.677  23.163  25.057  1.00  0.00    -0.332 N 
ATOM     13  H   UNL A   1      33.740  22.781  25.193  1.00  0.00     0.348 HD
BRANCH  12  14
ATOM     14  C   UNL A   1      34.233  24.452  24.490  1.00  0.00     0.189 C 
ATOM     15  C   UNL A   1      33.880  24.518  22.996  1.00  0.00     0.093 C 
ATOM     16  C   UNL A   1      33.078  25.069  25.311  1.00  0.00     0.101 C 
ATOM     17  C   UNL A   1      33.432  25.912  22.583  1.00  0.00     0.167 C 
ATOM     18  C   UNL A   1      32.689  26.470  24.792  1.00  0.00     0.084 C 
ATOM     19  O   UNL A   1      32.362  26.375  23.397  1.00  0.00    -0.374 OA
ATOM     20  C   UNL A   1      31.418  26.995  25.481  1.00  0.00     0.047 C 
ATOM     21  C   UNL A   1      33.750  27.558  25.054  1.00  0.00     0.105 C 
ATOM     22  C   UNL A   1      31.785  27.472  26.872  1.00  0.00     0.072 C 
ATOM     23  S   UNL A   1      33.388  28.286  26.678  1.00  0.00    -0.159 SA
ENDBRANCH  12  14
ENDBRANCH   6   7
ENDBRANCH   5   6
ENDBRANCH   3   5
ENDBRANCH   2   3
ENDBRANCH   1   2
BRANCH   1  24
ATOM     24  C   UNL A   1      42.891  19.015  25.868  1.00  0.00     0.275 C 
BRANCH  24  25
ATOM     25  O   UNL A   1      43.334  19.476  24.583  1.00  0.00    -0.458 OA
BRANCH  25  26
ATOM     26  C   UNL A   1      44.675  19.690  24.498  1.00  0.00     0.338 C 
ATOM     27  O   UNL A   1      45.515  18.924  24.073  1.00  0.00    -0.246 OA
BRANCH  26  28
ATOM     28  C   UNL A   1      44.947  21.109  24.818  1.00  0.00     0.060 A 
ATOM     29  C   UNL A   1      45.368  21.417  26.119  1.00  0.00     0.016 A 
ATOM     30  C   UNL A   1      44.840  22.112  23.851  1.00  0.00     0.016 A 
ATOM     31  C   UNL A   1      45.670  22.736  26.461  1.00  0.00     0.010 A 
ATOM     32  C   UNL A   1      45.116  23.433  24.201  1.00  0.00     0.010 A 
ATOM     33  C   UNL A   1      45.509  23.752  25.513  1.00  0.00    -0.014 A 
BRANCH  33  34
ATOM     34  C   UNL A   1      45.517  25.171  25.932  1.00  0.00     0.031 A 
ATOM     35  C   UNL A   1      46.832  25.897  25.914  1.00  0.00     0.074 A 
ATOM     36  C   UNL A   1      44.409  25.788  26.373  1.00  0.00     0.049 A 
ATOM     37  N   UNL A   1      47.118  27.107  26.320  1.00  0.00    -0.248 NA
ATOM     38  C   UNL A   1      47.981  25.148  25.377  1.00  0.00     0.031 C 
ATOM     39  C   UNL A   1      43.071  25.204  26.420  1.00  0.00     0.029 A 
ATOM     40  N   UNL A   1      44.249  27.048  26.895  1.00  0.00    -0.354 N 
ATOM     41  C   UNL A   1      48.479  27.261  26.093  1.00  0.00     0.074 A 
ATOM     42  C   UNL A   1      48.965  26.017  25.537  1.00  0.00     0.031 C 
ATOM     43  C   UNL A   1      42.229  26.095  26.973  1.00  0.00     0.029 A 
ATOM     44  C   UNL A   1      42.976  27.298  27.341  1.00  0.00     0.049 A 
ATOM     45  H   UNL A   1      44.978  27.708  26.944  1.00  0.00     0.167 HD
ATOM     46  C   UNL A   1      49.262  28.339  26.333  1.00  0.00     0.031 A 
ATOM     47  C   UNL A   1      42.479  28.365  27.998  1.00  0.00     0.031 A 
ATOM     48  C   UNL A   1      48.796  29.559  26.924  1.00  0.00     0.049 A 
ATOM     49  C   UNL A   1      43.380  29.528  28.321  1.00  0.00     0.074 A 
ATOM     50  C   UNL A   1      49.506  30.716  27.189  1.00  0.00     0.029 A 
ATOM     51  N   UNL A   1      47.499  29.772  27.365  1.00  0.00    -0.354 N 
ATOM     52  N   UNL A   1      44.655  29.686  28.052  1.00  0.00    -0.248 NA
ATOM     53  C   UNL A   1      42.775  30.660  29.038  1.00  0.00     0.031 C 
ATOM     54  C   UNL A   1      48.652  31.609  27.842  1.00  0.00     0.029 A 
ATOM     55  C   UNL A   1      47.396  31.029  27.933  1.00  0.00     0.049 A 
ATOM     56  H   UNL A   1      46.761  29.124  27.286  1.00  0.00     0.167 HD
ATOM     57  C   UNL A   1      44.993  30.944  28.539  1.00  0.00     0.074 A 
ATOM     58  C   UNL A   1      43.792  31.508  29.117  1.00  0.00     0.031 C 
ATOM     59  C   UNL A   1      46.192  31.576  28.503  1.00  0.00     0.031 A 
BRANCH  46  60
ATOM     60  C   UNL A   1      50.718  28.201  25.996  1.00  0.00    -0.014 A 
ATOM     61  C   UNL A   1      51.206  28.542  24.725  1.00  0.00     0.009 A 
ATOM     62  C   UNL A   1      51.607  27.701  26.958  1.00  0.00     0.009 A 
ATOM     63  C   UNL A   1      52.551  28.339  24.409  1.00  0.00     0.001 A 
ATOM     64  C   UNL A   1      52.956  27.525  26.648  1.00  0.00     0.001 A 
ATOM     65  C   UNL A   1      53.423  27.831  25.372  1.00  0.00     0.000 A 
ENDBRANCH  46  60
BRANCH  47  66
ATOM     66  C   UNL A   1      41.056  28.373  28.423  1.00  0.00    -0.014 A 
ATOM     67  C   UNL A   1      40.670  27.801  29.644  1.00  0.00     0.009 A 
ATOM     68  C   UNL A   1      40.075  28.948  27.600  1.00  0.00     0.009 A 
ATOM     69  C   UNL A   1      39.325  27.792  30.026  1.00  0.00     0.001 A 
ATOM     70  C   UNL A   1      38.735  28.957  27.996  1.00  0.00     0.001 A 
ATOM     71  C   UNL A   1      38.361  28.375  29.204  1.00  0.00     0.000 A 
ENDBRANCH  47  66
BRANCH  59  72
ATOM     72  C   UNL A   1      46.268  32.965  29.072  1.00  0.00    -0.014 A 
ATOM     73  C   UNL A   1      45.988  34.092  28.286  1.00  0.00     0.009 A 
ATOM     74  C   UNL A   1      46.541  33.138  30.439  1.00  0.00     0.009 A 
ATOM     75  C   UNL A   1      45.996  35.368  28.855  1.00  0.00     0.001 A 
ATOM     76  C   UNL A   1      46.524  34.411  31.010  1.00  0.00     0.001 A 
ATOM     77  C   UNL A   1      46.256  35.525  30.217  1.00  0.00     0.000 A 
ENDBRANCH  59  72
ENDBRANCH  33  34
ENDBRANCH  26  28
ENDBRANCH  25  26
ENDBRANCH  24  25
ENDBRANCH   1  24
TORSDOF 14
ENDMDL
