MODEL 1
REMARK VINA RESULT:     -11.2      0.000      0.000
REMARK SMILES CC(C)CN(C)c1cc2c(cc1Cl)C=C(C(=O)OCCOC(=O)c1ccc(-c3c4nc(c(-c5ccccc5)c5ccc([nH]5)c(-c5ccccc5)c5nc(c(-c6ccccc6)c6ccc3[nH]6)C=C5)C=C4)cc1)[C@@H](C(F)(F)F)O2
REMARK SMILES IDX 19 1 18 2 16 3 17 4 15 5 7 6 8 7 12 8 9 9 11 10 13 11 10 12
REMARK SMILES IDX 77 13 14 14 72 15 5 16 6 17 4 18 2 19 1 20 3 21 73 22 74 23
REMARK SMILES IDX 75 24 76 25 20 26 21 27 22 28 23 29 24 30 25 31 71 32 26 33
REMARK SMILES IDX 70 34 27 35 28 36 29 37 64 38 30 39 69 40 63 41 65 42 31 43
REMARK SMILES IDX 68 44 62 45 61 46 32 48 54 49 39 50 53 51 40 52 43 53 52 54
REMARK SMILES IDX 66 55 41 56 42 57 51 59 67 60 44 61 33 62 34 63 38 64 35 65
REMARK SMILES IDX 37 66 36 67 55 68 56 69 60 70 57 71 59 72 58 73 45 74 46 75
REMARK SMILES IDX 50 76 47 77 49 78 48 79
REMARK H PARENT 65 47 43 58
REMARK Flexibility Score: inf
ROOT
ATOM      1  C   UNL A   1      35.513  20.698  25.330  1.00  0.00     0.275 C 
ENDROOT
BRANCH   1   2
ATOM      2  O   UNL A   1      34.883  21.451  24.269  1.00  0.00    -0.459 OA
BRANCH   2   3
ATOM      3  C   UNL A   1      33.535  21.347  24.222  1.00  0.00     0.338 C 
ATOM      4  O   UNL A   1      32.896  20.304  24.216  1.00  0.00    -0.246 OA
BRANCH   3   5
ATOM      5  C   UNL A   1      32.884  22.671  24.245  1.00  0.00     0.087 C 
ATOM      6  C   UNL A   1      31.813  27.541  23.474  1.00  0.00     0.059 A 
ATOM      7  C   UNL A   1      31.187  26.500  24.198  1.00  0.00     0.074 A 
ATOM      8  C   UNL A   1      33.038  27.253  22.839  1.00  0.00     0.065 A 
ATOM      9  C   UNL A   1      31.738  25.215  24.237  1.00  0.00     0.130 A 
ATOM     10  C   UNL A   1      33.536  25.955  22.802  1.00  0.00     0.034 A 
ATOM     11  Cl  UNL A   1      34.028  28.473  22.113  1.00  0.00    -0.082 Cl
ATOM     12  C   UNL A   1      32.879  24.941  23.492  1.00  0.00     0.019 A 
ATOM     13  O   UNL A   1      31.103  24.254  24.983  1.00  0.00    -0.475 OA
ATOM     14  C   UNL A   1      33.399  23.594  23.427  1.00  0.00     0.027 C 
ATOM     15  C   UNL A   1      31.848  23.024  25.275  1.00  0.00     0.316 C 
BRANCH   6  16
ATOM     16  N   UNL A   1      31.228  28.808  23.381  1.00  0.00    -0.373 N 
ATOM     17  C   UNL A   1      31.137  29.567  24.621  1.00  0.00     0.143 C 
BRANCH  16  18
ATOM     18  C   UNL A   1      30.160  28.995  22.379  1.00  0.00     0.119 C 
BRANCH  18  19
ATOM     19  C   UNL A   1      28.971  29.820  22.920  1.00  0.00     0.002 C 
ATOM     20  C   UNL A   1      28.793  31.141  22.165  1.00  0.00     0.009 C 
ATOM     21  C   UNL A   1      27.662  29.031  22.843  1.00  0.00     0.009 C 
ENDBRANCH  18  19
ENDBRANCH  16  18
ENDBRANCH   6  16
BRANCH  15  22
ATOM     22  C   UNL A   1      32.518  23.112  26.659  1.00  0.00     0.430 C 
ATOM     23  F   UNL A   1      33.703  23.761  26.604  1.00  0.00    -0.167 F 
ATOM     24  F   UNL A   1      31.739  23.795  27.534  1.00  0.00    -0.167 F 
ATOM     25  F   UNL A   1      32.747  21.891  27.197  1.00  0.00    -0.167 F 
ENDBRANCH  15  22
ENDBRANCH   3   5
ENDBRANCH   2   3
ENDBRANCH   1   2
BRANCH   1  26
ATOM     26  C   UNL A   1      36.965  20.340  24.998  1.00  0.00     0.275 C 
BRANCH  26  27
ATOM     27  O   UNL A   1      37.843  21.454  25.249  1.00  0.00    -0.458 OA
BRANCH  27  28
ATOM     28  C   UNL A   1      38.965  21.163  25.948  1.00  0.00     0.338 C 
ATOM     29  O   UNL A   1      39.519  20.084  26.052  1.00  0.00    -0.246 OA
BRANCH  28  30
ATOM     30  C   UNL A   1      39.513  22.393  26.542  1.00  0.00     0.060 A 
ATOM     31  C   UNL A   1      40.652  22.371  27.338  1.00  0.00     0.016 A 
ATOM     32  C   UNL A   1      38.964  23.608  26.151  1.00  0.00     0.016 A 
ATOM     33  C   UNL A   1      41.220  23.585  27.749  1.00  0.00     0.010 A 
ATOM     34  C   UNL A   1      39.602  24.809  26.450  1.00  0.00     0.010 A 
ATOM     35  C   UNL A   1      40.727  24.821  27.280  1.00  0.00    -0.014 A 
BRANCH  35  36
ATOM     36  C   UNL A   1      41.387  26.112  27.643  1.00  0.00     0.031 A 
ATOM     37  C   UNL A   1      42.739  26.488  27.081  1.00  0.00     0.074 A 
ATOM     38  C   UNL A   1      40.783  26.950  28.512  1.00  0.00     0.049 A 
ATOM     39  N   UNL A   1      43.431  27.588  27.267  1.00  0.00    -0.248 NA
ATOM     40  C   UNL A   1      43.426  25.498  26.235  1.00  0.00     0.031 C 
ATOM     41  C   UNL A   1      39.529  26.676  29.219  1.00  0.00     0.029 A 
ATOM     42  N   UNL A   1      41.129  28.211  28.937  1.00  0.00    -0.354 N 
ATOM     43  C   UNL A   1      44.629  27.407  26.584  1.00  0.00     0.074 A 
ATOM     44  C   UNL A   1      44.606  26.071  26.038  1.00  0.00     0.031 C 
ATOM     45  C   UNL A   1      39.171  27.763  29.920  1.00  0.00     0.029 A 
ATOM     46  C   UNL A   1      40.186  28.798  29.749  1.00  0.00     0.049 A 
ATOM     47  H   UNL A   1      41.971  28.653  28.683  1.00  0.00     0.167 HD
ATOM     48  C   UNL A   1      45.641  28.285  26.387  1.00  0.00     0.031 A 
ATOM     49  C   UNL A   1      40.125  30.034  30.281  1.00  0.00     0.031 A 
ATOM     50  C   UNL A   1      45.648  29.635  26.880  1.00  0.00     0.049 A 
ATOM     51  C   UNL A   1      41.220  31.021  29.986  1.00  0.00     0.074 A 
ATOM     52  C   UNL A   1      46.596  30.621  26.667  1.00  0.00     0.029 A 
ATOM     53  N   UNL A   1      44.654  30.194  27.665  1.00  0.00    -0.354 N 
ATOM     54  N   UNL A   1      42.303  30.854  29.267  1.00  0.00    -0.248 NA
ATOM     55  C   UNL A   1      41.079  32.369  30.556  1.00  0.00     0.031 C 
ATOM     56  C   UNL A   1      46.193  31.767  27.354  1.00  0.00     0.029 A 
ATOM     57  C   UNL A   1      44.967  31.511  27.947  1.00  0.00     0.049 A 
ATOM     58  H   UNL A   1      43.845  29.725  27.974  1.00  0.00     0.167 HD
ATOM     59  C   UNL A   1      42.964  32.076  29.288  1.00  0.00     0.074 A 
ATOM     60  C   UNL A   1      42.149  32.982  30.069  1.00  0.00     0.031 C 
ATOM     61  C   UNL A   1      44.146  32.408  28.717  1.00  0.00     0.031 A 
BRANCH  48  62
ATOM     62  C   UNL A   1      46.814  27.839  25.555  1.00  0.00    -0.014 A 
ATOM     63  C   UNL A   1      46.778  27.963  24.157  1.00  0.00     0.009 A 
ATOM     64  C   UNL A   1      47.915  27.202  26.149  1.00  0.00     0.009 A 
ATOM     65  C   UNL A   1      47.814  27.454  23.373  1.00  0.00     0.001 A 
ATOM     66  C   UNL A   1      48.965  26.720  25.365  1.00  0.00     0.001 A 
ATOM     67  C   UNL A   1      48.909  26.838  23.978  1.00  0.00     0.000 A 
ENDBRANCH  48  62
BRANCH  49  68
ATOM     68  C   UNL A   1      38.942  30.422  31.096  1.00  0.00    -0.014 A 
ATOM     69  C   UNL A   1      38.928  30.219  32.484  1.00  0.00     0.009 A 
ATOM     70  C   UNL A   1      37.797  30.951  30.478  1.00  0.00     0.009 A 
ATOM     71  C   UNL A   1      37.788  30.517  33.235  1.00  0.00     0.001 A 
ATOM     72  C   UNL A   1      36.669  31.276  31.235  1.00  0.00     0.001 A 
ATOM     73  C   UNL A   1      36.661  31.049  32.610  1.00  0.00     0.000 A 
ENDBRANCH  49  68
BRANCH  61  74
ATOM     74  C   UNL A   1      44.645  33.814  28.889  1.00  0.00    -0.014 A 
ATOM     75  C   UNL A   1      44.333  34.787  27.926  1.00  0.00     0.009 A 
ATOM     76  C   UNL A   1      45.522  34.143  29.933  1.00  0.00     0.009 A 
ATOM     77  C   UNL A   1      44.906  36.058  27.993  1.00  0.00     0.001 A 
ATOM     78  C   UNL A   1      46.073  35.423  30.011  1.00  0.00     0.001 A 
ATOM     79  C   UNL A   1      45.774  36.375  29.036  1.00  0.00     0.000 A 
ENDBRANCH  61  74
ENDBRANCH  35  36
ENDBRANCH  28  30
ENDBRANCH  27  28
ENDBRANCH  26  27
ENDBRANCH   1  26
TORSDOF 15
ENDMDL
MODEL 2
REMARK VINA RESULT:     -10.8      2.517      6.093
REMARK SMILES CC(C)CN(C)c1cc2c(cc1Cl)C=C(C(=O)OCCOC(=O)c1ccc(-c3c4nc(c(-c5ccccc5)c5ccc([nH]5)c(-c5ccccc5)c5nc(c(-c6ccccc6)c6ccc3[nH]6)C=C5)C=C4)cc1)[C@@H](C(F)(F)F)O2
REMARK SMILES IDX 19 1 18 2 16 3 17 4 15 5 7 6 8 7 12 8 9 9 11 10 13 11 10 12
REMARK SMILES IDX 77 13 14 14 72 15 5 16 6 17 4 18 2 19 1 20 3 21 73 22 74 23
REMARK SMILES IDX 75 24 76 25 20 26 21 27 22 28 23 29 24 30 25 31 71 32 26 33
REMARK SMILES IDX 70 34 27 35 28 36 29 37 64 38 30 39 69 40 63 41 65 42 31 43
REMARK SMILES IDX 68 44 62 45 61 46 32 48 54 49 39 50 53 51 40 52 43 53 52 54
REMARK SMILES IDX 66 55 41 56 42 57 51 59 67 60 44 61 33 62 34 63 38 64 35 65
REMARK SMILES IDX 37 66 36 67 55 68 56 69 60 70 57 71 59 72 58 73 45 74 46 75
REMARK SMILES IDX 50 76 47 77 49 78 48 79
REMARK H PARENT 65 47 43 58
REMARK Flexibility Score: inf
ROOT
ATOM      1  C   UNL A   1      37.535  20.297  24.894  1.00  0.00     0.275 C 
ENDROOT
BRANCH   1   2
ATOM      2  O   UNL A   1      36.519  21.306  24.693  1.00  0.00    -0.459 OA
BRANCH   2   3
ATOM      3  C   UNL A   1      35.246  20.854  24.773  1.00  0.00     0.338 C 
ATOM      4  O   UNL A   1      34.903  19.681  24.829  1.00  0.00    -0.246 OA
BRANCH   3   5
ATOM      5  C   UNL A   1      34.277  21.964  24.853  1.00  0.00     0.087 C 
ATOM      6  C   UNL A   1      31.954  26.401  24.247  1.00  0.00     0.059 A 
ATOM      7  C   UNL A   1      31.647  25.222  24.965  1.00  0.00     0.074 A 
ATOM      8  C   UNL A   1      33.185  26.451  23.563  1.00  0.00     0.065 A 
ATOM      9  C   UNL A   1      32.512  24.123  24.951  1.00  0.00     0.130 A 
ATOM     10  C   UNL A   1      33.999  25.327  23.475  1.00  0.00     0.034 A 
ATOM     11  Cl  UNL A   1      33.796  27.898  22.835  1.00  0.00    -0.082 Cl
ATOM     12  C   UNL A   1      33.655  24.166  24.160  1.00  0.00     0.019 A 
ATOM     13  O   UNL A   1      32.178  23.018  25.694  1.00  0.00    -0.475 OA
ATOM     14  C   UNL A   1      34.502  23.002  24.042  1.00  0.00     0.027 C 
ATOM     15  C   UNL A   1      33.227  22.019  25.927  1.00  0.00     0.316 C 
BRANCH   6  16
ATOM     16  N   UNL A   1      31.057  27.475  24.207  1.00  0.00    -0.373 N 
ATOM     17  C   UNL A   1      30.394  27.710  22.932  1.00  0.00     0.143 C 
BRANCH  16  18
ATOM     18  C   UNL A   1      31.355  28.645  25.056  1.00  0.00     0.119 C 
BRANCH  18  19
ATOM     19  C   UNL A   1      32.306  28.307  26.226  1.00  0.00     0.002 C 
ATOM     20  C   UNL A   1      33.501  29.264  26.293  1.00  0.00     0.009 C 
ATOM     21  C   UNL A   1      31.575  28.342  27.570  1.00  0.00     0.009 C 
ENDBRANCH  18  19
ENDBRANCH  16  18
ENDBRANCH   6  16
BRANCH  15  22
ATOM     22  C   UNL A   1      33.906  22.255  27.289  1.00  0.00     0.430 C 
ATOM     23  F   UNL A   1      34.509  21.137  27.751  1.00  0.00    -0.167 F 
ATOM     24  F   UNL A   1      34.867  23.208  27.194  1.00  0.00    -0.167 F 
ATOM     25  F   UNL A   1      33.030  22.666  28.235  1.00  0.00    -0.167 F 
ENDBRANCH  15  22
ENDBRANCH   3   5
ENDBRANCH   2   3
ENDBRANCH   1   2
BRANCH   1  26
ATOM     26  C   UNL A   1      38.806  20.877  25.520  1.00  0.00     0.275 C 
BRANCH  26  27
ATOM     27  O   UNL A   1      39.513  19.876  26.278  1.00  0.00    -0.458 OA
BRANCH  27  28
ATOM     28  C   UNL A   1      40.852  19.841  26.085  1.00  0.00     0.338 C 
ATOM     29  O   UNL A   1      41.501  18.978  25.522  1.00  0.00    -0.246 OA
BRANCH  28  30
ATOM     30  C   UNL A   1      41.461  21.078  26.601  1.00  0.00     0.060 A 
ATOM     31  C   UNL A   1      41.961  22.053  25.745  1.00  0.00     0.016 A 
ATOM     32  C   UNL A   1      41.372  21.331  27.963  1.00  0.00     0.016 A 
ATOM     33  C   UNL A   1      42.387  23.276  26.281  1.00  0.00     0.010 A 
ATOM     34  C   UNL A   1      41.672  22.590  28.477  1.00  0.00     0.010 A 
ATOM     35  C   UNL A   1      42.213  23.577  27.648  1.00  0.00    -0.014 A 
BRANCH  35  36
ATOM     36  C   UNL A   1      42.582  24.915  28.204  1.00  0.00     0.031 A 
ATOM     37  C   UNL A   1      41.538  25.984  28.437  1.00  0.00     0.074 A 
ATOM     38  C   UNL A   1      43.875  25.191  28.479  1.00  0.00     0.049 A 
ATOM     39  N   UNL A   1      41.688  27.184  28.948  1.00  0.00    -0.248 NA
ATOM     40  C   UNL A   1      40.159  25.696  28.011  1.00  0.00     0.031 C 
ATOM     41  C   UNL A   1      45.006  24.301  28.208  1.00  0.00     0.029 A 
ATOM     42  N   UNL A   1      44.456  26.290  29.066  1.00  0.00    -0.354 N 
ATOM     43  C   UNL A   1      40.437  27.787  28.882  1.00  0.00     0.074 A 
ATOM     44  C   UNL A   1      39.554  26.857  28.219  1.00  0.00     0.031 C 
ATOM     45  C   UNL A   1      46.127  24.850  28.700  1.00  0.00     0.029 A 
ATOM     46  C   UNL A   1      45.808  26.148  29.284  1.00  0.00     0.049 A 
ATOM     47  H   UNL A   1      43.954  27.102  29.308  1.00  0.00     0.167 HD
ATOM     48  C   UNL A   1      40.041  28.988  29.366  1.00  0.00     0.031 A 
ATOM     49  C   UNL A   1      46.691  26.955  29.904  1.00  0.00     0.031 A 
ATOM     50  C   UNL A   1      40.899  29.897  30.075  1.00  0.00     0.049 A 
ATOM     51  C   UNL A   1      46.216  28.248  30.505  1.00  0.00     0.074 A 
ATOM     52  C   UNL A   1      40.569  31.104  30.667  1.00  0.00     0.029 A 
ATOM     53  N   UNL A   1      42.249  29.692  30.304  1.00  0.00    -0.354 N 
ATOM     54  N   UNL A   1      45.010  28.760  30.504  1.00  0.00    -0.248 NA
ATOM     55  C   UNL A   1      47.215  29.066  31.208  1.00  0.00     0.031 C 
ATOM     56  C   UNL A   1      41.728  31.646  31.225  1.00  0.00     0.029 A 
ATOM     57  C   UNL A   1      42.766  30.751  31.027  1.00  0.00     0.049 A 
ATOM     58  H   UNL A   1      42.763  28.909  29.999  1.00  0.00     0.167 HD
ATOM     59  C   UNL A   1      45.102  29.950  31.214  1.00  0.00     0.074 A 
ATOM     60  C   UNL A   1      46.476  30.073  31.653  1.00  0.00     0.031 C 
ATOM     61  C   UNL A   1      44.132  30.860  31.468  1.00  0.00     0.031 A 
BRANCH  48  62
ATOM     62  C   UNL A   1      38.597  29.378  29.199  1.00  0.00    -0.014 A 
ATOM     63  C   UNL A   1      38.171  30.032  28.031  1.00  0.00     0.009 A 
ATOM     64  C   UNL A   1      37.676  29.190  30.242  1.00  0.00     0.009 A 
ATOM     65  C   UNL A   1      36.859  30.493  27.915  1.00  0.00     0.001 A 
ATOM     66  C   UNL A   1      36.356  29.625  30.111  1.00  0.00     0.001 A 
ATOM     67  C   UNL A   1      35.951  30.285  28.953  1.00  0.00     0.000 A 
ENDBRANCH  48  62
BRANCH  49  68
ATOM     68  C   UNL A   1      48.108  26.519  30.042  1.00  0.00    -0.014 A 
ATOM     69  C   UNL A   1      49.063  26.866  29.075  1.00  0.00     0.009 A 
ATOM     70  C   UNL A   1      48.499  25.706  31.118  1.00  0.00     0.009 A 
ATOM     71  C   UNL A   1      50.374  26.395  29.169  1.00  0.00     0.001 A 
ATOM     72  C   UNL A   1      49.818  25.260  31.227  1.00  0.00     0.001 A 
ATOM     73  C   UNL A   1      50.752  25.595  30.248  1.00  0.00     0.000 A 
ENDBRANCH  49  68
BRANCH  61  74
ATOM     74  C   UNL A   1      44.496  32.077  32.270  1.00  0.00    -0.014 A 
ATOM     75  C   UNL A   1      45.015  33.210  31.622  1.00  0.00     0.009 A 
ATOM     76  C   UNL A   1      44.445  32.056  33.672  1.00  0.00     0.009 A 
ATOM     77  C   UNL A   1      45.493  34.292  32.362  1.00  0.00     0.001 A 
ATOM     78  C   UNL A   1      44.901  33.151  34.408  1.00  0.00     0.001 A 
ATOM     79  C   UNL A   1      45.434  34.262  33.754  1.00  0.00     0.000 A 
ENDBRANCH  61  74
ENDBRANCH  35  36
ENDBRANCH  28  30
ENDBRANCH  27  28
ENDBRANCH  26  27
ENDBRANCH   1  26
TORSDOF 15
ENDMDL
MODEL 3
REMARK VINA RESULT:     -10.8      3.050      6.401
REMARK SMILES CC(C)CN(C)c1cc2c(cc1Cl)C=C(C(=O)OCCOC(=O)c1ccc(-c3c4nc(c(-c5ccccc5)c5ccc([nH]5)c(-c5ccccc5)c5nc(c(-c6ccccc6)c6ccc3[nH]6)C=C5)C=C4)cc1)[C@@H](C(F)(F)F)O2
REMARK SMILES IDX 19 1 18 2 16 3 17 4 15 5 7 6 8 7 12 8 9 9 11 10 13 11 10 12
REMARK SMILES IDX 77 13 14 14 72 15 5 16 6 17 4 18 2 19 1 20 3 21 73 22 74 23
REMARK SMILES IDX 75 24 76 25 20 26 21 27 22 28 23 29 24 30 25 31 71 32 26 33
REMARK SMILES IDX 70 34 27 35 28 36 29 37 64 38 30 39 69 40 63 41 65 42 31 43
REMARK SMILES IDX 68 44 62 45 61 46 32 48 54 49 39 50 53 51 40 52 43 53 52 54
REMARK SMILES IDX 66 55 41 56 42 57 51 59 67 60 44 61 33 62 34 63 38 64 35 65
REMARK SMILES IDX 37 66 36 67 55 68 56 69 60 70 57 71 59 72 58 73 45 74 46 75
REMARK SMILES IDX 50 76 47 77 49 78 48 79
REMARK H PARENT 65 47 43 58
REMARK Flexibility Score: inf
ROOT
ATOM      1  C   UNL A   1      35.462  23.963  25.786  1.00  0.00     0.275 C 
ENDROOT
BRANCH   1   2
ATOM      2  O   UNL A   1      34.444  23.513  24.864  1.00  0.00    -0.459 OA
BRANCH   2   3
ATOM      3  C   UNL A   1      34.536  24.033  23.618  1.00  0.00     0.338 C 
ATOM      4  O   UNL A   1      35.407  23.778  22.798  1.00  0.00    -0.246 OA
BRANCH   3   5
ATOM      5  C   UNL A   1      33.401  24.924  23.313  1.00  0.00     0.087 C 
ATOM      6  C   UNL A   1      30.166  28.796  23.305  1.00  0.00     0.059 A 
ATOM      7  C   UNL A   1      30.245  27.580  22.587  1.00  0.00     0.074 A 
ATOM      8  C   UNL A   1      31.139  29.036  24.296  1.00  0.00     0.065 A 
ATOM      9  C   UNL A   1      31.284  26.672  22.816  1.00  0.00     0.130 A 
ATOM     10  C   UNL A   1      32.220  28.177  24.459  1.00  0.00     0.034 A 
ATOM     11  Cl  UNL A   1      31.041  30.363  25.404  1.00  0.00    -0.082 Cl
ATOM     12  C   UNL A   1      32.293  27.005  23.712  1.00  0.00     0.019 A 
ATOM     13  O   UNL A   1      31.289  25.494  22.113  1.00  0.00    -0.475 OA
ATOM     14  C   UNL A   1      33.434  26.134  23.880  1.00  0.00     0.027 C 
ATOM     15  C   UNL A   1      32.182  24.430  22.586  1.00  0.00     0.316 C 
BRANCH   6  16
ATOM     16  N   UNL A   1      29.165  29.734  23.028  1.00  0.00    -0.373 N 
ATOM     17  C   UNL A   1      27.800  29.226  23.001  1.00  0.00     0.143 C 
BRANCH  16  18
ATOM     18  C   UNL A   1      29.505  30.848  22.122  1.00  0.00     0.119 C 
BRANCH  18  19
ATOM     19  C   UNL A   1      28.419  31.947  22.094  1.00  0.00     0.002 C 
ATOM     20  C   UNL A   1      28.835  33.190  22.888  1.00  0.00     0.009 C 
ATOM     21  C   UNL A   1      28.087  32.370  20.661  1.00  0.00     0.009 C 
ENDBRANCH  18  19
ENDBRANCH  16  18
ENDBRANCH   6  16
BRANCH  15  22
ATOM     22  C   UNL A   1      31.418  23.444  23.489  1.00  0.00     0.430 C 
ATOM     23  F   UNL A   1      32.008  22.227  23.518  1.00  0.00    -0.167 F 
ATOM     24  F   UNL A   1      31.377  23.889  24.770  1.00  0.00    -0.167 F 
ATOM     25  F   UNL A   1      30.138  23.266  23.088  1.00  0.00    -0.167 F 
ENDBRANCH  15  22
ENDBRANCH   3   5
ENDBRANCH   2   3
ENDBRANCH   1   2
BRANCH   1  26
ATOM     26  C   UNL A   1      36.588  22.937  25.946  1.00  0.00     0.275 C 
BRANCH  26  27
ATOM     27  O   UNL A   1      37.839  23.461  25.463  1.00  0.00    -0.458 OA
BRANCH  27  28
ATOM     28  C   UNL A   1      38.935  23.088  26.163  1.00  0.00     0.338 C 
ATOM     29  O   UNL A   1      39.435  21.979  26.228  1.00  0.00    -0.246 OA
BRANCH  28  30
ATOM     30  C   UNL A   1      39.532  24.264  26.816  1.00  0.00     0.060 A 
ATOM     31  C   UNL A   1      40.218  25.229  26.088  1.00  0.00     0.016 A 
ATOM     32  C   UNL A   1      39.251  24.478  28.159  1.00  0.00     0.016 A 
ATOM     33  C   UNL A   1      40.631  26.403  26.733  1.00  0.00     0.010 A 
ATOM     34  C   UNL A   1      39.546  25.697  28.764  1.00  0.00     0.010 A 
ATOM     35  C   UNL A   1      40.268  26.672  28.070  1.00  0.00    -0.014 A 
BRANCH  35  36
ATOM     36  C   UNL A   1      40.628  27.963  28.731  1.00  0.00     0.031 A 
ATOM     37  C   UNL A   1      39.611  29.069  28.902  1.00  0.00     0.074 A 
ATOM     38  C   UNL A   1      41.892  28.163  29.160  1.00  0.00     0.049 A 
ATOM     39  N   UNL A   1      39.754  30.236  29.487  1.00  0.00    -0.248 NA
ATOM     40  C   UNL A   1      38.278  28.867  28.312  1.00  0.00     0.031 C 
ATOM     41  C   UNL A   1      43.008  27.233  28.970  1.00  0.00     0.029 A 
ATOM     42  N   UNL A   1      42.451  29.205  29.864  1.00  0.00    -0.354 N 
ATOM     43  C   UNL A   1      38.545  30.900  29.314  1.00  0.00     0.074 A 
ATOM     44  C   UNL A   1      37.703  30.045  28.512  1.00  0.00     0.031 C 
ATOM     45  C   UNL A   1      44.089  27.704  29.610  1.00  0.00     0.029 A 
ATOM     46  C   UNL A   1      43.762  28.989  30.221  1.00  0.00     0.049 A 
ATOM     47  H   UNL A   1      41.959  30.028  30.090  1.00  0.00     0.167 HD
ATOM     48  C   UNL A   1      38.149  32.095  29.813  1.00  0.00     0.031 A 
ATOM     49  C   UNL A   1      44.603  29.722  30.976  1.00  0.00     0.031 A 
ATOM     50  C   UNL A   1      38.960  32.928  30.658  1.00  0.00     0.049 A 
ATOM     51  C   UNL A   1      44.120  31.007  31.586  1.00  0.00     0.074 A 
ATOM     52  C   UNL A   1      38.617  34.121  31.272  1.00  0.00     0.029 A 
ATOM     53  N   UNL A   1      40.266  32.648  31.023  1.00  0.00    -0.354 N 
ATOM     54  N   UNL A   1      42.944  31.576  31.478  1.00  0.00    -0.248 NA
ATOM     55  C   UNL A   1      45.067  31.743  32.436  1.00  0.00     0.031 C 
ATOM     56  C   UNL A   1      39.728  34.581  31.980  1.00  0.00     0.029 A 
ATOM     57  C   UNL A   1      40.743  33.647  31.853  1.00  0.00     0.049 A 
ATOM     58  H   UNL A   1      40.777  31.857  30.737  1.00  0.00     0.167 HD
ATOM     59  C   UNL A   1      43.006  32.726  32.254  1.00  0.00     0.074 A 
ATOM     60  C   UNL A   1      44.326  32.763  32.848  1.00  0.00     0.031 C 
ATOM     61  C   UNL A   1      42.054  33.670  32.446  1.00  0.00     0.031 A 
BRANCH  48  62
ATOM     62  C   UNL A   1      36.750  32.562  29.508  1.00  0.00    -0.014 A 
ATOM     63  C   UNL A   1      36.490  33.301  28.343  1.00  0.00     0.009 A 
ATOM     64  C   UNL A   1      35.708  32.357  30.426  1.00  0.00     0.009 A 
ATOM     65  C   UNL A   1      35.219  33.830  28.108  1.00  0.00     0.001 A 
ATOM     66  C   UNL A   1      34.430  32.860  30.174  1.00  0.00     0.001 A 
ATOM     67  C   UNL A   1      34.189  33.604  29.021  1.00  0.00     0.000 A 
ENDBRANCH  48  62
BRANCH  49  68
ATOM     68  C   UNL A   1      45.976  29.213  31.246  1.00  0.00    -0.014 A 
ATOM     69  C   UNL A   1      46.264  28.519  32.431  1.00  0.00     0.009 A 
ATOM     70  C   UNL A   1      47.018  29.466  30.340  1.00  0.00     0.009 A 
ATOM     71  C   UNL A   1      47.568  28.107  32.714  1.00  0.00     0.001 A 
ATOM     72  C   UNL A   1      48.315  29.027  30.611  1.00  0.00     0.001 A 
ATOM     73  C   UNL A   1      48.592  28.357  31.802  1.00  0.00     0.000 A 
ENDBRANCH  49  68
BRANCH  61  74
ATOM     74  C   UNL A   1      42.377  34.828  33.345  1.00  0.00    -0.014 A 
ATOM     75  C   UNL A   1      41.931  34.823  34.677  1.00  0.00     0.009 A 
ATOM     76  C   UNL A   1      43.010  35.975  32.842  1.00  0.00     0.009 A 
ATOM     77  C   UNL A   1      42.095  35.950  35.483  1.00  0.00     0.001 A 
ATOM     78  C   UNL A   1      43.196  37.091  33.660  1.00  0.00     0.001 A 
ATOM     79  C   UNL A   1      42.728  37.082  34.975  1.00  0.00     0.000 A 
ENDBRANCH  61  74
ENDBRANCH  35  36
ENDBRANCH  28  30
ENDBRANCH  27  28
ENDBRANCH  26  27
ENDBRANCH   1  26
TORSDOF 15
ENDMDL
