MODEL 1
REMARK VINA RESULT:      -9.8      0.000      0.000
REMARK SMILES [NH3+]CCOCC(=O)Nc1ccc(C(=O)OCCOC(=O)c2ccc(-c3c4nc(c(-c5ccccc5)c5ccc([nH]5)c(-c5ccccc5)c5nc(c(-c6ccccc6)c6ccc3[nH]6)C=C5)C=C4)cc2)c(Cl)c1
REMARK SMILES IDX 13 1 14 2 12 3 9 4 10 5 71 6 11 7 69 8 70 9 8 10 6 11 7 12
REMARK SMILES IDX 5 14 4 15 3 16 2 17 1 18 15 22 16 23 17 24 18 25 19 26 20 27
REMARK SMILES IDX 21 28 22 29 68 30 23 31 67 32 24 33 25 34 26 35 61 36 27 37
REMARK SMILES IDX 66 38 60 39 62 40 28 41 65 42 59 43 58 44 29 46 51 47 36 48
REMARK SMILES IDX 50 49 37 50 40 51 49 52 63 53 38 54 39 55 48 57 64 58 41 59
REMARK SMILES IDX 30 60 31 61 35 62 32 63 34 64 33 65 52 66 53 67 57 68 54 69
REMARK SMILES IDX 56 70 55 71 42 72 43 73 47 74 44 75 46 76 45 77
REMARK H PARENT 8 13 1 19 1 20 1 21 62 45 40 56
REMARK Flexibility Score: inf
ROOT
ATOM      1  C   UNL A   1      40.373  21.348  26.855  1.00  0.00     0.339 C 
ATOM      2  O   UNL A   1      40.642  21.534  28.030  1.00  0.00    -0.246 OA
ENDROOT
BRANCH   1   3
ATOM      3  C   UNL A   1      39.192  21.964  26.208  1.00  0.00     0.078 A 
ATOM      4  C   UNL A   1      36.820  22.844  24.975  1.00  0.00     0.042 A 
ATOM      5  C   UNL A   1      37.361  21.605  24.651  1.00  0.00     0.027 A 
ATOM      6  C   UNL A   1      37.528  23.688  25.835  1.00  0.00     0.047 A 
ATOM      7  C   UNL A   1      38.551  21.184  25.239  1.00  0.00     0.019 A 
ATOM      8  C   UNL A   1      38.699  23.243  26.476  1.00  0.00     0.057 A 
ATOM      9  Cl  UNL A   1      39.507  24.364  27.511  1.00  0.00    -0.083 Cl
BRANCH   4  10
ATOM     10  N   UNL A   1      35.642  23.310  24.375  1.00  0.00    -0.324 N 
ATOM     11  C   UNL A   1      34.347  22.898  24.575  1.00  0.00     0.250 C 
ATOM     12  O   UNL A   1      33.485  23.183  23.740  1.00  0.00    -0.272 OA
ATOM     13  H   UNL A   1      35.758  24.035  23.720  1.00  0.00     0.170 HD
BRANCH  11  14
ATOM     14  C   UNL A   1      33.961  22.202  25.900  1.00  0.00     0.260 C 
BRANCH  14  15
ATOM     15  O   UNL A   1      33.768  20.804  25.963  1.00  0.00    -0.366 OA
BRANCH  15  16
ATOM     16  C   UNL A   1      33.082  20.217  24.860  1.00  0.00     0.222 C 
BRANCH  16  17
ATOM     17  C   UNL A   1      32.626  18.769  25.094  1.00  0.00     0.287 C 
BRANCH  17  18
ATOM     18  N   UNL A   1      32.794  18.285  26.464  1.00  0.00    -0.356 N 
ATOM     19  H   UNL A   1      31.882  18.047  26.855  1.00  0.00     0.344 HD
ATOM     20  H   UNL A   1      33.227  19.013  27.032  1.00  0.00     0.344 HD
ATOM     21  H   UNL A   1      33.390  17.458  26.462  1.00  0.00     0.344 HD
ENDBRANCH  17  18
ENDBRANCH  16  17
ENDBRANCH  15  16
ENDBRANCH  14  15
ENDBRANCH  11  14
ENDBRANCH   4  10
ENDBRANCH   1   3
BRANCH   1  22
ATOM     22  O   UNL A   1      41.153  20.730  25.938  1.00  0.00    -0.458 OA
BRANCH  22  23
ATOM     23  C   UNL A   1      41.445  19.338  26.169  1.00  0.00     0.275 C 
BRANCH  23  24
ATOM     24  C   UNL A   1      42.928  19.052  25.941  1.00  0.00     0.275 C 
BRANCH  24  25
ATOM     25  O   UNL A   1      43.306  19.334  24.579  1.00  0.00    -0.458 OA
BRANCH  25  26
ATOM     26  C   UNL A   1      44.629  19.521  24.376  1.00  0.00     0.338 C 
ATOM     27  O   UNL A   1      45.456  18.705  24.006  1.00  0.00    -0.246 OA
BRANCH  26  28
ATOM     28  C   UNL A   1      44.962  20.933  24.607  1.00  0.00     0.060 A 
ATOM     29  C   UNL A   1      45.582  21.275  25.807  1.00  0.00     0.016 A 
ATOM     30  C   UNL A   1      44.546  21.924  23.721  1.00  0.00     0.016 A 
ATOM     31  C   UNL A   1      45.728  22.613  26.167  1.00  0.00     0.010 A 
ATOM     32  C   UNL A   1      44.751  23.267  24.055  1.00  0.00     0.010 A 
ATOM     33  C   UNL A   1      45.318  23.627  25.294  1.00  0.00    -0.014 A 
BRANCH  33  34
ATOM     34  C   UNL A   1      45.424  25.061  25.680  1.00  0.00     0.031 A 
ATOM     35  C   UNL A   1      46.752  25.765  25.585  1.00  0.00     0.074 A 
ATOM     36  C   UNL A   1      44.347  25.744  26.117  1.00  0.00     0.049 A 
ATOM     37  N   UNL A   1      47.120  26.914  26.093  1.00  0.00    -0.248 NA
ATOM     38  C   UNL A   1      47.809  25.079  24.823  1.00  0.00     0.031 C 
ATOM     39  C   UNL A   1      42.980  25.229  26.186  1.00  0.00     0.029 A 
ATOM     40  N   UNL A   1      44.242  27.029  26.594  1.00  0.00    -0.354 N 
ATOM     41  C   UNL A   1      48.460  27.064  25.757  1.00  0.00     0.074 A 
ATOM     42  C   UNL A   1      48.841  25.891  25.000  1.00  0.00     0.031 C 
ATOM     43  C   UNL A   1      42.170  26.191  26.658  1.00  0.00     0.029 A 
ATOM     44  C   UNL A   1      42.972  27.358  27.006  1.00  0.00     0.049 A 
ATOM     45  H   UNL A   1      45.002  27.653  26.636  1.00  0.00     0.167 HD
ATOM     46  C   UNL A   1      49.298  28.085  26.058  1.00  0.00     0.031 A 
ATOM     47  C   UNL A   1      42.513  28.454  27.641  1.00  0.00     0.031 A 
ATOM     48  C   UNL A   1      48.913  29.266  26.784  1.00  0.00     0.049 A 
ATOM     49  C   UNL A   1      43.476  29.543  28.025  1.00  0.00     0.074 A 
ATOM     50  C   UNL A   1      49.699  30.338  27.172  1.00  0.00     0.029 A 
ATOM     51  N   UNL A   1      47.623  29.543  27.205  1.00  0.00    -0.354 N 
ATOM     52  N   UNL A   1      44.762  29.629  27.792  1.00  0.00    -0.248 NA
ATOM     53  C   UNL A   1      42.923  30.678  28.779  1.00  0.00     0.031 C 
ATOM     54  C   UNL A   1      48.887  31.254  27.849  1.00  0.00     0.029 A 
ATOM     55  C   UNL A   1      47.590  30.770  27.844  1.00  0.00     0.049 A 
ATOM     56  H   UNL A   1      46.846  28.954  27.069  1.00  0.00     0.167 HD
ATOM     57  C   UNL A   1      45.166  30.835  28.349  1.00  0.00     0.074 A 
ATOM     58  C   UNL A   1      43.989  31.453  28.921  1.00  0.00     0.031 C 
ATOM     59  C   UNL A   1      46.406  31.380  28.386  1.00  0.00     0.031 A 
BRANCH  46  60
ATOM     60  C   UNL A   1      50.733  27.955  25.633  1.00  0.00    -0.014 A 
ATOM     61  C   UNL A   1      51.680  27.315  26.446  1.00  0.00     0.009 A 
ATOM     62  C   UNL A   1      51.129  28.439  24.375  1.00  0.00     0.009 A 
ATOM     63  C   UNL A   1      53.003  27.184  26.017  1.00  0.00     0.001 A 
ATOM     64  C   UNL A   1      52.446  28.285  23.940  1.00  0.00     0.001 A 
ATOM     65  C   UNL A   1      53.383  27.664  24.764  1.00  0.00     0.000 A 
ENDBRANCH  46  60
BRANCH  47  66
ATOM     66  C   UNL A   1      41.078  28.555  28.015  1.00  0.00    -0.014 A 
ATOM     67  C   UNL A   1      40.616  28.007  29.220  1.00  0.00     0.009 A 
ATOM     68  C   UNL A   1      40.159  29.179  27.157  1.00  0.00     0.009 A 
ATOM     69  C   UNL A   1      39.258  28.061  29.548  1.00  0.00     0.001 A 
ATOM     70  C   UNL A   1      38.809  29.258  27.499  1.00  0.00     0.001 A 
ATOM     71  C   UNL A   1      38.358  28.692  28.690  1.00  0.00     0.000 A 
ENDBRANCH  47  66
BRANCH  59  72
ATOM     72  C   UNL A   1      46.541  32.737  29.012  1.00  0.00    -0.014 A 
ATOM     73  C   UNL A   1      46.847  32.884  30.372  1.00  0.00     0.009 A 
ATOM     74  C   UNL A   1      46.402  33.882  28.212  1.00  0.00     0.009 A 
ATOM     75  C   UNL A   1      46.988  34.157  30.927  1.00  0.00     0.001 A 
ATOM     76  C   UNL A   1      46.563  35.152  28.765  1.00  0.00     0.001 A 
ATOM     77  C   UNL A   1      46.850  35.289  30.122  1.00  0.00     0.000 A 
ENDBRANCH  59  72
ENDBRANCH  33  34
ENDBRANCH  26  28
ENDBRANCH  25  26
ENDBRANCH  24  25
ENDBRANCH  23  24
ENDBRANCH  22  23
ENDBRANCH   1  22
TORSDOF 17
ENDMDL
MODEL 2
REMARK VINA RESULT:      -9.4      3.433      8.591
REMARK SMILES [NH3+]CCOCC(=O)Nc1ccc(C(=O)OCCOC(=O)c2ccc(-c3c4nc(c(-c5ccccc5)c5ccc([nH]5)c(-c5ccccc5)c5nc(c(-c6ccccc6)c6ccc3[nH]6)C=C5)C=C4)cc2)c(Cl)c1
REMARK SMILES IDX 13 1 14 2 12 3 9 4 10 5 71 6 11 7 69 8 70 9 8 10 6 11 7 12
REMARK SMILES IDX 5 14 4 15 3 16 2 17 1 18 15 22 16 23 17 24 18 25 19 26 20 27
REMARK SMILES IDX 21 28 22 29 68 30 23 31 67 32 24 33 25 34 26 35 61 36 27 37
REMARK SMILES IDX 66 38 60 39 62 40 28 41 65 42 59 43 58 44 29 46 51 47 36 48
REMARK SMILES IDX 50 49 37 50 40 51 49 52 63 53 38 54 39 55 48 57 64 58 41 59
REMARK SMILES IDX 30 60 31 61 35 62 32 63 34 64 33 65 52 66 53 67 57 68 54 69
REMARK SMILES IDX 56 70 55 71 42 72 43 73 47 74 44 75 46 76 45 77
REMARK H PARENT 8 13 1 19 1 20 1 21 62 45 40 56
REMARK Flexibility Score: inf
ROOT
ATOM      1  C   UNL A   1      31.392  28.165  24.967  1.00  0.00     0.339 C 
ATOM      2  O   UNL A   1      31.001  28.393  23.834  1.00  0.00    -0.246 OA
ENDROOT
BRANCH   1   3
ATOM      3  C   UNL A   1      32.079  26.903  25.325  1.00  0.00     0.078 A 
ATOM      4  C   UNL A   1      33.630  24.685  26.097  1.00  0.00     0.042 A 
ATOM      5  C   UNL A   1      34.232  25.791  25.508  1.00  0.00     0.027 A 
ATOM      6  C   UNL A   1      32.237  24.647  26.200  1.00  0.00     0.047 A 
ATOM      7  C   UNL A   1      33.461  26.875  25.098  1.00  0.00     0.019 A 
ATOM      8  C   UNL A   1      31.459  25.763  25.841  1.00  0.00     0.057 A 
ATOM      9  Cl  UNL A   1      29.745  25.613  25.992  1.00  0.00    -0.083 Cl
BRANCH   4  10
ATOM     10  N   UNL A   1      34.376  23.565  26.490  1.00  0.00    -0.324 N 
ATOM     11  C   UNL A   1      34.763  22.478  25.745  1.00  0.00     0.250 C 
ATOM     12  O   UNL A   1      35.126  21.448  26.320  1.00  0.00    -0.272 OA
ATOM     13  H   UNL A   1      34.664  23.557  27.432  1.00  0.00     0.170 HD
BRANCH  11  14
ATOM     14  C   UNL A   1      34.868  22.601  24.208  1.00  0.00     0.260 C 
BRANCH  14  15
ATOM     15  O   UNL A   1      33.727  22.472  23.384  1.00  0.00    -0.366 OA
BRANCH  15  16
ATOM     16  C   UNL A   1      32.667  21.674  23.905  1.00  0.00     0.222 C 
BRANCH  16  17
ATOM     17  C   UNL A   1      32.158  20.590  22.944  1.00  0.00     0.287 C 
BRANCH  17  18
ATOM     18  N   UNL A   1      31.774  21.074  21.618  1.00  0.00    -0.356 N 
ATOM     19  H   UNL A   1      30.967  20.548  21.284  1.00  0.00     0.344 HD
ATOM     20  H   UNL A   1      32.553  20.949  20.971  1.00  0.00     0.344 HD
ATOM     21  H   UNL A   1      31.535  22.064  21.673  1.00  0.00     0.344 HD
ENDBRANCH  17  18
ENDBRANCH  16  17
ENDBRANCH  15  16
ENDBRANCH  14  15
ENDBRANCH  11  14
ENDBRANCH   4  10
ENDBRANCH   1   3
BRANCH   1  22
ATOM     22  O   UNL A   1      31.430  29.040  25.999  1.00  0.00    -0.458 OA
BRANCH  22  23
ATOM     23  C   UNL A   1      32.256  30.208  25.826  1.00  0.00     0.275 C 
BRANCH  23  24
ATOM     24  C   UNL A   1      32.686  30.770  27.180  1.00  0.00     0.275 C 
BRANCH  24  25
ATOM     25  O   UNL A   1      33.811  30.041  27.709  1.00  0.00    -0.458 OA
BRANCH  25  26
ATOM     26  C   UNL A   1      34.753  30.797  28.316  1.00  0.00     0.338 C 
ATOM     27  O   UNL A   1      34.621  31.896  28.827  1.00  0.00    -0.246 OA
BRANCH  26  28
ATOM     28  C   UNL A   1      36.023  30.061  28.344  1.00  0.00     0.060 A 
ATOM     29  C   UNL A   1      36.426  29.488  29.548  1.00  0.00     0.016 A 
ATOM     30  C   UNL A   1      36.873  30.052  27.240  1.00  0.00     0.016 A 
ATOM     31  C   UNL A   1      37.709  28.964  29.684  1.00  0.00     0.010 A 
ATOM     32  C   UNL A   1      38.139  29.468  27.359  1.00  0.00     0.010 A 
ATOM     33  C   UNL A   1      38.582  28.943  28.589  1.00  0.00    -0.014 A 
BRANCH  33  34
ATOM     34  C   UNL A   1      39.973  28.430  28.727  1.00  0.00     0.031 A 
ATOM     35  C   UNL A   1      41.076  29.365  29.149  1.00  0.00     0.074 A 
ATOM     36  C   UNL A   1      40.264  27.137  28.480  1.00  0.00     0.049 A 
ATOM     37  N   UNL A   1      42.373  29.194  29.092  1.00  0.00    -0.248 NA
ATOM     38  C   UNL A   1      40.664  30.666  29.698  1.00  0.00     0.031 C 
ATOM     39  C   UNL A   1      39.295  26.093  28.145  1.00  0.00     0.029 A 
ATOM     40  N   UNL A   1      41.473  26.484  28.468  1.00  0.00    -0.354 N 
ATOM     41  C   UNL A   1      42.930  30.383  29.550  1.00  0.00     0.074 A 
ATOM     42  C   UNL A   1      41.832  31.265  29.881  1.00  0.00     0.031 C 
ATOM     43  C   UNL A   1      39.944  24.929  27.979  1.00  0.00     0.029 A 
ATOM     44  C   UNL A   1      41.378  25.160  28.108  1.00  0.00     0.049 A 
ATOM     45  H   UNL A   1      42.326  26.921  28.695  1.00  0.00     0.167 HD
ATOM     46  C   UNL A   1      44.239  30.711  29.675  1.00  0.00     0.031 A 
ATOM     47  C   UNL A   1      42.337  24.248  27.860  1.00  0.00     0.031 A 
ATOM     48  C   UNL A   1      45.331  29.824  29.376  1.00  0.00     0.049 A 
ATOM     49  C   UNL A   1      43.782  24.655  27.939  1.00  0.00     0.074 A 
ATOM     50  C   UNL A   1      46.691  30.077  29.434  1.00  0.00     0.029 A 
ATOM     51  N   UNL A   1      45.186  28.502  28.989  1.00  0.00    -0.354 N 
ATOM     52  N   UNL A   1      44.298  25.812  28.275  1.00  0.00    -0.248 NA
ATOM     53  C   UNL A   1      44.778  23.631  27.586  1.00  0.00     0.031 C 
ATOM     54  C   UNL A   1      47.369  28.912  29.059  1.00  0.00     0.029 A 
ATOM     55  C   UNL A   1      46.430  27.924  28.810  1.00  0.00     0.049 A 
ATOM     56  H   UNL A   1      44.325  28.042  28.861  1.00  0.00     0.167 HD
ATOM     57  C   UNL A   1      45.674  25.648  28.195  1.00  0.00     0.074 A 
ATOM     58  C   UNL A   1      45.916  24.279  27.792  1.00  0.00     0.031 C 
ATOM     59  C   UNL A   1      46.652  26.555  28.432  1.00  0.00     0.031 A 
BRANCH  46  60
ATOM     60  C   UNL A   1      44.565  32.106  30.126  1.00  0.00    -0.014 A 
ATOM     61  C   UNL A   1      44.781  32.404  31.479  1.00  0.00     0.009 A 
ATOM     62  C   UNL A   1      44.707  33.127  29.171  1.00  0.00     0.009 A 
ATOM     63  C   UNL A   1      45.108  33.705  31.871  1.00  0.00     0.001 A 
ATOM     64  C   UNL A   1      45.058  34.419  29.564  1.00  0.00     0.001 A 
ATOM     65  C   UNL A   1      45.251  34.709  30.913  1.00  0.00     0.000 A 
ENDBRANCH  46  60
BRANCH  47  66
ATOM     66  C   UNL A   1      41.967  22.868  27.447  1.00  0.00    -0.014 A 
ATOM     67  C   UNL A   1      42.053  22.480  26.102  1.00  0.00     0.009 A 
ATOM     68  C   UNL A   1      41.505  21.941  28.393  1.00  0.00     0.009 A 
ATOM     69  C   UNL A   1      41.660  21.198  25.709  1.00  0.00     0.001 A 
ATOM     70  C   UNL A   1      41.141  20.651  28.003  1.00  0.00     0.001 A 
ATOM     71  C   UNL A   1      41.210  20.283  26.660  1.00  0.00     0.000 A 
ENDBRANCH  47  66
BRANCH  59  72
ATOM     72  C   UNL A   1      48.071  26.080  28.321  1.00  0.00    -0.014 A 
ATOM     73  C   UNL A   1      48.766  26.140  27.106  1.00  0.00     0.009 A 
ATOM     74  C   UNL A   1      48.731  25.606  29.466  1.00  0.00     0.009 A 
ATOM     75  C   UNL A   1      50.092  25.710  27.033  1.00  0.00     0.001 A 
ATOM     76  C   UNL A   1      50.063  25.198  29.394  1.00  0.00     0.001 A 
ATOM     77  C   UNL A   1      50.740  25.244  28.177  1.00  0.00     0.000 A 
ENDBRANCH  59  72
ENDBRANCH  33  34
ENDBRANCH  26  28
ENDBRANCH  25  26
ENDBRANCH  24  25
ENDBRANCH  23  24
ENDBRANCH  22  23
ENDBRANCH   1  22
TORSDOF 17
ENDMDL
MODEL 3
REMARK VINA RESULT:      -9.3      3.008      7.841
REMARK SMILES [NH3+]CCOCC(=O)Nc1ccc(C(=O)OCCOC(=O)c2ccc(-c3c4nc(c(-c5ccccc5)c5ccc([nH]5)c(-c5ccccc5)c5nc(c(-c6ccccc6)c6ccc3[nH]6)C=C5)C=C4)cc2)c(Cl)c1
REMARK SMILES IDX 13 1 14 2 12 3 9 4 10 5 71 6 11 7 69 8 70 9 8 10 6 11 7 12
REMARK SMILES IDX 5 14 4 15 3 16 2 17 1 18 15 22 16 23 17 24 18 25 19 26 20 27
REMARK SMILES IDX 21 28 22 29 68 30 23 31 67 32 24 33 25 34 26 35 61 36 27 37
REMARK SMILES IDX 66 38 60 39 62 40 28 41 65 42 59 43 58 44 29 46 51 47 36 48
REMARK SMILES IDX 50 49 37 50 40 51 49 52 63 53 38 54 39 55 48 57 64 58 41 59
REMARK SMILES IDX 30 60 31 61 35 62 32 63 34 64 33 65 52 66 53 67 57 68 54 69
REMARK SMILES IDX 56 70 55 71 42 72 43 73 47 74 44 75 46 76 45 77
REMARK H PARENT 8 13 1 19 1 20 1 21 62 45 40 56
REMARK Flexibility Score: inf
ROOT
ATOM      1  C   UNL A   1      32.723  20.856  24.815  1.00  0.00     0.339 C 
ATOM      2  O   UNL A   1      32.156  19.812  25.089  1.00  0.00    -0.246 OA
ENDROOT
BRANCH   1   3
ATOM      3  C   UNL A   1      32.181  22.176  25.210  1.00  0.00     0.078 A 
ATOM      4  C   UNL A   1      31.378  24.691  26.185  1.00  0.00     0.042 A 
ATOM      5  C   UNL A   1      31.840  23.715  27.060  1.00  0.00     0.027 A 
ATOM      6  C   UNL A   1      31.216  24.369  24.835  1.00  0.00     0.047 A 
ATOM      7  C   UNL A   1      32.208  22.461  26.582  1.00  0.00     0.019 A 
ATOM      8  C   UNL A   1      31.642  23.123  24.338  1.00  0.00     0.057 A 
ATOM      9  Cl  UNL A   1      31.387  22.815  22.658  1.00  0.00    -0.083 Cl
BRANCH   4  10
ATOM     10  N   UNL A   1      30.969  25.952  26.641  1.00  0.00    -0.324 N 
ATOM     11  C   UNL A   1      31.733  27.052  26.948  1.00  0.00     0.250 C 
ATOM     12  O   UNL A   1      31.247  27.954  27.635  1.00  0.00    -0.272 OA
ATOM     13  H   UNL A   1      29.998  26.066  26.757  1.00  0.00     0.170 HD
BRANCH  11  14
ATOM     14  C   UNL A   1      33.137  27.208  26.321  1.00  0.00     0.260 C 
BRANCH  14  15
ATOM     15  O   UNL A   1      33.306  27.763  25.034  1.00  0.00    -0.366 OA
BRANCH  15  16
ATOM     16  C   UNL A   1      33.893  26.907  24.056  1.00  0.00     0.222 C 
BRANCH  16  17
ATOM     17  C   UNL A   1      33.323  27.078  22.640  1.00  0.00     0.287 C 
BRANCH  17  18
ATOM     18  N   UNL A   1      33.155  25.833  21.890  1.00  0.00    -0.356 N 
ATOM     19  H   UNL A   1      33.060  26.044  20.897  1.00  0.00     0.344 HD
ATOM     20  H   UNL A   1      32.318  25.350  22.216  1.00  0.00     0.344 HD
ATOM     21  H   UNL A   1      33.969  25.236  22.035  1.00  0.00     0.344 HD
ENDBRANCH  17  18
ENDBRANCH  16  17
ENDBRANCH  15  16
ENDBRANCH  14  15
ENDBRANCH  11  14
ENDBRANCH   4  10
ENDBRANCH   1   3
BRANCH   1  22
ATOM     22  O   UNL A   1      33.964  20.986  24.291  1.00  0.00    -0.458 OA
BRANCH  22  23
ATOM     23  C   UNL A   1      35.044  20.381  25.028  1.00  0.00     0.275 C 
BRANCH  23  24
ATOM     24  C   UNL A   1      35.839  21.441  25.790  1.00  0.00     0.275 C 
BRANCH  24  25
ATOM     25  O   UNL A   1      37.020  21.826  25.060  1.00  0.00    -0.458 OA
BRANCH  25  26
ATOM     26  C   UNL A   1      38.188  21.392  25.584  1.00  0.00     0.338 C 
ATOM     27  O   UNL A   1      38.676  20.277  25.510  1.00  0.00    -0.246 OA
BRANCH  26  28
ATOM     28  C   UNL A   1      38.873  22.512  26.241  1.00  0.00     0.060 A 
ATOM     29  C   UNL A   1      38.389  23.800  26.021  1.00  0.00     0.016 A 
ATOM     30  C   UNL A   1      40.057  22.315  26.948  1.00  0.00     0.016 A 
ATOM     31  C   UNL A   1      39.120  24.908  26.445  1.00  0.00     0.010 A 
ATOM     32  C   UNL A   1      40.758  23.427  27.429  1.00  0.00     0.010 A 
ATOM     33  C   UNL A   1      40.312  24.736  27.158  1.00  0.00    -0.014 A 
BRANCH  33  34
ATOM     34  C   UNL A   1      41.130  25.907  27.579  1.00  0.00     0.031 A 
ATOM     35  C   UNL A   1      40.552  26.918  28.533  1.00  0.00     0.074 A 
ATOM     36  C   UNL A   1      42.385  26.079  27.117  1.00  0.00     0.049 A 
ATOM     37  N   UNL A   1      40.984  28.117  28.832  1.00  0.00    -0.248 NA
ATOM     38  C   UNL A   1      39.319  26.530  29.237  1.00  0.00     0.031 C 
ATOM     39  C   UNL A   1      43.114  25.148  26.256  1.00  0.00     0.029 A 
ATOM     40  N   UNL A   1      43.269  27.113  27.310  1.00  0.00    -0.354 N 
ATOM     41  C   UNL A   1      40.051  28.645  29.717  1.00  0.00     0.074 A 
ATOM     42  C   UNL A   1      39.031  27.636  29.909  1.00  0.00     0.031 C 
ATOM     43  C   UNL A   1      44.338  25.642  26.010  1.00  0.00     0.029 A 
ATOM     44  C   UNL A   1      44.449  26.962  26.621  1.00  0.00     0.049 A 
ATOM     45  H   UNL A   1      43.077  27.889  27.886  1.00  0.00     0.167 HD
ATOM     46  C   UNL A   1      40.043  29.863  30.311  1.00  0.00     0.031 A 
ATOM     47  C   UNL A   1      45.483  27.809  26.456  1.00  0.00     0.031 A 
ATOM     48  C   UNL A   1      41.071  30.855  30.145  1.00  0.00     0.049 A 
ATOM     49  C   UNL A   1      45.420  29.180  27.068  1.00  0.00     0.074 A 
ATOM     50  C   UNL A   1      41.134  32.133  30.673  1.00  0.00     0.029 A 
ATOM     51  N   UNL A   1      42.234  30.666  29.416  1.00  0.00    -0.354 N 
ATOM     52  N   UNL A   1      44.486  29.707  27.821  1.00  0.00    -0.248 NA
ATOM     53  C   UNL A   1      46.549  30.081  26.790  1.00  0.00     0.031 C 
ATOM     54  C   UNL A   1      42.326  32.727  30.244  1.00  0.00     0.029 A 
ATOM     55  C   UNL A   1      43.022  31.801  29.485  1.00  0.00     0.049 A 
ATOM     56  H   UNL A   1      42.465  29.846  28.924  1.00  0.00     0.167 HD
ATOM     57  C   UNL A   1      44.924  30.989  28.123  1.00  0.00     0.074 A 
ATOM     58  C   UNL A   1      46.212  31.159  27.485  1.00  0.00     0.031 C 
ATOM     59  C   UNL A   1      44.311  31.944  28.863  1.00  0.00     0.031 A 
BRANCH  46  60
ATOM     60  C   UNL A   1      38.862  30.208  31.171  1.00  0.00    -0.014 A 
ATOM     61  C   UNL A   1      38.879  29.991  32.557  1.00  0.00     0.009 A 
ATOM     62  C   UNL A   1      37.732  30.807  30.589  1.00  0.00     0.009 A 
ATOM     63  C   UNL A   1      37.777  30.344  33.340  1.00  0.00     0.001 A 
ATOM     64  C   UNL A   1      36.643  31.180  31.378  1.00  0.00     0.001 A 
ATOM     65  C   UNL A   1      36.663  30.942  32.751  1.00  0.00     0.000 A 
ENDBRANCH  46  60
BRANCH  47  66
ATOM     66  C   UNL A   1      46.648  27.412  25.621  1.00  0.00    -0.014 A 
ATOM     67  C   UNL A   1      47.706  26.679  26.176  1.00  0.00     0.009 A 
ATOM     68  C   UNL A   1      46.716  27.786  24.269  1.00  0.00     0.009 A 
ATOM     69  C   UNL A   1      48.821  26.349  25.401  1.00  0.00     0.001 A 
ATOM     70  C   UNL A   1      47.817  27.429  23.489  1.00  0.00     0.001 A 
ATOM     71  C   UNL A   1      48.873  26.719  24.058  1.00  0.00     0.000 A 
ENDBRANCH  47  66
BRANCH  59  72
ATOM     72  C   UNL A   1      45.051  33.231  29.073  1.00  0.00    -0.014 A 
ATOM     73  C   UNL A   1      45.946  33.392  30.140  1.00  0.00     0.009 A 
ATOM     74  C   UNL A   1      44.881  34.282  28.157  1.00  0.00     0.009 A 
ATOM     75  C   UNL A   1      46.639  34.593  30.302  1.00  0.00     0.001 A 
ATOM     76  C   UNL A   1      45.591  35.473  28.310  1.00  0.00     0.001 A 
ATOM     77  C   UNL A   1      46.464  35.630  29.385  1.00  0.00     0.000 A 
ENDBRANCH  59  72
ENDBRANCH  33  34
ENDBRANCH  26  28
ENDBRANCH  25  26
ENDBRANCH  24  25
ENDBRANCH  23  24
ENDBRANCH  22  23
ENDBRANCH   1  22
TORSDOF 17
ENDMDL
