MODEL 1
REMARK VINA RESULT:     -12.4      0.000      0.000
REMARK SMILES O=C(CCOc1cccc(/C=C2\CCn3c2nc2cc(Cl)ccc2c3=O)c1)OCCOC(=O)c1ccc(-c2c3nc(c(-c4ccccc4)c4ccc([nH]4)c(-c4ccccc4)c4nc(c(-c5ccccc5)c5ccc2[nH]5)C=C4)C=C3)cc1
REMARK SMILES IDX 29 1 28 2 2 3 1 4 3 5 4 6 5 7 6 8 7 9 27 10 8 11 10 12 9 13
REMARK SMILES IDX 11 14 12 15 13 16 16 17 14 18 15 19 17 20 25 21 18 22 24 23
REMARK SMILES IDX 26 24 19 25 23 26 20 27 22 28 21 29 30 30 31 31 32 32 33 33
REMARK SMILES IDX 34 34 35 35 81 36 36 37 80 38 37 39 38 40 39 41 74 42 40 43
REMARK SMILES IDX 79 44 73 45 75 46 41 47 78 48 72 49 71 50 42 52 64 53 49 54
REMARK SMILES IDX 63 55 50 56 53 57 62 58 76 59 51 60 52 61 61 63 77 64 54 65
REMARK SMILES IDX 43 66 44 67 48 68 45 69 47 70 46 71 65 72 66 73 70 74 67 75
REMARK SMILES IDX 69 76 68 77 55 78 56 79 60 80 57 81 59 82 58 83
REMARK H PARENT 75 51 53 62
REMARK Flexibility Score: inf
ROOT
ATOM      1  C   UNL A   1      43.043  21.023  25.866  1.00  0.00     0.274 C 
ENDROOT
BRANCH   1   2
ATOM      2  O   UNL A   1      41.652  21.369  25.677  1.00  0.00    -0.462 OA
BRANCH   2   3
ATOM      3  C   UNL A   1      40.702  21.346  26.637  1.00  0.00     0.309 C 
ATOM      4  O   UNL A   1      40.814  20.590  27.602  1.00  0.00    -0.252 OA
BRANCH   3   5
ATOM      5  C   UNL A   1      39.539  22.297  26.567  1.00  0.00     0.164 C 
BRANCH   5   6
ATOM      6  C   UNL A   1      38.434  21.745  25.680  1.00  0.00     0.241 C 
BRANCH   6   7
ATOM      7  O   UNL A   1      37.305  22.616  25.629  1.00  0.00    -0.493 OA
BRANCH   7   8
ATOM      8  C   UNL A   1      36.051  22.102  25.817  1.00  0.00     0.119 A 
ATOM      9  C   UNL A   1      35.748  21.032  24.981  1.00  0.00     0.046 A 
ATOM     10  C   UNL A   1      35.062  22.592  26.678  1.00  0.00     0.054 A 
ATOM     11  C   UNL A   1      34.496  20.433  25.041  1.00  0.00     0.004 A 
ATOM     12  C   UNL A   1      33.743  22.097  26.650  1.00  0.00    -0.022 A 
ATOM     13  C   UNL A   1      33.509  20.953  25.884  1.00  0.00     0.008 A 
BRANCH  12  14
ATOM     14  C   UNL A   1      32.686  22.961  27.269  1.00  0.00     0.015 C 
ATOM     15  C   UNL A   1      31.510  23.291  26.687  1.00  0.00    -0.003 C 
ATOM     16  C   UNL A   1      30.697  22.606  25.628  1.00  0.00     0.061 C 
ATOM     17  C   UNL A   1      31.532  24.722  26.217  1.00  0.00     0.139 A 
ATOM     18  C   UNL A   1      31.177  23.311  24.371  1.00  0.00     0.132 C 
ATOM     19  N   UNL A   1      31.530  24.631  24.832  1.00  0.00    -0.292 N 
ATOM     20  N   UNL A   1      31.614  25.829  26.862  1.00  0.00    -0.230 NA
ATOM     21  C   UNL A   1      32.080  25.611  24.051  1.00  0.00     0.261 A 
ATOM     22  C   UNL A   1      31.789  26.991  26.071  1.00  0.00     0.080 A 
ATOM     23  C   UNL A   1      32.188  26.918  24.725  1.00  0.00     0.066 A 
ATOM     24  O   UNL A   1      32.468  25.447  22.900  1.00  0.00    -0.269 OA
ATOM     25  C   UNL A   1      31.625  28.253  26.640  1.00  0.00     0.049 A 
ATOM     26  C   UNL A   1      32.573  28.053  24.008  1.00  0.00     0.017 A 
ATOM     27  C   UNL A   1      31.944  29.399  25.903  1.00  0.00     0.043 A 
ATOM     28  C   UNL A   1      32.462  29.302  24.610  1.00  0.00     0.021 A 
ATOM     29  Cl  UNL A   1      31.686  30.958  26.588  1.00  0.00    -0.084 Cl
ENDBRANCH  12  14
ENDBRANCH   7   8
ENDBRANCH   6   7
ENDBRANCH   5   6
ENDBRANCH   3   5
ENDBRANCH   2   3
ENDBRANCH   1   2
BRANCH   1  30
ATOM     30  C   UNL A   1      43.938  21.953  25.048  1.00  0.00     0.275 C 
BRANCH  30  31
ATOM     31  O   UNL A   1      43.284  23.222  24.871  1.00  0.00    -0.458 OA
BRANCH  31  32
ATOM     32  C   UNL A   1      44.056  24.308  25.129  1.00  0.00     0.338 C 
ATOM     33  O   UNL A   1      45.129  24.588  24.620  1.00  0.00    -0.246 OA
BRANCH  32  34
ATOM     34  C   UNL A   1      43.302  25.221  26.012  1.00  0.00     0.060 A 
ATOM     35  C   UNL A   1      43.820  26.502  26.241  1.00  0.00     0.016 A 
ATOM     36  C   UNL A   1      42.100  24.826  26.607  1.00  0.00     0.016 A 
ATOM     37  C   UNL A   1      43.164  27.374  27.110  1.00  0.00     0.010 A 
ATOM     38  C   UNL A   1      41.447  25.695  27.481  1.00  0.00     0.010 A 
ATOM     39  C   UNL A   1      42.002  26.954  27.771  1.00  0.00    -0.014 A 
BRANCH  39  40
ATOM     40  C   UNL A   1      41.507  27.723  28.934  1.00  0.00     0.031 A 
ATOM     41  C   UNL A   1      42.243  27.573  30.239  1.00  0.00     0.074 A 
ATOM     42  C   UNL A   1      40.449  28.545  28.839  1.00  0.00     0.049 A 
ATOM     43  N   UNL A   1      42.021  28.156  31.390  1.00  0.00    -0.248 NA
ATOM     44  C   UNL A   1      43.377  26.633  30.247  1.00  0.00     0.031 C 
ATOM     45  C   UNL A   1      39.674  28.795  27.625  1.00  0.00     0.029 A 
ATOM     46  N   UNL A   1      39.848  29.327  29.793  1.00  0.00    -0.354 N 
ATOM     47  C   UNL A   1      42.987  27.652  32.253  1.00  0.00     0.074 A 
ATOM     48  C   UNL A   1      43.765  26.688  31.510  1.00  0.00     0.031 C 
ATOM     49  C   UNL A   1      38.699  29.679  27.908  1.00  0.00     0.029 A 
ATOM     50  C   UNL A   1      38.772  30.038  29.323  1.00  0.00     0.049 A 
ATOM     51  H   UNL A   1      40.160  29.374  30.725  1.00  0.00     0.167 HD
ATOM     52  C   UNL A   1      43.214  27.971  33.549  1.00  0.00     0.031 A 
ATOM     53  C   UNL A   1      37.945  30.883  29.968  1.00  0.00     0.031 A 
ATOM     54  C   UNL A   1      42.429  28.915  34.294  1.00  0.00     0.049 A 
ATOM     55  C   UNL A   1      38.178  31.172  31.428  1.00  0.00     0.074 A 
ATOM     56  C   UNL A   1      42.587  29.324  35.606  1.00  0.00     0.029 A 
ATOM     57  N   UNL A   1      41.325  29.587  33.792  1.00  0.00    -0.354 N 
ATOM     58  N   UNL A   1      39.125  30.731  32.222  1.00  0.00    -0.248 NA
ATOM     59  C   UNL A   1      37.233  32.092  32.078  1.00  0.00     0.031 C 
ATOM     60  C   UNL A   1      41.542  30.203  35.915  1.00  0.00     0.029 A 
ATOM     61  C   UNL A   1      40.774  30.388  34.777  1.00  0.00     0.049 A 
ATOM     62  H   UNL A   1      40.985  29.506  32.872  1.00  0.00     0.167 HD
ATOM     63  C   UNL A   1      38.915  31.351  33.447  1.00  0.00     0.074 A 
ATOM     64  C   UNL A   1      37.756  32.205  33.290  1.00  0.00     0.031 C 
ATOM     65  C   UNL A   1      39.622  31.233  34.599  1.00  0.00     0.031 A 
BRANCH  52  66
ATOM     66  C   UNL A   1      44.340  27.255  34.243  1.00  0.00    -0.014 A 
ATOM     67  C   UNL A   1      45.647  27.770  34.241  1.00  0.00     0.009 A 
ATOM     68  C   UNL A   1      44.087  26.048  34.911  1.00  0.00     0.009 A 
ATOM     69  C   UNL A   1      46.684  27.067  34.859  1.00  0.00     0.001 A 
ATOM     70  C   UNL A   1      45.120  25.363  35.554  1.00  0.00     0.001 A 
ATOM     71  C   UNL A   1      46.418  25.868  35.517  1.00  0.00     0.000 A 
ENDBRANCH  52  66
BRANCH  53  72
ATOM     72  C   UNL A   1      36.822  31.536  29.242  1.00  0.00    -0.014 A 
ATOM     73  C   UNL A   1      36.972  32.826  28.711  1.00  0.00     0.009 A 
ATOM     74  C   UNL A   1      35.585  30.887  29.107  1.00  0.00     0.009 A 
ATOM     75  C   UNL A   1      35.897  33.465  28.087  1.00  0.00     0.001 A 
ATOM     76  C   UNL A   1      34.521  31.517  28.457  1.00  0.00     0.001 A 
ATOM     77  C   UNL A   1      34.675  32.809  27.957  1.00  0.00     0.000 A 
ENDBRANCH  53  72
BRANCH  65  78
ATOM     78  C   UNL A   1      39.191  32.083  35.763  1.00  0.00    -0.014 A 
ATOM     79  C   UNL A   1      39.683  33.384  35.947  1.00  0.00     0.009 A 
ATOM     80  C   UNL A   1      38.243  31.581  36.671  1.00  0.00     0.009 A 
ATOM     81  C   UNL A   1      39.268  34.148  37.039  1.00  0.00     0.001 A 
ATOM     82  C   UNL A   1      37.805  32.358  37.742  1.00  0.00     0.001 A 
ATOM     83  C   UNL A   1      38.326  33.637  37.933  1.00  0.00     0.000 A 
ENDBRANCH  65  78
ENDBRANCH  39  40
ENDBRANCH  32  34
ENDBRANCH  31  32
ENDBRANCH  30  31
ENDBRANCH   1  30
TORSDOF 15
ENDMDL
MODEL 2
REMARK VINA RESULT:     -12.0      0.962      5.765
REMARK SMILES O=C(CCOc1cccc(/C=C2\CCn3c2nc2cc(Cl)ccc2c3=O)c1)OCCOC(=O)c1ccc(-c2c3nc(c(-c4ccccc4)c4ccc([nH]4)c(-c4ccccc4)c4nc(c(-c5ccccc5)c5ccc2[nH]5)C=C4)C=C3)cc1
REMARK SMILES IDX 29 1 28 2 2 3 1 4 3 5 4 6 5 7 6 8 7 9 27 10 8 11 10 12 9 13
REMARK SMILES IDX 11 14 12 15 13 16 16 17 14 18 15 19 17 20 25 21 18 22 24 23
REMARK SMILES IDX 26 24 19 25 23 26 20 27 22 28 21 29 30 30 31 31 32 32 33 33
REMARK SMILES IDX 34 34 35 35 81 36 36 37 80 38 37 39 38 40 39 41 74 42 40 43
REMARK SMILES IDX 79 44 73 45 75 46 41 47 78 48 72 49 71 50 42 52 64 53 49 54
REMARK SMILES IDX 63 55 50 56 53 57 62 58 76 59 51 60 52 61 61 63 77 64 54 65
REMARK SMILES IDX 43 66 44 67 48 68 45 69 47 70 46 71 65 72 66 73 70 74 67 75
REMARK SMILES IDX 69 76 68 77 55 78 56 79 60 80 57 81 59 82 58 83
REMARK H PARENT 75 51 53 62
REMARK Flexibility Score: inf
ROOT
ATOM      1  C   UNL A   1      43.218  21.327  25.995  1.00  0.00     0.274 C 
ENDROOT
BRANCH   1   2
ATOM      2  O   UNL A   1      42.153  20.480  25.509  1.00  0.00    -0.462 OA
BRANCH   2   3
ATOM      3  C   UNL A   1      40.972  20.272  26.132  1.00  0.00     0.309 C 
ATOM      4  O   UNL A   1      40.421  19.173  26.064  1.00  0.00    -0.252 OA
BRANCH   3   5
ATOM      5  C   UNL A   1      40.363  21.359  26.973  1.00  0.00     0.164 C 
BRANCH   5   6
ATOM      6  C   UNL A   1      39.313  22.132  26.190  1.00  0.00     0.241 C 
BRANCH   6   7
ATOM      7  O   UNL A   1      38.291  21.277  25.679  1.00  0.00    -0.493 OA
BRANCH   7   8
ATOM      8  C   UNL A   1      37.111  21.821  25.252  1.00  0.00     0.119 A 
ATOM      9  C   UNL A   1      37.059  22.050  23.881  1.00  0.00     0.046 A 
ATOM     10  C   UNL A   1      36.035  22.227  26.050  1.00  0.00     0.054 A 
ATOM     11  C   UNL A   1      35.931  22.629  23.313  1.00  0.00     0.004 A 
ATOM     12  C   UNL A   1      34.948  22.949  25.517  1.00  0.00    -0.022 A 
ATOM     13  C   UNL A   1      34.877  23.057  24.126  1.00  0.00     0.008 A 
BRANCH  12  14
ATOM     14  C   UNL A   1      34.096  23.703  26.493  1.00  0.00     0.015 C 
ATOM     15  C   UNL A   1      32.743  23.712  26.502  1.00  0.00    -0.003 C 
ATOM     16  C   UNL A   1      31.739  22.720  25.993  1.00  0.00     0.061 C 
ATOM     17  C   UNL A   1      32.217  25.021  25.975  1.00  0.00     0.139 A 
ATOM     18  C   UNL A   1      31.437  23.273  24.612  1.00  0.00     0.132 C 
ATOM     19  N   UNL A   1      31.631  24.694  24.760  1.00  0.00    -0.292 N 
ATOM     20  N   UNL A   1      32.306  26.219  26.428  1.00  0.00    -0.230 NA
ATOM     21  C   UNL A   1      31.532  25.607  23.746  1.00  0.00     0.261 A 
ATOM     22  C   UNL A   1      31.835  27.240  25.566  1.00  0.00     0.080 A 
ATOM     23  C   UNL A   1      31.610  27.009  24.198  1.00  0.00     0.066 A 
ATOM     24  O   UNL A   1      31.405  25.319  22.561  1.00  0.00    -0.269 OA
ATOM     25  C   UNL A   1      31.641  28.531  26.055  1.00  0.00     0.049 A 
ATOM     26  C   UNL A   1      31.360  28.054  23.305  1.00  0.00     0.017 A 
ATOM     27  C   UNL A   1      31.323  29.571  25.175  1.00  0.00     0.043 A 
ATOM     28  C   UNL A   1      31.230  29.348  23.800  1.00  0.00     0.021 A 
ATOM     29  Cl  UNL A   1      31.028  31.153  25.789  1.00  0.00    -0.084 Cl
ENDBRANCH  12  14
ENDBRANCH   7   8
ENDBRANCH   6   7
ENDBRANCH   5   6
ENDBRANCH   3   5
ENDBRANCH   2   3
ENDBRANCH   1   2
BRANCH   1  30
ATOM     30  C   UNL A   1      43.816  22.140  24.847  1.00  0.00     0.275 C 
BRANCH  30  31
ATOM     31  O   UNL A   1      43.159  23.417  24.765  1.00  0.00    -0.458 OA
BRANCH  31  32
ATOM     32  C   UNL A   1      43.923  24.481  25.119  1.00  0.00     0.338 C 
ATOM     33  O   UNL A   1      44.990  24.817  24.632  1.00  0.00    -0.246 OA
BRANCH  32  34
ATOM     34  C   UNL A   1      43.166  25.301  26.087  1.00  0.00     0.060 A 
ATOM     35  C   UNL A   1      43.466  26.666  26.180  1.00  0.00     0.016 A 
ATOM     36  C   UNL A   1      42.174  24.737  26.894  1.00  0.00     0.016 A 
ATOM     37  C   UNL A   1      42.810  27.461  27.119  1.00  0.00     0.010 A 
ATOM     38  C   UNL A   1      41.522  25.530  27.839  1.00  0.00     0.010 A 
ATOM     39  C   UNL A   1      41.872  26.884  27.985  1.00  0.00    -0.014 A 
BRANCH  39  40
ATOM     40  C   UNL A   1      41.439  27.627  29.189  1.00  0.00     0.031 A 
ATOM     41  C   UNL A   1      40.141  28.385  29.119  1.00  0.00     0.074 A 
ATOM     42  C   UNL A   1      42.162  27.619  30.322  1.00  0.00     0.049 A 
ATOM     43  N   UNL A   1      39.537  29.089  30.041  1.00  0.00    -0.248 NA
ATOM     44  C   UNL A   1      39.432  28.349  27.827  1.00  0.00     0.031 C 
ATOM     45  C   UNL A   1      43.419  26.900  30.523  1.00  0.00     0.029 A 
ATOM     46  N   UNL A   1      41.931  28.240  31.523  1.00  0.00    -0.354 N 
ATOM     47  C   UNL A   1      38.382  29.577  29.441  1.00  0.00     0.074 A 
ATOM     48  C   UNL A   1      38.391  29.128  28.068  1.00  0.00     0.031 C 
ATOM     49  C   UNL A   1      43.847  27.117  31.780  1.00  0.00     0.029 A 
ATOM     50  C   UNL A   1      42.905  28.004  32.461  1.00  0.00     0.049 A 
ATOM     51  H   UNL A   1      41.141  28.800  31.696  1.00  0.00     0.167 HD
ATOM     52  C   UNL A   1      37.395  30.324  29.987  1.00  0.00     0.031 A 
ATOM     53  C   UNL A   1      43.017  28.455  33.725  1.00  0.00     0.031 A 
ATOM     54  C   UNL A   1      37.395  30.787  31.347  1.00  0.00     0.049 A 
ATOM     55  C   UNL A   1      41.936  29.341  34.291  1.00  0.00     0.074 A 
ATOM     56  C   UNL A   1      36.434  31.534  32.005  1.00  0.00     0.029 A 
ATOM     57  N   UNL A   1      38.418  30.557  32.254  1.00  0.00    -0.354 N 
ATOM     58  N   UNL A   1      40.823  29.753  33.732  1.00  0.00    -0.248 NA
ATOM     59  C   UNL A   1      42.124  29.810  35.671  1.00  0.00     0.031 C 
ATOM     60  C   UNL A   1      36.904  31.805  33.295  1.00  0.00     0.029 A 
ATOM     61  C   UNL A   1      38.126  31.172  33.459  1.00  0.00     0.049 A 
ATOM     62  H   UNL A   1      39.231  30.035  32.068  1.00  0.00     0.167 HD
ATOM     63  C   UNL A   1      40.160  30.492  34.704  1.00  0.00     0.074 A 
ATOM     64  C   UNL A   1      40.992  30.464  35.889  1.00  0.00     0.031 C 
ATOM     65  C   UNL A   1      38.966  31.130  34.628  1.00  0.00     0.031 A 
BRANCH  52  66
ATOM     66  C   UNL A   1      36.254  30.714  29.089  1.00  0.00    -0.014 A 
ATOM     67  C   UNL A   1      35.893  32.059  28.905  1.00  0.00     0.009 A 
ATOM     68  C   UNL A   1      35.531  29.719  28.414  1.00  0.00     0.009 A 
ATOM     69  C   UNL A   1      34.804  32.394  28.097  1.00  0.00     0.001 A 
ATOM     70  C   UNL A   1      34.462  30.059  27.583  1.00  0.00     0.001 A 
ATOM     71  C   UNL A   1      34.093  31.395  27.435  1.00  0.00     0.000 A 
ENDBRANCH  52  66
BRANCH  53  72
ATOM     72  C   UNL A   1      44.186  28.070  34.561  1.00  0.00    -0.014 A 
ATOM     73  C   UNL A   1      44.139  26.923  35.368  1.00  0.00     0.009 A 
ATOM     74  C   UNL A   1      45.343  28.865  34.581  1.00  0.00     0.009 A 
ATOM     75  C   UNL A   1      45.212  26.598  36.201  1.00  0.00     0.001 A 
ATOM     76  C   UNL A   1      46.425  28.522  35.393  1.00  0.00     0.001 A 
ATOM     77  C   UNL A   1      46.355  27.395  36.210  1.00  0.00     0.000 A 
ENDBRANCH  53  72
BRANCH  65  78
ATOM     78  C   UNL A   1      38.465  31.807  35.874  1.00  0.00    -0.014 A 
ATOM     79  C   UNL A   1      37.784  31.098  36.875  1.00  0.00     0.009 A 
ATOM     80  C   UNL A   1      38.716  33.177  36.064  1.00  0.00     0.009 A 
ATOM     81  C   UNL A   1      37.327  31.755  38.019  1.00  0.00     0.001 A 
ATOM     82  C   UNL A   1      38.288  33.823  37.223  1.00  0.00     0.001 A 
ATOM     83  C   UNL A   1      37.584  33.115  38.195  1.00  0.00     0.000 A 
ENDBRANCH  65  78
ENDBRANCH  39  40
ENDBRANCH  32  34
ENDBRANCH  31  32
ENDBRANCH  30  31
ENDBRANCH   1  30
TORSDOF 15
ENDMDL
MODEL 3
REMARK VINA RESULT:     -11.9      2.978      8.552
REMARK SMILES O=C(CCOc1cccc(/C=C2\CCn3c2nc2cc(Cl)ccc2c3=O)c1)OCCOC(=O)c1ccc(-c2c3nc(c(-c4ccccc4)c4ccc([nH]4)c(-c4ccccc4)c4nc(c(-c5ccccc5)c5ccc2[nH]5)C=C4)C=C3)cc1
REMARK SMILES IDX 29 1 28 2 2 3 1 4 3 5 4 6 5 7 6 8 7 9 27 10 8 11 10 12 9 13
REMARK SMILES IDX 11 14 12 15 13 16 16 17 14 18 15 19 17 20 25 21 18 22 24 23
REMARK SMILES IDX 26 24 19 25 23 26 20 27 22 28 21 29 30 30 31 31 32 32 33 33
REMARK SMILES IDX 34 34 35 35 81 36 36 37 80 38 37 39 38 40 39 41 74 42 40 43
REMARK SMILES IDX 79 44 73 45 75 46 41 47 78 48 72 49 71 50 42 52 64 53 49 54
REMARK SMILES IDX 63 55 50 56 53 57 62 58 76 59 51 60 52 61 61 63 77 64 54 65
REMARK SMILES IDX 43 66 44 67 48 68 45 69 47 70 46 71 65 72 66 73 70 74 67 75
REMARK SMILES IDX 69 76 68 77 55 78 56 79 60 80 57 81 59 82 58 83
REMARK H PARENT 75 51 53 62
REMARK Flexibility Score: inf
ROOT
ATOM      1  C   UNL A   1      32.172  30.974  26.650  1.00  0.00     0.274 C 
ENDROOT
BRANCH   1   2
ATOM      2  O   UNL A   1      31.255  30.680  25.573  1.00  0.00    -0.462 OA
BRANCH   2   3
ATOM      3  C   UNL A   1      31.342  29.620  24.738  1.00  0.00     0.309 C 
ATOM      4  O   UNL A   1      32.341  28.902  24.751  1.00  0.00    -0.252 OA
BRANCH   3   5
ATOM      5  C   UNL A   1      30.186  29.271  23.843  1.00  0.00     0.164 C 
BRANCH   5   6
ATOM      6  C   UNL A   1      30.652  29.035  22.415  1.00  0.00     0.241 C 
BRANCH   6   7
ATOM      7  O   UNL A   1      30.394  27.701  21.981  1.00  0.00    -0.493 OA
BRANCH   7   8
ATOM      8  C   UNL A   1      31.182  26.680  22.439  1.00  0.00     0.119 A 
ATOM      9  C   UNL A   1      32.389  26.551  21.760  1.00  0.00     0.046 A 
ATOM     10  C   UNL A   1      30.855  25.746  23.429  1.00  0.00     0.054 A 
ATOM     11  C   UNL A   1      33.274  25.535  22.099  1.00  0.00     0.004 A 
ATOM     12  C   UNL A   1      31.669  24.624  23.686  1.00  0.00    -0.022 A 
ATOM     13  C   UNL A   1      32.921  24.592  23.069  1.00  0.00     0.008 A 
BRANCH  12  14
ATOM     14  C   UNL A   1      31.032  23.485  24.422  1.00  0.00     0.015 C 
ATOM     15  C   UNL A   1      31.397  23.048  25.650  1.00  0.00    -0.003 C 
ATOM     16  C   UNL A   1      32.079  23.745  26.791  1.00  0.00     0.061 C 
ATOM     17  C   UNL A   1      32.156  21.752  25.550  1.00  0.00     0.139 A 
ATOM     18  C   UNL A   1      33.531  23.372  26.552  1.00  0.00     0.132 C 
ATOM     19  N   UNL A   1      33.453  22.081  25.915  1.00  0.00    -0.292 N 
ATOM     20  N   UNL A   1      31.797  20.583  25.155  1.00  0.00    -0.230 NA
ATOM     21  C   UNL A   1      34.528  21.371  25.451  1.00  0.00     0.261 A 
ATOM     22  C   UNL A   1      32.837  19.630  25.027  1.00  0.00     0.080 A 
ATOM     23  C   UNL A   1      34.190  20.010  24.996  1.00  0.00     0.066 A 
ATOM     24  O   UNL A   1      35.674  21.804  25.393  1.00  0.00    -0.269 OA
ATOM     25  C   UNL A   1      32.530  18.280  24.866  1.00  0.00     0.049 A 
ATOM     26  C   UNL A   1      35.201  19.109  24.652  1.00  0.00     0.017 A 
ATOM     27  C   UNL A   1      33.547  17.359  24.589  1.00  0.00     0.043 A 
ATOM     28  C   UNL A   1      34.871  17.776  24.434  1.00  0.00     0.021 A 
ATOM     29  Cl  UNL A   1      33.172  15.685  24.447  1.00  0.00    -0.084 Cl
ENDBRANCH  12  14
ENDBRANCH   7   8
ENDBRANCH   6   7
ENDBRANCH   5   6
ENDBRANCH   3   5
ENDBRANCH   2   3
ENDBRANCH   1   2
BRANCH   1  30
ATOM     30  C   UNL A   1      31.883  32.358  27.231  1.00  0.00     0.275 C 
BRANCH  30  31
ATOM     31  O   UNL A   1      33.062  33.177  27.139  1.00  0.00    -0.458 OA
BRANCH  31  32
ATOM     32  C   UNL A   1      33.251  34.031  28.177  1.00  0.00     0.338 C 
ATOM     33  O   UNL A   1      32.530  34.956  28.512  1.00  0.00    -0.246 OA
BRANCH  32  34
ATOM     34  C   UNL A   1      34.400  33.554  28.974  1.00  0.00     0.060 A 
ATOM     35  C   UNL A   1      35.684  33.973  28.605  1.00  0.00     0.016 A 
ATOM     36  C   UNL A   1      34.218  32.706  30.071  1.00  0.00     0.016 A 
ATOM     37  C   UNL A   1      36.797  33.502  29.301  1.00  0.00     0.010 A 
ATOM     38  C   UNL A   1      35.332  32.229  30.762  1.00  0.00     0.010 A 
ATOM     39  C   UNL A   1      36.627  32.589  30.350  1.00  0.00    -0.014 A 
BRANCH  39  40
ATOM     40  C   UNL A   1      37.794  31.831  30.852  1.00  0.00     0.031 A 
ATOM     41  C   UNL A   1      38.294  32.147  32.237  1.00  0.00     0.074 A 
ATOM     42  C   UNL A   1      38.385  30.875  30.116  1.00  0.00     0.049 A 
ATOM     43  N   UNL A   1      39.278  31.607  32.908  1.00  0.00    -0.248 NA
ATOM     44  C   UNL A   1      37.591  33.223  32.956  1.00  0.00     0.031 C 
ATOM     45  C   UNL A   1      37.976  30.459  28.776  1.00  0.00     0.029 A 
ATOM     46  N   UNL A   1      39.464  30.079  30.404  1.00  0.00    -0.354 N 
ATOM     47  C   UNL A   1      39.310  32.279  34.125  1.00  0.00     0.074 A 
ATOM     48  C   UNL A   1      38.280  33.291  34.082  1.00  0.00     0.031 C 
ATOM     49  C   UNL A   1      38.793  29.475  28.358  1.00  0.00     0.029 A 
ATOM     50  C   UNL A   1      39.792  29.210  29.392  1.00  0.00     0.049 A 
ATOM     51  H   UNL A   1      39.956  30.125  31.255  1.00  0.00     0.167 HD
ATOM     52  C   UNL A   1      40.119  32.065  35.189  1.00  0.00     0.031 A 
ATOM     53  C   UNL A   1      40.786  28.304  29.317  1.00  0.00     0.031 A 
ATOM     54  C   UNL A   1      41.156  31.073  35.225  1.00  0.00     0.049 A 
ATOM     55  C   UNL A   1      41.715  28.130  30.491  1.00  0.00     0.074 A 
ATOM     56  C   UNL A   1      42.019  30.762  36.260  1.00  0.00     0.029 A 
ATOM     57  N   UNL A   1      41.480  30.238  34.166  1.00  0.00    -0.354 N 
ATOM     58  N   UNL A   1      41.705  28.733  31.656  1.00  0.00    -0.248 NA
ATOM     59  C   UNL A   1      42.787  27.135  30.341  1.00  0.00     0.031 C 
ATOM     60  C   UNL A   1      42.903  29.776  35.807  1.00  0.00     0.029 A 
ATOM     61  C   UNL A   1      42.548  29.429  34.513  1.00  0.00     0.049 A 
ATOM     62  H   UNL A   1      41.017  30.221  33.298  1.00  0.00     0.167 HD
ATOM     63  C   UNL A   1      42.736  28.162  32.390  1.00  0.00     0.074 A 
ATOM     64  C   UNL A   1      43.347  27.159  31.542  1.00  0.00     0.031 C 
ATOM     65  C   UNL A   1      43.139  28.435  33.656  1.00  0.00     0.031 A 
BRANCH  52  66
ATOM     66  C   UNL A   1      39.928  32.958  36.384  1.00  0.00    -0.014 A 
ATOM     67  C   UNL A   1      40.789  34.039  36.636  1.00  0.00     0.009 A 
ATOM     68  C   UNL A   1      38.869  32.713  37.271  1.00  0.00     0.009 A 
ATOM     69  C   UNL A   1      40.616  34.830  37.774  1.00  0.00     0.001 A 
ATOM     70  C   UNL A   1      38.680  33.523  38.392  1.00  0.00     0.001 A 
ATOM     71  C   UNL A   1      39.560  34.573  38.648  1.00  0.00     0.000 A 
ENDBRANCH  52  66
BRANCH  53  72
ATOM     72  C   UNL A   1      40.954  27.472  28.096  1.00  0.00    -0.014 A 
ATOM     73  C   UNL A   1      41.734  27.930  27.023  1.00  0.00     0.009 A 
ATOM     74  C   UNL A   1      40.309  26.231  27.982  1.00  0.00     0.009 A 
ATOM     75  C   UNL A   1      41.839  27.177  25.850  1.00  0.00     0.001 A 
ATOM     76  C   UNL A   1      40.439  25.467  26.820  1.00  0.00     0.001 A 
ATOM     77  C   UNL A   1      41.195  25.946  25.751  1.00  0.00     0.000 A 
ENDBRANCH  53  72
BRANCH  65  78
ATOM     78  C   UNL A   1      44.261  27.604  34.218  1.00  0.00    -0.014 A 
ATOM     79  C   UNL A   1      45.594  28.037  34.168  1.00  0.00     0.009 A 
ATOM     80  C   UNL A   1      43.967  26.380  34.842  1.00  0.00     0.009 A 
ATOM     81  C   UNL A   1      46.614  27.242  34.694  1.00  0.00     0.001 A 
ATOM     82  C   UNL A   1      44.983  25.604  35.397  1.00  0.00     0.001 A 
ATOM     83  C   UNL A   1      46.308  26.029  35.313  1.00  0.00     0.000 A 
ENDBRANCH  65  78
ENDBRANCH  39  40
ENDBRANCH  32  34
ENDBRANCH  31  32
ENDBRANCH  30  31
ENDBRANCH   1  30
TORSDOF 15
ENDMDL
