MODEL 1
REMARK VINA RESULT:      -9.8      0.000      0.000
REMARK SMILES C[C@H](C[C@H]1CSc2ccccc21)C(=O)OCCOC(=O)c1ccc(-c2c3nc(c(-c4ccccc4)c4ccc([nH]4)c(-c4ccccc4)c4nc(c(-c5ccccc5)c5ccc2[nH]5)C=C4)C=C3)cc1
REMARK SMILES IDX 16 1 15 2 13 3 14 4 2 5 1 6 3 7 4 8 5 9 12 10 6 11 7 12
REMARK SMILES IDX 11 13 8 14 10 15 9 16 17 17 18 18 19 19 20 20 21 21 22 22
REMARK SMILES IDX 68 23 23 24 67 25 24 26 25 27 26 28 61 29 27 30 66 31 60 32
REMARK SMILES IDX 62 33 28 34 65 35 59 36 58 37 29 39 51 40 36 41 50 42 37 43
REMARK SMILES IDX 40 44 49 45 63 46 38 47 39 48 48 50 64 51 41 52 30 53 31 54
REMARK SMILES IDX 35 55 32 56 34 57 33 58 52 59 53 60 57 61 54 62 56 63 55 64
REMARK SMILES IDX 42 65 43 66 47 67 44 68 46 69 45 70
REMARK H PARENT 62 38 40 49
REMARK Flexibility Score: inf
ROOT
ATOM      1  C   UNL A   1      32.307  28.408  27.429  1.00  0.00     0.274 C 
ENDROOT
BRANCH   1   2
ATOM      2  O   UNL A   1      31.886  27.775  26.214  1.00  0.00    -0.462 OA
BRANCH   2   3
ATOM      3  C   UNL A   1      32.123  26.438  26.140  1.00  0.00     0.308 C 
ATOM      4  O   UNL A   1      31.381  25.561  26.567  1.00  0.00    -0.252 OA
BRANCH   3   5
ATOM      5  C   UNL A   1      33.505  26.150  25.608  1.00  0.00     0.097 C 
ATOM      6  C   UNL A   1      33.669  27.142  24.462  1.00  0.00     0.020 C 
BRANCH   5   7
ATOM      7  C   UNL A   1      33.743  24.642  25.326  1.00  0.00     0.024 C 
BRANCH   7   8
ATOM      8  C   UNL A   1      34.175  23.686  26.477  1.00  0.00     0.031 C 
ATOM      9  C   UNL A   1      33.174  22.533  26.717  1.00  0.00     0.083 C 
ATOM     10  C   UNL A   1      35.532  23.072  26.261  1.00  0.00    -0.030 A 
ATOM     11  S   UNL A   1      33.893  20.999  26.061  1.00  0.00    -0.125 SA
ATOM     12  C   UNL A   1      35.501  21.717  25.918  1.00  0.00     0.011 A 
ATOM     13  C   UNL A   1      36.714  23.801  26.163  1.00  0.00     0.005 A 
ATOM     14  C   UNL A   1      36.608  21.107  25.346  1.00  0.00     0.015 A 
ATOM     15  C   UNL A   1      37.827  23.197  25.577  1.00  0.00     0.000 A 
ATOM     16  C   UNL A   1      37.764  21.867  25.144  1.00  0.00     0.001 A 
ENDBRANCH   7   8
ENDBRANCH   5   7
ENDBRANCH   3   5
ENDBRANCH   2   3
ENDBRANCH   1   2
BRANCH   1  17
ATOM     17  C   UNL A   1      32.600  29.895  27.226  1.00  0.00     0.275 C 
BRANCH  17  18
ATOM     18  O   UNL A   1      33.998  30.149  27.006  1.00  0.00    -0.458 OA
BRANCH  18  19
ATOM     19  C   UNL A   1      34.623  30.901  27.948  1.00  0.00     0.338 C 
ATOM     20  O   UNL A   1      34.171  31.857  28.547  1.00  0.00    -0.246 OA
BRANCH  19  21
ATOM     21  C   UNL A   1      35.927  30.284  28.261  1.00  0.00     0.060 A 
ATOM     22  C   UNL A   1      36.947  30.268  27.311  1.00  0.00     0.016 A 
ATOM     23  C   UNL A   1      36.130  29.726  29.531  1.00  0.00     0.016 A 
ATOM     24  C   UNL A   1      38.170  29.679  27.631  1.00  0.00     0.010 A 
ATOM     25  C   UNL A   1      37.358  29.144  29.852  1.00  0.00     0.010 A 
ATOM     26  C   UNL A   1      38.388  29.118  28.904  1.00  0.00    -0.014 A 
BRANCH  26  27
ATOM     27  C   UNL A   1      39.732  28.592  29.245  1.00  0.00     0.031 A 
ATOM     28  C   UNL A   1      40.164  27.218  28.827  1.00  0.00     0.074 A 
ATOM     29  C   UNL A   1      40.580  29.395  29.914  1.00  0.00     0.049 A 
ATOM     30  N   UNL A   1      41.353  26.676  28.912  1.00  0.00    -0.248 NA
ATOM     31  C   UNL A   1      39.140  26.338  28.244  1.00  0.00     0.031 C 
ATOM     32  C   UNL A   1      40.250  30.736  30.401  1.00  0.00     0.029 A 
ATOM     33  N   UNL A   1      41.892  29.220  30.274  1.00  0.00    -0.354 N 
ATOM     34  C   UNL A   1      41.227  25.401  28.376  1.00  0.00     0.074 A 
ATOM     35  C   UNL A   1      39.835  25.229  28.021  1.00  0.00     0.031 C 
ATOM     36  C   UNL A   1      41.347  31.285  30.943  1.00  0.00     0.029 A 
ATOM     37  C   UNL A   1      42.445  30.325  30.876  1.00  0.00     0.049 A 
ATOM     38  H   UNL A   1      42.389  28.385  30.116  1.00  0.00     0.167 HD
ATOM     39  C   UNL A   1      42.194  24.474  28.179  1.00  0.00     0.031 A 
ATOM     40  C   UNL A   1      43.700  30.551  31.314  1.00  0.00     0.031 A 
ATOM     41  C   UNL A   1      43.576  24.656  28.550  1.00  0.00     0.049 A 
ATOM     42  C   UNL A   1      44.746  29.492  31.113  1.00  0.00     0.074 A 
ATOM     43  C   UNL A   1      44.638  23.791  28.347  1.00  0.00     0.029 A 
ATOM     44  N   UNL A   1      44.085  25.766  29.207  1.00  0.00    -0.354 N 
ATOM     45  N   UNL A   1      44.635  28.327  30.520  1.00  0.00    -0.248 NA
ATOM     46  C   UNL A   1      46.094  29.781  31.622  1.00  0.00     0.031 C 
ATOM     47  C   UNL A   1      45.770  24.339  28.953  1.00  0.00     0.029 A 
ATOM     48  C   UNL A   1      45.438  25.587  29.453  1.00  0.00     0.049 A 
ATOM     49  H   UNL A   1      43.566  26.563  29.460  1.00  0.00     0.167 HD
ATOM     50  C   UNL A   1      45.899  27.752  30.569  1.00  0.00     0.074 A 
ATOM     51  C   UNL A   1      46.768  28.708  31.225  1.00  0.00     0.031 C 
ATOM     52  C   UNL A   1      46.297  26.539  30.114  1.00  0.00     0.031 A 
BRANCH  39  53
ATOM     53  C   UNL A   1      41.818  23.174  27.520  1.00  0.00    -0.014 A 
ATOM     54  C   UNL A   1      41.302  22.118  28.292  1.00  0.00     0.009 A 
ATOM     55  C   UNL A   1      42.094  22.944  26.163  1.00  0.00     0.009 A 
ATOM     56  C   UNL A   1      41.096  20.857  27.727  1.00  0.00     0.001 A 
ATOM     57  C   UNL A   1      41.855  21.692  25.591  1.00  0.00     0.001 A 
ATOM     58  C   UNL A   1      41.370  20.646  26.376  1.00  0.00     0.000 A 
ENDBRANCH  39  53
BRANCH  40  59
ATOM     59  C   UNL A   1      44.025  31.862  31.939  1.00  0.00    -0.014 A 
ATOM     60  C   UNL A   1      43.846  32.058  33.319  1.00  0.00     0.009 A 
ATOM     61  C   UNL A   1      44.450  32.944  31.155  1.00  0.00     0.009 A 
ATOM     62  C   UNL A   1      44.051  33.314  33.893  1.00  0.00     0.001 A 
ATOM     63  C   UNL A   1      44.690  34.192  31.738  1.00  0.00     0.001 A 
ATOM     64  C   UNL A   1      44.477  34.379  33.102  1.00  0.00     0.000 A 
ENDBRANCH  40  59
BRANCH  52  65
ATOM     65  C   UNL A   1      47.741  26.151  30.302  1.00  0.00    -0.014 A 
ATOM     66  C   UNL A   1      48.595  26.078  29.189  1.00  0.00     0.009 A 
ATOM     67  C   UNL A   1      48.225  25.745  31.554  1.00  0.00     0.009 A 
ATOM     68  C   UNL A   1      49.894  25.583  29.321  1.00  0.00     0.001 A 
ATOM     69  C   UNL A   1      49.537  25.287  31.691  1.00  0.00     0.001 A 
ATOM     70  C   UNL A   1      50.366  25.193  30.573  1.00  0.00     0.000 A 
ENDBRANCH  52  65
ENDBRANCH  26  27
ENDBRANCH  19  21
ENDBRANCH  18  19
ENDBRANCH  17  18
ENDBRANCH   1  17
TORSDOF 13
ENDMDL
MODEL 2
REMARK VINA RESULT:      -9.6      3.125      7.684
REMARK SMILES C[C@H](C[C@H]1CSc2ccccc21)C(=O)OCCOC(=O)c1ccc(-c2c3nc(c(-c4ccccc4)c4ccc([nH]4)c(-c4ccccc4)c4nc(c(-c5ccccc5)c5ccc2[nH]5)C=C4)C=C3)cc1
REMARK SMILES IDX 16 1 15 2 13 3 14 4 2 5 1 6 3 7 4 8 5 9 12 10 6 11 7 12
REMARK SMILES IDX 11 13 8 14 10 15 9 16 17 17 18 18 19 19 20 20 21 21 22 22
REMARK SMILES IDX 68 23 23 24 67 25 24 26 25 27 26 28 61 29 27 30 66 31 60 32
REMARK SMILES IDX 62 33 28 34 65 35 59 36 58 37 29 39 51 40 36 41 50 42 37 43
REMARK SMILES IDX 40 44 49 45 63 46 38 47 39 48 48 50 64 51 41 52 30 53 31 54
REMARK SMILES IDX 35 55 32 56 34 57 33 58 52 59 53 60 57 61 54 62 56 63 55 64
REMARK SMILES IDX 42 65 43 66 47 67 44 68 46 69 45 70
REMARK H PARENT 62 38 40 49
REMARK Flexibility Score: inf
ROOT
ATOM      1  C   UNL A   1      31.294  31.332  26.512  1.00  0.00     0.274 C 
ENDROOT
BRANCH   1   2
ATOM      2  O   UNL A   1      32.548  30.642  26.592  1.00  0.00    -0.462 OA
BRANCH   2   3
ATOM      3  C   UNL A   1      32.466  29.312  26.860  1.00  0.00     0.308 C 
ATOM      4  O   UNL A   1      31.497  28.746  27.351  1.00  0.00    -0.252 OA
BRANCH   3   5
ATOM      5  C   UNL A   1      33.788  28.620  26.633  1.00  0.00     0.097 C 
ATOM      6  C   UNL A   1      34.796  29.516  27.343  1.00  0.00     0.020 C 
BRANCH   5   7
ATOM      7  C   UNL A   1      34.033  28.260  25.143  1.00  0.00     0.024 C 
BRANCH   7   8
ATOM      8  C   UNL A   1      33.622  26.862  24.594  1.00  0.00     0.031 C 
ATOM      9  C   UNL A   1      33.663  25.751  25.668  1.00  0.00     0.083 C 
ATOM     10  C   UNL A   1      32.249  26.845  23.976  1.00  0.00    -0.030 A 
ATOM     11  S   UNL A   1      31.957  25.338  26.136  1.00  0.00    -0.125 SA
ATOM     12  C   UNL A   1      31.281  26.194  24.746  1.00  0.00     0.011 A 
ATOM     13  C   UNL A   1      31.882  27.603  22.867  1.00  0.00     0.005 A 
ATOM     14  C   UNL A   1      29.931  26.397  24.503  1.00  0.00     0.015 A 
ATOM     15  C   UNL A   1      30.526  27.821  22.626  1.00  0.00     0.000 A 
ATOM     16  C   UNL A   1      29.556  27.246  23.457  1.00  0.00     0.001 A 
ENDBRANCH   7   8
ENDBRANCH   5   7
ENDBRANCH   3   5
ENDBRANCH   2   3
ENDBRANCH   1   2
BRANCH   1  17
ATOM     17  C   UNL A   1      31.435  32.814  26.862  1.00  0.00     0.275 C 
BRANCH  17  18
ATOM     18  O   UNL A   1      32.810  33.229  26.928  1.00  0.00    -0.458 OA
BRANCH  18  19
ATOM     19  C   UNL A   1      33.169  33.931  28.034  1.00  0.00     0.338 C 
ATOM     20  O   UNL A   1      32.527  34.797  28.597  1.00  0.00    -0.246 OA
BRANCH  19  21
ATOM     21  C   UNL A   1      34.430  33.375  28.563  1.00  0.00     0.060 A 
ATOM     22  C   UNL A   1      35.654  33.759  28.017  1.00  0.00     0.016 A 
ATOM     23  C   UNL A   1      34.381  32.467  29.629  1.00  0.00     0.016 A 
ATOM     24  C   UNL A   1      36.832  33.221  28.533  1.00  0.00     0.010 A 
ATOM     25  C   UNL A   1      35.563  31.935  30.150  1.00  0.00     0.010 A 
ATOM     26  C   UNL A   1      36.797  32.310  29.606  1.00  0.00    -0.014 A 
BRANCH  26  27
ATOM     27  C   UNL A   1      38.071  31.834  30.197  1.00  0.00     0.031 A 
ATOM     28  C   UNL A   1      38.649  32.466  31.427  1.00  0.00     0.074 A 
ATOM     29  C   UNL A   1      38.689  30.786  29.619  1.00  0.00     0.049 A 
ATOM     30  N   UNL A   1      39.666  32.066  32.149  1.00  0.00    -0.248 NA
ATOM     31  C   UNL A   1      38.014  33.702  31.911  1.00  0.00     0.031 C 
ATOM     32  C   UNL A   1      38.235  30.119  28.398  1.00  0.00     0.029 A 
ATOM     33  N   UNL A   1      39.806  30.081  29.991  1.00  0.00    -0.354 N 
ATOM     34  C   UNL A   1      39.781  32.986  33.183  1.00  0.00     0.074 A 
ATOM     35  C   UNL A   1      38.768  33.996  32.964  1.00  0.00     0.031 C 
ATOM     36  C   UNL A   1      39.029  29.067  28.153  1.00  0.00     0.029 A 
ATOM     37  C   UNL A   1      40.069  29.006  29.176  1.00  0.00     0.049 A 
ATOM     38  H   UNL A   1      40.364  30.322  30.765  1.00  0.00     0.167 HD
ATOM     39  C   UNL A   1      40.641  32.970  34.229  1.00  0.00     0.031 A 
ATOM     40  C   UNL A   1      41.030  28.063  29.250  1.00  0.00     0.031 A 
ATOM     41  C   UNL A   1      41.654  31.962  34.428  1.00  0.00     0.049 A 
ATOM     42  C   UNL A   1      41.991  28.087  30.403  1.00  0.00     0.074 A 
ATOM     43  C   UNL A   1      42.540  31.836  35.484  1.00  0.00     0.029 A 
ATOM     44  N   UNL A   1      41.924  30.921  33.553  1.00  0.00    -0.354 N 
ATOM     45  N   UNL A   1      42.031  28.909  31.425  1.00  0.00    -0.248 NA
ATOM     46  C   UNL A   1      43.029  27.047  30.429  1.00  0.00     0.031 C 
ATOM     47  C   UNL A   1      43.399  30.771  35.209  1.00  0.00     0.029 A 
ATOM     48  C   UNL A   1      42.992  30.174  34.027  1.00  0.00     0.049 A 
ATOM     49  H   UNL A   1      41.431  30.738  32.721  1.00  0.00     0.167 HD
ATOM     50  C   UNL A   1      43.083  28.477  32.222  1.00  0.00     0.074 A 
ATOM     51  C   UNL A   1      43.639  27.303  31.580  1.00  0.00     0.031 C 
ATOM     52  C   UNL A   1      43.546  29.010  33.379  1.00  0.00     0.031 A 
BRANCH  39  53
ATOM     53  C   UNL A   1      40.532  34.058  35.264  1.00  0.00    -0.014 A 
ATOM     54  C   UNL A   1      39.647  33.914  36.346  1.00  0.00     0.009 A 
ATOM     55  C   UNL A   1      41.203  35.281  35.101  1.00  0.00     0.009 A 
ATOM     56  C   UNL A   1      39.417  34.975  37.225  1.00  0.00     0.001 A 
ATOM     57  C   UNL A   1      40.998  36.330  36.000  1.00  0.00     0.001 A 
ATOM     58  C   UNL A   1      40.095  36.181  37.053  1.00  0.00     0.000 A 
ENDBRANCH  39  53
BRANCH  40  59
ATOM     59  C   UNL A   1      41.080  26.996  28.213  1.00  0.00    -0.014 A 
ATOM     60  C   UNL A   1      41.769  27.206  27.006  1.00  0.00     0.009 A 
ATOM     61  C   UNL A   1      40.386  25.791  28.391  1.00  0.00     0.009 A 
ATOM     62  C   UNL A   1      41.732  26.251  25.989  1.00  0.00     0.001 A 
ATOM     63  C   UNL A   1      40.382  24.819  27.386  1.00  0.00     0.001 A 
ATOM     64  C   UNL A   1      41.043  25.056  26.182  1.00  0.00     0.000 A 
ENDBRANCH  40  59
BRANCH  52  65
ATOM     65  C   UNL A   1      44.721  28.344  34.047  1.00  0.00    -0.014 A 
ATOM     66  C   UNL A   1      44.502  27.351  35.016  1.00  0.00     0.009 A 
ATOM     67  C   UNL A   1      46.033  28.776  33.805  1.00  0.00     0.009 A 
ATOM     68  C   UNL A   1      45.569  26.824  35.748  1.00  0.00     0.001 A 
ATOM     69  C   UNL A   1      47.102  28.220  34.511  1.00  0.00     0.001 A 
ATOM     70  C   UNL A   1      46.868  27.255  35.491  1.00  0.00     0.000 A 
ENDBRANCH  52  65
ENDBRANCH  26  27
ENDBRANCH  19  21
ENDBRANCH  18  19
ENDBRANCH  17  18
ENDBRANCH   1  17
TORSDOF 13
ENDMDL
MODEL 3
REMARK VINA RESULT:      -9.5      2.577      7.273
REMARK SMILES C[C@H](C[C@H]1CSc2ccccc21)C(=O)OCCOC(=O)c1ccc(-c2c3nc(c(-c4ccccc4)c4ccc([nH]4)c(-c4ccccc4)c4nc(c(-c5ccccc5)c5ccc2[nH]5)C=C4)C=C3)cc1
REMARK SMILES IDX 16 1 15 2 13 3 14 4 2 5 1 6 3 7 4 8 5 9 12 10 6 11 7 12
REMARK SMILES IDX 11 13 8 14 10 15 9 16 17 17 18 18 19 19 20 20 21 21 22 22
REMARK SMILES IDX 68 23 23 24 67 25 24 26 25 27 26 28 61 29 27 30 66 31 60 32
REMARK SMILES IDX 62 33 28 34 65 35 59 36 58 37 29 39 51 40 36 41 50 42 37 43
REMARK SMILES IDX 40 44 49 45 63 46 38 47 39 48 48 50 64 51 41 52 30 53 31 54
REMARK SMILES IDX 35 55 32 56 34 57 33 58 52 59 53 60 57 61 54 62 56 63 55 64
REMARK SMILES IDX 42 65 43 66 47 67 44 68 46 69 45 70
REMARK H PARENT 62 38 40 49
REMARK Flexibility Score: inf
ROOT
ATOM      1  C   UNL A   1      31.994  31.351  26.916  1.00  0.00     0.274 C 
ENDROOT
BRANCH   1   2
ATOM      2  O   UNL A   1      33.002  30.495  26.361  1.00  0.00    -0.462 OA
BRANCH   2   3
ATOM      3  C   UNL A   1      32.583  29.248  26.017  1.00  0.00     0.308 C 
ATOM      4  O   UNL A   1      31.526  28.984  25.458  1.00  0.00    -0.252 OA
BRANCH   3   5
ATOM      5  C   UNL A   1      33.510  28.186  26.557  1.00  0.00     0.097 C 
ATOM      6  C   UNL A   1      34.653  28.980  27.177  1.00  0.00     0.020 C 
BRANCH   5   7
ATOM      7  C   UNL A   1      33.848  27.091  25.510  1.00  0.00     0.024 C 
BRANCH   7   8
ATOM      8  C   UNL A   1      33.327  25.635  25.699  1.00  0.00     0.031 C 
ATOM      9  C   UNL A   1      31.949  25.392  25.041  1.00  0.00     0.083 C 
ATOM     10  C   UNL A   1      34.273  24.592  25.168  1.00  0.00    -0.030 A 
ATOM     11  S   UNL A   1      32.195  24.407  23.534  1.00  0.00    -0.125 SA
ATOM     12  C   UNL A   1      33.849  23.980  23.984  1.00  0.00     0.011 A 
ATOM     13  C   UNL A   1      35.567  24.396  25.643  1.00  0.00     0.005 A 
ATOM     14  C   UNL A   1      34.746  23.280  23.191  1.00  0.00     0.015 A 
ATOM     15  C   UNL A   1      36.476  23.702  24.843  1.00  0.00     0.000 A 
ATOM     16  C   UNL A   1      36.074  23.174  23.610  1.00  0.00     0.001 A 
ENDBRANCH   7   8
ENDBRANCH   5   7
ENDBRANCH   3   5
ENDBRANCH   2   3
ENDBRANCH   1   2
BRANCH   1  17
ATOM     17  C   UNL A   1      32.413  32.821  26.883  1.00  0.00     0.275 C 
BRANCH  17  18
ATOM     18  O   UNL A   1      32.134  33.494  28.123  1.00  0.00    -0.458 OA
BRANCH  18  19
ATOM     19  C   UNL A   1      33.008  34.469  28.482  1.00  0.00     0.338 C 
ATOM     20  O   UNL A   1      32.776  35.656  28.613  1.00  0.00    -0.246 OA
BRANCH  19  21
ATOM     21  C   UNL A   1      34.296  33.845  28.845  1.00  0.00     0.060 A 
ATOM     22  C   UNL A   1      35.455  34.156  28.136  1.00  0.00     0.016 A 
ATOM     23  C   UNL A   1      34.339  32.947  29.920  1.00  0.00     0.016 A 
ATOM     24  C   UNL A   1      36.660  33.553  28.499  1.00  0.00     0.010 A 
ATOM     25  C   UNL A   1      35.548  32.351  30.286  1.00  0.00     0.010 A 
ATOM     26  C   UNL A   1      36.718  32.652  29.579  1.00  0.00    -0.014 A 
BRANCH  26  27
ATOM     27  C   UNL A   1      38.031  32.107  30.000  1.00  0.00     0.031 A 
ATOM     28  C   UNL A   1      38.859  32.785  31.050  1.00  0.00     0.074 A 
ATOM     29  C   UNL A   1      38.453  30.958  29.440  1.00  0.00     0.049 A 
ATOM     30  N   UNL A   1      39.948  32.351  31.635  1.00  0.00    -0.248 NA
ATOM     31  C   UNL A   1      38.419  34.113  31.501  1.00  0.00     0.031 C 
ATOM     32  C   UNL A   1      37.744  30.234  28.383  1.00  0.00     0.029 A 
ATOM     33  N   UNL A   1      39.555  30.182  29.697  1.00  0.00    -0.354 N 
ATOM     34  C   UNL A   1      40.312  33.342  32.537  1.00  0.00     0.074 A 
ATOM     35  C   UNL A   1      39.363  34.423  32.383  1.00  0.00     0.031 C 
ATOM     36  C   UNL A   1      38.396  29.092  28.123  1.00  0.00     0.029 A 
ATOM     37  C   UNL A   1      39.587  29.019  28.965  1.00  0.00     0.049 A 
ATOM     38  H   UNL A   1      40.255  30.433  30.342  1.00  0.00     0.167 HD
ATOM     39  C   UNL A   1      41.334  33.333  33.427  1.00  0.00     0.031 A 
ATOM     40  C   UNL A   1      40.466  27.997  28.977  1.00  0.00     0.031 A 
ATOM     41  C   UNL A   1      42.280  32.253  33.561  1.00  0.00     0.049 A 
ATOM     42  C   UNL A   1      41.608  28.027  29.952  1.00  0.00     0.074 A 
ATOM     43  C   UNL A   1      43.319  32.133  34.467  1.00  0.00     0.029 A 
ATOM     44  N   UNL A   1      42.311  31.117  32.765  1.00  0.00    -0.354 N 
ATOM     45  N   UNL A   1      41.889  28.927  30.864  1.00  0.00    -0.248 NA
ATOM     46  C   UNL A   1      42.547  26.897  29.915  1.00  0.00     0.031 C 
ATOM     47  C   UNL A   1      44.029  30.969  34.166  1.00  0.00     0.029 A 
ATOM     48  C   UNL A   1      43.379  30.314  33.133  1.00  0.00     0.049 A 
ATOM     49  H   UNL A   1      41.670  30.911  32.046  1.00  0.00     0.167 HD
ATOM     50  C   UNL A   1      43.023  28.466  31.520  1.00  0.00     0.074 A 
ATOM     51  C   UNL A   1      43.363  27.191  30.920  1.00  0.00     0.031 C 
ATOM     52  C   UNL A   1      43.718  29.050  32.526  1.00  0.00     0.031 A 
BRANCH  39  53
ATOM     53  C   UNL A   1      41.492  34.513  34.349  1.00  0.00    -0.014 A 
ATOM     54  C   UNL A   1      40.783  34.558  35.561  1.00  0.00     0.009 A 
ATOM     55  C   UNL A   1      42.237  35.638  33.961  1.00  0.00     0.009 A 
ATOM     56  C   UNL A   1      40.795  35.710  36.351  1.00  0.00     0.001 A 
ATOM     57  C   UNL A   1      42.276  36.777  34.769  1.00  0.00     0.001 A 
ATOM     58  C   UNL A   1      41.544  36.817  35.955  1.00  0.00     0.000 A 
ENDBRANCH  39  53
BRANCH  40  59
ATOM     59  C   UNL A   1      40.251  26.844  28.061  1.00  0.00    -0.014 A 
ATOM     60  C   UNL A   1      39.475  25.745  28.466  1.00  0.00     0.009 A 
ATOM     61  C   UNL A   1      40.875  26.801  26.805  1.00  0.00     0.009 A 
ATOM     62  C   UNL A   1      39.357  24.617  27.652  1.00  0.00     0.001 A 
ATOM     63  C   UNL A   1      40.724  25.686  25.976  1.00  0.00     0.001 A 
ATOM     64  C   UNL A   1      39.978  24.590  26.406  1.00  0.00     0.000 A 
ENDBRANCH  40  59
BRANCH  52  65
ATOM     65  C   UNL A   1      44.930  28.332  33.060  1.00  0.00    -0.014 A 
ATOM     66  C   UNL A   1      46.186  28.543  32.466  1.00  0.00     0.009 A 
ATOM     67  C   UNL A   1      44.814  27.364  34.068  1.00  0.00     0.009 A 
ATOM     68  C   UNL A   1      47.292  27.783  32.850  1.00  0.00     0.001 A 
ATOM     69  C   UNL A   1      45.930  26.631  34.478  1.00  0.00     0.001 A 
ATOM     70  C   UNL A   1      47.165  26.831  33.860  1.00  0.00     0.000 A 
ENDBRANCH  52  65
ENDBRANCH  26  27
ENDBRANCH  19  21
ENDBRANCH  18  19
ENDBRANCH  17  18
ENDBRANCH   1  17
TORSDOF 13
ENDMDL
