MODEL 1
REMARK VINA RESULT:      -8.3      0.000      0.000
REMARK SMILES C#CC[NH2+]CC(=O)N(C)CCCC(=O)OCCOC(=O)c1ccc(-c2c3nc(c(-c4ccccc4)c4ccc([nH]4)c(-c4ccccc4)c4nc(c(-c5ccccc5)c5ccc2[nH]5)C=C4)C=C3)cc1
REMARK SMILES IDX 12 1 11 2 10 3 8 4 9 5 6 6 7 7 5 8 4 9 3 12 2 13 1 14 13 15
REMARK SMILES IDX 14 16 15 17 16 18 17 19 18 20 19 21 20 22 21 23 22 24 68 25
REMARK SMILES IDX 23 26 67 27 24 28 25 29 26 30 61 31 27 32 66 33 60 34 62 35
REMARK SMILES IDX 28 36 65 37 59 38 58 39 29 41 51 42 36 43 50 44 37 45 40 46
REMARK SMILES IDX 49 47 63 48 38 49 39 50 48 52 64 53 41 54 30 55 31 56 35 57
REMARK SMILES IDX 32 58 34 59 33 60 52 61 53 62 57 63 54 64 56 65 55 66 42 67
REMARK SMILES IDX 43 68 47 69 44 70 46 71 45 72
REMARK H PARENT 4 10 4 11 62 40 40 51
REMARK Flexibility Score: inf
ROOT
ATOM      1  C   UNL A   1      35.340  23.313  24.885  1.00  0.00     0.124 C 
ENDROOT
BRANCH   1   2
ATOM      2  C   UNL A   1      34.198  24.183  24.353  1.00  0.00     0.033 C 
BRANCH   2   3
ATOM      3  C   UNL A   1      32.861  24.204  25.119  1.00  0.00     0.120 C 
BRANCH   3   4
ATOM      4  N   UNL A   1      31.815  23.308  24.621  1.00  0.00    -0.341 N 
ATOM      5  C   UNL A   1      31.341  23.597  23.273  1.00  0.00     0.147 C 
BRANCH   4   6
ATOM      6  C   UNL A   1      31.616  22.056  25.202  1.00  0.00     0.277 C 
ATOM      7  O   UNL A   1      30.702  21.849  26.003  1.00  0.00    -0.268 OA
BRANCH   6   8
ATOM      8  C   UNL A   1      32.517  20.881  24.754  1.00  0.00     0.362 C 
BRANCH   8   9
ATOM      9  N   UNL A   1      32.869  19.933  25.849  1.00  0.00    -0.328 N 
ATOM     10  H   UNL A   1      33.843  20.076  26.119  1.00  0.00     0.347 HD
ATOM     11  H   UNL A   1      32.259  20.106  26.650  1.00  0.00     0.347 HD
BRANCH   9  12
ATOM     12  C   UNL A   1      32.690  18.573  25.401  1.00  0.00     0.352 C 
BRANCH  12  13
ATOM     13  C   UNL A   1      32.539  18.338  23.907  1.00  0.00    -0.047 C 
ATOM     14  C   UNL A   1      32.410  18.136  22.625  1.00  0.00     0.010 C 
ENDBRANCH  12  13
ENDBRANCH   9  12
ENDBRANCH   8   9
ENDBRANCH   6   8
ENDBRANCH   4   6
ENDBRANCH   3   4
ENDBRANCH   2   3
ENDBRANCH   1   2
BRANCH   1  15
ATOM     15  C   UNL A   1      36.202  22.598  23.861  1.00  0.00     0.305 C 
ATOM     16  O   UNL A   1      36.386  23.037  22.732  1.00  0.00    -0.252 OA
BRANCH  15  17
ATOM     17  O   UNL A   1      36.716  21.441  24.336  1.00  0.00    -0.462 OA
BRANCH  17  18
ATOM     18  C   UNL A   1      37.732  21.499  25.348  1.00  0.00     0.274 C 
BRANCH  18  19
ATOM     19  C   UNL A   1      38.720  20.350  25.154  1.00  0.00     0.275 C 
BRANCH  19  20
ATOM     20  O   UNL A   1      39.427  20.091  26.379  1.00  0.00    -0.458 OA
BRANCH  20  21
ATOM     21  C   UNL A   1      40.764  19.935  26.238  1.00  0.00     0.338 C 
ATOM     22  O   UNL A   1      41.359  19.015  25.704  1.00  0.00    -0.246 OA
BRANCH  21  23
ATOM     23  C   UNL A   1      41.434  21.166  26.680  1.00  0.00     0.060 A 
ATOM     24  C   UNL A   1      41.448  21.438  28.051  1.00  0.00     0.016 A 
ATOM     25  C   UNL A   1      41.984  22.066  25.769  1.00  0.00     0.016 A 
ATOM     26  C   UNL A   1      41.997  22.623  28.522  1.00  0.00     0.010 A 
ATOM     27  C   UNL A   1      42.529  23.264  26.241  1.00  0.00     0.010 A 
ATOM     28  C   UNL A   1      42.515  23.555  27.616  1.00  0.00    -0.014 A 
BRANCH  28  29
ATOM     29  C   UNL A   1      42.923  24.888  28.111  1.00  0.00     0.031 A 
ATOM     30  C   UNL A   1      41.867  25.921  28.376  1.00  0.00     0.074 A 
ATOM     31  C   UNL A   1      44.216  25.150  28.371  1.00  0.00     0.049 A 
ATOM     32  N   UNL A   1      42.001  27.162  28.769  1.00  0.00    -0.248 NA
ATOM     33  C   UNL A   1      40.471  25.500  28.171  1.00  0.00     0.031 C 
ATOM     34  C   UNL A   1      45.320  24.202  28.220  1.00  0.00     0.029 A 
ATOM     35  N   UNL A   1      44.814  26.295  28.831  1.00  0.00    -0.354 N 
ATOM     36  C   UNL A   1      40.713  27.677  28.827  1.00  0.00     0.074 A 
ATOM     37  C   UNL A   1      39.812  26.621  28.420  1.00  0.00     0.031 C 
ATOM     38  C   UNL A   1      46.463  24.801  28.597  1.00  0.00     0.029 A 
ATOM     39  C   UNL A   1      46.174  26.184  28.970  1.00  0.00     0.049 A 
ATOM     40  H   UNL A   1      44.315  27.117  29.041  1.00  0.00     0.167 HD
ATOM     41  C   UNL A   1      40.317  28.921  29.186  1.00  0.00     0.031 A 
ATOM     42  C   UNL A   1      47.086  27.103  29.341  1.00  0.00     0.031 A 
ATOM     43  C   UNL A   1      41.215  29.966  29.600  1.00  0.00     0.049 A 
ATOM     44  C   UNL A   1      46.626  28.495  29.676  1.00  0.00     0.074 A 
ATOM     45  C   UNL A   1      40.917  31.259  29.988  1.00  0.00     0.029 A 
ATOM     46  N   UNL A   1      42.594  29.830  29.678  1.00  0.00    -0.354 N 
ATOM     47  N   UNL A   1      45.407  28.977  29.713  1.00  0.00    -0.248 NA
ATOM     48  C   UNL A   1      47.671  29.469  30.019  1.00  0.00     0.031 C 
ATOM     49  C   UNL A   1      42.119  31.920  30.262  1.00  0.00     0.029 A 
ATOM     50  C   UNL A   1      43.161  31.023  30.090  1.00  0.00     0.049 A 
ATOM     51  H   UNL A   1      43.093  29.008  29.471  1.00  0.00     0.167 HD
ATOM     52  C   UNL A   1      45.536  30.302  30.106  1.00  0.00     0.074 A 
ATOM     53  C   UNL A   1      46.951  30.543  30.309  1.00  0.00     0.031 C 
ATOM     54  C   UNL A   1      44.572  31.238  30.284  1.00  0.00     0.031 A 
BRANCH  41  55
ATOM     55  C   UNL A   1      38.850  29.227  29.094  1.00  0.00    -0.014 A 
ATOM     56  C   UNL A   1      37.999  29.094  30.202  1.00  0.00     0.009 A 
ATOM     57  C   UNL A   1      38.311  29.659  27.872  1.00  0.00     0.009 A 
ATOM     58  C   UNL A   1      36.633  29.352  30.078  1.00  0.00     0.001 A 
ATOM     59  C   UNL A   1      36.949  29.941  27.757  1.00  0.00     0.001 A 
ATOM     60  C   UNL A   1      36.109  29.778  28.857  1.00  0.00     0.000 A 
ENDBRANCH  41  55
BRANCH  42  61
ATOM     61  C   UNL A   1      48.526  26.744  29.399  1.00  0.00    -0.014 A 
ATOM     62  C   UNL A   1      49.362  26.969  28.296  1.00  0.00     0.009 A 
ATOM     63  C   UNL A   1      49.070  26.165  30.557  1.00  0.00     0.009 A 
ATOM     64  C   UNL A   1      50.709  26.602  28.344  1.00  0.00     0.001 A 
ATOM     65  C   UNL A   1      50.423  25.824  30.611  1.00  0.00     0.001 A 
ATOM     66  C   UNL A   1      51.240  26.036  29.502  1.00  0.00     0.000 A 
ENDBRANCH  42  61
BRANCH  54  67
ATOM     67  C   UNL A   1      45.016  32.593  30.757  1.00  0.00    -0.014 A 
ATOM     68  C   UNL A   1      45.132  32.885  32.125  1.00  0.00     0.009 A 
ATOM     69  C   UNL A   1      45.348  33.581  29.817  1.00  0.00     0.009 A 
ATOM     70  C   UNL A   1      45.539  34.154  32.542  1.00  0.00     0.001 A 
ATOM     71  C   UNL A   1      45.780  34.840  30.236  1.00  0.00     0.001 A 
ATOM     72  C   UNL A   1      45.865  35.127  31.598  1.00  0.00     0.000 A 
ENDBRANCH  54  67
ENDBRANCH  28  29
ENDBRANCH  21  23
ENDBRANCH  20  21
ENDBRANCH  19  20
ENDBRANCH  18  19
ENDBRANCH  17  18
ENDBRANCH  15  17
ENDBRANCH   1  15
TORSDOF 19
ENDMDL
MODEL 2
REMARK VINA RESULT:      -8.3      1.356      6.416
REMARK SMILES C#CC[NH2+]CC(=O)N(C)CCCC(=O)OCCOC(=O)c1ccc(-c2c3nc(c(-c4ccccc4)c4ccc([nH]4)c(-c4ccccc4)c4nc(c(-c5ccccc5)c5ccc2[nH]5)C=C4)C=C3)cc1
REMARK SMILES IDX 12 1 11 2 10 3 8 4 9 5 6 6 7 7 5 8 4 9 3 12 2 13 1 14 13 15
REMARK SMILES IDX 14 16 15 17 16 18 17 19 18 20 19 21 20 22 21 23 22 24 68 25
REMARK SMILES IDX 23 26 67 27 24 28 25 29 26 30 61 31 27 32 66 33 60 34 62 35
REMARK SMILES IDX 28 36 65 37 59 38 58 39 29 41 51 42 36 43 50 44 37 45 40 46
REMARK SMILES IDX 49 47 63 48 38 49 39 50 48 52 64 53 41 54 30 55 31 56 35 57
REMARK SMILES IDX 32 58 34 59 33 60 52 61 53 62 57 63 54 64 56 65 55 66 42 67
REMARK SMILES IDX 43 68 47 69 44 70 46 71 45 72
REMARK H PARENT 4 10 4 11 62 40 40 51
REMARK Flexibility Score: inf
ROOT
ATOM      1  C   UNL A   1      35.523  22.941  25.227  1.00  0.00     0.124 C 
ENDROOT
BRANCH   1   2
ATOM      2  C   UNL A   1      35.268  24.451  25.176  1.00  0.00     0.033 C 
BRANCH   2   3
ATOM      3  C   UNL A   1      33.819  24.955  25.042  1.00  0.00     0.120 C 
BRANCH   3   4
ATOM      4  N   UNL A   1      33.208  24.824  23.717  1.00  0.00    -0.341 N 
ATOM      5  C   UNL A   1      33.573  25.861  22.760  1.00  0.00     0.147 C 
BRANCH   4   6
ATOM      6  C   UNL A   1      32.688  23.601  23.293  1.00  0.00     0.277 C 
ATOM      7  O   UNL A   1      32.877  23.176  22.152  1.00  0.00    -0.268 OA
BRANCH   6   8
ATOM      8  C   UNL A   1      31.933  22.724  24.318  1.00  0.00     0.362 C 
BRANCH   8   9
ATOM      9  N   UNL A   1      30.707  23.362  24.877  1.00  0.00    -0.328 N 
ATOM     10  H   UNL A   1      30.782  24.375  24.786  1.00  0.00     0.347 HD
ATOM     11  H   UNL A   1      29.892  23.027  24.363  1.00  0.00     0.347 HD
BRANCH   9  12
ATOM     12  C   UNL A   1      30.563  23.016  26.272  1.00  0.00     0.352 C 
BRANCH  12  13
ATOM     13  C   UNL A   1      31.832  22.779  27.073  1.00  0.00    -0.047 C 
ATOM     14  C   UNL A   1      32.921  22.576  27.761  1.00  0.00     0.010 C 
ENDBRANCH  12  13
ENDBRANCH   9  12
ENDBRANCH   8   9
ENDBRANCH   6   8
ENDBRANCH   4   6
ENDBRANCH   3   4
ENDBRANCH   2   3
ENDBRANCH   1   2
BRANCH   1  15
ATOM     15  C   UNL A   1      36.487  22.366  24.206  1.00  0.00     0.305 C 
ATOM     16  O   UNL A   1      36.716  22.913  23.134  1.00  0.00    -0.252 OA
BRANCH  15  17
ATOM     17  O   UNL A   1      37.036  21.199  24.614  1.00  0.00    -0.462 OA
BRANCH  17  18
ATOM     18  C   UNL A   1      38.249  21.235  25.379  1.00  0.00     0.274 C 
BRANCH  18  19
ATOM     19  C   UNL A   1      39.034  19.942  25.163  1.00  0.00     0.275 C 
BRANCH  19  20
ATOM     20  O   UNL A   1      39.820  19.637  26.329  1.00  0.00    -0.458 OA
BRANCH  20  21
ATOM     21  C   UNL A   1      41.158  19.664  26.130  1.00  0.00     0.338 C 
ATOM     22  O   UNL A   1      41.846  18.843  25.550  1.00  0.00    -0.246 OA
BRANCH  21  23
ATOM     23  C   UNL A   1      41.677  20.964  26.578  1.00  0.00     0.060 A 
ATOM     24  C   UNL A   1      41.573  21.269  27.937  1.00  0.00     0.016 A 
ATOM     25  C   UNL A   1      42.200  21.891  25.677  1.00  0.00     0.016 A 
ATOM     26  C   UNL A   1      41.974  22.514  28.407  1.00  0.00     0.010 A 
ATOM     27  C   UNL A   1      42.596  23.147  26.146  1.00  0.00     0.010 A 
ATOM     28  C   UNL A   1      42.462  23.469  27.508  1.00  0.00    -0.014 A 
BRANCH  28  29
ATOM     29  C   UNL A   1      42.708  24.846  27.988  1.00  0.00     0.031 A 
ATOM     30  C   UNL A   1      44.118  25.279  28.267  1.00  0.00     0.074 A 
ATOM     31  C   UNL A   1      41.689  25.713  28.118  1.00  0.00     0.049 A 
ATOM     32  N   UNL A   1      44.559  26.419  28.733  1.00  0.00    -0.248 NA
ATOM     33  C   UNL A   1      45.175  24.294  27.983  1.00  0.00     0.031 C 
ATOM     34  C   UNL A   1      40.288  25.428  27.807  1.00  0.00     0.029 A 
ATOM     35  N   UNL A   1      41.683  27.019  28.535  1.00  0.00    -0.354 N 
ATOM     36  C   UNL A   1      45.937  26.278  28.827  1.00  0.00     0.074 A 
ATOM     37  C   UNL A   1      46.260  24.940  28.381  1.00  0.00     0.031 C 
ATOM     38  C   UNL A   1      39.558  26.534  28.031  1.00  0.00     0.029 A 
ATOM     39  C   UNL A   1      40.434  27.586  28.542  1.00  0.00     0.049 A 
ATOM     40  H   UNL A   1      42.497  27.503  28.804  1.00  0.00     0.167 HD
ATOM     41  C   UNL A   1      46.850  27.182  29.250  1.00  0.00     0.031 A 
ATOM     42  C   UNL A   1      40.040  28.812  28.934  1.00  0.00     0.031 A 
ATOM     43  C   UNL A   1      46.526  28.515  29.684  1.00  0.00     0.049 A 
ATOM     44  C   UNL A   1      41.067  29.778  29.458  1.00  0.00     0.074 A 
ATOM     45  C   UNL A   1      47.377  29.511  30.127  1.00  0.00     0.029 A 
ATOM     46  N   UNL A   1      45.241  29.035  29.726  1.00  0.00    -0.354 N 
ATOM     47  N   UNL A   1      42.367  29.629  29.558  1.00  0.00    -0.248 NA
ATOM     48  C   UNL A   1      40.571  31.080  29.923  1.00  0.00     0.031 C 
ATOM     49  C   UNL A   1      46.602  30.622  30.477  1.00  0.00     0.029 A 
ATOM     50  C   UNL A   1      45.275  30.333  30.206  1.00  0.00     0.049 A 
ATOM     51  H   UNL A   1      44.427  28.554  29.455  1.00  0.00     0.167 HD
ATOM     52  C   UNL A   1      42.846  30.825  30.075  1.00  0.00     0.074 A 
ATOM     53  C   UNL A   1      41.699  31.693  30.254  1.00  0.00     0.031 C 
ATOM     54  C   UNL A   1      44.120  31.177  30.376  1.00  0.00     0.031 A 
BRANCH  41  55
ATOM     55  C   UNL A   1      48.282  26.733  29.311  1.00  0.00    -0.014 A 
ATOM     56  C   UNL A   1      48.805  26.094  30.446  1.00  0.00     0.009 A 
ATOM     57  C   UNL A   1      49.122  26.951  28.207  1.00  0.00     0.009 A 
ATOM     58  C   UNL A   1      50.150  25.718  30.487  1.00  0.00     0.001 A 
ATOM     59  C   UNL A   1      50.458  26.551  28.241  1.00  0.00     0.001 A 
ATOM     60  C   UNL A   1      50.974  25.944  29.385  1.00  0.00     0.000 A 
ENDBRANCH  41  55
BRANCH  42  61
ATOM     61  C   UNL A   1      38.606  29.193  28.864  1.00  0.00    -0.014 A 
ATOM     62  C   UNL A   1      38.059  29.697  27.676  1.00  0.00     0.009 A 
ATOM     63  C   UNL A   1      37.779  29.063  29.991  1.00  0.00     0.009 A 
ATOM     64  C   UNL A   1      36.717  30.082  27.622  1.00  0.00     0.001 A 
ATOM     65  C   UNL A   1      36.431  29.424  29.926  1.00  0.00     0.001 A 
ATOM     66  C   UNL A   1      35.903  29.940  28.745  1.00  0.00     0.000 A 
ENDBRANCH  42  61
BRANCH  54  67
ATOM     67  C   UNL A   1      44.339  32.570  30.890  1.00  0.00    -0.014 A 
ATOM     68  C   UNL A   1      44.559  33.644  30.014  1.00  0.00     0.009 A 
ATOM     69  C   UNL A   1      44.298  32.814  32.272  1.00  0.00     0.009 A 
ATOM     70  C   UNL A   1      44.768  34.931  30.515  1.00  0.00     0.001 A 
ATOM     71  C   UNL A   1      44.482  34.105  32.768  1.00  0.00     0.001 A 
ATOM     72  C   UNL A   1      44.726  35.159  31.889  1.00  0.00     0.000 A 
ENDBRANCH  54  67
ENDBRANCH  28  29
ENDBRANCH  21  23
ENDBRANCH  20  21
ENDBRANCH  19  20
ENDBRANCH  18  19
ENDBRANCH  17  18
ENDBRANCH  15  17
ENDBRANCH   1  15
TORSDOF 19
ENDMDL
MODEL 3
REMARK VINA RESULT:      -8.3      5.014      9.760
REMARK SMILES C#CC[NH2+]CC(=O)N(C)CCCC(=O)OCCOC(=O)c1ccc(-c2c3nc(c(-c4ccccc4)c4ccc([nH]4)c(-c4ccccc4)c4nc(c(-c5ccccc5)c5ccc2[nH]5)C=C4)C=C3)cc1
REMARK SMILES IDX 12 1 11 2 10 3 8 4 9 5 6 6 7 7 5 8 4 9 3 12 2 13 1 14 13 15
REMARK SMILES IDX 14 16 15 17 16 18 17 19 18 20 19 21 20 22 21 23 22 24 68 25
REMARK SMILES IDX 23 26 67 27 24 28 25 29 26 30 61 31 27 32 66 33 60 34 62 35
REMARK SMILES IDX 28 36 65 37 59 38 58 39 29 41 51 42 36 43 50 44 37 45 40 46
REMARK SMILES IDX 49 47 63 48 38 49 39 50 48 52 64 53 41 54 30 55 31 56 35 57
REMARK SMILES IDX 32 58 34 59 33 60 52 61 53 62 57 63 54 64 56 65 55 66 42 67
REMARK SMILES IDX 43 68 47 69 44 70 46 71 45 72
REMARK H PARENT 4 10 4 11 62 40 40 51
REMARK Flexibility Score: inf
ROOT
ATOM      1  C   UNL A   1      36.452  33.069  31.445  1.00  0.00     0.124 C 
ENDROOT
BRANCH   1   2
ATOM      2  C   UNL A   1      35.951  34.011  32.543  1.00  0.00     0.033 C 
BRANCH   2   3
ATOM      3  C   UNL A   1      36.903  34.378  33.698  1.00  0.00     0.120 C 
BRANCH   3   4
ATOM      4  N   UNL A   1      38.041  33.481  33.909  1.00  0.00    -0.341 N 
ATOM      5  C   UNL A   1      39.349  34.063  33.637  1.00  0.00     0.147 C 
BRANCH   4   6
ATOM      6  C   UNL A   1      37.910  32.341  34.702  1.00  0.00     0.277 C 
ATOM      7  O   UNL A   1      37.117  32.292  35.644  1.00  0.00    -0.268 OA
BRANCH   6   8
ATOM      8  C   UNL A   1      38.721  31.080  34.323  1.00  0.00     0.362 C 
BRANCH   8   9
ATOM      9  N   UNL A   1      37.886  29.869  34.084  1.00  0.00    -0.328 N 
ATOM     10  H   UNL A   1      37.830  29.322  34.944  1.00  0.00     0.347 HD
ATOM     11  H   UNL A   1      36.951  30.159  33.797  1.00  0.00     0.347 HD
BRANCH   9  12
ATOM     12  C   UNL A   1      38.473  29.062  33.040  1.00  0.00     0.352 C 
BRANCH  12  13
ATOM     13  C   UNL A   1      39.918  28.625  33.217  1.00  0.00    -0.047 C 
ATOM     14  C   UNL A   1      41.158  28.250  33.368  1.00  0.00     0.010 C 
ENDBRANCH  12  13
ENDBRANCH   9  12
ENDBRANCH   8   9
ENDBRANCH   6   8
ENDBRANCH   4   6
ENDBRANCH   3   4
ENDBRANCH   2   3
ENDBRANCH   1   2
BRANCH   1  15
ATOM     15  C   UNL A   1      37.162  33.699  30.261  1.00  0.00     0.305 C 
ATOM     16  O   UNL A   1      38.137  34.429  30.390  1.00  0.00    -0.252 OA
BRANCH  15  17
ATOM     17  O   UNL A   1      36.589  33.371  29.081  1.00  0.00    -0.462 OA
BRANCH  17  18
ATOM     18  C   UNL A   1      35.459  34.131  28.626  1.00  0.00     0.274 C 
BRANCH  18  19
ATOM     19  C   UNL A   1      34.334  33.184  28.211  1.00  0.00     0.275 C 
BRANCH  19  20
ATOM     20  O   UNL A   1      34.428  31.950  28.943  1.00  0.00    -0.458 OA
BRANCH  20  21
ATOM     21  C   UNL A   1      34.458  30.837  28.174  1.00  0.00     0.338 C 
ATOM     22  O   UNL A   1      33.618  30.454  27.378  1.00  0.00    -0.246 OA
BRANCH  21  23
ATOM     23  C   UNL A   1      35.779  30.208  28.302  1.00  0.00     0.060 A 
ATOM     24  C   UNL A   1      36.092  29.602  29.522  1.00  0.00     0.016 A 
ATOM     25  C   UNL A   1      36.717  30.261  27.272  1.00  0.00     0.016 A 
ATOM     26  C   UNL A   1      37.354  29.060  29.730  1.00  0.00     0.010 A 
ATOM     27  C   UNL A   1      37.990  29.724  27.482  1.00  0.00     0.010 A 
ATOM     28  C   UNL A   1      38.319  29.143  28.720  1.00  0.00    -0.014 A 
BRANCH  28  29
ATOM     29  C   UNL A   1      39.708  28.733  29.018  1.00  0.00     0.031 A 
ATOM     30  C   UNL A   1      40.589  29.662  29.802  1.00  0.00     0.074 A 
ATOM     31  C   UNL A   1      40.156  27.523  28.640  1.00  0.00     0.049 A 
ATOM     32  N   UNL A   1      41.847  29.526  30.137  1.00  0.00    -0.248 NA
ATOM     33  C   UNL A   1      39.971  30.914  30.270  1.00  0.00     0.031 C 
ATOM     34  C   UNL A   1      39.369  26.510  27.938  1.00  0.00     0.029 A 
ATOM     35  N   UNL A   1      41.386  26.940  28.809  1.00  0.00    -0.354 N 
ATOM     36  C   UNL A   1      42.177  30.685  30.827  1.00  0.00     0.074 A 
ATOM     37  C   UNL A   1      40.994  31.518  30.854  1.00  0.00     0.031 C 
ATOM     38  C   UNL A   1      40.132  25.420  27.749  1.00  0.00     0.029 A 
ATOM     39  C   UNL A   1      41.470  25.679  28.276  1.00  0.00     0.049 A 
ATOM     40  H   UNL A   1      42.134  27.383  29.268  1.00  0.00     0.167 HD
ATOM     41  C   UNL A   1      43.362  31.025  31.387  1.00  0.00     0.031 A 
ATOM     42  C   UNL A   1      42.517  24.836  28.206  1.00  0.00     0.031 A 
ATOM     43  C   UNL A   1      44.533  30.190  31.367  1.00  0.00     0.049 A 
ATOM     44  C   UNL A   1      43.840  25.263  28.781  1.00  0.00     0.074 A 
ATOM     45  C   UNL A   1      45.781  30.439  31.908  1.00  0.00     0.029 A 
ATOM     46  N   UNL A   1      44.594  28.939  30.770  1.00  0.00    -0.354 N 
ATOM     47  N   UNL A   1      44.146  26.367  29.418  1.00  0.00    -0.248 NA
ATOM     48  C   UNL A   1      44.959  24.324  28.626  1.00  0.00     0.031 C 
ATOM     49  C   UNL A   1      46.612  29.355  31.602  1.00  0.00     0.029 A 
ATOM     50  C   UNL A   1      45.866  28.412  30.914  1.00  0.00     0.049 A 
ATOM     51  H   UNL A   1      43.845  28.494  30.313  1.00  0.00     0.167 HD
ATOM     52  C   UNL A   1      45.487  26.247  29.760  1.00  0.00     0.074 A 
ATOM     53  C   UNL A   1      45.929  24.956  29.272  1.00  0.00     0.031 C 
ATOM     54  C   UNL A   1      46.282  27.125  30.419  1.00  0.00     0.031 A 
BRANCH  41  55
ATOM     55  C   UNL A   1      43.456  32.384  32.021  1.00  0.00    -0.014 A 
ATOM     56  C   UNL A   1      43.173  32.582  33.381  1.00  0.00     0.009 A 
ATOM     57  C   UNL A   1      43.838  33.485  31.239  1.00  0.00     0.009 A 
ATOM     58  C   UNL A   1      43.235  33.862  33.935  1.00  0.00     0.001 A 
ATOM     59  C   UNL A   1      43.924  34.759  31.802  1.00  0.00     0.001 A 
ATOM     60  C   UNL A   1      43.613  34.948  33.147  1.00  0.00     0.000 A 
ENDBRANCH  41  55
BRANCH  42  61
ATOM     61  C   UNL A   1      42.366  23.511  27.553  1.00  0.00    -0.014 A 
ATOM     62  C   UNL A   1      41.924  22.400  28.286  1.00  0.00     0.009 A 
ATOM     63  C   UNL A   1      42.673  23.348  26.192  1.00  0.00     0.009 A 
ATOM     64  C   UNL A   1      41.811  21.148  27.675  1.00  0.00     0.001 A 
ATOM     65  C   UNL A   1      42.533  22.101  25.578  1.00  0.00     0.001 A 
ATOM     66  C   UNL A   1      42.110  21.001  26.321  1.00  0.00     0.000 A 
ENDBRANCH  42  61
BRANCH  54  67
ATOM     67  C   UNL A   1      47.697  26.697  30.682  1.00  0.00    -0.014 A 
ATOM     68  C   UNL A   1      48.041  25.990  31.844  1.00  0.00     0.009 A 
ATOM     69  C   UNL A   1      48.696  26.985  29.737  1.00  0.00     0.009 A 
ATOM     70  C   UNL A   1      49.365  25.610  32.072  1.00  0.00     0.001 A 
ATOM     71  C   UNL A   1      50.013  26.580  29.955  1.00  0.00     0.001 A 
ATOM     72  C   UNL A   1      50.347  25.902  31.126  1.00  0.00     0.000 A 
ENDBRANCH  54  67
ENDBRANCH  28  29
ENDBRANCH  21  23
ENDBRANCH  20  21
ENDBRANCH  19  20
ENDBRANCH  18  19
ENDBRANCH  17  18
ENDBRANCH  15  17
ENDBRANCH   1  15
TORSDOF 19
ENDMDL
