MODEL 1
REMARK VINA RESULT:      -9.5      0.000      0.000
REMARK SMILES CC[C@H](C(=O)OCCOC(=O)c1ccc(-c2c3nc(c(-c4ccccc4)c4ccc([nH]4)c(-c4ccccc4)c4nc(c(-c5ccccc5)c5ccc2[nH]5)C=C4)C=C3)cc1)N(C)C(=O)[C@H]1CC[C@@H](C[NH3+])CC1
REMARK SMILES IDX 6 1 4 2 5 3 3 4 2 5 1 6 60 7 61 8 62 9 63 10 64 11 71 12
REMARK SMILES IDX 65 13 70 14 66 15 67 16 68 17 69 18 7 22 8 23 9 24 10 25
REMARK SMILES IDX 11 26 12 27 13 28 59 29 14 30 58 31 15 32 16 33 17 34 52 35
REMARK SMILES IDX 18 36 57 37 51 38 53 39 19 40 56 41 50 42 49 43 20 45 42 46
REMARK SMILES IDX 27 47 41 48 28 49 31 50 40 51 54 52 29 53 30 54 39 56 55 57
REMARK SMILES IDX 32 58 21 59 22 60 26 61 23 62 25 63 24 64 43 65 44 66 48 67
REMARK SMILES IDX 45 68 47 69 46 70 33 71 34 72 38 73 35 74 37 75 36 76
REMARK H PARENT 69 19 69 20 69 21 53 44 31 55
REMARK Flexibility Score: inf
ROOT
ATOM      1  O   UNL A   1      30.708  28.179  24.203  1.00  0.00    -0.461 OA
ENDROOT
BRANCH   1   2
ATOM      2  C   UNL A   1      31.325  27.378  23.279  1.00  0.00     0.328 C 
ATOM      3  O   UNL A   1      31.096  27.418  22.076  1.00  0.00    -0.250 OA
BRANCH   2   4
ATOM      4  C   UNL A   1      32.381  26.473  23.965  1.00  0.00     0.194 C 
BRANCH   4   5
ATOM      5  C   UNL A   1      32.518  26.632  25.494  1.00  0.00     0.034 C 
ATOM      6  C   UNL A   1      33.838  27.197  26.003  1.00  0.00     0.007 C 
ENDBRANCH   4   5
BRANCH   4   7
ATOM      7  N   UNL A   1      32.237  25.048  23.553  1.00  0.00    -0.332 N 
ATOM      8  C   UNL A   1      30.905  24.459  23.564  1.00  0.00     0.147 C 
BRANCH   7   9
ATOM      9  C   UNL A   1      33.339  24.388  23.004  1.00  0.00     0.226 C 
ATOM     10  O   UNL A   1      33.414  24.137  21.802  1.00  0.00    -0.275 OA
BRANCH   9  11
ATOM     11  C   UNL A   1      34.531  24.108  23.924  1.00  0.00     0.078 C 
ATOM     12  C   UNL A   1      34.100  23.507  25.274  1.00  0.00     0.014 C 
ATOM     13  C   UNL A   1      35.434  23.141  23.156  1.00  0.00     0.014 C 
ATOM     14  C   UNL A   1      35.268  22.906  26.077  1.00  0.00     0.010 C 
ATOM     15  C   UNL A   1      36.605  22.691  24.007  1.00  0.00     0.010 C 
ATOM     16  C   UNL A   1      36.135  21.936  25.252  1.00  0.00     0.044 C 
BRANCH  16  17
ATOM     17  C   UNL A   1      35.360  20.623  24.977  1.00  0.00     0.262 C 
BRANCH  17  18
ATOM     18  N   UNL A   1      36.148  19.399  25.036  1.00  0.00    -0.357 N 
ATOM     19  H   UNL A   1      35.535  18.594  24.904  1.00  0.00     0.344 HD
ATOM     20  H   UNL A   1      36.606  19.333  25.945  1.00  0.00     0.344 HD
ATOM     21  H   UNL A   1      36.854  19.413  24.300  1.00  0.00     0.344 HD
ENDBRANCH  17  18
ENDBRANCH  16  17
ENDBRANCH   9  11
ENDBRANCH   7   9
ENDBRANCH   4   7
ENDBRANCH   2   4
ENDBRANCH   1   2
BRANCH   1  22
ATOM     22  C   UNL A   1      31.020  29.586  24.135  1.00  0.00     0.274 C 
BRANCH  22  23
ATOM     23  C   UNL A   1      31.138  30.247  25.515  1.00  0.00     0.275 C 
BRANCH  23  24
ATOM     24  O   UNL A   1      32.507  30.457  25.913  1.00  0.00    -0.458 OA
BRANCH  24  25
ATOM     25  C   UNL A   1      32.704  31.509  26.744  1.00  0.00     0.338 C 
ATOM     26  O   UNL A   1      31.951  32.451  26.918  1.00  0.00    -0.246 OA
BRANCH  25  27
ATOM     27  C   UNL A   1      33.898  31.284  27.587  1.00  0.00     0.060 A 
ATOM     28  C   UNL A   1      34.192  29.955  27.885  1.00  0.00     0.016 A 
ATOM     29  C   UNL A   1      34.705  32.303  28.098  1.00  0.00     0.016 A 
ATOM     30  C   UNL A   1      35.310  29.630  28.648  1.00  0.00     0.010 A 
ATOM     31  C   UNL A   1      35.828  31.976  28.882  1.00  0.00     0.010 A 
ATOM     32  C   UNL A   1      36.152  30.634  29.140  1.00  0.00    -0.014 A 
BRANCH  32  33
ATOM     33  C   UNL A   1      37.341  30.219  29.930  1.00  0.00     0.031 A 
ATOM     34  C   UNL A   1      38.532  29.644  29.226  1.00  0.00     0.074 A 
ATOM     35  C   UNL A   1      37.415  30.481  31.250  1.00  0.00     0.049 A 
ATOM     36  N   UNL A   1      39.691  29.291  29.721  1.00  0.00    -0.248 NA
ATOM     37  C   UNL A   1      38.395  29.424  27.779  1.00  0.00     0.031 C 
ATOM     38  C   UNL A   1      36.352  31.093  32.039  1.00  0.00     0.029 A 
ATOM     39  N   UNL A   1      38.457  30.344  32.140  1.00  0.00    -0.354 N 
ATOM     40  C   UNL A   1      40.392  28.732  28.662  1.00  0.00     0.074 A 
ATOM     41  C   UNL A   1      39.559  28.865  27.485  1.00  0.00     0.031 C 
ATOM     42  C   UNL A   1      36.834  31.386  33.259  1.00  0.00     0.029 A 
ATOM     43  C   UNL A   1      38.225  30.955  33.354  1.00  0.00     0.049 A 
ATOM     44  H   UNL A   1      39.287  29.859  31.929  1.00  0.00     0.167 HD
ATOM     45  C   UNL A   1      41.587  28.095  28.687  1.00  0.00     0.031 A 
ATOM     46  C   UNL A   1      39.052  31.161  34.402  1.00  0.00     0.031 A 
ATOM     47  C   UNL A   1      42.390  27.915  29.868  1.00  0.00     0.049 A 
ATOM     48  C   UNL A   1      40.397  30.475  34.398  1.00  0.00     0.074 A 
ATOM     49  C   UNL A   1      43.552  27.179  30.020  1.00  0.00     0.029 A 
ATOM     50  N   UNL A   1      42.108  28.476  31.104  1.00  0.00    -0.354 N 
ATOM     51  N   UNL A   1      41.013  29.859  33.419  1.00  0.00    -0.248 NA
ATOM     52  C   UNL A   1      41.124  30.445  35.678  1.00  0.00     0.031 C 
ATOM     53  C   UNL A   1      43.944  27.253  31.362  1.00  0.00     0.029 A 
ATOM     54  C   UNL A   1      43.064  28.089  32.028  1.00  0.00     0.049 A 
ATOM     55  H   UNL A   1      41.341  29.064  31.297  1.00  0.00     0.167 HD
ATOM     56  C   UNL A   1      42.170  29.328  33.975  1.00  0.00     0.074 A 
ATOM     57  C   UNL A   1      42.215  29.765  35.354  1.00  0.00     0.031 C 
ATOM     58  C   UNL A   1      43.090  28.511  33.405  1.00  0.00     0.031 A 
BRANCH  45  59
ATOM     59  C   UNL A   1      41.998  27.406  27.420  1.00  0.00    -0.014 A 
ATOM     60  C   UNL A   1      42.783  28.038  26.445  1.00  0.00     0.009 A 
ATOM     61  C   UNL A   1      41.539  26.099  27.184  1.00  0.00     0.009 A 
ATOM     62  C   UNL A   1      43.057  27.391  25.236  1.00  0.00     0.001 A 
ATOM     63  C   UNL A   1      41.839  25.445  25.991  1.00  0.00     0.001 A 
ATOM     64  C   UNL A   1      42.586  26.096  25.012  1.00  0.00     0.000 A 
ENDBRANCH  45  59
BRANCH  46  65
ATOM     65  C   UNL A   1      38.662  32.012  35.567  1.00  0.00    -0.014 A 
ATOM     66  C   UNL A   1      38.981  33.384  35.576  1.00  0.00     0.009 A 
ATOM     67  C   UNL A   1      38.025  31.475  36.695  1.00  0.00     0.009 A 
ATOM     68  C   UNL A   1      38.690  34.184  36.686  1.00  0.00     0.001 A 
ATOM     69  C   UNL A   1      37.689  32.287  37.783  1.00  0.00     0.001 A 
ATOM     70  C   UNL A   1      38.034  33.636  37.785  1.00  0.00     0.000 A 
ENDBRANCH  46  65
BRANCH  58  71
ATOM     71  C   UNL A   1      44.206  28.009  34.279  1.00  0.00    -0.014 A 
ATOM     72  C   UNL A   1      45.444  28.674  34.325  1.00  0.00     0.009 A 
ATOM     73  C   UNL A   1      44.006  26.894  35.106  1.00  0.00     0.009 A 
ATOM     74  C   UNL A   1      46.467  28.212  35.156  1.00  0.00     0.001 A 
ATOM     75  C   UNL A   1      45.021  26.450  35.957  1.00  0.00     0.001 A 
ATOM     76  C   UNL A   1      46.253  27.104  35.975  1.00  0.00     0.000 A 
ENDBRANCH  58  71
ENDBRANCH  32  33
ENDBRANCH  25  27
ENDBRANCH  24  25
ENDBRANCH  23  24
ENDBRANCH  22  23
ENDBRANCH   1  22
TORSDOF 17
ENDMDL
MODEL 2
REMARK VINA RESULT:      -9.3      3.650      6.856
REMARK SMILES CC[C@H](C(=O)OCCOC(=O)c1ccc(-c2c3nc(c(-c4ccccc4)c4ccc([nH]4)c(-c4ccccc4)c4nc(c(-c5ccccc5)c5ccc2[nH]5)C=C4)C=C3)cc1)N(C)C(=O)[C@H]1CC[C@@H](C[NH3+])CC1
REMARK SMILES IDX 6 1 4 2 5 3 3 4 2 5 1 6 60 7 61 8 62 9 63 10 64 11 71 12
REMARK SMILES IDX 65 13 70 14 66 15 67 16 68 17 69 18 7 22 8 23 9 24 10 25
REMARK SMILES IDX 11 26 12 27 13 28 59 29 14 30 58 31 15 32 16 33 17 34 52 35
REMARK SMILES IDX 18 36 57 37 51 38 53 39 19 40 56 41 50 42 49 43 20 45 42 46
REMARK SMILES IDX 27 47 41 48 28 49 31 50 40 51 54 52 29 53 30 54 39 56 55 57
REMARK SMILES IDX 32 58 21 59 22 60 26 61 23 62 25 63 24 64 43 65 44 66 48 67
REMARK SMILES IDX 45 68 47 69 46 70 33 71 34 72 38 73 35 74 37 75 36 76
REMARK H PARENT 69 19 69 20 69 21 53 44 31 55
REMARK Flexibility Score: inf
ROOT
ATOM      1  O   UNL A   1      35.655  23.376  23.924  1.00  0.00    -0.461 OA
ENDROOT
BRANCH   1   2
ATOM      2  C   UNL A   1      34.463  23.373  23.250  1.00  0.00     0.328 C 
ATOM      3  O   UNL A   1      34.368  23.379  22.028  1.00  0.00    -0.250 OA
BRANCH   2   4
ATOM      4  C   UNL A   1      33.277  23.299  24.246  1.00  0.00     0.194 C 
BRANCH   4   5
ATOM      5  C   UNL A   1      32.933  21.895  24.786  1.00  0.00     0.034 C 
ATOM      6  C   UNL A   1      31.511  21.694  25.296  1.00  0.00     0.007 C 
ENDBRANCH   4   5
BRANCH   4   7
ATOM      7  N   UNL A   1      33.408  24.310  25.334  1.00  0.00    -0.332 N 
ATOM      8  C   UNL A   1      34.227  23.974  26.491  1.00  0.00     0.147 C 
BRANCH   7   9
ATOM      9  C   UNL A   1      32.898  25.593  25.130  1.00  0.00     0.226 C 
ATOM     10  O   UNL A   1      32.288  25.895  24.105  1.00  0.00    -0.275 OA
BRANCH   9  11
ATOM     11  C   UNL A   1      32.992  26.590  26.290  1.00  0.00     0.078 C 
ATOM     12  C   UNL A   1      33.962  27.746  25.990  1.00  0.00     0.014 C 
ATOM     13  C   UNL A   1      31.571  27.111  26.510  1.00  0.00     0.014 C 
ATOM     14  C   UNL A   1      33.831  28.925  26.970  1.00  0.00     0.010 C 
ATOM     15  C   UNL A   1      31.542  28.198  27.565  1.00  0.00     0.010 C 
ATOM     16  C   UNL A   1      32.378  29.409  27.144  1.00  0.00     0.044 C 
BRANCH  16  17
ATOM     17  C   UNL A   1      31.896  30.133  25.862  1.00  0.00     0.262 C 
BRANCH  17  18
ATOM     18  N   UNL A   1      31.384  31.484  26.053  1.00  0.00    -0.357 N 
ATOM     19  H   UNL A   1      30.395  31.510  25.806  1.00  0.00     0.344 HD
ATOM     20  H   UNL A   1      31.900  32.131  25.457  1.00  0.00     0.344 HD
ATOM     21  H   UNL A   1      31.499  31.756  27.029  1.00  0.00     0.344 HD
ENDBRANCH  17  18
ENDBRANCH  16  17
ENDBRANCH   9  11
ENDBRANCH   7   9
ENDBRANCH   4   7
ENDBRANCH   2   4
ENDBRANCH   1   2
BRANCH   1  22
ATOM     22  C   UNL A   1      36.559  22.291  23.628  1.00  0.00     0.274 C 
BRANCH  22  23
ATOM     23  C   UNL A   1      36.581  21.208  24.713  1.00  0.00     0.275 C 
BRANCH  23  24
ATOM     24  O   UNL A   1      37.210  21.656  25.930  1.00  0.00    -0.458 OA
BRANCH  24  25
ATOM     25  C   UNL A   1      38.518  21.326  26.051  1.00  0.00     0.338 C 
ATOM     26  O   UNL A   1      39.047  20.292  25.680  1.00  0.00    -0.246 OA
BRANCH  25  27
ATOM     27  C   UNL A   1      39.300  22.483  26.537  1.00  0.00     0.060 A 
ATOM     28  C   UNL A   1      38.882  23.734  26.085  1.00  0.00     0.016 A 
ATOM     29  C   UNL A   1      40.410  22.387  27.379  1.00  0.00     0.016 A 
ATOM     30  C   UNL A   1      39.531  24.892  26.504  1.00  0.00     0.010 A 
ATOM     31  C   UNL A   1      41.075  23.557  27.791  1.00  0.00     0.010 A 
ATOM     32  C   UNL A   1      40.623  24.819  27.376  1.00  0.00    -0.014 A 
BRANCH  32  33
ATOM     33  C   UNL A   1      41.258  26.095  27.801  1.00  0.00     0.031 A 
ATOM     34  C   UNL A   1      42.524  26.547  27.140  1.00  0.00     0.074 A 
ATOM     35  C   UNL A   1      40.636  26.916  28.671  1.00  0.00     0.049 A 
ATOM     36  N   UNL A   1      43.192  27.659  27.311  1.00  0.00    -0.248 NA
ATOM     37  C   UNL A   1      43.124  25.619  26.170  1.00  0.00     0.031 C 
ATOM     38  C   UNL A   1      39.371  26.622  29.336  1.00  0.00     0.029 A 
ATOM     39  N   UNL A   1      40.941  28.195  29.079  1.00  0.00    -0.354 N 
ATOM     40  C   UNL A   1      44.334  27.530  26.533  1.00  0.00     0.074 A 
ATOM     41  C   UNL A   1      44.226  26.269  25.830  1.00  0.00     0.031 C 
ATOM     42  C   UNL A   1      38.951  27.730  29.971  1.00  0.00     0.029 A 
ATOM     43  C   UNL A   1      39.927  28.800  29.791  1.00  0.00     0.049 A 
ATOM     44  H   UNL A   1      41.798  28.635  28.882  1.00  0.00     0.167 HD
ATOM     45  C   UNL A   1      45.408  28.352  26.472  1.00  0.00     0.031 A 
ATOM     46  C   UNL A   1      39.797  30.075  30.219  1.00  0.00     0.031 A 
ATOM     47  C   UNL A   1      45.538  29.580  27.213  1.00  0.00     0.049 A 
ATOM     48  C   UNL A   1      40.992  30.991  30.109  1.00  0.00     0.074 A 
ATOM     49  C   UNL A   1      46.635  30.417  27.315  1.00  0.00     0.029 A 
ATOM     50  N   UNL A   1      44.533  30.143  27.984  1.00  0.00    -0.354 N 
ATOM     51  N   UNL A   1      42.113  30.820  29.453  1.00  0.00    -0.248 NA
ATOM     52  C   UNL A   1      40.931  32.247  30.876  1.00  0.00     0.031 C 
ATOM     53  C   UNL A   1      46.310  31.459  28.191  1.00  0.00     0.029 A 
ATOM     54  C   UNL A   1      44.990  31.306  28.580  1.00  0.00     0.049 A 
ATOM     55  H   UNL A   1      43.628  29.770  28.094  1.00  0.00     0.167 HD
ATOM     56  C   UNL A   1      42.905  31.918  29.765  1.00  0.00     0.074 A 
ATOM     57  C   UNL A   1      42.108  32.790  30.601  1.00  0.00     0.031 C 
ATOM     58  C   UNL A   1      44.197  32.159  29.428  1.00  0.00     0.031 A 
BRANCH  45  59
ATOM     59  C   UNL A   1      46.589  27.846  25.698  1.00  0.00    -0.014 A 
ATOM     60  C   UNL A   1      46.749  28.097  24.328  1.00  0.00     0.009 A 
ATOM     61  C   UNL A   1      47.539  27.052  26.362  1.00  0.00     0.009 A 
ATOM     62  C   UNL A   1      47.813  27.520  23.628  1.00  0.00     0.001 A 
ATOM     63  C   UNL A   1      48.616  26.503  25.668  1.00  0.00     0.001 A 
ATOM     64  C   UNL A   1      48.745  26.726  24.299  1.00  0.00     0.000 A 
ENDBRANCH  45  59
BRANCH  46  65
ATOM     65  C   UNL A   1      38.529  30.586  30.822  1.00  0.00    -0.014 A 
ATOM     66  C   UNL A   1      37.572  31.228  30.011  1.00  0.00     0.009 A 
ATOM     67  C   UNL A   1      38.274  30.494  32.197  1.00  0.00     0.009 A 
ATOM     68  C   UNL A   1      36.412  31.778  30.566  1.00  0.00     0.001 A 
ATOM     69  C   UNL A   1      37.089  30.999  32.743  1.00  0.00     0.001 A 
ATOM     70  C   UNL A   1      36.167  31.653  31.931  1.00  0.00     0.000 A 
ENDBRANCH  46  65
BRANCH  58  71
ATOM     71  C   UNL A   1      44.839  33.398  29.988  1.00  0.00    -0.014 A 
ATOM     72  C   UNL A   1      44.769  34.623  29.302  1.00  0.00     0.009 A 
ATOM     73  C   UNL A   1      45.476  33.357  31.237  1.00  0.00     0.009 A 
ATOM     74  C   UNL A   1      45.350  35.772  29.842  1.00  0.00     0.001 A 
ATOM     75  C   UNL A   1      46.032  34.513  31.788  1.00  0.00     0.001 A 
ATOM     76  C   UNL A   1      45.977  35.718  31.086  1.00  0.00     0.000 A 
ENDBRANCH  58  71
ENDBRANCH  32  33
ENDBRANCH  25  27
ENDBRANCH  24  25
ENDBRANCH  23  24
ENDBRANCH  22  23
ENDBRANCH   1  22
TORSDOF 17
ENDMDL
MODEL 3
REMARK VINA RESULT:      -9.3      2.371      6.447
REMARK SMILES CC[C@H](C(=O)OCCOC(=O)c1ccc(-c2c3nc(c(-c4ccccc4)c4ccc([nH]4)c(-c4ccccc4)c4nc(c(-c5ccccc5)c5ccc2[nH]5)C=C4)C=C3)cc1)N(C)C(=O)[C@H]1CC[C@@H](C[NH3+])CC1
REMARK SMILES IDX 6 1 4 2 5 3 3 4 2 5 1 6 60 7 61 8 62 9 63 10 64 11 71 12
REMARK SMILES IDX 65 13 70 14 66 15 67 16 68 17 69 18 7 22 8 23 9 24 10 25
REMARK SMILES IDX 11 26 12 27 13 28 59 29 14 30 58 31 15 32 16 33 17 34 52 35
REMARK SMILES IDX 18 36 57 37 51 38 53 39 19 40 56 41 50 42 49 43 20 45 42 46
REMARK SMILES IDX 27 47 41 48 28 49 31 50 40 51 54 52 29 53 30 54 39 56 55 57
REMARK SMILES IDX 32 58 21 59 22 60 26 61 23 62 25 63 24 64 43 65 44 66 48 67
REMARK SMILES IDX 45 68 47 69 46 70 33 71 34 72 38 73 35 74 37 75 36 76
REMARK H PARENT 69 19 69 20 69 21 53 44 31 55
REMARK Flexibility Score: inf
ROOT
ATOM      1  O   UNL A   1      31.619  30.209  26.728  1.00  0.00    -0.461 OA
ENDROOT
BRANCH   1   2
ATOM      2  C   UNL A   1      31.937  29.680  25.505  1.00  0.00     0.328 C 
ATOM      3  O   UNL A   1      31.198  29.722  24.528  1.00  0.00    -0.250 OA
BRANCH   2   4
ATOM      4  C   UNL A   1      33.370  29.090  25.525  1.00  0.00     0.194 C 
BRANCH   4   5
ATOM      5  C   UNL A   1      33.880  28.596  26.895  1.00  0.00     0.034 C 
ATOM      6  C   UNL A   1      35.001  29.404  27.535  1.00  0.00     0.007 C 
ENDBRANCH   4   5
BRANCH   4   7
ATOM      7  N   UNL A   1      33.564  28.077  24.448  1.00  0.00    -0.332 N 
ATOM      8  C   UNL A   1      33.987  28.543  23.135  1.00  0.00     0.147 C 
BRANCH   7   9
ATOM      9  C   UNL A   1      33.512  26.722  24.777  1.00  0.00     0.226 C 
ATOM     10  O   UNL A   1      34.508  26.105  25.154  1.00  0.00    -0.275 OA
BRANCH   9  11
ATOM     11  C   UNL A   1      32.137  26.046  24.795  1.00  0.00     0.078 C 
ATOM     12  C   UNL A   1      31.865  25.242  23.511  1.00  0.00     0.014 C 
ATOM     13  C   UNL A   1      32.135  25.134  26.023  1.00  0.00     0.014 C 
ATOM     14  C   UNL A   1      30.662  24.288  23.629  1.00  0.00     0.010 C 
ATOM     15  C   UNL A   1      30.862  24.314  26.095  1.00  0.00     0.010 C 
ATOM     16  C   UNL A   1      30.721  23.393  24.881  1.00  0.00     0.044 C 
BRANCH  16  17
ATOM     17  C   UNL A   1      31.833  22.325  24.727  1.00  0.00     0.262 C 
BRANCH  17  18
ATOM     18  N   UNL A   1      31.855  21.283  25.746  1.00  0.00    -0.357 N 
ATOM     19  H   UNL A   1      31.913  20.370  25.296  1.00  0.00     0.344 HD
ATOM     20  H   UNL A   1      31.003  21.334  26.303  1.00  0.00     0.344 HD
ATOM     21  H   UNL A   1      32.666  21.417  26.350  1.00  0.00     0.344 HD
ENDBRANCH  17  18
ENDBRANCH  16  17
ENDBRANCH   9  11
ENDBRANCH   7   9
ENDBRANCH   4   7
ENDBRANCH   2   4
ENDBRANCH   1   2
BRANCH   1  22
ATOM     22  C   UNL A   1      31.554  31.648  26.803  1.00  0.00     0.274 C 
BRANCH  22  23
ATOM     23  C   UNL A   1      32.691  32.263  27.629  1.00  0.00     0.275 C 
BRANCH  23  24
ATOM     24  O   UNL A   1      32.637  33.703  27.661  1.00  0.00    -0.458 OA
BRANCH  24  25
ATOM     25  C   UNL A   1      33.102  34.266  28.802  1.00  0.00     0.338 C 
ATOM     26  O   UNL A   1      32.469  34.947  29.589  1.00  0.00    -0.246 OA
BRANCH  25  27
ATOM     27  C   UNL A   1      34.472  33.790  29.091  1.00  0.00     0.060 A 
ATOM     28  C   UNL A   1      34.588  32.853  30.115  1.00  0.00     0.016 A 
ATOM     29  C   UNL A   1      35.617  34.234  28.425  1.00  0.00     0.016 A 
ATOM     30  C   UNL A   1      35.829  32.318  30.448  1.00  0.00     0.010 A 
ATOM     31  C   UNL A   1      36.874  33.705  28.773  1.00  0.00     0.010 A 
ATOM     32  C   UNL A   1      36.984  32.723  29.770  1.00  0.00    -0.014 A 
BRANCH  32  33
ATOM     33  C   UNL A   1      38.275  32.098  30.162  1.00  0.00     0.031 A 
ATOM     34  C   UNL A   1      38.973  32.559  31.406  1.00  0.00     0.074 A 
ATOM     35  C   UNL A   1      38.753  31.030  29.493  1.00  0.00     0.049 A 
ATOM     36  N   UNL A   1      40.063  32.094  31.960  1.00  0.00    -0.248 NA
ATOM     37  C   UNL A   1      38.372  33.702  32.108  1.00  0.00     0.031 C 
ATOM     38  C   UNL A   1      38.137  30.446  28.307  1.00  0.00     0.029 A 
ATOM     39  N   UNL A   1      39.817  30.198  29.763  1.00  0.00    -0.354 N 
ATOM     40  C   UNL A   1      40.325  32.939  33.029  1.00  0.00     0.074 A 
ATOM     41  C   UNL A   1      39.237  33.893  33.092  1.00  0.00     0.031 C 
ATOM     42  C   UNL A   1      38.759  29.288  28.024  1.00  0.00     0.029 A 
ATOM     43  C   UNL A   1      39.838  29.063  28.980  1.00  0.00     0.049 A 
ATOM     44  H   UNL A   1      40.495  30.394  30.448  1.00  0.00     0.167 HD
ATOM     45  C   UNL A   1      41.413  32.963  33.835  1.00  0.00     0.031 A 
ATOM     46  C   UNL A   1      40.621  27.965  29.053  1.00  0.00     0.031 A 
ATOM     47  C   UNL A   1      42.520  32.048  33.737  1.00  0.00     0.049 A 
ATOM     48  C   UNL A   1      41.808  27.993  29.984  1.00  0.00     0.074 A 
ATOM     49  C   UNL A   1      43.722  32.067  34.424  1.00  0.00     0.029 A 
ATOM     50  N   UNL A   1      42.560  30.949  32.894  1.00  0.00    -0.354 N 
ATOM     51  N   UNL A   1      42.103  28.851  30.929  1.00  0.00    -0.248 NA
ATOM     52  C   UNL A   1      42.816  26.936  29.797  1.00  0.00     0.031 C 
ATOM     53  C   UNL A   1      44.510  31.010  33.956  1.00  0.00     0.029 A 
ATOM     54  C   UNL A   1      43.773  30.293  33.028  1.00  0.00     0.049 A 
ATOM     55  H   UNL A   1      41.834  30.675  32.287  1.00  0.00     0.167 HD
ATOM     56  C   UNL A   1      43.349  28.468  31.412  1.00  0.00     0.074 A 
ATOM     57  C   UNL A   1      43.715  27.252  30.718  1.00  0.00     0.031 C 
ATOM     58  C   UNL A   1      44.139  29.095  32.318  1.00  0.00     0.031 A 
BRANCH  45  59
ATOM     59  C   UNL A   1      41.517  34.128  34.775  1.00  0.00    -0.014 A 
ATOM     60  C   UNL A   1      41.063  34.062  36.100  1.00  0.00     0.009 A 
ATOM     61  C   UNL A   1      42.042  35.338  34.293  1.00  0.00     0.009 A 
ATOM     62  C   UNL A   1      41.089  35.203  36.908  1.00  0.00     0.001 A 
ATOM     63  C   UNL A   1      42.094  36.466  35.110  1.00  0.00     0.001 A 
ATOM     64  C   UNL A   1      41.605  36.401  36.413  1.00  0.00     0.000 A 
ENDBRANCH  45  59
BRANCH  46  65
ATOM     65  C   UNL A   1      40.365  26.751  28.220  1.00  0.00    -0.014 A 
ATOM     66  C   UNL A   1      40.913  26.655  26.925  1.00  0.00     0.009 A 
ATOM     67  C   UNL A   1      39.542  25.707  28.667  1.00  0.00     0.009 A 
ATOM     68  C   UNL A   1      40.627  25.562  26.101  1.00  0.00     0.001 A 
ATOM     69  C   UNL A   1      39.299  24.590  27.861  1.00  0.00     0.001 A 
ATOM     70  C   UNL A   1      39.829  24.524  26.575  1.00  0.00     0.000 A 
ENDBRANCH  46  65
BRANCH  58  71
ATOM     71  C   UNL A   1      45.492  28.497  32.587  1.00  0.00    -0.014 A 
ATOM     72  C   UNL A   1      45.667  27.522  33.585  1.00  0.00     0.009 A 
ATOM     73  C   UNL A   1      46.595  28.871  31.805  1.00  0.00     0.009 A 
ATOM     74  C   UNL A   1      46.924  26.958  33.812  1.00  0.00     0.001 A 
ATOM     75  C   UNL A   1      47.846  28.285  32.015  1.00  0.00     0.001 A 
ATOM     76  C   UNL A   1      48.011  27.335  33.024  1.00  0.00     0.000 A 
ENDBRANCH  58  71
ENDBRANCH  32  33
ENDBRANCH  25  27
ENDBRANCH  24  25
ENDBRANCH  23  24
ENDBRANCH  22  23
ENDBRANCH   1  22
TORSDOF 17
ENDMDL
