MODEL 1
REMARK VINA RESULT:     -11.7      0.000      0.000
REMARK SMILES C[C@H](NC(=O)c1cccc(NC(=O)c2ccccc2C(=O)OCCOC(=O)c2ccc(-c3c4nc(c(-c5ccccc5)c5ccc([nH]5)c(-c5ccccc5)c5nc(c(-c6ccccc6)c6ccc3[nH]6)C=C5)C=C4)cc2)c1)c1ccccc1
REMARK SMILES IDX 22 1 20 2 21 3 19 4 14 5 15 6 16 7 18 8 17 9 12 10 11 11
REMARK SMILES IDX 13 13 10 14 6 15 7 16 76 17 8 18 9 19 4 20 3 21 5 23 2 24
REMARK SMILES IDX 1 25 77 26 78 27 82 28 79 29 81 30 80 31 23 32 24 33 25 34
REMARK SMILES IDX 26 35 27 36 28 37 29 38 75 39 30 40 74 41 31 42 32 43 33 44
REMARK SMILES IDX 68 45 34 46 73 47 67 48 69 49 35 50 72 51 66 52 65 53 36 55
REMARK SMILES IDX 58 56 43 57 57 58 44 59 47 60 56 61 70 62 45 63 46 64 55 66
REMARK SMILES IDX 71 67 48 68 37 69 38 70 42 71 39 72 41 73 40 74 59 75 60 76
REMARK SMILES IDX 64 77 61 78 63 79 62 80 49 81 50 82 54 83 51 84 53 85 52 86
REMARK H PARENT 11 12 3 22 69 54 47 65
REMARK Flexibility Score: inf
ROOT
ATOM      1  O   UNL A   1      36.409  20.859  24.760  1.00  0.00    -0.458 OA
ENDROOT
BRANCH   1   2
ATOM      2  C   UNL A   1      35.239  21.168  25.364  1.00  0.00     0.339 C 
ATOM      3  O   UNL A   1      35.059  21.235  26.567  1.00  0.00    -0.246 OA
BRANCH   2   4
ATOM      4  C   UNL A   1      34.131  21.406  24.419  1.00  0.00     0.072 A 
ATOM      5  C   UNL A   1      34.064  22.541  23.607  1.00  0.00     0.054 A 
ATOM      6  C   UNL A   1      33.046  22.637  22.638  1.00  0.00     0.015 A 
ATOM      7  C   UNL A   1      32.153  21.585  22.429  1.00  0.00     0.001 A 
ATOM      8  C   UNL A   1      33.216  20.361  24.205  1.00  0.00     0.016 A 
ATOM      9  C   UNL A   1      32.242  20.441  23.210  1.00  0.00     0.001 A 
BRANCH   5  10
ATOM     10  C   UNL A   1      34.962  23.702  23.730  1.00  0.00     0.256 C 
ATOM     11  N   UNL A   1      34.662  24.835  24.449  1.00  0.00    -0.322 N 
ATOM     12  H   UNL A   1      35.315  25.560  24.322  1.00  0.00     0.170 HD
ATOM     13  O   UNL A   1      36.030  23.655  23.117  1.00  0.00    -0.269 OA
BRANCH  11  14
ATOM     14  C   UNL A   1      33.619  25.176  25.328  1.00  0.00     0.042 A 
ATOM     15  C   UNL A   1      32.178  26.964  26.125  1.00  0.00     0.041 A 
ATOM     16  C   UNL A   1      31.367  26.023  26.766  1.00  0.00     0.014 A 
ATOM     17  C   UNL A   1      33.326  26.541  25.446  1.00  0.00     0.040 A 
ATOM     18  C   UNL A   1      31.713  24.674  26.737  1.00  0.00     0.003 A 
ATOM     19  C   UNL A   1      32.849  24.253  26.037  1.00  0.00     0.026 A 
BRANCH  15  20
ATOM     20  C   UNL A   1      31.857  28.400  26.286  1.00  0.00     0.251 C 
ATOM     21  N   UNL A   1      31.344  29.153  25.260  1.00  0.00    -0.346 N 
ATOM     22  H   UNL A   1      31.473  30.124  25.351  1.00  0.00     0.164 HD
ATOM     23  O   UNL A   1      32.071  28.936  27.371  1.00  0.00    -0.269 OA
BRANCH  21  24
ATOM     24  C   UNL A   1      30.637  28.738  24.055  1.00  0.00     0.109 C 
ATOM     25  C   UNL A   1      30.141  29.961  23.279  1.00  0.00     0.036 C 
BRANCH  24  26
ATOM     26  C   UNL A   1      31.498  27.858  23.165  1.00  0.00    -0.026 A 
ATOM     27  C   UNL A   1      32.766  28.267  22.719  1.00  0.00     0.006 A 
ATOM     28  C   UNL A   1      31.001  26.621  22.716  1.00  0.00     0.006 A 
ATOM     29  C   UNL A   1      33.513  27.462  21.857  1.00  0.00     0.000 A 
ATOM     30  C   UNL A   1      31.747  25.822  21.847  1.00  0.00     0.000 A 
ATOM     31  C   UNL A   1      33.003  26.243  21.417  1.00  0.00     0.000 A 
ENDBRANCH  24  26
ENDBRANCH  21  24
ENDBRANCH  15  20
ENDBRANCH  11  14
ENDBRANCH   5  10
ENDBRANCH   2   4
ENDBRANCH   1   2
BRANCH   1  32
ATOM     32  C   UNL A   1      36.823  19.493  24.970  1.00  0.00     0.275 C 
BRANCH  32  33
ATOM     33  C   UNL A   1      38.309  19.335  25.296  1.00  0.00     0.275 C 
BRANCH  33  34
ATOM     34  O   UNL A   1      38.955  20.607  25.480  1.00  0.00    -0.458 OA
BRANCH  34  35
ATOM     35  C   UNL A   1      39.987  20.575  26.346  1.00  0.00     0.338 C 
ATOM     36  O   UNL A   1      40.728  19.632  26.584  1.00  0.00    -0.246 OA
BRANCH  35  37
ATOM     37  C   UNL A   1      40.215  21.887  26.958  1.00  0.00     0.060 A 
ATOM     38  C   UNL A   1      39.491  22.964  26.460  1.00  0.00     0.016 A 
ATOM     39  C   UNL A   1      41.315  22.106  27.780  1.00  0.00     0.016 A 
ATOM     40  C   UNL A   1      39.949  24.256  26.624  1.00  0.00     0.010 A 
ATOM     41  C   UNL A   1      41.694  23.421  28.068  1.00  0.00     0.010 A 
ATOM     42  C   UNL A   1      41.047  24.505  27.446  1.00  0.00    -0.014 A 
BRANCH  42  43
ATOM     43  C   UNL A   1      41.527  25.897  27.600  1.00  0.00     0.031 A 
ATOM     44  C   UNL A   1      42.785  26.333  26.904  1.00  0.00     0.074 A 
ATOM     45  C   UNL A   1      40.806  26.775  28.325  1.00  0.00     0.049 A 
ATOM     46  N   UNL A   1      43.471  27.434  27.057  1.00  0.00    -0.248 NA
ATOM     47  C   UNL A   1      43.356  25.401  25.917  1.00  0.00     0.031 C 
ATOM     48  C   UNL A   1      39.521  26.493  28.975  1.00  0.00     0.029 A 
ATOM     49  N   UNL A   1      41.046  28.089  28.631  1.00  0.00    -0.354 N 
ATOM     50  C   UNL A   1      44.588  27.299  26.242  1.00  0.00     0.074 A 
ATOM     51  C   UNL A   1      44.489  26.009  25.595  1.00  0.00     0.031 C 
ATOM     52  C   UNL A   1      39.070  27.607  29.565  1.00  0.00     0.029 A 
ATOM     53  C   UNL A   1      40.082  28.644  29.438  1.00  0.00     0.049 A 
ATOM     54  H   UNL A   1      41.829  28.587  28.304  1.00  0.00     0.167 HD
ATOM     55  C   UNL A   1      45.606  28.172  26.064  1.00  0.00     0.031 A 
ATOM     56  C   UNL A   1      40.048  29.832  30.066  1.00  0.00     0.031 A 
ATOM     57  C   UNL A   1      45.668  29.464  26.697  1.00  0.00     0.049 A 
ATOM     58  C   UNL A   1      41.223  30.751  29.910  1.00  0.00     0.074 A 
ATOM     59  C   UNL A   1      46.647  30.434  26.592  1.00  0.00     0.029 A 
ATOM     60  N   UNL A   1      44.695  29.967  27.552  1.00  0.00    -0.354 N 
ATOM     61  N   UNL A   1      42.306  30.591  29.188  1.00  0.00    -0.248 NA
ATOM     62  C   UNL A   1      41.178  32.006  30.667  1.00  0.00     0.031 C 
ATOM     63  C   UNL A   1      46.295  31.500  27.426  1.00  0.00     0.029 A 
ATOM     64  C   UNL A   1      45.064  31.223  27.999  1.00  0.00     0.049 A 
ATOM     65  H   UNL A   1      43.867  29.498  27.802  1.00  0.00     0.167 HD
ATOM     66  C   UNL A   1      43.067  31.732  29.390  1.00  0.00     0.074 A 
ATOM     67  C   UNL A   1      42.304  32.587  30.281  1.00  0.00     0.031 C 
ATOM     68  C   UNL A   1      44.287  32.046  28.891  1.00  0.00     0.031 A 
BRANCH  55  69
ATOM     69  C   UNL A   1      46.761  27.734  25.202  1.00  0.00    -0.014 A 
ATOM     70  C   UNL A   1      46.826  28.040  23.834  1.00  0.00     0.009 A 
ATOM     71  C   UNL A   1      47.816  27.012  25.784  1.00  0.00     0.009 A 
ATOM     72  C   UNL A   1      47.906  27.600  23.061  1.00  0.00     0.001 A 
ATOM     73  C   UNL A   1      48.907  26.602  25.017  1.00  0.00     0.001 A 
ATOM     74  C   UNL A   1      48.946  26.886  23.654  1.00  0.00     0.000 A 
ENDBRANCH  55  69
BRANCH  56  75
ATOM     75  C   UNL A   1      38.904  30.176  30.950  1.00  0.00    -0.014 A 
ATOM     76  C   UNL A   1      37.833  30.944  30.469  1.00  0.00     0.009 A 
ATOM     77  C   UNL A   1      38.870  29.727  32.282  1.00  0.00     0.009 A 
ATOM     78  C   UNL A   1      36.764  31.270  31.308  1.00  0.00     0.001 A 
ATOM     79  C   UNL A   1      37.783  30.023  33.106  1.00  0.00     0.001 A 
ATOM     80  C   UNL A   1      36.736  30.803  32.622  1.00  0.00     0.000 A 
ENDBRANCH  56  75
BRANCH  68  81
ATOM     81  C   UNL A   1      44.843  33.388  29.273  1.00  0.00    -0.014 A 
ATOM     82  C   UNL A   1      44.561  34.537  28.518  1.00  0.00     0.009 A 
ATOM     83  C   UNL A   1      45.651  33.501  30.415  1.00  0.00     0.009 A 
ATOM     84  C   UNL A   1      45.115  35.767  28.876  1.00  0.00     0.001 A 
ATOM     85  C   UNL A   1      46.174  34.738  30.789  1.00  0.00     0.001 A 
ATOM     86  C   UNL A   1      45.917  35.867  30.013  1.00  0.00     0.000 A 
ENDBRANCH  68  81
ENDBRANCH  42  43
ENDBRANCH  35  37
ENDBRANCH  34  35
ENDBRANCH  33  34
ENDBRANCH  32  33
ENDBRANCH   1  32
TORSDOF 16
ENDMDL
MODEL 2
REMARK VINA RESULT:     -11.7      2.260      3.212
REMARK SMILES C[C@H](NC(=O)c1cccc(NC(=O)c2ccccc2C(=O)OCCOC(=O)c2ccc(-c3c4nc(c(-c5ccccc5)c5ccc([nH]5)c(-c5ccccc5)c5nc(c(-c6ccccc6)c6ccc3[nH]6)C=C5)C=C4)cc2)c1)c1ccccc1
REMARK SMILES IDX 22 1 20 2 21 3 19 4 14 5 15 6 16 7 18 8 17 9 12 10 11 11
REMARK SMILES IDX 13 13 10 14 6 15 7 16 76 17 8 18 9 19 4 20 3 21 5 23 2 24
REMARK SMILES IDX 1 25 77 26 78 27 82 28 79 29 81 30 80 31 23 32 24 33 25 34
REMARK SMILES IDX 26 35 27 36 28 37 29 38 75 39 30 40 74 41 31 42 32 43 33 44
REMARK SMILES IDX 68 45 34 46 73 47 67 48 69 49 35 50 72 51 66 52 65 53 36 55
REMARK SMILES IDX 58 56 43 57 57 58 44 59 47 60 56 61 70 62 45 63 46 64 55 66
REMARK SMILES IDX 71 67 48 68 37 69 38 70 42 71 39 72 41 73 40 74 59 75 60 76
REMARK SMILES IDX 64 77 61 78 63 79 62 80 49 81 50 82 54 83 51 84 53 85 52 86
REMARK H PARENT 11 12 3 22 69 54 47 65
REMARK Flexibility Score: inf
ROOT
ATOM      1  O   UNL A   1      37.143  21.835  25.839  1.00  0.00    -0.458 OA
ENDROOT
BRANCH   1   2
ATOM      2  C   UNL A   1      36.122  21.956  24.961  1.00  0.00     0.339 C 
ATOM      3  O   UNL A   1      36.078  22.738  24.027  1.00  0.00    -0.246 OA
BRANCH   2   4
ATOM      4  C   UNL A   1      34.992  21.048  25.241  1.00  0.00     0.072 A 
ATOM      5  C   UNL A   1      33.912  21.417  26.047  1.00  0.00     0.054 A 
ATOM      6  C   UNL A   1      32.810  20.548  26.163  1.00  0.00     0.015 A 
ATOM      7  C   UNL A   1      32.750  19.362  25.429  1.00  0.00     0.001 A 
ATOM      8  C   UNL A   1      34.923  19.845  24.518  1.00  0.00     0.016 A 
ATOM      9  C   UNL A   1      33.806  19.013  24.599  1.00  0.00     0.001 A 
BRANCH   5  10
ATOM     10  C   UNL A   1      33.862  22.649  26.853  1.00  0.00     0.256 C 
ATOM     11  N   UNL A   1      33.285  23.823  26.428  1.00  0.00    -0.322 N 
ATOM     12  H   UNL A   1      33.451  24.579  27.037  1.00  0.00     0.170 HD
ATOM     13  O   UNL A   1      34.403  22.620  27.959  1.00  0.00    -0.269 OA
BRANCH  11  14
ATOM     14  C   UNL A   1      32.511  24.172  25.309  1.00  0.00     0.042 A 
ATOM     15  C   UNL A   1      32.472  25.381  23.201  1.00  0.00     0.041 A 
ATOM     16  C   UNL A   1      31.273  24.748  22.861  1.00  0.00     0.014 A 
ATOM     17  C   UNL A   1      33.063  25.125  24.442  1.00  0.00     0.040 A 
ATOM     18  C   UNL A   1      30.667  23.878  23.765  1.00  0.00     0.003 A 
ATOM     19  C   UNL A   1      31.274  23.607  24.996  1.00  0.00     0.026 A 
BRANCH  15  20
ATOM     20  C   UNL A   1      33.021  26.399  22.275  1.00  0.00     0.251 C 
ATOM     21  N   UNL A   1      32.433  27.628  22.111  1.00  0.00    -0.346 N 
ATOM     22  H   UNL A   1      32.657  28.087  21.271  1.00  0.00     0.164 HD
ATOM     23  O   UNL A   1      34.027  26.126  21.625  1.00  0.00    -0.269 OA
BRANCH  21  24
ATOM     24  C   UNL A   1      31.528  28.359  22.989  1.00  0.00     0.109 C 
ATOM     25  C   UNL A   1      30.112  27.785  22.894  1.00  0.00     0.036 C 
BRANCH  24  26
ATOM     26  C   UNL A   1      32.006  28.354  24.431  1.00  0.00    -0.026 A 
ATOM     27  C   UNL A   1      33.283  28.817  24.791  1.00  0.00     0.006 A 
ATOM     28  C   UNL A   1      31.183  27.821  25.437  1.00  0.00     0.006 A 
ATOM     29  C   UNL A   1      33.719  28.750  26.116  1.00  0.00     0.000 A 
ATOM     30  C   UNL A   1      31.624  27.747  26.761  1.00  0.00     0.000 A 
ATOM     31  C   UNL A   1      32.892  28.212  27.100  1.00  0.00     0.000 A 
ENDBRANCH  24  26
ENDBRANCH  21  24
ENDBRANCH  15  20
ENDBRANCH  11  14
ENDBRANCH   5  10
ENDBRANCH   2   4
ENDBRANCH   1   2
BRANCH   1  32
ATOM     32  C   UNL A   1      38.204  20.975  25.375  1.00  0.00     0.275 C 
BRANCH  32  33
ATOM     33  C   UNL A   1      39.566  21.269  26.006  1.00  0.00     0.275 C 
BRANCH  33  34
ATOM     34  O   UNL A   1      40.243  20.064  26.405  1.00  0.00    -0.458 OA
BRANCH  34  35
ATOM     35  C   UNL A   1      41.537  20.015  26.031  1.00  0.00     0.338 C 
ATOM     36  O   UNL A   1      42.090  19.141  25.378  1.00  0.00    -0.246 OA
BRANCH  35  37
ATOM     37  C   UNL A   1      42.256  21.229  26.429  1.00  0.00     0.060 A 
ATOM     38  C   UNL A   1      42.279  21.549  27.782  1.00  0.00     0.016 A 
ATOM     39  C   UNL A   1      42.632  22.174  25.482  1.00  0.00     0.016 A 
ATOM     40  C   UNL A   1      42.501  22.847  28.194  1.00  0.00     0.010 A 
ATOM     41  C   UNL A   1      43.001  23.454  25.911  1.00  0.00     0.010 A 
ATOM     42  C   UNL A   1      42.884  23.815  27.266  1.00  0.00    -0.014 A 
BRANCH  42  43
ATOM     43  C   UNL A   1      43.108  25.204  27.729  1.00  0.00     0.031 A 
ATOM     44  C   UNL A   1      44.507  25.691  27.978  1.00  0.00     0.074 A 
ATOM     45  C   UNL A   1      42.057  26.034  27.876  1.00  0.00     0.049 A 
ATOM     46  N   UNL A   1      44.904  26.792  28.558  1.00  0.00    -0.248 NA
ATOM     47  C   UNL A   1      45.604  24.817  27.530  1.00  0.00     0.031 C 
ATOM     48  C   UNL A   1      40.659  25.704  27.578  1.00  0.00     0.029 A 
ATOM     49  N   UNL A   1      42.001  27.335  28.305  1.00  0.00    -0.354 N 
ATOM     50  C   UNL A   1      46.291  26.711  28.609  1.00  0.00     0.074 A 
ATOM     51  C   UNL A   1      46.667  25.454  28.001  1.00  0.00     0.031 C 
ATOM     52  C   UNL A   1      39.893  26.781  27.794  1.00  0.00     0.029 A 
ATOM     53  C   UNL A   1      40.723  27.836  28.356  1.00  0.00     0.049 A 
ATOM     54  H   UNL A   1      42.797  27.859  28.550  1.00  0.00     0.167 HD
ATOM     55  C   UNL A   1      47.163  27.606  29.129  1.00  0.00     0.031 A 
ATOM     56  C   UNL A   1      40.258  28.991  28.863  1.00  0.00     0.031 A 
ATOM     57  C   UNL A   1      46.765  28.865  29.703  1.00  0.00     0.049 A 
ATOM     58  C   UNL A   1      41.237  29.932  29.499  1.00  0.00     0.074 A 
ATOM     59  C   UNL A   1      47.557  29.853  30.258  1.00  0.00     0.029 A 
ATOM     60  N   UNL A   1      45.452  29.312  29.784  1.00  0.00    -0.354 N 
ATOM     61  N   UNL A   1      42.540  29.822  29.601  1.00  0.00    -0.248 NA
ATOM     62  C   UNL A   1      40.681  31.147  30.102  1.00  0.00     0.031 C 
ATOM     63  C   UNL A   1      46.721  30.871  30.727  1.00  0.00     0.029 A 
ATOM     64  C   UNL A   1      45.412  30.549  30.402  1.00  0.00     0.049 A 
ATOM     65  H   UNL A   1      44.667  28.821  29.451  1.00  0.00     0.167 HD
ATOM     66  C   UNL A   1      42.964  30.962  30.267  1.00  0.00     0.074 A 
ATOM     67  C   UNL A   1      41.779  31.761  30.517  1.00  0.00     0.031 C 
ATOM     68  C   UNL A   1      44.216  31.317  30.643  1.00  0.00     0.031 A 
BRANCH  55  69
ATOM     69  C   UNL A   1      48.619  27.227  29.157  1.00  0.00    -0.014 A 
ATOM     70  C   UNL A   1      49.177  26.493  30.216  1.00  0.00     0.009 A 
ATOM     71  C   UNL A   1      49.447  27.600  28.085  1.00  0.00     0.009 A 
ATOM     72  C   UNL A   1      50.539  26.175  30.216  1.00  0.00     0.001 A 
ATOM     73  C   UNL A   1      50.798  27.253  28.072  1.00  0.00     0.001 A 
ATOM     74  C   UNL A   1      51.346  26.550  29.144  1.00  0.00     0.000 A 
ENDBRANCH  55  69
BRANCH  56  75
ATOM     75  C   UNL A   1      38.798  29.276  28.855  1.00  0.00    -0.014 A 
ATOM     76  C   UNL A   1      38.022  29.066  30.005  1.00  0.00     0.009 A 
ATOM     77  C   UNL A   1      38.174  29.772  27.699  1.00  0.00     0.009 A 
ATOM     78  C   UNL A   1      36.650  29.328  29.988  1.00  0.00     0.001 A 
ATOM     79  C   UNL A   1      36.810  30.069  27.696  1.00  0.00     0.001 A 
ATOM     80  C   UNL A   1      36.047  29.836  28.838  1.00  0.00     0.000 A 
ENDBRANCH  56  75
BRANCH  68  81
ATOM     81  C   UNL A   1      44.360  32.645  31.329  1.00  0.00    -0.014 A 
ATOM     82  C   UNL A   1      44.558  33.827  30.598  1.00  0.00     0.009 A 
ATOM     83  C   UNL A   1      44.283  32.712  32.729  1.00  0.00     0.009 A 
ATOM     84  C   UNL A   1      44.720  35.044  31.261  1.00  0.00     0.001 A 
ATOM     85  C   UNL A   1      44.410  33.935  33.386  1.00  0.00     0.001 A 
ATOM     86  C   UNL A   1      44.641  35.098  32.652  1.00  0.00     0.000 A 
ENDBRANCH  68  81
ENDBRANCH  42  43
ENDBRANCH  35  37
ENDBRANCH  34  35
ENDBRANCH  33  34
ENDBRANCH  32  33
ENDBRANCH   1  32
TORSDOF 16
ENDMDL
MODEL 3
REMARK VINA RESULT:     -10.9      2.638      7.358
REMARK SMILES C[C@H](NC(=O)c1cccc(NC(=O)c2ccccc2C(=O)OCCOC(=O)c2ccc(-c3c4nc(c(-c5ccccc5)c5ccc([nH]5)c(-c5ccccc5)c5nc(c(-c6ccccc6)c6ccc3[nH]6)C=C5)C=C4)cc2)c1)c1ccccc1
REMARK SMILES IDX 22 1 20 2 21 3 19 4 14 5 15 6 16 7 18 8 17 9 12 10 11 11
REMARK SMILES IDX 13 13 10 14 6 15 7 16 76 17 8 18 9 19 4 20 3 21 5 23 2 24
REMARK SMILES IDX 1 25 77 26 78 27 82 28 79 29 81 30 80 31 23 32 24 33 25 34
REMARK SMILES IDX 26 35 27 36 28 37 29 38 75 39 30 40 74 41 31 42 32 43 33 44
REMARK SMILES IDX 68 45 34 46 73 47 67 48 69 49 35 50 72 51 66 52 65 53 36 55
REMARK SMILES IDX 58 56 43 57 57 58 44 59 47 60 56 61 70 62 45 63 46 64 55 66
REMARK SMILES IDX 71 67 48 68 37 69 38 70 42 71 39 72 41 73 40 74 59 75 60 76
REMARK SMILES IDX 64 77 61 78 63 79 62 80 49 81 50 82 54 83 51 84 53 85 52 86
REMARK H PARENT 11 12 3 22 69 54 47 65
REMARK Flexibility Score: inf
ROOT
ATOM      1  O   UNL A   1      33.044  27.065  26.302  1.00  0.00    -0.458 OA
ENDROOT
BRANCH   1   2
ATOM      2  C   UNL A   1      31.877  26.688  26.872  1.00  0.00     0.339 C 
ATOM      3  O   UNL A   1      31.167  27.393  27.568  1.00  0.00    -0.246 OA
BRANCH   2   4
ATOM      4  C   UNL A   1      31.515  25.282  26.603  1.00  0.00     0.072 A 
ATOM      5  C   UNL A   1      30.512  24.923  25.701  1.00  0.00     0.054 A 
ATOM      6  C   UNL A   1      30.311  23.562  25.399  1.00  0.00     0.015 A 
ATOM      7  C   UNL A   1      31.147  22.578  25.931  1.00  0.00     0.001 A 
ATOM      8  C   UNL A   1      32.340  24.279  27.141  1.00  0.00     0.016 A 
ATOM      9  C   UNL A   1      32.168  22.938  26.799  1.00  0.00     0.001 A 
BRANCH   5  10
ATOM     10  C   UNL A   1      29.583  25.877  25.070  1.00  0.00     0.256 C 
ATOM     11  N   UNL A   1      29.941  26.753  24.073  1.00  0.00    -0.322 N 
ATOM     12  H   UNL A   1      29.234  27.403  23.855  1.00  0.00     0.170 HD
ATOM     13  O   UNL A   1      28.427  25.901  25.495  1.00  0.00    -0.269 OA
BRANCH  11  14
ATOM     14  C   UNL A   1      31.103  26.920  23.300  1.00  0.00     0.042 A 
ATOM     15  C   UNL A   1      32.514  25.951  21.575  1.00  0.00     0.041 A 
ATOM     16  C   UNL A   1      33.193  27.166  21.449  1.00  0.00     0.014 A 
ATOM     17  C   UNL A   1      31.503  25.818  22.532  1.00  0.00     0.040 A 
ATOM     18  C   UNL A   1      32.867  28.233  22.285  1.00  0.00     0.003 A 
ATOM     19  C   UNL A   1      31.839  28.103  23.224  1.00  0.00     0.026 A 
BRANCH  15  20
ATOM     20  C   UNL A   1      32.973  24.799  20.765  1.00  0.00     0.251 C 
ATOM     21  N   UNL A   1      33.244  23.576  21.325  1.00  0.00    -0.346 N 
ATOM     22  H   UNL A   1      33.836  22.998  20.793  1.00  0.00     0.164 HD
ATOM     23  O   UNL A   1      33.127  24.950  19.556  1.00  0.00    -0.269 OA
BRANCH  21  24
ATOM     24  C   UNL A   1      32.791  23.000  22.584  1.00  0.00     0.109 C 
ATOM     25  C   UNL A   1      32.297  21.567  22.369  1.00  0.00     0.036 C 
BRANCH  24  26
ATOM     26  C   UNL A   1      33.876  23.032  23.647  1.00  0.00    -0.026 A 
ATOM     27  C   UNL A   1      34.429  24.239  24.108  1.00  0.00     0.006 A 
ATOM     28  C   UNL A   1      34.394  21.827  24.153  1.00  0.00     0.006 A 
ATOM     29  C   UNL A   1      35.463  24.239  25.046  1.00  0.00     0.000 A 
ATOM     30  C   UNL A   1      35.435  21.829  25.084  1.00  0.00     0.000 A 
ATOM     31  C   UNL A   1      35.970  23.035  25.530  1.00  0.00     0.000 A 
ENDBRANCH  24  26
ENDBRANCH  21  24
ENDBRANCH  15  20
ENDBRANCH  11  14
ENDBRANCH   5  10
ENDBRANCH   2   4
ENDBRANCH   1   2
BRANCH   1  32
ATOM     32  C   UNL A   1      33.115  28.476  26.012  1.00  0.00     0.275 C 
BRANCH  32  33
ATOM     33  C   UNL A   1      34.369  29.163  26.555  1.00  0.00     0.275 C 
BRANCH  33  34
ATOM     34  O   UNL A   1      34.364  29.227  27.992  1.00  0.00    -0.458 OA
BRANCH  34  35
ATOM     35  C   UNL A   1      34.872  30.373  28.489  1.00  0.00     0.338 C 
ATOM     36  O   UNL A   1      34.271  31.412  28.723  1.00  0.00    -0.246 OA
BRANCH  35  37
ATOM     37  C   UNL A   1      36.290  30.228  28.828  1.00  0.00     0.060 A 
ATOM     38  C   UNL A   1      37.223  30.607  27.869  1.00  0.00     0.016 A 
ATOM     39  C   UNL A   1      36.684  29.468  29.924  1.00  0.00     0.016 A 
ATOM     40  C   UNL A   1      38.504  30.093  27.893  1.00  0.00     0.010 A 
ATOM     41  C   UNL A   1      38.020  29.069  30.025  1.00  0.00     0.010 A 
ATOM     42  C   UNL A   1      38.927  29.332  28.982  1.00  0.00    -0.014 A 
BRANCH  42  43
ATOM     43  C   UNL A   1      40.303  28.783  28.982  1.00  0.00     0.031 A 
ATOM     44  C   UNL A   1      41.460  29.669  29.346  1.00  0.00     0.074 A 
ATOM     45  C   UNL A   1      40.500  27.480  28.703  1.00  0.00     0.049 A 
ATOM     46  N   UNL A   1      42.741  29.443  29.226  1.00  0.00    -0.248 NA
ATOM     47  C   UNL A   1      41.133  30.993  29.902  1.00  0.00     0.031 C 
ATOM     48  C   UNL A   1      39.446  26.498  28.423  1.00  0.00     0.029 A 
ATOM     49  N   UNL A   1      41.657  26.751  28.618  1.00  0.00    -0.354 N 
ATOM     50  C   UNL A   1      43.370  30.615  29.623  1.00  0.00     0.074 A 
ATOM     51  C   UNL A   1      42.332  31.553  29.989  1.00  0.00     0.031 C 
ATOM     52  C   UNL A   1      40.002  25.293  28.238  1.00  0.00     0.029 A 
ATOM     53  C   UNL A   1      41.449  25.438  28.268  1.00  0.00     0.049 A 
ATOM     54  H   UNL A   1      42.549  27.128  28.792  1.00  0.00     0.167 HD
ATOM     55  C   UNL A   1      44.697  30.881  29.666  1.00  0.00     0.031 A 
ATOM     56  C   UNL A   1      42.325  24.474  27.939  1.00  0.00     0.031 A 
ATOM     57  C   UNL A   1      45.713  29.920  29.324  1.00  0.00     0.049 A 
ATOM     58  C   UNL A   1      43.785  24.816  27.923  1.00  0.00     0.074 A 
ATOM     59  C   UNL A   1      47.087  30.073  29.331  1.00  0.00     0.029 A 
ATOM     60  N   UNL A   1      45.457  28.615  28.921  1.00  0.00    -0.354 N 
ATOM     61  N   UNL A   1      44.371  25.945  28.240  1.00  0.00    -0.248 NA
ATOM     62  C   UNL A   1      44.702  23.756  27.491  1.00  0.00     0.031 C 
ATOM     63  C   UNL A   1      47.661  28.881  28.878  1.00  0.00     0.029 A 
ATOM     64  C   UNL A   1      46.647  27.962  28.655  1.00  0.00     0.049 A 
ATOM     65  H   UNL A   1      44.562  28.215  28.839  1.00  0.00     0.167 HD
ATOM     66  C   UNL A   1      45.729  25.729  28.060  1.00  0.00     0.074 A 
ATOM     67  C   UNL A   1      45.877  24.350  27.634  1.00  0.00     0.031 C 
ATOM     68  C   UNL A   1      46.762  26.591  28.226  1.00  0.00     0.031 A 
BRANCH  55  69
ATOM     69  C   UNL A   1      45.118  32.279  30.034  1.00  0.00    -0.014 A 
ATOM     70  C   UNL A   1      45.247  33.294  29.074  1.00  0.00     0.009 A 
ATOM     71  C   UNL A   1      45.373  32.586  31.381  1.00  0.00     0.009 A 
ATOM     72  C   UNL A   1      45.658  34.577  29.451  1.00  0.00     0.001 A 
ATOM     73  C   UNL A   1      45.752  33.875  31.759  1.00  0.00     0.001 A 
ATOM     74  C   UNL A   1      45.906  34.866  30.792  1.00  0.00     0.000 A 
ENDBRANCH  55  69
BRANCH  56  75
ATOM     75  C   UNL A   1      41.836  23.131  27.527  1.00  0.00    -0.014 A 
ATOM     76  C   UNL A   1      40.954  22.990  26.446  1.00  0.00     0.009 A 
ATOM     77  C   UNL A   1      42.261  21.977  28.208  1.00  0.00     0.009 A 
ATOM     78  C   UNL A   1      40.493  21.726  26.070  1.00  0.00     0.001 A 
ATOM     79  C   UNL A   1      41.828  20.712  27.807  1.00  0.00     0.001 A 
ATOM     80  C   UNL A   1      40.936  20.589  26.744  1.00  0.00     0.000 A 
ENDBRANCH  56  75
BRANCH  68  81
ATOM     81  C   UNL A   1      48.138  26.043  27.981  1.00  0.00    -0.014 A 
ATOM     82  C   UNL A   1      48.901  25.493  29.023  1.00  0.00     0.009 A 
ATOM     83  C   UNL A   1      48.671  26.069  26.683  1.00  0.00     0.009 A 
ATOM     84  C   UNL A   1      50.191  25.020  28.775  1.00  0.00     0.001 A 
ATOM     85  C   UNL A   1      49.946  25.563  26.433  1.00  0.00     0.001 A 
ATOM     86  C   UNL A   1      50.709  25.051  27.481  1.00  0.00     0.000 A 
ENDBRANCH  68  81
ENDBRANCH  42  43
ENDBRANCH  35  37
ENDBRANCH  34  35
ENDBRANCH  33  34
ENDBRANCH  32  33
ENDBRANCH   1  32
TORSDOF 16
ENDMDL
