MODEL 1
REMARK VINA RESULT:     -11.2      0.000      0.000
REMARK SMILES O=C(OCCOC(=O)[C@H]1CCC(=O)N(C2CCCCC2)[C@H]1c1ccccc1)c1ccc(-c2c3nc(c(-c4ccccc4)c4ccc([nH]4)c(-c4ccccc4)c4nc(c(-c5ccccc5)c5ccc2[nH]5)C=C4)C=C3)cc1
REMARK SMILES IDX 4 1 3 2 2 3 1 4 28 5 29 6 75 7 30 8 74 9 31 10 32 11 33 12
REMARK SMILES IDX 68 13 34 14 73 15 67 16 69 17 35 18 72 19 66 20 65 21 36 23
REMARK SMILES IDX 58 24 43 25 57 26 44 27 47 28 56 29 70 30 45 31 46 32 55 34
REMARK SMILES IDX 71 35 48 36 37 37 38 38 42 39 39 40 41 41 40 42 59 43 60 44
REMARK SMILES IDX 64 45 61 46 63 47 62 48 49 49 50 50 54 51 51 52 53 53 52 54
REMARK SMILES IDX 5 55 6 56 7 57 8 58 9 59 10 60 21 61 11 62 14 63 12 64 13 65
REMARK SMILES IDX 22 66 23 67 27 68 24 69 26 70 25 71 15 72 16 73 20 74 17 75
REMARK SMILES IDX 19 76 18 77
REMARK H PARENT 69 22 47 33
REMARK Flexibility Score: inf
ROOT
ATOM      1  C   UNL A   1      31.639  31.984  27.000  1.00  0.00     0.275 C 
ENDROOT
BRANCH   1   2
ATOM      2  O   UNL A   1      32.245  33.281  27.133  1.00  0.00    -0.458 OA
BRANCH   2   3
ATOM      3  C   UNL A   1      32.923  33.838  28.164  1.00  0.00     0.338 C 
ATOM      4  O   UNL A   1      32.505  34.897  28.631  1.00  0.00    -0.246 OA
BRANCH   3   5
ATOM      5  C   UNL A   1      34.223  33.318  28.701  1.00  0.00     0.060 A 
ATOM      6  C   UNL A   1      34.405  32.622  29.903  1.00  0.00     0.016 A 
ATOM      7  C   UNL A   1      35.354  33.517  27.882  1.00  0.00     0.016 A 
ATOM      8  C   UNL A   1      35.638  32.058  30.240  1.00  0.00     0.010 A 
ATOM      9  C   UNL A   1      36.599  32.979  28.223  1.00  0.00     0.010 A 
ATOM     10  C   UNL A   1      36.737  32.231  29.401  1.00  0.00    -0.014 A 
BRANCH  10  11
ATOM     11  C   UNL A   1      38.077  31.853  29.881  1.00  0.00     0.031 A 
ATOM     12  C   UNL A   1      38.599  30.539  29.394  1.00  0.00     0.074 A 
ATOM     13  C   UNL A   1      38.801  32.643  30.692  1.00  0.00     0.049 A 
ATOM     14  N   UNL A   1      39.711  29.927  29.686  1.00  0.00    -0.248 NA
ATOM     15  C   UNL A   1      37.737  29.818  28.439  1.00  0.00     0.031 C 
ATOM     16  C   UNL A   1      38.417  33.976  31.148  1.00  0.00     0.029 A 
ATOM     17  N   UNL A   1      40.015  32.426  31.291  1.00  0.00    -0.354 N 
ATOM     18  C   UNL A   1      39.676  28.746  28.959  1.00  0.00     0.074 A 
ATOM     19  C   UNL A   1      38.419  28.704  28.252  1.00  0.00     0.031 C 
ATOM     20  C   UNL A   1      39.349  34.438  32.002  1.00  0.00     0.029 A 
ATOM     21  C   UNL A   1      40.392  33.430  32.152  1.00  0.00     0.049 A 
ATOM     22  H   UNL A   1      40.565  31.627  31.121  1.00  0.00     0.167 HD
ATOM     23  C   UNL A   1      40.618  27.782  28.882  1.00  0.00     0.031 A 
ATOM     24  C   UNL A   1      41.454  33.505  32.978  1.00  0.00     0.031 A 
ATOM     25  C   UNL A   1      41.837  27.822  29.634  1.00  0.00     0.049 A 
ATOM     26  C   UNL A   1      42.449  32.374  32.960  1.00  0.00     0.074 A 
ATOM     27  C   UNL A   1      42.863  26.900  29.667  1.00  0.00     0.029 A 
ATOM     28  N   UNL A   1      42.175  28.845  30.510  1.00  0.00    -0.354 N 
ATOM     29  N   UNL A   1      42.430  31.275  32.241  1.00  0.00    -0.248 NA
ATOM     30  C   UNL A   1      43.617  32.497  33.842  1.00  0.00     0.031 C 
ATOM     31  C   UNL A   1      43.797  27.339  30.612  1.00  0.00     0.029 A 
ATOM     32  C   UNL A   1      43.384  28.566  31.113  1.00  0.00     0.049 A 
ATOM     33  H   UNL A   1      41.633  29.651  30.676  1.00  0.00     0.167 HD
ATOM     34  C   UNL A   1      43.598  30.593  32.554  1.00  0.00     0.074 A 
ATOM     35  C   UNL A   1      44.302  31.403  33.530  1.00  0.00     0.031 C 
ATOM     36  C   UNL A   1      44.055  29.410  32.073  1.00  0.00     0.031 A 
BRANCH  23  37
ATOM     37  C   UNL A   1      40.286  26.601  28.017  1.00  0.00    -0.014 A 
ATOM     38  C   UNL A   1      39.583  25.496  28.527  1.00  0.00     0.009 A 
ATOM     39  C   UNL A   1      40.783  26.545  26.709  1.00  0.00     0.009 A 
ATOM     40  C   UNL A   1      39.454  24.331  27.769  1.00  0.00     0.001 A 
ATOM     41  C   UNL A   1      40.621  25.392  25.940  1.00  0.00     0.001 A 
ATOM     42  C   UNL A   1      39.975  24.279  26.478  1.00  0.00     0.000 A 
ENDBRANCH  23  37
BRANCH  24  43
ATOM     43  C   UNL A   1      41.617  34.676  33.883  1.00  0.00    -0.014 A 
ATOM     44  C   UNL A   1      41.030  34.696  35.157  1.00  0.00     0.009 A 
ATOM     45  C   UNL A   1      42.382  35.784  33.478  1.00  0.00     0.009 A 
ATOM     46  C   UNL A   1      41.190  35.804  35.997  1.00  0.00     0.001 A 
ATOM     47  C   UNL A   1      42.560  36.880  34.328  1.00  0.00     0.001 A 
ATOM     48  C   UNL A   1      41.958  36.892  35.584  1.00  0.00     0.000 A 
ENDBRANCH  24  43
BRANCH  36  49
ATOM     49  C   UNL A   1      45.397  28.939  32.551  1.00  0.00    -0.014 A 
ATOM     50  C   UNL A   1      45.519  28.078  33.649  1.00  0.00     0.009 A 
ATOM     51  C   UNL A   1      46.541  29.265  31.802  1.00  0.00     0.009 A 
ATOM     52  C   UNL A   1      46.767  27.556  33.995  1.00  0.00     0.001 A 
ATOM     53  C   UNL A   1      47.780  28.719  32.134  1.00  0.00     0.001 A 
ATOM     54  C   UNL A   1      47.892  27.867  33.230  1.00  0.00     0.000 A 
ENDBRANCH  36  49
ENDBRANCH  10  11
ENDBRANCH   3   5
ENDBRANCH   2   3
ENDBRANCH   1   2
BRANCH   1  55
ATOM     55  C   UNL A   1      32.625  30.811  26.937  1.00  0.00     0.274 C 
BRANCH  55  56
ATOM     56  O   UNL A   1      32.015  29.527  27.146  1.00  0.00    -0.462 OA
BRANCH  56  57
ATOM     57  C   UNL A   1      32.883  28.486  27.157  1.00  0.00     0.311 C 
ATOM     58  O   UNL A   1      34.061  28.578  27.503  1.00  0.00    -0.252 OA
BRANCH  57  59
ATOM     59  C   UNL A   1      32.289  27.172  26.714  1.00  0.00     0.127 C 
ATOM     60  C   UNL A   1      30.929  27.142  26.046  1.00  0.00     0.028 C 
ATOM     61  C   UNL A   1      33.243  26.437  25.770  1.00  0.00     0.130 C 
ATOM     62  C   UNL A   1      30.431  25.705  25.999  1.00  0.00     0.101 C 
ATOM     63  N   UNL A   1      32.823  25.021  25.713  1.00  0.00    -0.332 N 
ATOM     64  C   UNL A   1      31.484  24.640  25.708  1.00  0.00     0.223 C 
ATOM     65  O   UNL A   1      31.116  23.476  25.545  1.00  0.00    -0.275 OA
BRANCH  61  66
ATOM     66  C   UNL A   1      33.335  27.096  24.380  1.00  0.00    -0.025 A 
ATOM     67  C   UNL A   1      33.964  28.337  24.168  1.00  0.00     0.006 A 
ATOM     68  C   UNL A   1      32.873  26.402  23.246  1.00  0.00     0.006 A 
ATOM     69  C   UNL A   1      34.152  28.846  22.882  1.00  0.00     0.000 A 
ATOM     70  C   UNL A   1      33.090  26.896  21.957  1.00  0.00     0.000 A 
ATOM     71  C   UNL A   1      33.730  28.118  21.776  1.00  0.00     0.000 A 
ENDBRANCH  61  66
BRANCH  63  72
ATOM     72  C   UNL A   1      33.894  24.020  25.619  1.00  0.00     0.085 C 
ATOM     73  C   UNL A   1      33.921  23.319  24.253  1.00  0.00     0.025 C 
ATOM     74  C   UNL A   1      35.272  24.568  26.007  1.00  0.00     0.025 C 
ATOM     75  C   UNL A   1      34.979  22.219  24.230  1.00  0.00     0.002 C 
ATOM     76  C   UNL A   1      36.315  23.457  25.986  1.00  0.00     0.002 C 
ATOM     77  C   UNL A   1      36.353  22.752  24.633  1.00  0.00     0.000 C 
ENDBRANCH  63  72
ENDBRANCH  57  59
ENDBRANCH  56  57
ENDBRANCH  55  56
ENDBRANCH   1  55
TORSDOF 13
ENDMDL
MODEL 2
REMARK VINA RESULT:     -11.2      3.210      8.440
REMARK SMILES O=C(OCCOC(=O)[C@H]1CCC(=O)N(C2CCCCC2)[C@H]1c1ccccc1)c1ccc(-c2c3nc(c(-c4ccccc4)c4ccc([nH]4)c(-c4ccccc4)c4nc(c(-c5ccccc5)c5ccc2[nH]5)C=C4)C=C3)cc1
REMARK SMILES IDX 4 1 3 2 2 3 1 4 28 5 29 6 75 7 30 8 74 9 31 10 32 11 33 12
REMARK SMILES IDX 68 13 34 14 73 15 67 16 69 17 35 18 72 19 66 20 65 21 36 23
REMARK SMILES IDX 58 24 43 25 57 26 44 27 47 28 56 29 70 30 45 31 46 32 55 34
REMARK SMILES IDX 71 35 48 36 37 37 38 38 42 39 39 40 41 41 40 42 59 43 60 44
REMARK SMILES IDX 64 45 61 46 63 47 62 48 49 49 50 50 54 51 51 52 53 53 52 54
REMARK SMILES IDX 5 55 6 56 7 57 8 58 9 59 10 60 21 61 11 62 14 63 12 64 13 65
REMARK SMILES IDX 22 66 23 67 27 68 24 69 26 70 25 71 15 72 16 73 20 74 17 75
REMARK SMILES IDX 19 76 18 77
REMARK H PARENT 69 22 47 33
REMARK Flexibility Score: inf
ROOT
ATOM      1  C   UNL A   1      38.434  19.878  24.897  1.00  0.00     0.275 C 
ENDROOT
BRANCH   1   2
ATOM      2  O   UNL A   1      39.460  19.348  25.756  1.00  0.00    -0.458 OA
BRANCH   2   3
ATOM      3  C   UNL A   1      40.759  19.699  25.900  1.00  0.00     0.338 C 
ATOM      4  O   UNL A   1      41.619  18.844  25.694  1.00  0.00    -0.246 OA
BRANCH   3   5
ATOM      5  C   UNL A   1      41.224  21.029  26.414  1.00  0.00     0.060 A 
ATOM      6  C   UNL A   1      41.850  22.034  25.668  1.00  0.00     0.016 A 
ATOM      7  C   UNL A   1      40.954  21.295  27.773  1.00  0.00     0.016 A 
ATOM      8  C   UNL A   1      42.115  23.293  26.215  1.00  0.00     0.010 A 
ATOM      9  C   UNL A   1      41.239  22.542  28.338  1.00  0.00     0.010 A 
ATOM     10  C   UNL A   1      41.807  23.553  27.548  1.00  0.00    -0.014 A 
BRANCH  10  11
ATOM     11  C   UNL A   1      42.313  24.783  28.179  1.00  0.00     0.031 A 
ATOM     12  C   UNL A   1      41.314  25.879  28.370  1.00  0.00     0.074 A 
ATOM     13  C   UNL A   1      43.591  24.915  28.577  1.00  0.00     0.049 A 
ATOM     14  N   UNL A   1      41.479  27.081  28.845  1.00  0.00    -0.248 NA
ATOM     15  C   UNL A   1      39.931  25.564  27.969  1.00  0.00     0.031 C 
ATOM     16  C   UNL A   1      44.615  23.877  28.514  1.00  0.00     0.029 A 
ATOM     17  N   UNL A   1      44.248  25.996  29.105  1.00  0.00    -0.354 N 
ATOM     18  C   UNL A   1      40.224  27.668  28.788  1.00  0.00     0.074 A 
ATOM     19  C   UNL A   1      39.320  26.712  28.193  1.00  0.00     0.031 C 
ATOM     20  C   UNL A   1      45.788  24.385  28.931  1.00  0.00     0.029 A 
ATOM     21  C   UNL A   1      45.595  25.786  29.288  1.00  0.00     0.049 A 
ATOM     22  H   UNL A   1      43.799  26.843  29.332  1.00  0.00     0.167 HD
ATOM     23  C   UNL A   1      39.854  28.897  29.205  1.00  0.00     0.031 A 
ATOM     24  C   UNL A   1      46.558  26.644  29.681  1.00  0.00     0.031 A 
ATOM     25  C   UNL A   1      40.781  29.847  29.746  1.00  0.00     0.049 A 
ATOM     26  C   UNL A   1      46.150  28.047  30.048  1.00  0.00     0.074 A 
ATOM     27  C   UNL A   1      40.544  31.134  30.183  1.00  0.00     0.029 A 
ATOM     28  N   UNL A   1      42.140  29.605  29.898  1.00  0.00    -0.354 N 
ATOM     29  N   UNL A   1      44.953  28.587  30.028  1.00  0.00    -0.248 NA
ATOM     30  C   UNL A   1      47.211  28.952  30.509  1.00  0.00     0.031 C 
ATOM     31  C   UNL A   1      41.774  31.692  30.545  1.00  0.00     0.029 A 
ATOM     32  C   UNL A   1      42.764  30.730  30.398  1.00  0.00     0.049 A 
ATOM     33  H   UNL A   1      42.592  28.757  29.682  1.00  0.00     0.167 HD
ATOM     34  C   UNL A   1      45.109  29.880  30.508  1.00  0.00     0.074 A 
ATOM     35  C   UNL A   1      46.518  30.043  30.810  1.00  0.00     0.031 C 
ATOM     36  C   UNL A   1      44.172  30.843  30.695  1.00  0.00     0.031 A 
BRANCH  23  37
ATOM     37  C   UNL A   1      38.414  29.261  28.996  1.00  0.00    -0.014 A 
ATOM     38  C   UNL A   1      37.959  29.768  27.765  1.00  0.00     0.009 A 
ATOM     39  C   UNL A   1      37.526  29.205  30.078  1.00  0.00     0.009 A 
ATOM     40  C   UNL A   1      36.666  30.282  27.648  1.00  0.00     0.001 A 
ATOM     41  C   UNL A   1      36.223  29.687  29.947  1.00  0.00     0.001 A 
ATOM     42  C   UNL A   1      35.800  30.243  28.740  1.00  0.00     0.000 A 
ENDBRANCH  23  37
BRANCH  24  43
ATOM     43  C   UNL A   1      47.978  26.202  29.737  1.00  0.00    -0.014 A 
ATOM     44  C   UNL A   1      48.787  26.212  28.590  1.00  0.00     0.009 A 
ATOM     45  C   UNL A   1      48.541  25.777  30.953  1.00  0.00     0.009 A 
ATOM     46  C   UNL A   1      50.120  25.792  28.657  1.00  0.00     0.001 A 
ATOM     47  C   UNL A   1      49.880  25.380  31.021  1.00  0.00     0.001 A 
ATOM     48  C   UNL A   1      50.666  25.382  29.871  1.00  0.00     0.000 A 
ENDBRANCH  24  43
BRANCH  36  49
ATOM     49  C   UNL A   1      44.623  32.143  31.294  1.00  0.00    -0.014 A 
ATOM     50  C   UNL A   1      44.704  32.318  32.682  1.00  0.00     0.009 A 
ATOM     51  C   UNL A   1      45.094  33.158  30.444  1.00  0.00     0.009 A 
ATOM     52  C   UNL A   1      45.244  33.492  33.209  1.00  0.00     0.001 A 
ATOM     53  C   UNL A   1      45.659  34.316  30.975  1.00  0.00     0.001 A 
ATOM     54  C   UNL A   1      45.732  34.483  32.357  1.00  0.00     0.000 A 
ENDBRANCH  36  49
ENDBRANCH  10  11
ENDBRANCH   3   5
ENDBRANCH   2   3
ENDBRANCH   1   2
BRANCH   1  55
ATOM     55  C   UNL A   1      37.944  21.284  25.265  1.00  0.00     0.274 C 
BRANCH  55  56
ATOM     56  O   UNL A   1      37.083  21.875  24.277  1.00  0.00    -0.462 OA
BRANCH  56  57
ATOM     57  C   UNL A   1      36.781  23.177  24.501  1.00  0.00     0.311 C 
ATOM     58  O   UNL A   1      37.472  23.935  25.183  1.00  0.00    -0.252 OA
BRANCH  57  59
ATOM     59  C   UNL A   1      35.515  23.649  23.831  1.00  0.00     0.127 C 
ATOM     60  C   UNL A   1      34.591  22.648  23.166  1.00  0.00     0.028 C 
ATOM     61  C   UNL A   1      34.648  24.444  24.809  1.00  0.00     0.130 C 
ATOM     62  C   UNL A   1      33.584  23.399  22.306  1.00  0.00     0.101 C 
ATOM     63  N   UNL A   1      33.669  25.221  24.021  1.00  0.00    -0.332 N 
ATOM     64  C   UNL A   1      33.057  24.709  22.880  1.00  0.00     0.223 C 
ATOM     65  O   UNL A   1      32.156  25.297  22.278  1.00  0.00    -0.275 OA
BRANCH  61  66
ATOM     66  C   UNL A   1      33.990  23.556  25.883  1.00  0.00    -0.025 A 
ATOM     67  C   UNL A   1      34.732  22.889  26.876  1.00  0.00     0.006 A 
ATOM     68  C   UNL A   1      32.587  23.476  25.960  1.00  0.00     0.006 A 
ATOM     69  C   UNL A   1      34.102  22.201  27.915  1.00  0.00     0.000 A 
ATOM     70  C   UNL A   1      31.957  22.817  27.018  1.00  0.00     0.000 A 
ATOM     71  C   UNL A   1      32.715  22.179  27.995  1.00  0.00     0.000 A 
ENDBRANCH  61  66
BRANCH  63  72
ATOM     72  C   UNL A   1      33.334  26.560  24.522  1.00  0.00     0.085 C 
ATOM     73  C   UNL A   1      33.804  26.777  25.969  1.00  0.00     0.025 C 
ATOM     74  C   UNL A   1      33.800  27.689  23.595  1.00  0.00     0.025 C 
ATOM     75  C   UNL A   1      33.351  28.140  26.486  1.00  0.00     0.002 C 
ATOM     76  C   UNL A   1      33.333  29.041  24.122  1.00  0.00     0.002 C 
ATOM     77  C   UNL A   1      33.794  29.270  25.559  1.00  0.00     0.000 C 
ENDBRANCH  63  72
ENDBRANCH  57  59
ENDBRANCH  56  57
ENDBRANCH  55  56
ENDBRANCH   1  55
TORSDOF 13
ENDMDL
MODEL 3
REMARK VINA RESULT:     -11.1      0.552      5.978
REMARK SMILES O=C(OCCOC(=O)[C@H]1CCC(=O)N(C2CCCCC2)[C@H]1c1ccccc1)c1ccc(-c2c3nc(c(-c4ccccc4)c4ccc([nH]4)c(-c4ccccc4)c4nc(c(-c5ccccc5)c5ccc2[nH]5)C=C4)C=C3)cc1
REMARK SMILES IDX 4 1 3 2 2 3 1 4 28 5 29 6 75 7 30 8 74 9 31 10 32 11 33 12
REMARK SMILES IDX 68 13 34 14 73 15 67 16 69 17 35 18 72 19 66 20 65 21 36 23
REMARK SMILES IDX 58 24 43 25 57 26 44 27 47 28 56 29 70 30 45 31 46 32 55 34
REMARK SMILES IDX 71 35 48 36 37 37 38 38 42 39 39 40 41 41 40 42 59 43 60 44
REMARK SMILES IDX 64 45 61 46 63 47 62 48 49 49 50 50 54 51 51 52 53 53 52 54
REMARK SMILES IDX 5 55 6 56 7 57 8 58 9 59 10 60 21 61 11 62 14 63 12 64 13 65
REMARK SMILES IDX 22 66 23 67 27 68 24 69 26 70 25 71 15 72 16 73 20 74 17 75
REMARK SMILES IDX 19 76 18 77
REMARK H PARENT 69 22 47 33
REMARK Flexibility Score: inf
ROOT
ATOM      1  C   UNL A   1      31.493  31.967  26.958  1.00  0.00     0.275 C 
ENDROOT
BRANCH   1   2
ATOM      2  O   UNL A   1      32.152  33.245  26.992  1.00  0.00    -0.458 OA
BRANCH   2   3
ATOM      3  C   UNL A   1      32.906  33.825  27.956  1.00  0.00     0.338 C 
ATOM      4  O   UNL A   1      32.550  34.918  28.395  1.00  0.00    -0.246 OA
BRANCH   3   5
ATOM      5  C   UNL A   1      34.217  33.284  28.443  1.00  0.00     0.060 A 
ATOM      6  C   UNL A   1      35.479  33.555  27.899  1.00  0.00     0.016 A 
ATOM      7  C   UNL A   1      34.161  32.462  29.588  1.00  0.00     0.016 A 
ATOM      8  C   UNL A   1      36.651  33.111  28.518  1.00  0.00     0.010 A 
ATOM      9  C   UNL A   1      35.327  31.991  30.200  1.00  0.00     0.010 A 
ATOM     10  C   UNL A   1      36.580  32.332  29.670  1.00  0.00    -0.014 A 
BRANCH  10  11
ATOM     11  C   UNL A   1      37.795  31.666  30.167  1.00  0.00     0.031 A 
ATOM     12  C   UNL A   1      38.527  32.372  31.263  1.00  0.00     0.074 A 
ATOM     13  C   UNL A   1      38.219  30.485  29.683  1.00  0.00     0.049 A 
ATOM     14  N   UNL A   1      39.643  32.056  31.856  1.00  0.00    -0.248 NA
ATOM     15  C   UNL A   1      37.901  33.612  31.758  1.00  0.00     0.031 C 
ATOM     16  C   UNL A   1      37.529  29.679  28.680  1.00  0.00     0.029 A 
ATOM     17  N   UNL A   1      39.350  29.764  29.966  1.00  0.00    -0.354 N 
ATOM     18  C   UNL A   1      39.857  33.063  32.785  1.00  0.00     0.074 A 
ATOM     19  C   UNL A   1      38.786  34.022  32.647  1.00  0.00     0.031 C 
ATOM     20  C   UNL A   1      38.278  28.600  28.387  1.00  0.00     0.029 A 
ATOM     21  C   UNL A   1      39.500  28.644  29.181  1.00  0.00     0.049 A 
ATOM     22  H   UNL A   1      39.994  30.023  30.664  1.00  0.00     0.167 HD
ATOM     23  C   UNL A   1      40.859  33.175  33.684  1.00  0.00     0.031 A 
ATOM     24  C   UNL A   1      40.524  27.772  29.109  1.00  0.00     0.031 A 
ATOM     25  C   UNL A   1      41.939  32.237  33.766  1.00  0.00     0.049 A 
ATOM     26  C   UNL A   1      41.687  27.964  30.047  1.00  0.00     0.074 A 
ATOM     27  C   UNL A   1      43.028  32.246  34.612  1.00  0.00     0.029 A 
ATOM     28  N   UNL A   1      42.066  31.126  32.943  1.00  0.00    -0.354 N 
ATOM     29  N   UNL A   1      41.868  28.898  30.951  1.00  0.00    -0.248 NA
ATOM     30  C   UNL A   1      42.774  26.978  29.975  1.00  0.00     0.031 C 
ATOM     31  C   UNL A   1      43.848  31.169  34.259  1.00  0.00     0.029 A 
ATOM     32  C   UNL A   1      43.234  30.453  33.240  1.00  0.00     0.049 A 
ATOM     33  H   UNL A   1      41.420  30.858  32.250  1.00  0.00     0.167 HD
ATOM     34  C   UNL A   1      43.067  28.595  31.582  1.00  0.00     0.074 A 
ATOM     35  C   UNL A   1      43.571  27.389  30.954  1.00  0.00     0.031 C 
ATOM     36  C   UNL A   1      43.691  29.246  32.595  1.00  0.00     0.031 A 
BRANCH  23  37
ATOM     37  C   UNL A   1      40.832  34.397  34.554  1.00  0.00    -0.014 A 
ATOM     38  C   UNL A   1      41.592  35.537  34.238  1.00  0.00     0.009 A 
ATOM     39  C   UNL A   1      40.129  34.363  35.765  1.00  0.00     0.009 A 
ATOM     40  C   UNL A   1      41.708  36.584  35.154  1.00  0.00     0.001 A 
ATOM     41  C   UNL A   1      40.218  35.428  36.663  1.00  0.00     0.001 A 
ATOM     42  C   UNL A   1      41.023  36.527  36.367  1.00  0.00     0.000 A 
ENDBRANCH  23  37
BRANCH  24  43
ATOM     43  C   UNL A   1      40.494  26.661  28.118  1.00  0.00    -0.014 A 
ATOM     44  C   UNL A   1      39.883  25.435  28.421  1.00  0.00     0.009 A 
ATOM     45  C   UNL A   1      41.068  26.829  26.846  1.00  0.00     0.009 A 
ATOM     46  C   UNL A   1      39.863  24.398  27.481  1.00  0.00     0.001 A 
ATOM     47  C   UNL A   1      41.026  25.800  25.900  1.00  0.00     0.001 A 
ATOM     48  C   UNL A   1      40.429  24.583  26.222  1.00  0.00     0.000 A 
ENDBRANCH  24  43
BRANCH  36  49
ATOM     49  C   UNL A   1      44.961  28.648  33.125  1.00  0.00    -0.014 A 
ATOM     50  C   UNL A   1      44.943  27.608  34.064  1.00  0.00     0.009 A 
ATOM     51  C   UNL A   1      46.188  29.054  32.572  1.00  0.00     0.009 A 
ATOM     52  C   UNL A   1      46.134  26.988  34.445  1.00  0.00     0.001 A 
ATOM     53  C   UNL A   1      47.371  28.412  32.935  1.00  0.00     0.001 A 
ATOM     54  C   UNL A   1      47.343  27.381  33.872  1.00  0.00     0.000 A 
ENDBRANCH  36  49
ENDBRANCH  10  11
ENDBRANCH   3   5
ENDBRANCH   2   3
ENDBRANCH   1   2
BRANCH   1  55
ATOM     55  C   UNL A   1      32.401  30.778  26.621  1.00  0.00     0.274 C 
BRANCH  55  56
ATOM     56  O   UNL A   1      31.983  29.541  27.221  1.00  0.00    -0.462 OA
BRANCH  56  57
ATOM     57  C   UNL A   1      32.901  28.545  27.154  1.00  0.00     0.311 C 
ATOM     58  O   UNL A   1      34.094  28.692  27.422  1.00  0.00    -0.252 OA
BRANCH  57  59
ATOM     59  C   UNL A   1      32.344  27.210  26.728  1.00  0.00     0.127 C 
ATOM     60  C   UNL A   1      30.991  27.134  26.050  1.00  0.00     0.028 C 
ATOM     61  C   UNL A   1      33.324  26.484  25.804  1.00  0.00     0.130 C 
ATOM     62  C   UNL A   1      30.530  25.684  26.023  1.00  0.00     0.101 C 
ATOM     63  N   UNL A   1      32.941  25.057  25.767  1.00  0.00    -0.332 N 
ATOM     64  C   UNL A   1      31.612  24.642  25.758  1.00  0.00     0.223 C 
ATOM     65  O   UNL A   1      31.275  23.466  25.611  1.00  0.00    -0.275 OA
BRANCH  61  66
ATOM     66  C   UNL A   1      33.411  27.123  24.404  1.00  0.00    -0.025 A 
ATOM     67  C   UNL A   1      33.965  28.397  24.184  1.00  0.00     0.006 A 
ATOM     68  C   UNL A   1      33.025  26.380  23.273  1.00  0.00     0.006 A 
ATOM     69  C   UNL A   1      34.154  28.895  22.894  1.00  0.00     0.000 A 
ATOM     70  C   UNL A   1      33.245  26.863  21.981  1.00  0.00     0.000 A 
ATOM     71  C   UNL A   1      33.809  28.121  21.791  1.00  0.00     0.000 A 
ENDBRANCH  61  66
BRANCH  63  72
ATOM     72  C   UNL A   1      34.038  24.083  25.698  1.00  0.00     0.085 C 
ATOM     73  C   UNL A   1      33.973  23.218  24.430  1.00  0.00     0.025 C 
ATOM     74  C   UNL A   1      35.422  24.712  25.890  1.00  0.00     0.025 C 
ATOM     75  C   UNL A   1      35.067  22.154  24.444  1.00  0.00     0.002 C 
ATOM     76  C   UNL A   1      36.501  23.637  25.908  1.00  0.00     0.002 C 
ATOM     77  C   UNL A   1      36.449  22.771  24.654  1.00  0.00     0.000 C 
ENDBRANCH  63  72
ENDBRANCH  57  59
ENDBRANCH  56  57
ENDBRANCH  55  56
ENDBRANCH   1  55
TORSDOF 13
ENDMDL
