MODEL 1
REMARK VINA RESULT:      -9.9      0.000      0.000
REMARK SMILES CCOc1ncnc(N[C@@H]2C=C[C@H](C(=O)OCCOC(=O)c3ccc(-c4c5nc(c(-c6ccccc6)c6ccc([nH]6)c(-c6ccccc6)c6nc(c(-c7ccccc7)c7ccc4[nH]7)C=C6)C=C5)cc3)C2)c1C
REMARK SMILES IDX 17 1 16 2 14 3 15 4 13 5 10 6 11 7 70 8 12 9 9 10 8 12 4 13
REMARK SMILES IDX 5 14 71 15 6 16 72 17 7 18 3 19 2 20 1 21 18 22 19 23 20 24
REMARK SMILES IDX 21 25 22 26 23 27 69 28 24 29 68 30 25 31 26 32 27 33 62 34
REMARK SMILES IDX 28 35 67 36 61 37 63 38 29 39 66 40 60 41 59 42 30 44 52 45
REMARK SMILES IDX 37 46 51 47 38 48 41 49 50 50 64 51 39 52 40 53 49 55 65 56
REMARK SMILES IDX 42 57 31 58 32 59 36 60 33 61 35 62 34 63 53 64 54 65 58 66
REMARK SMILES IDX 55 67 57 68 56 69 43 70 44 71 48 72 45 73 47 74 46 75
REMARK H PARENT 9 11 63 43 41 54
REMARK Flexibility Score: inf
ROOT
ATOM      1  C   UNL A   1      32.521  25.924  22.096  1.00  0.00     0.274 C 
ENDROOT
BRANCH   1   2
ATOM      2  O   UNL A   1      33.182  25.153  23.129  1.00  0.00    -0.462 OA
BRANCH   2   3
ATOM      3  C   UNL A   1      33.398  23.863  22.759  1.00  0.00     0.312 C 
ATOM      4  O   UNL A   1      34.501  23.433  22.522  1.00  0.00    -0.252 OA
BRANCH   3   5
ATOM      5  C   UNL A   1      32.145  22.996  22.712  1.00  0.00     0.124 C 
ATOM      6  C   UNL A   1      32.122  21.867  24.897  1.00  0.00     0.104 C 
ATOM      7  C   UNL A   1      32.374  20.907  23.797  1.00  0.00    -0.006 C 
ATOM      8  C   UNL A   1      31.510  23.047  24.115  1.00  0.00     0.048 C 
ATOM      9  C   UNL A   1      32.393  21.515  22.599  1.00  0.00    -0.014 C 
BRANCH   6  10
ATOM     10  N   UNL A   1      33.289  22.132  25.738  1.00  0.00    -0.363 N 
ATOM     11  H   UNL A   1      33.065  22.605  26.572  1.00  0.00     0.162 HD
BRANCH  10  12
ATOM     12  C   UNL A   1      34.654  21.859  25.614  1.00  0.00     0.136 A 
ATOM     13  C   UNL A   1      36.943  22.636  25.481  1.00  0.00     0.221 A 
ATOM     14  N   UNL A   1      37.376  21.431  25.121  1.00  0.00    -0.201 NA
ATOM     15  C   UNL A   1      35.600  22.894  25.731  1.00  0.00     0.054 A 
ATOM     16  C   UNL A   1      36.412  20.495  25.056  1.00  0.00     0.228 A 
ATOM     17  C   UNL A   1      35.240  24.260  26.128  1.00  0.00     0.054 C 
ATOM     18  N   UNL A   1      35.090  20.636  25.299  1.00  0.00    -0.219 NA
BRANCH  13  19
ATOM     19  O   UNL A   1      37.868  23.669  25.392  1.00  0.00    -0.478 OA
BRANCH  19  20
ATOM     20  C   UNL A   1      38.951  23.591  26.333  1.00  0.00     0.228 C 
ATOM     21  C   UNL A   1      38.828  24.649  27.441  1.00  0.00     0.049 C 
ENDBRANCH  19  20
ENDBRANCH  13  19
ENDBRANCH  10  12
ENDBRANCH   6  10
ENDBRANCH   3   5
ENDBRANCH   2   3
ENDBRANCH   1   2
BRANCH   1  22
ATOM     22  C   UNL A   1      31.201  26.654  22.474  1.00  0.00     0.275 C 
BRANCH  22  23
ATOM     23  O   UNL A   1      31.334  27.766  23.407  1.00  0.00    -0.458 OA
BRANCH  23  24
ATOM     24  C   UNL A   1      31.251  27.458  24.733  1.00  0.00     0.338 C 
ATOM     25  O   UNL A   1      30.594  26.539  25.206  1.00  0.00    -0.246 OA
BRANCH  24  26
ATOM     26  C   UNL A   1      32.196  28.239  25.594  1.00  0.00     0.060 A 
ATOM     27  C   UNL A   1      33.400  28.661  25.007  1.00  0.00     0.016 A 
ATOM     28  C   UNL A   1      32.007  28.495  26.947  1.00  0.00     0.016 A 
ATOM     29  C   UNL A   1      34.352  29.443  25.691  1.00  0.00     0.010 A 
ATOM     30  C   UNL A   1      32.999  29.211  27.663  1.00  0.00     0.010 A 
ATOM     31  C   UNL A   1      34.162  29.749  27.036  1.00  0.00    -0.014 A 
BRANCH  31  32
ATOM     32  C   UNL A   1      35.162  30.523  27.859  1.00  0.00     0.031 A 
ATOM     33  C   UNL A   1      36.455  29.835  28.149  1.00  0.00     0.074 A 
ATOM     34  C   UNL A   1      35.021  31.770  28.379  1.00  0.00     0.049 A 
ATOM     35  N   UNL A   1      37.421  30.205  28.946  1.00  0.00    -0.248 NA
ATOM     36  C   UNL A   1      36.729  28.618  27.369  1.00  0.00     0.031 C 
ATOM     37  C   UNL A   1      34.060  32.799  28.009  1.00  0.00     0.029 A 
ATOM     38  N   UNL A   1      35.646  32.343  29.474  1.00  0.00    -0.354 N 
ATOM     39  C   UNL A   1      38.459  29.334  28.679  1.00  0.00     0.074 A 
ATOM     40  C   UNL A   1      37.959  28.334  27.760  1.00  0.00     0.031 C 
ATOM     41  C   UNL A   1      33.923  33.687  29.012  1.00  0.00     0.029 A 
ATOM     42  C   UNL A   1      34.919  33.383  30.026  1.00  0.00     0.049 A 
ATOM     43  H   UNL A   1      36.516  32.042  29.822  1.00  0.00     0.167 HD
ATOM     44  C   UNL A   1      39.741  29.415  29.096  1.00  0.00     0.031 A 
ATOM     45  C   UNL A   1      35.042  34.027  31.204  1.00  0.00     0.031 A 
ATOM     46  C   UNL A   1      40.222  30.366  30.056  1.00  0.00     0.049 A 
ATOM     47  C   UNL A   1      36.332  33.861  31.951  1.00  0.00     0.074 A 
ATOM     48  C   UNL A   1      41.500  30.512  30.563  1.00  0.00     0.029 A 
ATOM     49  N   UNL A   1      39.427  31.311  30.690  1.00  0.00    -0.354 N 
ATOM     50  N   UNL A   1      37.339  33.078  31.660  1.00  0.00    -0.248 NA
ATOM     51  C   UNL A   1      36.567  34.755  33.093  1.00  0.00     0.031 C 
ATOM     52  C   UNL A   1      41.459  31.494  31.561  1.00  0.00     0.029 A 
ATOM     53  C   UNL A   1      40.172  32.003  31.630  1.00  0.00     0.049 A 
ATOM     54  H   UNL A   1      38.474  31.467  30.498  1.00  0.00     0.167 HD
ATOM     55  C   UNL A   1      38.371  33.467  32.498  1.00  0.00     0.074 A 
ATOM     56  C   UNL A   1      37.846  34.513  33.353  1.00  0.00     0.031 C 
ATOM     57  C   UNL A   1      39.654  33.033  32.497  1.00  0.00     0.031 A 
BRANCH  44  58
ATOM     58  C   UNL A   1      40.670  28.405  28.496  1.00  0.00    -0.014 A 
ATOM     59  C   UNL A   1      40.944  27.199  29.166  1.00  0.00     0.009 A 
ATOM     60  C   UNL A   1      41.363  28.712  27.320  1.00  0.00     0.009 A 
ATOM     61  C   UNL A   1      41.949  26.351  28.702  1.00  0.00     0.001 A 
ATOM     62  C   UNL A   1      42.348  27.847  26.844  1.00  0.00     0.001 A 
ATOM     63  C   UNL A   1      42.654  26.679  27.545  1.00  0.00     0.000 A 
ENDBRANCH  44  58
BRANCH  45  64
ATOM     64  C   UNL A   1      33.990  34.951  31.715  1.00  0.00    -0.014 A 
ATOM     65  C   UNL A   1      32.928  34.489  32.505  1.00  0.00     0.009 A 
ATOM     66  C   UNL A   1      34.007  36.306  31.338  1.00  0.00     0.009 A 
ATOM     67  C   UNL A   1      31.893  35.352  32.883  1.00  0.00     0.001 A 
ATOM     68  C   UNL A   1      32.976  37.169  31.726  1.00  0.00     0.001 A 
ATOM     69  C   UNL A   1      31.915  36.690  32.493  1.00  0.00     0.000 A 
ENDBRANCH  45  64
BRANCH  57  70
ATOM     70  C   UNL A   1      40.614  33.724  33.420  1.00  0.00    -0.014 A 
ATOM     71  C   UNL A   1      41.312  34.874  33.029  1.00  0.00     0.009 A 
ATOM     72  C   UNL A   1      40.780  33.235  34.727  1.00  0.00     0.009 A 
ATOM     73  C   UNL A   1      42.175  35.512  33.923  1.00  0.00     0.001 A 
ATOM     74  C   UNL A   1      41.617  33.893  35.629  1.00  0.00     0.001 A 
ATOM     75  C   UNL A   1      42.318  35.027  35.223  1.00  0.00     0.000 A 
ENDBRANCH  57  70
ENDBRANCH  31  32
ENDBRANCH  24  26
ENDBRANCH  23  24
ENDBRANCH  22  23
ENDBRANCH   1  22
TORSDOF 15
ENDMDL
MODEL 2
REMARK VINA RESULT:      -9.8      1.401      2.523
REMARK SMILES CCOc1ncnc(N[C@@H]2C=C[C@H](C(=O)OCCOC(=O)c3ccc(-c4c5nc(c(-c6ccccc6)c6ccc([nH]6)c(-c6ccccc6)c6nc(c(-c7ccccc7)c7ccc4[nH]7)C=C6)C=C5)cc3)C2)c1C
REMARK SMILES IDX 17 1 16 2 14 3 15 4 13 5 10 6 11 7 70 8 12 9 9 10 8 12 4 13
REMARK SMILES IDX 5 14 71 15 6 16 72 17 7 18 3 19 2 20 1 21 18 22 19 23 20 24
REMARK SMILES IDX 21 25 22 26 23 27 69 28 24 29 68 30 25 31 26 32 27 33 62 34
REMARK SMILES IDX 28 35 67 36 61 37 63 38 29 39 66 40 60 41 59 42 30 44 52 45
REMARK SMILES IDX 37 46 51 47 38 48 41 49 50 50 64 51 39 52 40 53 49 55 65 56
REMARK SMILES IDX 42 57 31 58 32 59 36 60 33 61 35 62 34 63 53 64 54 65 58 66
REMARK SMILES IDX 55 67 57 68 56 69 43 70 44 71 48 72 45 73 47 74 46 75
REMARK H PARENT 9 11 63 43 41 54
REMARK Flexibility Score: inf
ROOT
ATOM      1  C   UNL A   1      31.232  25.296  22.859  1.00  0.00     0.274 C 
ENDROOT
BRANCH   1   2
ATOM      2  O   UNL A   1      31.968  24.468  23.792  1.00  0.00    -0.462 OA
BRANCH   2   3
ATOM      3  C   UNL A   1      32.932  23.727  23.184  1.00  0.00     0.312 C 
ATOM      4  O   UNL A   1      32.691  22.686  22.621  1.00  0.00    -0.252 OA
BRANCH   3   5
ATOM      5  C   UNL A   1      34.329  24.336  23.233  1.00  0.00     0.124 C 
ATOM      6  C   UNL A   1      35.452  23.098  25.038  1.00  0.00     0.104 C 
ATOM      7  C   UNL A   1      35.229  24.514  25.413  1.00  0.00    -0.006 C 
ATOM      8  C   UNL A   1      35.313  23.182  23.504  1.00  0.00     0.048 C 
ATOM      9  C   UNL A   1      34.611  25.198  24.435  1.00  0.00    -0.014 C 
BRANCH   6  10
ATOM     10  N   UNL A   1      34.601  22.148  25.754  1.00  0.00    -0.363 N 
ATOM     11  H   UNL A   1      34.436  22.405  26.689  1.00  0.00     0.162 HD
BRANCH  10  12
ATOM     12  C   UNL A   1      33.970  20.953  25.395  1.00  0.00     0.136 A 
ATOM     13  C   UNL A   1      34.089  18.711  24.491  1.00  0.00     0.221 A 
ATOM     14  N   UNL A   1      32.763  18.623  24.419  1.00  0.00    -0.201 NA
ATOM     15  C   UNL A   1      34.729  19.849  24.965  1.00  0.00     0.054 A 
ATOM     16  C   UNL A   1      32.114  19.711  24.872  1.00  0.00     0.228 A 
ATOM     17  C   UNL A   1      36.196  19.829  25.005  1.00  0.00     0.054 C 
ATOM     18  N   UNL A   1      32.638  20.853  25.369  1.00  0.00    -0.219 NA
BRANCH  13  19
ATOM     19  O   UNL A   1      34.802  17.689  23.876  1.00  0.00    -0.478 OA
BRANCH  19  20
ATOM     20  C   UNL A   1      34.422  16.362  24.277  1.00  0.00     0.228 C 
ATOM     21  C   UNL A   1      35.390  15.776  25.317  1.00  0.00     0.049 C 
ENDBRANCH  19  20
ENDBRANCH  13  19
ENDBRANCH  10  12
ENDBRANCH   6  10
ENDBRANCH   3   5
ENDBRANCH   2   3
ENDBRANCH   1   2
BRANCH   1  22
ATOM     22  C   UNL A   1      31.642  26.791  22.741  1.00  0.00     0.275 C 
BRANCH  22  23
ATOM     23  O   UNL A   1      30.872  27.727  23.552  1.00  0.00    -0.458 OA
BRANCH  23  24
ATOM     24  C   UNL A   1      30.814  27.465  24.889  1.00  0.00     0.338 C 
ATOM     25  O   UNL A   1      30.130  26.594  25.411  1.00  0.00    -0.246 OA
BRANCH  24  26
ATOM     26  C   UNL A   1      31.821  28.227  25.696  1.00  0.00     0.060 A 
ATOM     27  C   UNL A   1      32.751  29.008  24.991  1.00  0.00     0.016 A 
ATOM     28  C   UNL A   1      31.955  28.144  27.078  1.00  0.00     0.016 A 
ATOM     29  C   UNL A   1      33.717  29.810  25.631  1.00  0.00     0.010 A 
ATOM     30  C   UNL A   1      32.978  28.884  27.721  1.00  0.00     0.010 A 
ATOM     31  C   UNL A   1      33.840  29.777  27.018  1.00  0.00    -0.014 A 
BRANCH  31  32
ATOM     32  C   UNL A   1      34.889  30.551  27.775  1.00  0.00     0.031 A 
ATOM     33  C   UNL A   1      36.199  29.864  27.983  1.00  0.00     0.074 A 
ATOM     34  C   UNL A   1      34.781  31.799  28.302  1.00  0.00     0.049 A 
ATOM     35  N   UNL A   1      37.213  30.235  28.717  1.00  0.00    -0.248 NA
ATOM     36  C   UNL A   1      36.423  28.647  27.189  1.00  0.00     0.031 C 
ATOM     37  C   UNL A   1      33.799  32.828  27.992  1.00  0.00     0.029 A 
ATOM     38  N   UNL A   1      35.474  32.373  29.355  1.00  0.00    -0.354 N 
ATOM     39  C   UNL A   1      38.233  29.365  28.387  1.00  0.00     0.074 A 
ATOM     40  C   UNL A   1      37.676  28.364  27.502  1.00  0.00     0.031 C 
ATOM     41  C   UNL A   1      33.725  33.716  29.001  1.00  0.00     0.029 A 
ATOM     42  C   UNL A   1      34.783  33.413  29.950  1.00  0.00     0.049 A 
ATOM     43  H   UNL A   1      36.365  32.073  29.648  1.00  0.00     0.167 HD
ATOM     44  C   UNL A   1      39.539  29.446  28.722  1.00  0.00     0.031 A 
ATOM     45  C   UNL A   1      34.980  34.059  31.118  1.00  0.00     0.031 A 
ATOM     46  C   UNL A   1      40.079  30.398  29.649  1.00  0.00     0.049 A 
ATOM     47  C   UNL A   1      36.314  33.894  31.782  1.00  0.00     0.074 A 
ATOM     48  C   UNL A   1      41.385  30.545  30.075  1.00  0.00     0.029 A 
ATOM     49  N   UNL A   1      39.325  31.343  30.331  1.00  0.00    -0.354 N 
ATOM     50  N   UNL A   1      37.301  33.111  31.429  1.00  0.00    -0.248 NA
ATOM     51  C   UNL A   1      36.620  34.789  32.906  1.00  0.00     0.031 C 
ATOM     52  C   UNL A   1      41.408  31.528  31.072  1.00  0.00     0.029 A 
ATOM     53  C   UNL A   1      40.127  32.036  31.222  1.00  0.00     0.049 A 
ATOM     54  H   UNL A   1      38.361  31.499  30.199  1.00  0.00     0.167 HD
ATOM     55  C   UNL A   1      38.384  33.501  32.200  1.00  0.00     0.074 A 
ATOM     56  C   UNL A   1      37.913  34.548  33.086  1.00  0.00     0.031 C 
ATOM     57  C   UNL A   1      39.664  33.067  32.119  1.00  0.00     0.031 A 
BRANCH  44  58
ATOM     58  C   UNL A   1      40.428  28.436  28.066  1.00  0.00    -0.014 A 
ATOM     59  C   UNL A   1      40.912  28.649  26.762  1.00  0.00     0.009 A 
ATOM     60  C   UNL A   1      40.684  27.218  28.703  1.00  0.00     0.009 A 
ATOM     61  C   UNL A   1      41.577  27.628  26.084  1.00  0.00     0.001 A 
ATOM     62  C   UNL A   1      41.374  26.209  28.032  1.00  0.00     0.001 A 
ATOM     63  C   UNL A   1      41.802  26.407  26.718  1.00  0.00     0.000 A 
ENDBRANCH  44  58
BRANCH  45  64
ATOM     64  C   UNL A   1      33.961  34.983  31.693  1.00  0.00    -0.014 A 
ATOM     65  C   UNL A   1      32.951  34.521  32.549  1.00  0.00     0.009 A 
ATOM     66  C   UNL A   1      33.954  36.337  31.316  1.00  0.00     0.009 A 
ATOM     67  C   UNL A   1      31.941  35.384  32.991  1.00  0.00     0.001 A 
ATOM     68  C   UNL A   1      32.950  37.201  31.767  1.00  0.00     0.001 A 
ATOM     69  C   UNL A   1      31.939  36.722  32.599  1.00  0.00     0.000 A 
ENDBRANCH  45  64
BRANCH  57  70
ATOM     70  C   UNL A   1      40.680  33.759  32.979  1.00  0.00    -0.014 A 
ATOM     71  C   UNL A   1      41.433  34.841  32.503  1.00  0.00     0.009 A 
ATOM     72  C   UNL A   1      40.846  33.345  34.312  1.00  0.00     0.009 A 
ATOM     73  C   UNL A   1      42.349  35.483  33.339  1.00  0.00     0.001 A 
ATOM     74  C   UNL A   1      41.736  34.010  35.155  1.00  0.00     0.001 A 
ATOM     75  C   UNL A   1      42.492  35.074  34.665  1.00  0.00     0.000 A 
ENDBRANCH  57  70
ENDBRANCH  31  32
ENDBRANCH  24  26
ENDBRANCH  23  24
ENDBRANCH  22  23
ENDBRANCH   1  22
TORSDOF 15
ENDMDL
MODEL 3
REMARK VINA RESULT:      -9.7      1.505      2.585
REMARK SMILES CCOc1ncnc(N[C@@H]2C=C[C@H](C(=O)OCCOC(=O)c3ccc(-c4c5nc(c(-c6ccccc6)c6ccc([nH]6)c(-c6ccccc6)c6nc(c(-c7ccccc7)c7ccc4[nH]7)C=C6)C=C5)cc3)C2)c1C
REMARK SMILES IDX 17 1 16 2 14 3 15 4 13 5 10 6 11 7 70 8 12 9 9 10 8 12 4 13
REMARK SMILES IDX 5 14 71 15 6 16 72 17 7 18 3 19 2 20 1 21 18 22 19 23 20 24
REMARK SMILES IDX 21 25 22 26 23 27 69 28 24 29 68 30 25 31 26 32 27 33 62 34
REMARK SMILES IDX 28 35 67 36 61 37 63 38 29 39 66 40 60 41 59 42 30 44 52 45
REMARK SMILES IDX 37 46 51 47 38 48 41 49 50 50 64 51 39 52 40 53 49 55 65 56
REMARK SMILES IDX 42 57 31 58 32 59 36 60 33 61 35 62 34 63 53 64 54 65 58 66
REMARK SMILES IDX 55 67 57 68 56 69 43 70 44 71 48 72 45 73 47 74 46 75
REMARK H PARENT 9 11 63 43 41 54
REMARK Flexibility Score: inf
ROOT
ATOM      1  C   UNL A   1      31.639  26.321  22.016  1.00  0.00     0.274 C 
ENDROOT
BRANCH   1   2
ATOM      2  O   UNL A   1      31.999  25.675  23.261  1.00  0.00    -0.462 OA
BRANCH   2   3
ATOM      3  C   UNL A   1      30.918  25.190  23.928  1.00  0.00     0.312 C 
ATOM      4  O   UNL A   1      30.062  24.534  23.385  1.00  0.00    -0.252 OA
BRANCH   3   5
ATOM      5  C   UNL A   1      30.898  25.503  25.420  1.00  0.00     0.124 C 
ATOM      6  C   UNL A   1      33.093  24.735  26.218  1.00  0.00     0.104 C 
ATOM      7  C   UNL A   1      31.999  23.896  26.761  1.00  0.00    -0.006 C 
ATOM      8  C   UNL A   1      32.309  25.993  25.796  1.00  0.00     0.048 C 
ATOM      9  C   UNL A   1      30.796  24.305  26.326  1.00  0.00    -0.014 C 
BRANCH   6  10
ATOM     10  N   UNL A   1      33.915  24.067  25.208  1.00  0.00    -0.363 N 
ATOM     11  H   UNL A   1      34.072  24.620  24.410  1.00  0.00     0.162 HD
BRANCH  10  12
ATOM     12  C   UNL A   1      34.526  22.812  25.134  1.00  0.00     0.136 A 
ATOM     13  C   UNL A   1      34.399  20.446  24.640  1.00  0.00     0.221 A 
ATOM     14  N   UNL A   1      35.591  20.224  25.189  1.00  0.00    -0.201 NA
ATOM     15  C   UNL A   1      33.832  21.714  24.595  1.00  0.00     0.054 A 
ATOM     16  C   UNL A   1      36.196  21.329  25.658  1.00  0.00     0.228 A 
ATOM     17  C   UNL A   1      32.515  21.839  23.959  1.00  0.00     0.054 C 
ATOM     18  N   UNL A   1      35.743  22.602  25.643  1.00  0.00    -0.219 NA
BRANCH  13  19
ATOM     19  O   UNL A   1      33.663  19.317  24.302  1.00  0.00    -0.478 OA
BRANCH  19  20
ATOM     20  C   UNL A   1      32.977  18.694  25.401  1.00  0.00     0.228 C 
ATOM     21  C   UNL A   1      32.412  17.316  25.020  1.00  0.00     0.049 C 
ENDBRANCH  19  20
ENDBRANCH  13  19
ENDBRANCH  10  12
ENDBRANCH   6  10
ENDBRANCH   3   5
ENDBRANCH   2   3
ENDBRANCH   1   2
BRANCH   1  22
ATOM     22  C   UNL A   1      30.874  27.672  22.099  1.00  0.00     0.275 C 
BRANCH  22  23
ATOM     23  O   UNL A   1      31.527  28.727  22.864  1.00  0.00    -0.458 OA
BRANCH  23  24
ATOM     24  C   UNL A   1      30.920  29.096  24.028  1.00  0.00     0.338 C 
ATOM     25  O   UNL A   1      29.750  28.877  24.317  1.00  0.00    -0.246 OA
BRANCH  24  26
ATOM     26  C   UNL A   1      31.863  29.654  25.049  1.00  0.00     0.060 A 
ATOM     27  C   UNL A   1      33.204  29.243  24.978  1.00  0.00     0.016 A 
ATOM     28  C   UNL A   1      31.489  30.474  26.109  1.00  0.00     0.016 A 
ATOM     29  C   UNL A   1      34.201  29.731  25.847  1.00  0.00     0.010 A 
ATOM     30  C   UNL A   1      32.472  30.902  27.035  1.00  0.00     0.010 A 
ATOM     31  C   UNL A   1      33.856  30.588  26.889  1.00  0.00    -0.014 A 
BRANCH  31  32
ATOM     32  C   UNL A   1      34.849  31.102  27.901  1.00  0.00     0.031 A 
ATOM     33  C   UNL A   1      35.991  30.196  28.228  1.00  0.00     0.074 A 
ATOM     34  C   UNL A   1      34.821  32.288  28.563  1.00  0.00     0.049 A 
ATOM     35  N   UNL A   1      36.897  30.322  29.159  1.00  0.00    -0.248 NA
ATOM     36  C   UNL A   1      36.184  29.049  27.328  1.00  0.00     0.031 C 
ATOM     37  C   UNL A   1      34.063  33.487  28.235  1.00  0.00     0.029 A 
ATOM     38  N   UNL A   1      35.386  32.630  29.780  1.00  0.00    -0.354 N 
ATOM     39  C   UNL A   1      37.829  29.340  28.887  1.00  0.00     0.074 A 
ATOM     40  C   UNL A   1      37.309  28.539  27.800  1.00  0.00     0.031 C 
ATOM     41  C   UNL A   1      33.933  34.264  29.327  1.00  0.00     0.029 A 
ATOM     42  C   UNL A   1      34.749  33.699  30.387  1.00  0.00     0.049 A 
ATOM     43  H   UNL A   1      36.159  32.163  30.172  1.00  0.00     0.167 HD
ATOM     44  C   UNL A   1      39.052  29.177  29.438  1.00  0.00     0.031 A 
ATOM     45  C   UNL A   1      34.820  34.178  31.646  1.00  0.00     0.031 A 
ATOM     46  C   UNL A   1      39.542  29.927  30.558  1.00  0.00     0.049 A 
ATOM     47  C   UNL A   1      35.976  33.733  32.490  1.00  0.00     0.074 A 
ATOM     48  C   UNL A   1      40.758  29.819  31.205  1.00  0.00     0.029 A 
ATOM     49  N   UNL A   1      38.816  30.903  31.225  1.00  0.00    -0.354 N 
ATOM     50  N   UNL A   1      36.892  32.845  32.203  1.00  0.00    -0.248 NA
ATOM     51  C   UNL A   1      36.196  34.445  33.757  1.00  0.00     0.031 C 
ATOM     52  C   UNL A   1      40.737  30.674  32.313  1.00  0.00     0.029 A 
ATOM     53  C   UNL A   1      39.533  31.362  32.318  1.00  0.00     0.049 A 
ATOM     54  H   UNL A   1      37.924  31.223  30.960  1.00  0.00     0.167 HD
ATOM     55  C   UNL A   1      37.862  32.974  33.184  1.00  0.00     0.074 A 
ATOM     56  C   UNL A   1      37.389  33.983  34.111  1.00  0.00     0.031 C 
ATOM     57  C   UNL A   1      39.063  32.353  33.256  1.00  0.00     0.031 A 
BRANCH  44  58
ATOM     58  C   UNL A   1      39.896  28.113  28.808  1.00  0.00    -0.014 A 
ATOM     59  C   UNL A   1      40.766  28.425  27.747  1.00  0.00     0.009 A 
ATOM     60  C   UNL A   1      39.733  26.778  29.193  1.00  0.00     0.009 A 
ATOM     61  C   UNL A   1      41.404  27.406  27.040  1.00  0.00     0.001 A 
ATOM     62  C   UNL A   1      40.396  25.765  28.501  1.00  0.00     0.001 A 
ATOM     63  C   UNL A   1      41.214  26.077  27.414  1.00  0.00     0.000 A 
ENDBRANCH  44  58
BRANCH  45  64
ATOM     64  C   UNL A   1      33.852  35.187  32.164  1.00  0.00    -0.014 A 
ATOM     65  C   UNL A   1      32.547  34.830  32.534  1.00  0.00     0.009 A 
ATOM     66  C   UNL A   1      34.218  36.543  32.215  1.00  0.00     0.009 A 
ATOM     67  C   UNL A   1      31.622  35.809  32.915  1.00  0.00     0.001 A 
ATOM     68  C   UNL A   1      33.293  37.519  32.606  1.00  0.00     0.001 A 
ATOM     69  C   UNL A   1      31.993  37.152  32.948  1.00  0.00     0.000 A 
ENDBRANCH  45  64
BRANCH  57  70
ATOM     70  C   UNL A   1      39.993  32.780  34.353  1.00  0.00    -0.014 A 
ATOM     71  C   UNL A   1      40.024  32.121  35.589  1.00  0.00     0.009 A 
ATOM     72  C   UNL A   1      40.891  33.835  34.119  1.00  0.00     0.009 A 
ATOM     73  C   UNL A   1      40.923  32.523  36.579  1.00  0.00     0.001 A 
ATOM     74  C   UNL A   1      41.812  34.213  35.097  1.00  0.00     0.001 A 
ATOM     75  C   UNL A   1      41.821  33.560  36.328  1.00  0.00     0.000 A 
ENDBRANCH  57  70
ENDBRANCH  31  32
ENDBRANCH  24  26
ENDBRANCH  23  24
ENDBRANCH  22  23
ENDBRANCH   1  22
TORSDOF 15
ENDMDL
