MODEL 1
REMARK VINA RESULT:     -10.4      0.000      0.000
REMARK SMILES C[C@@H]1SCCC[C@H]1[N@H+]1CCC[C@H](CCC(=O)OCCOC(=O)c2ccc(-c3c4nc(c(-c5ccccc5)c5ccc([nH]5)c(-c5ccccc5)c5nc(c(-c6ccccc6)c6ccc3[nH]6)C=C5)C=C4)cc2)C1
REMARK SMILES IDX 18 1 17 2 15 3 16 4 14 5 13 6 12 7 8 8 9 9 71 10 10 12 11 13
REMARK SMILES IDX 7 14 1 15 2 16 3 17 4 18 6 19 5 20 19 21 20 22 21 23 22 24
REMARK SMILES IDX 23 25 24 26 70 27 25 28 69 29 26 30 27 31 28 32 63 33 29 34
REMARK SMILES IDX 68 35 62 36 64 37 30 38 67 39 61 40 60 41 31 43 53 44 38 45
REMARK SMILES IDX 52 46 39 47 42 48 51 49 65 50 40 51 41 52 50 54 66 55 43 56
REMARK SMILES IDX 32 57 33 58 37 59 34 60 36 61 35 62 54 63 55 64 59 65 56 66
REMARK SMILES IDX 58 67 57 68 44 69 45 70 49 71 46 72 48 73 47 74
REMARK H PARENT 8 11 64 42 42 53
REMARK Flexibility Score: inf
ROOT
ATOM      1  C   UNL A   1      42.696  20.699  26.035  1.00  0.00     0.274 C 
ENDROOT
BRANCH   1   2
ATOM      2  O   UNL A   1      41.393  21.192  25.669  1.00  0.00    -0.462 OA
BRANCH   2   3
ATOM      3  C   UNL A   1      40.417  21.185  26.608  1.00  0.00     0.305 C 
ATOM      4  O   UNL A   1      40.588  21.327  27.810  1.00  0.00    -0.252 OA
BRANCH   3   5
ATOM      5  C   UNL A   1      39.054  21.031  25.961  1.00  0.00     0.123 C 
BRANCH   5   6
ATOM      6  C   UNL A   1      38.372  22.382  25.737  1.00  0.00     0.021 C 
BRANCH   6   7
ATOM      7  C   UNL A   1      36.898  22.406  25.267  1.00  0.00     0.045 C 
ATOM      8  N   UNL A   1      34.543  23.227  25.720  1.00  0.00    -0.331 N 
ATOM      9  C   UNL A   1      34.057  21.855  25.733  1.00  0.00     0.262 C 
ATOM     10  C   UNL A   1      35.957  23.289  26.099  1.00  0.00     0.265 C 
ATOM     11  H   UNL A   1      33.964  23.641  26.451  1.00  0.00     0.348 HD
ATOM     12  C   UNL A   1      34.894  20.859  24.935  1.00  0.00     0.062 C 
ATOM     13  C   UNL A   1      36.378  20.957  25.246  1.00  0.00     0.015 C 
BRANCH   8  14
ATOM     14  C   UNL A   1      34.104  24.203  24.704  1.00  0.00     0.196 C 
ATOM     15  C   UNL A   1      32.915  24.657  22.491  1.00  0.00     0.026 C 
ATOM     16  C   UNL A   1      32.869  23.885  23.818  1.00  0.00     0.101 C 
ATOM     17  S   UNL A   1      31.251  24.185  24.617  1.00  0.00    -0.153 SA
ATOM     18  C   UNL A   1      31.501  25.863  25.242  1.00  0.00     0.070 C 
ATOM     19  C   UNL A   1      34.059  25.641  25.279  1.00  0.00     0.067 C 
ATOM     20  C   UNL A   1      32.793  26.061  26.019  1.00  0.00     0.017 C 
ENDBRANCH   8  14
ENDBRANCH   6   7
ENDBRANCH   5   6
ENDBRANCH   3   5
ENDBRANCH   2   3
ENDBRANCH   1   2
BRANCH   1  21
ATOM     21  C   UNL A   1      43.785  21.546  25.375  1.00  0.00     0.275 C 
BRANCH  21  22
ATOM     22  O   UNL A   1      43.198  22.775  24.914  1.00  0.00    -0.458 OA
BRANCH  22  23
ATOM     23  C   UNL A   1      43.951  23.885  25.036  1.00  0.00     0.338 C 
ATOM     24  O   UNL A   1      44.941  24.201  24.394  1.00  0.00    -0.246 OA
BRANCH  23  25
ATOM     25  C   UNL A   1      43.331  24.750  26.043  1.00  0.00     0.060 A 
ATOM     26  C   UNL A   1      43.701  26.095  26.098  1.00  0.00     0.016 A 
ATOM     27  C   UNL A   1      42.432  24.216  26.965  1.00  0.00     0.016 A 
ATOM     28  C   UNL A   1      43.192  26.917  27.094  1.00  0.00     0.010 A 
ATOM     29  C   UNL A   1      41.904  25.046  27.954  1.00  0.00     0.010 A 
ATOM     30  C   UNL A   1      42.299  26.393  28.032  1.00  0.00    -0.014 A 
BRANCH  30  31
ATOM     31  C   UNL A   1      41.839  27.255  29.138  1.00  0.00     0.031 A 
ATOM     32  C   UNL A   1      42.614  27.280  30.420  1.00  0.00     0.074 A 
ATOM     33  C   UNL A   1      40.756  28.032  28.970  1.00  0.00     0.049 A 
ATOM     34  N   UNL A   1      42.367  27.941  31.520  1.00  0.00    -0.248 NA
ATOM     35  C   UNL A   1      43.828  26.448  30.472  1.00  0.00     0.031 C 
ATOM     36  C   UNL A   1      39.958  28.116  27.745  1.00  0.00     0.029 A 
ATOM     37  N   UNL A   1      40.145  28.900  29.834  1.00  0.00    -0.354 N 
ATOM     38  C   UNL A   1      43.378  27.588  32.404  1.00  0.00     0.074 A 
ATOM     39  C   UNL A   1      44.234  26.645  31.717  1.00  0.00     0.031 C 
ATOM     40  C   UNL A   1      38.957  28.990  27.939  1.00  0.00     0.029 A 
ATOM     41  C   UNL A   1      39.027  29.497  29.306  1.00  0.00     0.049 A 
ATOM     42  H   UNL A   1      40.474  29.080  30.744  1.00  0.00     0.167 HD
ATOM     43  C   UNL A   1      43.570  28.012  33.674  1.00  0.00     0.031 A 
ATOM     44  C   UNL A   1      38.148  30.342  29.874  1.00  0.00     0.031 A 
ATOM     45  C   UNL A   1      42.713  28.948  34.349  1.00  0.00     0.049 A 
ATOM     46  C   UNL A   1      38.365  30.772  31.296  1.00  0.00     0.074 A 
ATOM     47  C   UNL A   1      42.824  29.452  35.632  1.00  0.00     0.029 A 
ATOM     48  N   UNL A   1      41.580  29.518  33.789  1.00  0.00    -0.354 N 
ATOM     49  N   UNL A   1      39.330  30.440  32.120  1.00  0.00    -0.248 NA
ATOM     50  C   UNL A   1      37.377  31.698  31.863  1.00  0.00     0.031 C 
ATOM     51  C   UNL A   1      41.732  30.297  35.864  1.00  0.00     0.029 A 
ATOM     52  C   UNL A   1      40.968  30.354  34.708  1.00  0.00     0.049 A 
ATOM     53  H   UNL A   1      41.257  29.353  32.874  1.00  0.00     0.167 HD
ATOM     54  C   UNL A   1      39.075  31.127  33.298  1.00  0.00     0.074 A 
ATOM     55  C   UNL A   1      37.875  31.908  33.075  1.00  0.00     0.031 C 
ATOM     56  C   UNL A   1      39.770  31.113  34.462  1.00  0.00     0.031 A 
BRANCH  43  57
ATOM     57  C   UNL A   1      44.729  27.419  34.422  1.00  0.00    -0.014 A 
ATOM     58  C   UNL A   1      44.592  26.235  35.165  1.00  0.00     0.009 A 
ATOM     59  C   UNL A   1      45.976  28.061  34.386  1.00  0.00     0.009 A 
ATOM     60  C   UNL A   1      45.675  25.727  35.887  1.00  0.00     0.001 A 
ATOM     61  C   UNL A   1      47.062  27.537  35.090  1.00  0.00     0.001 A 
ATOM     62  C   UNL A   1      46.908  26.377  35.846  1.00  0.00     0.000 A 
ENDBRANCH  43  57
BRANCH  44  63
ATOM     63  C   UNL A   1      36.977  30.817  29.095  1.00  0.00    -0.014 A 
ATOM     64  C   UNL A   1      36.877  32.158  28.695  1.00  0.00     0.009 A 
ATOM     65  C   UNL A   1      35.959  29.921  28.731  1.00  0.00     0.009 A 
ATOM     66  C   UNL A   1      35.773  32.594  27.960  1.00  0.00     0.001 A 
ATOM     67  C   UNL A   1      34.869  30.355  27.975  1.00  0.00     0.001 A 
ATOM     68  C   UNL A   1      34.774  31.693  27.596  1.00  0.00     0.000 A 
ENDBRANCH  44  63
BRANCH  56  69
ATOM     69  C   UNL A   1      39.255  31.987  35.569  1.00  0.00    -0.014 A 
ATOM     70  C   UNL A   1      39.677  33.318  35.698  1.00  0.00     0.009 A 
ATOM     71  C   UNL A   1      38.313  31.477  36.476  1.00  0.00     0.009 A 
ATOM     72  C   UNL A   1      39.190  34.114  36.735  1.00  0.00     0.001 A 
ATOM     73  C   UNL A   1      37.808  32.283  37.497  1.00  0.00     0.001 A 
ATOM     74  C   UNL A   1      38.254  33.597  37.632  1.00  0.00     0.000 A 
ENDBRANCH  56  69
ENDBRANCH  30  31
ENDBRANCH  23  25
ENDBRANCH  22  23
ENDBRANCH  21  22
ENDBRANCH   1  21
TORSDOF 14
ENDMDL
MODEL 2
REMARK VINA RESULT:     -10.3      3.326      4.608
REMARK SMILES C[C@@H]1SCCC[C@H]1[N@H+]1CCC[C@H](CCC(=O)OCCOC(=O)c2ccc(-c3c4nc(c(-c5ccccc5)c5ccc([nH]5)c(-c5ccccc5)c5nc(c(-c6ccccc6)c6ccc3[nH]6)C=C5)C=C4)cc2)C1
REMARK SMILES IDX 18 1 17 2 15 3 16 4 14 5 13 6 12 7 8 8 9 9 71 10 10 12 11 13
REMARK SMILES IDX 7 14 1 15 2 16 3 17 4 18 6 19 5 20 19 21 20 22 21 23 22 24
REMARK SMILES IDX 23 25 24 26 70 27 25 28 69 29 26 30 27 31 28 32 63 33 29 34
REMARK SMILES IDX 68 35 62 36 64 37 30 38 67 39 61 40 60 41 31 43 53 44 38 45
REMARK SMILES IDX 52 46 39 47 42 48 51 49 65 50 40 51 41 52 50 54 66 55 43 56
REMARK SMILES IDX 32 57 33 58 37 59 34 60 36 61 35 62 54 63 55 64 59 65 56 66
REMARK SMILES IDX 58 67 57 68 44 69 45 70 49 71 46 72 48 73 47 74
REMARK H PARENT 8 11 64 42 42 53
REMARK Flexibility Score: inf
ROOT
ATOM      1  C   UNL A   1      38.364  20.474  25.268  1.00  0.00     0.274 C 
ENDROOT
BRANCH   1   2
ATOM      2  O   UNL A   1      37.021  19.999  25.052  1.00  0.00    -0.462 OA
BRANCH   2   3
ATOM      3  C   UNL A   1      36.028  20.914  24.944  1.00  0.00     0.305 C 
ATOM      4  O   UNL A   1      34.831  20.673  25.008  1.00  0.00    -0.252 OA
BRANCH   3   5
ATOM      5  C   UNL A   1      36.602  22.309  24.788  1.00  0.00     0.123 C 
BRANCH   5   6
ATOM      6  C   UNL A   1      36.183  22.954  23.464  1.00  0.00     0.021 C 
BRANCH   6   7
ATOM      7  C   UNL A   1      35.005  23.957  23.462  1.00  0.00     0.045 C 
ATOM      8  N   UNL A   1      33.421  25.368  24.850  1.00  0.00    -0.331 N 
ATOM      9  C   UNL A   1      32.280  24.700  24.244  1.00  0.00     0.262 C 
ATOM     10  C   UNL A   1      34.604  24.504  24.840  1.00  0.00     0.265 C 
ATOM     11  H   UNL A   1      33.085  25.493  25.805  1.00  0.00     0.348 HD
ATOM     12  C   UNL A   1      32.528  24.110  22.858  1.00  0.00     0.062 C 
ATOM     13  C   UNL A   1      33.796  23.274  22.795  1.00  0.00     0.015 C 
BRANCH   8  14
ATOM     14  C   UNL A   1      33.675  26.810  24.663  1.00  0.00     0.196 C 
ATOM     15  C   UNL A   1      33.421  28.896  23.211  1.00  0.00     0.026 C 
ATOM     16  C   UNL A   1      32.721  27.646  23.767  1.00  0.00     0.101 C 
ATOM     17  S   UNL A   1      31.160  28.158  24.573  1.00  0.00    -0.153 SA
ATOM     18  C   UNL A   1      31.801  28.864  26.109  1.00  0.00     0.070 C 
ATOM     19  C   UNL A   1      33.982  27.513  26.009  1.00  0.00     0.067 C 
ATOM     20  C   UNL A   1      32.794  27.978  26.844  1.00  0.00     0.017 C 
ENDBRANCH   8  14
ENDBRANCH   6   7
ENDBRANCH   5   6
ENDBRANCH   3   5
ENDBRANCH   2   3
ENDBRANCH   1   2
BRANCH   1  21
ATOM     21  C   UNL A   1      39.327  19.292  25.392  1.00  0.00     0.275 C 
BRANCH  21  22
ATOM     22  O   UNL A   1      40.291  19.588  26.418  1.00  0.00    -0.458 OA
BRANCH  22  23
ATOM     23  C   UNL A   1      41.550  19.834  26.009  1.00  0.00     0.338 C 
ATOM     24  O   UNL A   1      42.246  19.165  25.262  1.00  0.00    -0.246 OA
BRANCH  23  25
ATOM     25  C   UNL A   1      41.960  21.134  26.546  1.00  0.00     0.060 A 
ATOM     26  C   UNL A   1      41.841  21.366  27.918  1.00  0.00     0.016 A 
ATOM     27  C   UNL A   1      42.403  22.137  25.686  1.00  0.00     0.016 A 
ATOM     28  C   UNL A   1      42.143  22.615  28.442  1.00  0.00     0.010 A 
ATOM     29  C   UNL A   1      42.726  23.387  26.214  1.00  0.00     0.010 A 
ATOM     30  C   UNL A   1      42.577  23.634  27.590  1.00  0.00    -0.014 A 
BRANCH  30  31
ATOM     31  C   UNL A   1      42.804  24.981  28.147  1.00  0.00     0.031 A 
ATOM     32  C   UNL A   1      44.184  25.376  28.577  1.00  0.00     0.074 A 
ATOM     33  C   UNL A   1      41.781  25.848  28.229  1.00  0.00     0.049 A 
ATOM     34  N   UNL A   1      44.593  26.494  29.116  1.00  0.00    -0.248 NA
ATOM     35  C   UNL A   1      45.247  24.377  28.373  1.00  0.00     0.031 C 
ATOM     36  C   UNL A   1      40.409  25.580  27.796  1.00  0.00     0.029 A 
ATOM     37  N   UNL A   1      41.742  27.132  28.703  1.00  0.00    -0.354 N 
ATOM     38  C   UNL A   1      45.953  26.327  29.339  1.00  0.00     0.074 A 
ATOM     39  C   UNL A   1      46.298  24.996  28.890  1.00  0.00     0.031 C 
ATOM     40  C   UNL A   1      39.659  26.669  28.028  1.00  0.00     0.029 A 
ATOM     41  C   UNL A   1      40.491  27.693  28.653  1.00  0.00     0.049 A 
ATOM     42  H   UNL A   1      42.534  27.607  29.046  1.00  0.00     0.167 HD
ATOM     43  C   UNL A   1      46.831  27.206  29.875  1.00  0.00     0.031 A 
ATOM     44  C   UNL A   1      40.063  28.893  29.085  1.00  0.00     0.031 A 
ATOM     45  C   UNL A   1      46.478  28.526  30.321  1.00  0.00     0.049 A 
ATOM     46  C   UNL A   1      41.051  29.839  29.705  1.00  0.00     0.074 A 
ATOM     47  C   UNL A   1      47.293  29.501  30.868  1.00  0.00     0.029 A 
ATOM     48  N   UNL A   1      45.197  29.054  30.271  1.00  0.00    -0.354 N 
ATOM     49  N   UNL A   1      42.337  29.675  29.904  1.00  0.00    -0.248 NA
ATOM     50  C   UNL A   1      40.530  31.136  30.155  1.00  0.00     0.031 C 
ATOM     51  C   UNL A   1      46.495  30.605  31.189  1.00  0.00     0.029 A 
ATOM     52  C   UNL A   1      45.193  30.335  30.798  1.00  0.00     0.049 A 
ATOM     53  H   UNL A   1      44.406  28.588  29.914  1.00  0.00     0.167 HD
ATOM     54  C   UNL A   1      42.783  30.852  30.488  1.00  0.00     0.074 A 
ATOM     55  C   UNL A   1      41.633  31.728  30.593  1.00  0.00     0.031 C 
ATOM     56  C   UNL A   1      44.032  31.181  30.900  1.00  0.00     0.031 A 
BRANCH  43  57
ATOM     57  C   UNL A   1      48.246  26.735  30.049  1.00  0.00    -0.014 A 
ATOM     58  C   UNL A   1      49.222  26.968  29.066  1.00  0.00     0.009 A 
ATOM     59  C   UNL A   1      48.604  26.042  31.215  1.00  0.00     0.009 A 
ATOM     60  C   UNL A   1      50.520  26.482  29.235  1.00  0.00     0.001 A 
ATOM     61  C   UNL A   1      49.909  25.579  31.390  1.00  0.00     0.001 A 
ATOM     62  C   UNL A   1      50.863  25.791  30.397  1.00  0.00     0.000 A 
ENDBRANCH  43  57
BRANCH  44  63
ATOM     63  C   UNL A   1      38.629  29.253  28.957  1.00  0.00    -0.014 A 
ATOM     64  C   UNL A   1      37.751  29.099  30.039  1.00  0.00     0.009 A 
ATOM     65  C   UNL A   1      38.136  29.773  27.749  1.00  0.00     0.009 A 
ATOM     66  C   UNL A   1      36.403  29.443  29.909  1.00  0.00     0.001 A 
ATOM     67  C   UNL A   1      36.794  30.140  27.631  1.00  0.00     0.001 A 
ATOM     68  C   UNL A   1      35.928  29.968  28.708  1.00  0.00     0.000 A 
ENDBRANCH  44  63
BRANCH  56  69
ATOM     69  C   UNL A   1      44.215  32.553  31.482  1.00  0.00    -0.014 A 
ATOM     70  C   UNL A   1      44.483  33.658  30.661  1.00  0.00     0.009 A 
ATOM     71  C   UNL A   1      44.086  32.743  32.866  1.00  0.00     0.009 A 
ATOM     72  C   UNL A   1      44.653  34.925  31.221  1.00  0.00     0.001 A 
ATOM     73  C   UNL A   1      44.231  34.015  33.420  1.00  0.00     0.001 A 
ATOM     74  C   UNL A   1      44.524  35.103  32.599  1.00  0.00     0.000 A 
ENDBRANCH  56  69
ENDBRANCH  30  31
ENDBRANCH  23  25
ENDBRANCH  22  23
ENDBRANCH  21  22
ENDBRANCH   1  21
TORSDOF 14
ENDMDL
MODEL 3
REMARK VINA RESULT:     -10.2      1.046      6.259
REMARK SMILES C[C@@H]1SCCC[C@H]1[N@H+]1CCC[C@H](CCC(=O)OCCOC(=O)c2ccc(-c3c4nc(c(-c5ccccc5)c5ccc([nH]5)c(-c5ccccc5)c5nc(c(-c6ccccc6)c6ccc3[nH]6)C=C5)C=C4)cc2)C1
REMARK SMILES IDX 18 1 17 2 15 3 16 4 14 5 13 6 12 7 8 8 9 9 71 10 10 12 11 13
REMARK SMILES IDX 7 14 1 15 2 16 3 17 4 18 6 19 5 20 19 21 20 22 21 23 22 24
REMARK SMILES IDX 23 25 24 26 70 27 25 28 69 29 26 30 27 31 28 32 63 33 29 34
REMARK SMILES IDX 68 35 62 36 64 37 30 38 67 39 61 40 60 41 31 43 53 44 38 45
REMARK SMILES IDX 52 46 39 47 42 48 51 49 65 50 40 51 41 52 50 54 66 55 43 56
REMARK SMILES IDX 32 57 33 58 37 59 34 60 36 61 35 62 54 63 55 64 59 65 56 66
REMARK SMILES IDX 58 67 57 68 44 69 45 70 49 71 46 72 48 73 47 74
REMARK H PARENT 8 11 64 42 42 53
REMARK Flexibility Score: inf
ROOT
ATOM      1  C   UNL A   1      42.933  20.970  26.028  1.00  0.00     0.274 C 
ENDROOT
BRANCH   1   2
ATOM      2  O   UNL A   1      41.565  21.323  25.746  1.00  0.00    -0.462 OA
BRANCH   2   3
ATOM      3  C   UNL A   1      40.667  21.270  26.758  1.00  0.00     0.305 C 
ATOM      4  O   UNL A   1      40.800  20.632  27.792  1.00  0.00    -0.252 OA
BRANCH   3   5
ATOM      5  C   UNL A   1      39.477  22.164  26.465  1.00  0.00     0.123 C 
BRANCH   5   6
ATOM      6  C   UNL A   1      38.457  21.479  25.553  1.00  0.00     0.021 C 
BRANCH   6   7
ATOM      7  C   UNL A   1      37.035  22.076  25.442  1.00  0.00     0.045 C 
ATOM      8  N   UNL A   1      35.064  22.590  23.933  1.00  0.00    -0.331 N 
ATOM      9  C   UNL A   1      35.153  24.000  24.282  1.00  0.00     0.262 C 
ATOM     10  C   UNL A   1      36.366  21.931  24.068  1.00  0.00     0.265 C 
ATOM     11  H   UNL A   1      34.802  22.654  22.949  1.00  0.00     0.348 HD
ATOM     12  C   UNL A   1      35.792  24.298  25.636  1.00  0.00     0.062 C 
ATOM     13  C   UNL A   1      37.106  23.562  25.840  1.00  0.00     0.015 C 
BRANCH   8  14
ATOM     14  C   UNL A   1      33.887  21.770  24.279  1.00  0.00     0.196 C 
ATOM     15  C   UNL A   1      32.941  19.689  25.416  1.00  0.00     0.026 C 
ATOM     16  C   UNL A   1      33.931  20.858  25.535  1.00  0.00     0.101 C 
ATOM     17  S   UNL A   1      33.635  21.719  27.122  1.00  0.00    -0.153 SA
ATOM     18  C   UNL A   1      32.125  22.630  26.724  1.00  0.00     0.070 C 
ATOM     19  C   UNL A   1      32.577  22.593  24.196  1.00  0.00     0.067 C 
ATOM     20  C   UNL A   1      32.185  23.412  25.422  1.00  0.00     0.017 C 
ENDBRANCH   8  14
ENDBRANCH   6   7
ENDBRANCH   5   6
ENDBRANCH   3   5
ENDBRANCH   2   3
ENDBRANCH   1   2
BRANCH   1  21
ATOM     21  C   UNL A   1      43.879  22.024  25.451  1.00  0.00     0.275 C 
BRANCH  21  22
ATOM     22  O   UNL A   1      43.139  23.237  25.230  1.00  0.00    -0.458 OA
BRANCH  22  23
ATOM     23  C   UNL A   1      43.834  24.389  25.301  1.00  0.00     0.338 C 
ATOM     24  O   UNL A   1      44.761  24.756  24.596  1.00  0.00    -0.246 OA
BRANCH  23  25
ATOM     25  C   UNL A   1      43.232  25.223  26.343  1.00  0.00     0.060 A 
ATOM     26  C   UNL A   1      43.786  26.477  26.610  1.00  0.00     0.016 A 
ATOM     27  C   UNL A   1      42.160  24.740  27.093  1.00  0.00     0.016 A 
ATOM     28  C   UNL A   1      43.288  27.252  27.647  1.00  0.00     0.010 A 
ATOM     29  C   UNL A   1      41.645  25.527  28.123  1.00  0.00     0.010 A 
ATOM     30  C   UNL A   1      42.222  26.775  28.415  1.00  0.00    -0.014 A 
BRANCH  30  31
ATOM     31  C   UNL A   1      41.765  27.569  29.572  1.00  0.00     0.031 A 
ATOM     32  C   UNL A   1      40.522  28.397  29.450  1.00  0.00     0.074 A 
ATOM     33  C   UNL A   1      42.446  27.512  30.728  1.00  0.00     0.049 A 
ATOM     34  N   UNL A   1      39.966  29.186  30.332  1.00  0.00    -0.248 NA
ATOM     35  C   UNL A   1      39.809  28.329  28.163  1.00  0.00     0.031 C 
ATOM     36  C   UNL A   1      43.642  26.702  30.966  1.00  0.00     0.029 A 
ATOM     37  N   UNL A   1      42.225  28.147  31.920  1.00  0.00    -0.354 N 
ATOM     38  C   UNL A   1      38.855  29.728  29.701  1.00  0.00     0.074 A 
ATOM     39  C   UNL A   1      38.821  29.189  28.359  1.00  0.00     0.031 C 
ATOM     40  C   UNL A   1      44.051  26.892  32.230  1.00  0.00     0.029 A 
ATOM     41  C   UNL A   1      43.167  27.859  32.875  1.00  0.00     0.049 A 
ATOM     42  H   UNL A   1      41.463  28.751  32.079  1.00  0.00     0.167 HD
ATOM     43  C   UNL A   1      37.948  30.600  30.199  1.00  0.00     0.031 A 
ATOM     44  C   UNL A   1      43.311  28.340  34.123  1.00  0.00     0.031 A 
ATOM     45  C   UNL A   1      37.991  31.132  31.533  1.00  0.00     0.049 A 
ATOM     46  C   UNL A   1      42.309  29.331  34.641  1.00  0.00     0.074 A 
ATOM     47  C   UNL A   1      37.115  32.013  32.141  1.00  0.00     0.029 A 
ATOM     48  N   UNL A   1      38.971  30.831  32.466  1.00  0.00    -0.354 N 
ATOM     49  N   UNL A   1      41.256  29.831  34.040  1.00  0.00    -0.248 NA
ATOM     50  C   UNL A   1      42.513  29.820  36.010  1.00  0.00     0.031 C 
ATOM     51  C   UNL A   1      37.589  32.279  33.431  1.00  0.00     0.029 A 
ATOM     52  C   UNL A   1      38.735  31.526  33.640  1.00  0.00     0.049 A 
ATOM     53  H   UNL A   1      39.724  30.215  32.317  1.00  0.00     0.167 HD
ATOM     54  C   UNL A   1      40.661  30.681  34.961  1.00  0.00     0.074 A 
ATOM     55  C   UNL A   1      41.462  30.614  36.168  1.00  0.00     0.031 C 
ATOM     56  C   UNL A   1      39.553  31.448  34.823  1.00  0.00     0.031 A 
BRANCH  43  57
ATOM     57  C   UNL A   1      36.866  31.063  29.267  1.00  0.00    -0.014 A 
ATOM     58  C   UNL A   1      36.843  32.375  28.764  1.00  0.00     0.009 A 
ATOM     59  C   UNL A   1      35.849  30.172  28.891  1.00  0.00     0.009 A 
ATOM     60  C   UNL A   1      35.802  32.792  27.933  1.00  0.00     0.001 A 
ATOM     61  C   UNL A   1      34.823  30.587  28.041  1.00  0.00     0.001 A 
ATOM     62  C   UNL A   1      34.795  31.898  27.570  1.00  0.00     0.000 A 
ENDBRANCH  43  57
BRANCH  44  63
ATOM     63  C   UNL A   1      44.459  27.899  34.954  1.00  0.00    -0.014 A 
ATOM     64  C   UNL A   1      45.637  28.657  35.011  1.00  0.00     0.009 A 
ATOM     65  C   UNL A   1      44.370  26.720  35.713  1.00  0.00     0.009 A 
ATOM     66  C   UNL A   1      46.710  28.235  35.799  1.00  0.00     0.001 A 
ATOM     67  C   UNL A   1      45.435  26.314  36.519  1.00  0.00     0.001 A 
ATOM     68  C   UNL A   1      46.607  27.068  36.555  1.00  0.00     0.000 A 
ENDBRANCH  44  63
BRANCH  56  69
ATOM     69  C   UNL A   1      39.136  32.258  36.017  1.00  0.00    -0.014 A 
ATOM     70  C   UNL A   1      39.627  33.556  36.220  1.00  0.00     0.009 A 
ATOM     71  C   UNL A   1      38.217  31.723  36.933  1.00  0.00     0.009 A 
ATOM     72  C   UNL A   1      39.231  34.292  37.337  1.00  0.00     0.001 A 
ATOM     73  C   UNL A   1      37.804  32.471  38.035  1.00  0.00     0.001 A 
ATOM     74  C   UNL A   1      38.318  33.750  38.242  1.00  0.00     0.000 A 
ENDBRANCH  56  69
ENDBRANCH  30  31
ENDBRANCH  23  25
ENDBRANCH  22  23
ENDBRANCH  21  22
ENDBRANCH   1  21
TORSDOF 14
ENDMDL
