MODEL 1
REMARK VINA RESULT:      -9.4      0.000      0.000
REMARK SMILES Cc1nsc(NC(=O)c2ccc(N)cc2)c1C(=O)OCCOC(=O)c1ccc(-c2c3nc(c(-c4ccccc4)c4ccc([nH]4)c(-c4ccccc4)c4nc(c(-c5ccccc5)c5ccc2[nH]5)C=C4)C=C3)cc1
REMARK SMILES IDX 20 1 19 2 17 3 18 4 16 5 1 6 2 7 3 8 4 9 5 10 6 11 7 12 8 14
REMARK SMILES IDX 9 15 10 16 15 17 11 18 14 19 12 20 13 21 21 24 22 25 23 26
REMARK SMILES IDX 24 27 25 28 26 29 72 30 27 31 71 32 28 33 29 34 30 35 65 36
REMARK SMILES IDX 31 37 70 38 64 39 66 40 32 41 69 42 63 43 62 44 33 46 55 47
REMARK SMILES IDX 40 48 54 49 41 50 44 51 53 52 67 53 42 54 43 55 52 57 68 58
REMARK SMILES IDX 45 59 34 60 35 61 39 62 36 63 38 64 37 65 56 66 57 67 61 68
REMARK SMILES IDX 58 69 60 70 59 71 46 72 47 73 51 74 48 75 50 76 49 77
REMARK H PARENT 6 13 13 22 13 23 66 45 44 56
REMARK Flexibility Score: inf
ROOT
ATOM      1  C   UNL A   1      33.279  34.689  28.741  1.00  0.00     0.275 C 
ENDROOT
BRANCH   1   2
ATOM      2  O   UNL A   1      33.477  34.240  30.092  1.00  0.00    -0.458 OA
BRANCH   2   3
ATOM      3  C   UNL A   1      34.737  34.397  30.599  1.00  0.00     0.343 C 
ATOM      4  O   UNL A   1      35.729  34.576  29.920  1.00  0.00    -0.246 OA
BRANCH   3   5
ATOM      5  C   UNL A   1      34.750  34.457  32.058  1.00  0.00     0.117 A 
ATOM      6  C   UNL A   1      34.336  37.022  32.501  1.00  0.00     0.069 C 
ATOM      7  C   UNL A   1      34.616  35.616  32.912  1.00  0.00     0.068 A 
ATOM      8  N   UNL A   1      34.778  35.398  34.217  1.00  0.00    -0.195 NA
ATOM      9  S   UNL A   1      35.172  33.816  34.449  1.00  0.00    -0.017 S 
ATOM     10  C   UNL A   1      34.980  33.325  32.836  1.00  0.00     0.131 A 
BRANCH  10  11
ATOM     11  N   UNL A   1      35.171  32.028  32.390  1.00  0.00    -0.312 N 
ATOM     12  C   UNL A   1      36.296  31.244  32.272  1.00  0.00     0.256 C 
ATOM     13  H   UNL A   1      34.343  31.580  32.101  1.00  0.00     0.171 HD
ATOM     14  O   UNL A   1      36.259  30.233  31.568  1.00  0.00    -0.269 OA
BRANCH  12  15
ATOM     15  C   UNL A   1      37.542  31.527  33.006  1.00  0.00     0.040 A 
ATOM     16  C   UNL A   1      37.778  30.962  34.263  1.00  0.00     0.016 A 
ATOM     17  C   UNL A   1      38.517  32.322  32.402  1.00  0.00     0.016 A 
ATOM     18  C   UNL A   1      38.943  31.295  34.960  1.00  0.00     0.026 A 
ATOM     19  C   UNL A   1      39.685  32.633  33.102  1.00  0.00     0.026 A 
ATOM     20  C   UNL A   1      39.881  32.170  34.407  1.00  0.00     0.031 A 
BRANCH  20  21
ATOM     21  N   UNL A   1      41.051  32.465  35.088  1.00  0.00    -0.399 N 
ATOM     22  H   UNL A   1      41.915  32.142  34.744  1.00  0.00     0.156 HD
ATOM     23  H   UNL A   1      41.019  32.997  35.915  1.00  0.00     0.156 HD
ENDBRANCH  20  21
ENDBRANCH  12  15
ENDBRANCH  10  11
ENDBRANCH   3   5
ENDBRANCH   2   3
ENDBRANCH   1   2
BRANCH   1  24
ATOM     24  C   UNL A   1      33.272  33.504  27.783  1.00  0.00     0.275 C 
BRANCH  24  25
ATOM     25  O   UNL A   1      34.558  32.882  27.679  1.00  0.00    -0.458 OA
BRANCH  25  26
ATOM     26  C   UNL A   1      34.592  31.565  27.983  1.00  0.00     0.338 C 
ATOM     27  O   UNL A   1      33.652  30.877  28.345  1.00  0.00    -0.246 OA
BRANCH  26  28
ATOM     28  C   UNL A   1      35.986  31.095  27.998  1.00  0.00     0.060 A 
ATOM     29  C   UNL A   1      36.238  29.772  27.626  1.00  0.00     0.016 A 
ATOM     30  C   UNL A   1      36.995  31.890  28.562  1.00  0.00     0.016 A 
ATOM     31  C   UNL A   1      37.478  29.220  27.906  1.00  0.00     0.010 A 
ATOM     32  C   UNL A   1      38.235  31.337  28.836  1.00  0.00     0.010 A 
ATOM     33  C   UNL A   1      38.456  29.991  28.553  1.00  0.00    -0.014 A 
BRANCH  33  34
ATOM     34  C   UNL A   1      39.731  29.355  28.855  1.00  0.00     0.031 A 
ATOM     35  C   UNL A   1      40.057  29.226  30.298  1.00  0.00     0.074 A 
ATOM     36  C   UNL A   1      40.546  28.803  27.937  1.00  0.00     0.049 A 
ATOM     37  N   UNL A   1      41.072  29.720  30.928  1.00  0.00    -0.248 NA
ATOM     38  C   UNL A   1      39.105  28.499  31.150  1.00  0.00     0.031 C 
ATOM     39  C   UNL A   1      40.281  28.546  26.520  1.00  0.00     0.029 A 
ATOM     40  N   UNL A   1      41.778  28.251  28.132  1.00  0.00    -0.354 N 
ATOM     41  C   UNL A   1      40.966  29.266  32.240  1.00  0.00     0.074 A 
ATOM     42  C   UNL A   1      39.697  28.589  32.341  1.00  0.00     0.031 C 
ATOM     43  C   UNL A   1      41.221  27.697  26.043  1.00  0.00     0.029 A 
ATOM     44  C   UNL A   1      42.218  27.472  27.076  1.00  0.00     0.049 A 
ATOM     45  H   UNL A   1      42.307  28.396  28.950  1.00  0.00     0.167 HD
ATOM     46  C   UNL A   1      42.001  29.331  33.118  1.00  0.00     0.031 A 
ATOM     47  C   UNL A   1      43.298  26.654  27.071  1.00  0.00     0.031 A 
ATOM     48  C   UNL A   1      43.031  30.237  32.694  1.00  0.00     0.049 A 
ATOM     49  C   UNL A   1      44.201  27.068  28.167  1.00  0.00     0.074 A 
ATOM     50  C   UNL A   1      43.100  31.593  32.445  1.00  0.00     0.029 A 
ATOM     51  N   UNL A   1      44.171  29.696  32.152  1.00  0.00    -0.354 N 
ATOM     52  N   UNL A   1      44.892  28.170  28.158  1.00  0.00    -0.248 NA
ATOM     53  C   UNL A   1      44.086  26.417  29.461  1.00  0.00     0.031 C 
ATOM     54  C   UNL A   1      44.035  31.728  31.377  1.00  0.00     0.029 A 
ATOM     55  C   UNL A   1      44.490  30.448  31.052  1.00  0.00     0.049 A 
ATOM     56  H   UNL A   1      44.664  28.915  32.491  1.00  0.00     0.167 HD
ATOM     57  C   UNL A   1      44.933  28.574  29.484  1.00  0.00     0.074 A 
ATOM     58  C   UNL A   1      44.550  27.391  30.248  1.00  0.00     0.031 C 
ATOM     59  C   UNL A   1      45.000  29.896  29.816  1.00  0.00     0.031 A 
BRANCH  46  60
ATOM     60  C   UNL A   1      42.234  28.315  34.202  1.00  0.00    -0.014 A 
ATOM     61  C   UNL A   1      42.726  27.044  33.854  1.00  0.00     0.009 A 
ATOM     62  C   UNL A   1      41.728  28.469  35.506  1.00  0.00     0.009 A 
ATOM     63  C   UNL A   1      42.662  25.970  34.751  1.00  0.00     0.001 A 
ATOM     64  C   UNL A   1      41.702  27.410  36.417  1.00  0.00     0.001 A 
ATOM     65  C   UNL A   1      42.146  26.153  36.031  1.00  0.00     0.000 A 
ENDBRANCH  46  60
BRANCH  47  66
ATOM     66  C   UNL A   1      43.500  25.406  26.312  1.00  0.00    -0.014 A 
ATOM     67  C   UNL A   1      44.765  25.070  25.807  1.00  0.00     0.009 A 
ATOM     68  C   UNL A   1      42.501  24.416  26.301  1.00  0.00     0.009 A 
ATOM     69  C   UNL A   1      45.028  23.776  25.339  1.00  0.00     0.001 A 
ATOM     70  C   UNL A   1      42.762  23.128  25.828  1.00  0.00     0.001 A 
ATOM     71  C   UNL A   1      44.030  22.803  25.362  1.00  0.00     0.000 A 
ENDBRANCH  47  66
BRANCH  59  72
ATOM     72  C   UNL A   1      45.320  30.881  28.717  1.00  0.00    -0.014 A 
ATOM     73  C   UNL A   1      46.631  31.310  28.443  1.00  0.00     0.009 A 
ATOM     74  C   UNL A   1      44.293  31.285  27.852  1.00  0.00     0.009 A 
ATOM     75  C   UNL A   1      46.897  32.156  27.362  1.00  0.00     0.001 A 
ATOM     76  C   UNL A   1      44.563  32.109  26.757  1.00  0.00     0.001 A 
ATOM     77  C   UNL A   1      45.862  32.552  26.518  1.00  0.00     0.000 A 
ENDBRANCH  59  72
ENDBRANCH  33  34
ENDBRANCH  26  28
ENDBRANCH  25  26
ENDBRANCH  24  25
ENDBRANCH   1  24
TORSDOF 14
ENDMDL
MODEL 2
REMARK VINA RESULT:      -9.3      4.287      6.493
REMARK SMILES Cc1nsc(NC(=O)c2ccc(N)cc2)c1C(=O)OCCOC(=O)c1ccc(-c2c3nc(c(-c4ccccc4)c4ccc([nH]4)c(-c4ccccc4)c4nc(c(-c5ccccc5)c5ccc2[nH]5)C=C4)C=C3)cc1
REMARK SMILES IDX 20 1 19 2 17 3 18 4 16 5 1 6 2 7 3 8 4 9 5 10 6 11 7 12 8 14
REMARK SMILES IDX 9 15 10 16 15 17 11 18 14 19 12 20 13 21 21 24 22 25 23 26
REMARK SMILES IDX 24 27 25 28 26 29 72 30 27 31 71 32 28 33 29 34 30 35 65 36
REMARK SMILES IDX 31 37 70 38 64 39 66 40 32 41 69 42 63 43 62 44 33 46 55 47
REMARK SMILES IDX 40 48 54 49 41 50 44 51 53 52 67 53 42 54 43 55 52 57 68 58
REMARK SMILES IDX 45 59 34 60 35 61 39 62 36 63 38 64 37 65 56 66 57 67 61 68
REMARK SMILES IDX 58 69 60 70 59 71 46 72 47 73 51 74 48 75 50 76 49 77
REMARK H PARENT 6 13 13 22 13 23 66 45 44 56
REMARK Flexibility Score: inf
ROOT
ATOM      1  C   UNL A   1      32.225  29.296  27.053  1.00  0.00     0.275 C 
ENDROOT
BRANCH   1   2
ATOM      2  O   UNL A   1      32.265  28.739  25.728  1.00  0.00    -0.458 OA
BRANCH   2   3
ATOM      3  C   UNL A   1      33.083  27.657  25.555  1.00  0.00     0.343 C 
ATOM      4  O   UNL A   1      33.989  27.359  26.308  1.00  0.00    -0.246 OA
BRANCH   3   5
ATOM      5  C   UNL A   1      32.671  26.817  24.434  1.00  0.00     0.117 A 
ATOM      6  C   UNL A   1      33.779  28.057  22.389  1.00  0.00     0.069 C 
ATOM      7  C   UNL A   1      32.935  27.005  23.025  1.00  0.00     0.068 A 
ATOM      8  N   UNL A   1      32.339  26.142  22.202  1.00  0.00    -0.195 NA
ATOM      9  S   UNL A   1      31.385  25.133  23.087  1.00  0.00    -0.017 S 
ATOM     10  C   UNL A   1      31.858  25.702  24.614  1.00  0.00     0.131 A 
BRANCH  10  11
ATOM     11  N   UNL A   1      31.377  25.201  25.813  1.00  0.00    -0.312 N 
ATOM     12  C   UNL A   1      31.527  23.984  26.438  1.00  0.00     0.256 C 
ATOM     13  H   UNL A   1      30.818  25.839  26.315  1.00  0.00     0.171 HD
ATOM     14  O   UNL A   1      30.758  23.671  27.348  1.00  0.00    -0.269 OA
BRANCH  12  15
ATOM     15  C   UNL A   1      32.618  23.050  26.105  1.00  0.00     0.040 A 
ATOM     16  C   UNL A   1      32.427  22.027  25.172  1.00  0.00     0.016 A 
ATOM     17  C   UNL A   1      33.870  23.238  26.691  1.00  0.00     0.016 A 
ATOM     18  C   UNL A   1      33.461  21.123  24.920  1.00  0.00     0.026 A 
ATOM     19  C   UNL A   1      34.902  22.337  26.418  1.00  0.00     0.026 A 
ATOM     20  C   UNL A   1      34.689  21.241  25.576  1.00  0.00     0.031 A 
BRANCH  20  21
ATOM     21  N   UNL A   1      35.723  20.362  25.292  1.00  0.00    -0.399 N 
ATOM     22  H   UNL A   1      36.655  20.629  25.459  1.00  0.00     0.156 HD
ATOM     23  H   UNL A   1      35.525  19.471  24.924  1.00  0.00     0.156 HD
ENDBRANCH  20  21
ENDBRANCH  12  15
ENDBRANCH  10  11
ENDBRANCH   3   5
ENDBRANCH   2   3
ENDBRANCH   1   2
BRANCH   1  24
ATOM     24  C   UNL A   1      32.656  30.757  27.028  1.00  0.00     0.275 C 
BRANCH  24  25
ATOM     25  O   UNL A   1      34.080  30.903  26.982  1.00  0.00    -0.458 OA
BRANCH  25  26
ATOM     26  C   UNL A   1      34.615  31.675  27.954  1.00  0.00     0.338 C 
ATOM     27  O   UNL A   1      34.265  32.801  28.265  1.00  0.00    -0.246 OA
BRANCH  26  28
ATOM     28  C   UNL A   1      35.829  31.035  28.484  1.00  0.00     0.060 A 
ATOM     29  C   UNL A   1      36.878  31.858  28.904  1.00  0.00     0.016 A 
ATOM     30  C   UNL A   1      36.000  29.646  28.379  1.00  0.00     0.016 A 
ATOM     31  C   UNL A   1      38.124  31.296  29.128  1.00  0.00     0.010 A 
ATOM     32  C   UNL A   1      37.246  29.087  28.609  1.00  0.00     0.010 A 
ATOM     33  C   UNL A   1      38.315  29.919  28.933  1.00  0.00    -0.014 A 
BRANCH  33  34
ATOM     34  C   UNL A   1      39.652  29.383  29.150  1.00  0.00     0.031 A 
ATOM     35  C   UNL A   1      40.014  29.114  30.564  1.00  0.00     0.074 A 
ATOM     36  C   UNL A   1      40.501  29.030  28.167  1.00  0.00     0.049 A 
ATOM     37  N   UNL A   1      40.985  29.629  31.245  1.00  0.00    -0.248 NA
ATOM     38  C   UNL A   1      39.153  28.199  31.327  1.00  0.00     0.031 C 
ATOM     39  C   UNL A   1      40.240  28.919  26.731  1.00  0.00     0.029 A 
ATOM     40  N   UNL A   1      41.786  28.585  28.288  1.00  0.00    -0.354 N 
ATOM     41  C   UNL A   1      40.948  29.013  32.492  1.00  0.00     0.074 A 
ATOM     42  C   UNL A   1      39.753  28.204  32.517  1.00  0.00     0.031 C 
ATOM     43  C   UNL A   1      41.251  28.233  26.150  1.00  0.00     0.029 A 
ATOM     44  C   UNL A   1      42.283  27.986  27.143  1.00  0.00     0.049 A 
ATOM     45  H   UNL A   1      42.312  28.683  29.114  1.00  0.00     0.167 HD
ATOM     46  C   UNL A   1      41.986  29.076  33.367  1.00  0.00     0.031 A 
ATOM     47  C   UNL A   1      43.438  27.288  27.034  1.00  0.00     0.031 A 
ATOM     48  C   UNL A   1      42.913  30.125  33.051  1.00  0.00     0.049 A 
ATOM     49  C   UNL A   1      44.314  27.656  28.167  1.00  0.00     0.074 A 
ATOM     50  C   UNL A   1      42.843  31.501  32.967  1.00  0.00     0.029 A 
ATOM     51  N   UNL A   1      44.092  29.770  32.442  1.00  0.00    -0.354 N 
ATOM     52  N   UNL A   1      44.893  28.815  28.288  1.00  0.00    -0.248 NA
ATOM     53  C   UNL A   1      44.287  26.846  29.374  1.00  0.00     0.031 C 
ATOM     54  C   UNL A   1      43.742  31.856  31.919  1.00  0.00     0.029 A 
ATOM     55  C   UNL A   1      44.316  30.677  31.439  1.00  0.00     0.049 A 
ATOM     56  H   UNL A   1      44.666  29.007  32.681  1.00  0.00     0.167 HD
ATOM     57  C   UNL A   1      44.916  29.058  29.653  1.00  0.00     0.074 A 
ATOM     58  C   UNL A   1      44.665  27.760  30.270  1.00  0.00     0.031 C 
ATOM     59  C   UNL A   1      44.857  30.332  30.143  1.00  0.00     0.031 A 
BRANCH  46  60
ATOM     60  C   UNL A   1      42.337  27.965  34.319  1.00  0.00    -0.014 A 
ATOM     61  C   UNL A   1      42.984  26.818  33.824  1.00  0.00     0.009 A 
ATOM     62  C   UNL A   1      41.808  27.888  35.621  1.00  0.00     0.009 A 
ATOM     63  C   UNL A   1      43.049  25.639  34.576  1.00  0.00     0.001 A 
ATOM     64  C   UNL A   1      41.909  26.726  36.390  1.00  0.00     0.001 A 
ATOM     65  C   UNL A   1      42.507  25.593  35.857  1.00  0.00     0.000 A 
ENDBRANCH  46  60
BRANCH  47  66
ATOM     66  C   UNL A   1      43.750  26.167  26.128  1.00  0.00    -0.014 A 
ATOM     67  C   UNL A   1      45.052  25.980  25.639  1.00  0.00     0.009 A 
ATOM     68  C   UNL A   1      42.821  25.127  25.946  1.00  0.00     0.009 A 
ATOM     69  C   UNL A   1      45.417  24.779  25.018  1.00  0.00     0.001 A 
ATOM     70  C   UNL A   1      43.184  23.931  25.320  1.00  0.00     0.001 A 
ATOM     71  C   UNL A   1      44.487  23.751  24.871  1.00  0.00     0.000 A 
ENDBRANCH  47  66
BRANCH  59  72
ATOM     72  C   UNL A   1      45.059  31.468  29.170  1.00  0.00    -0.014 A 
ATOM     73  C   UNL A   1      46.307  32.087  28.976  1.00  0.00     0.009 A 
ATOM     74  C   UNL A   1      43.997  31.837  28.332  1.00  0.00     0.009 A 
ATOM     75  C   UNL A   1      46.473  33.077  28.004  1.00  0.00     0.001 A 
ATOM     76  C   UNL A   1      44.169  32.809  27.343  1.00  0.00     0.001 A 
ATOM     77  C   UNL A   1      45.404  33.435  27.187  1.00  0.00     0.000 A 
ENDBRANCH  59  72
ENDBRANCH  33  34
ENDBRANCH  26  28
ENDBRANCH  25  26
ENDBRANCH  24  25
ENDBRANCH   1  24
TORSDOF 14
ENDMDL
MODEL 3
REMARK VINA RESULT:      -9.3      4.333      6.480
REMARK SMILES Cc1nsc(NC(=O)c2ccc(N)cc2)c1C(=O)OCCOC(=O)c1ccc(-c2c3nc(c(-c4ccccc4)c4ccc([nH]4)c(-c4ccccc4)c4nc(c(-c5ccccc5)c5ccc2[nH]5)C=C4)C=C3)cc1
REMARK SMILES IDX 20 1 19 2 17 3 18 4 16 5 1 6 2 7 3 8 4 9 5 10 6 11 7 12 8 14
REMARK SMILES IDX 9 15 10 16 15 17 11 18 14 19 12 20 13 21 21 24 22 25 23 26
REMARK SMILES IDX 24 27 25 28 26 29 72 30 27 31 71 32 28 33 29 34 30 35 65 36
REMARK SMILES IDX 31 37 70 38 64 39 66 40 32 41 69 42 63 43 62 44 33 46 55 47
REMARK SMILES IDX 40 48 54 49 41 50 44 51 53 52 67 53 42 54 43 55 52 57 68 58
REMARK SMILES IDX 45 59 34 60 35 61 39 62 36 63 38 64 37 65 56 66 57 67 61 68
REMARK SMILES IDX 58 69 60 70 59 71 46 72 47 73 51 74 48 75 50 76 49 77
REMARK H PARENT 6 13 13 22 13 23 66 45 44 56
REMARK Flexibility Score: inf
ROOT
ATOM      1  C   UNL A   1      32.531  29.111  27.221  1.00  0.00     0.275 C 
ENDROOT
BRANCH   1   2
ATOM      2  O   UNL A   1      31.952  28.622  25.999  1.00  0.00    -0.458 OA
BRANCH   2   3
ATOM      3  C   UNL A   1      32.830  28.347  24.987  1.00  0.00     0.343 C 
ATOM      4  O   UNL A   1      34.039  28.352  25.111  1.00  0.00    -0.246 OA
BRANCH   3   5
ATOM      5  C   UNL A   1      32.158  27.918  23.764  1.00  0.00     0.117 A 
ATOM      6  C   UNL A   1      30.214  29.687  23.561  1.00  0.00     0.069 C 
ATOM      7  C   UNL A   1      30.975  28.474  23.145  1.00  0.00     0.068 A 
ATOM      8  N   UNL A   1      30.507  27.812  22.087  1.00  0.00    -0.195 NA
ATOM      9  S   UNL A   1      31.423  26.463  21.854  1.00  0.00    -0.017 S 
ATOM     10  C   UNL A   1      32.577  26.798  23.052  1.00  0.00     0.131 A 
BRANCH  10  11
ATOM     11  N   UNL A   1      33.663  25.985  23.333  1.00  0.00    -0.312 N 
ATOM     12  C   UNL A   1      33.865  24.997  24.269  1.00  0.00     0.256 C 
ATOM     13  H   UNL A   1      34.442  26.146  22.752  1.00  0.00     0.171 HD
ATOM     14  O   UNL A   1      35.012  24.627  24.523  1.00  0.00    -0.269 OA
BRANCH  12  15
ATOM     15  C   UNL A   1      32.752  24.307  24.947  1.00  0.00     0.040 A 
ATOM     16  C   UNL A   1      32.350  24.685  26.232  1.00  0.00     0.016 A 
ATOM     17  C   UNL A   1      32.061  23.306  24.264  1.00  0.00     0.016 A 
ATOM     18  C   UNL A   1      31.332  23.975  26.871  1.00  0.00     0.026 A 
ATOM     19  C   UNL A   1      31.032  22.615  24.908  1.00  0.00     0.026 A 
ATOM     20  C   UNL A   1      30.698  22.904  26.235  1.00  0.00     0.031 A 
BRANCH  20  21
ATOM     21  N   UNL A   1      29.663  22.230  26.862  1.00  0.00    -0.399 N 
ATOM     22  H   UNL A   1      29.577  22.262  27.842  1.00  0.00     0.156 HD
ATOM     23  H   UNL A   1      29.013  21.718  26.327  1.00  0.00     0.156 HD
ENDBRANCH  20  21
ENDBRANCH  12  15
ENDBRANCH  10  11
ENDBRANCH   3   5
ENDBRANCH   2   3
ENDBRANCH   1   2
BRANCH   1  24
ATOM     24  C   UNL A   1      32.696  30.625  27.162  1.00  0.00     0.275 C 
BRANCH  24  25
ATOM     25  O   UNL A   1      34.068  31.016  27.039  1.00  0.00    -0.458 OA
BRANCH  25  26
ATOM     26  C   UNL A   1      34.664  31.409  28.187  1.00  0.00     0.338 C 
ATOM     27  O   UNL A   1      34.208  32.174  29.020  1.00  0.00    -0.246 OA
BRANCH  26  28
ATOM     28  C   UNL A   1      36.052  30.922  28.217  1.00  0.00     0.060 A 
ATOM     29  C   UNL A   1      36.299  29.611  27.802  1.00  0.00     0.016 A 
ATOM     30  C   UNL A   1      37.056  31.684  28.834  1.00  0.00     0.016 A 
ATOM     31  C   UNL A   1      37.525  29.034  28.090  1.00  0.00     0.010 A 
ATOM     32  C   UNL A   1      38.283  31.106  29.115  1.00  0.00     0.010 A 
ATOM     33  C   UNL A   1      38.495  29.769  28.788  1.00  0.00    -0.014 A 
BRANCH  33  34
ATOM     34  C   UNL A   1      39.756  29.107  29.096  1.00  0.00     0.031 A 
ATOM     35  C   UNL A   1      40.071  28.966  30.540  1.00  0.00     0.074 A 
ATOM     36  C   UNL A   1      40.566  28.542  28.181  1.00  0.00     0.049 A 
ATOM     37  N   UNL A   1      41.090  29.439  31.179  1.00  0.00    -0.248 NA
ATOM     38  C   UNL A   1      39.099  28.255  31.384  1.00  0.00     0.031 C 
ATOM     39  C   UNL A   1      40.305  28.295  26.762  1.00  0.00     0.029 A 
ATOM     40  N   UNL A   1      41.786  27.966  28.382  1.00  0.00    -0.354 N 
ATOM     41  C   UNL A   1      40.967  28.982  32.488  1.00  0.00     0.074 A 
ATOM     42  C   UNL A   1      39.684  28.330  32.579  1.00  0.00     0.031 C 
ATOM     43  C   UNL A   1      41.231  27.430  26.288  1.00  0.00     0.029 A 
ATOM     44  C   UNL A   1      42.218  27.181  27.326  1.00  0.00     0.049 A 
ATOM     45  H   UNL A   1      42.313  28.097  29.204  1.00  0.00     0.167 HD
ATOM     46  C   UNL A   1      41.998  29.024  33.374  1.00  0.00     0.031 A 
ATOM     47  C   UNL A   1      43.281  26.343  27.325  1.00  0.00     0.031 A 
ATOM     48  C   UNL A   1      43.048  29.911  32.959  1.00  0.00     0.049 A 
ATOM     49  C   UNL A   1      44.185  26.736  28.428  1.00  0.00     0.074 A 
ATOM     50  C   UNL A   1      43.145  31.266  32.715  1.00  0.00     0.029 A 
ATOM     51  N   UNL A   1      44.180  29.350  32.423  1.00  0.00    -0.354 N 
ATOM     52  N   UNL A   1      44.898  27.824  28.428  1.00  0.00    -0.248 NA
ATOM     53  C   UNL A   1      44.049  26.082  29.719  1.00  0.00     0.031 C 
ATOM     54  C   UNL A   1      44.089  31.386  31.654  1.00  0.00     0.029 A 
ATOM     55  C   UNL A   1      44.521  30.099  31.327  1.00  0.00     0.049 A 
ATOM     56  H   UNL A   1      44.656  28.558  32.762  1.00  0.00     0.167 HD
ATOM     57  C   UNL A   1      44.938  28.222  29.755  1.00  0.00     0.074 A 
ATOM     58  C   UNL A   1      44.527  27.045  30.512  1.00  0.00     0.031 C 
ATOM     59  C   UNL A   1      45.028  29.542  30.092  1.00  0.00     0.031 A 
BRANCH  46  60
ATOM     60  C   UNL A   1      42.203  28.000  34.455  1.00  0.00    -0.014 A 
ATOM     61  C   UNL A   1      42.703  26.730  34.110  1.00  0.00     0.009 A 
ATOM     62  C   UNL A   1      41.666  28.144  35.748  1.00  0.00     0.009 A 
ATOM     63  C   UNL A   1      42.617  25.651  34.997  1.00  0.00     0.001 A 
ATOM     64  C   UNL A   1      41.617  27.078  36.650  1.00  0.00     0.001 A 
ATOM     65  C   UNL A   1      42.070  25.824  36.265  1.00  0.00     0.000 A 
ENDBRANCH  46  60
BRANCH  47  66
ATOM     66  C   UNL A   1      43.464  25.094  26.563  1.00  0.00    -0.014 A 
ATOM     67  C   UNL A   1      42.566  24.026  26.707  1.00  0.00     0.009 A 
ATOM     68  C   UNL A   1      44.381  25.045  25.497  1.00  0.00     0.009 A 
ATOM     69  C   UNL A   1      42.565  22.963  25.795  1.00  0.00     0.001 A 
ATOM     70  C   UNL A   1      44.385  23.982  24.592  1.00  0.00     0.001 A 
ATOM     71  C   UNL A   1      43.466  22.948  24.731  1.00  0.00     0.000 A 
ENDBRANCH  47  66
BRANCH  59  72
ATOM     72  C   UNL A   1      45.375  30.523  29.000  1.00  0.00    -0.014 A 
ATOM     73  C   UNL A   1      46.695  30.929  28.736  1.00  0.00     0.009 A 
ATOM     74  C   UNL A   1      44.362  30.949  28.128  1.00  0.00     0.009 A 
ATOM     75  C   UNL A   1      46.985  31.773  27.660  1.00  0.00     0.001 A 
ATOM     76  C   UNL A   1      44.655  31.771  27.037  1.00  0.00     0.001 A 
ATOM     77  C   UNL A   1      45.964  32.191  26.810  1.00  0.00     0.000 A 
ENDBRANCH  59  72
ENDBRANCH  33  34
ENDBRANCH  26  28
ENDBRANCH  25  26
ENDBRANCH  24  25
ENDBRANCH   1  24
TORSDOF 14
ENDMDL
