MODEL 1
REMARK VINA RESULT:     -11.5      0.000      0.000
REMARK SMILES O=C(OCCOC(=O)c1cc(NS(=O)(=O)c2ccc(Br)s2)cnc1N1CCCC1)c1ccc(-c2c3nc(c(-c4ccccc4)c4ccc([nH]4)c(-c4ccccc4)c4nc(c(-c5ccccc5)c5ccc2[nH]5)C=C4)C=C3)cc1
REMARK SMILES IDX 5 1 4 2 3 3 2 4 1 5 30 6 31 7 77 8 32 9 76 10 33 11 34 12
REMARK SMILES IDX 35 13 70 14 36 15 75 16 69 17 71 18 37 19 74 20 68 21 67 22
REMARK SMILES IDX 38 24 60 25 45 26 59 27 46 28 49 29 58 30 72 31 47 32 48 33
REMARK SMILES IDX 57 35 73 36 50 37 39 38 40 39 44 40 41 41 43 42 42 43 61 44
REMARK SMILES IDX 62 45 66 46 63 47 65 48 64 49 51 50 52 51 56 52 53 53 55 54
REMARK SMILES IDX 54 55 6 56 7 57 8 58 9 59 10 60 24 61 11 62 23 63 22 64
REMARK SMILES IDX 25 65 26 66 29 67 27 68 28 69 12 70 13 72 14 73 15 74 16 75
REMARK SMILES IDX 17 76 21 77 18 78 19 79 20 80
REMARK H PARENT 71 23 49 34 12 71
REMARK Flexibility Score: inf
ROOT
ATOM      1  C   UNL A   1      37.582  20.754  25.036  1.00  0.00     0.275 C 
ENDROOT
BRANCH   1   2
ATOM      2  C   UNL A   1      38.671  19.653  25.082  1.00  0.00     0.275 C 
BRANCH   2   3
ATOM      3  O   UNL A   1      39.461  19.605  26.267  1.00  0.00    -0.458 OA
BRANCH   3   4
ATOM      4  C   UNL A   1      40.803  19.619  26.083  1.00  0.00     0.338 C 
ATOM      5  O   UNL A   1      41.493  18.673  25.770  1.00  0.00    -0.246 OA
BRANCH   4   6
ATOM      6  C   UNL A   1      41.270  20.951  26.563  1.00  0.00     0.060 A 
ATOM      7  C   UNL A   1      41.674  21.922  25.633  1.00  0.00     0.016 A 
ATOM      8  C   UNL A   1      41.144  21.296  27.906  1.00  0.00     0.016 A 
ATOM      9  C   UNL A   1      41.962  23.210  26.037  1.00  0.00     0.010 A 
ATOM     10  C   UNL A   1      41.358  22.611  28.306  1.00  0.00     0.010 A 
ATOM     11  C   UNL A   1      41.812  23.556  27.377  1.00  0.00    -0.014 A 
BRANCH  11  12
ATOM     12  C   UNL A   1      42.375  24.833  27.833  1.00  0.00     0.031 A 
ATOM     13  C   UNL A   1      41.409  25.957  28.067  1.00  0.00     0.074 A 
ATOM     14  C   UNL A   1      43.687  24.939  28.102  1.00  0.00     0.049 A 
ATOM     15  N   UNL A   1      41.637  27.183  28.446  1.00  0.00    -0.248 NA
ATOM     16  C   UNL A   1      39.981  25.661  27.828  1.00  0.00     0.031 C 
ATOM     17  C   UNL A   1      44.690  23.879  27.928  1.00  0.00     0.029 A 
ATOM     18  N   UNL A   1      44.410  26.010  28.551  1.00  0.00    -0.354 N 
ATOM     19  C   UNL A   1      40.388  27.787  28.500  1.00  0.00     0.074 A 
ATOM     20  C   UNL A   1      39.422  26.844  27.997  1.00  0.00     0.031 C 
ATOM     21  C   UNL A   1      45.907  24.379  28.202  1.00  0.00     0.029 A 
ATOM     22  C   UNL A   1      45.764  25.788  28.553  1.00  0.00     0.049 A 
ATOM     23  H   UNL A   1      43.999  26.855  28.843  1.00  0.00     0.167 HD
ATOM     24  C   UNL A   1      40.064  28.997  29.004  1.00  0.00     0.031 A 
ATOM     25  C   UNL A   1      46.767  26.655  28.771  1.00  0.00     0.031 A 
ATOM     26  C   UNL A   1      41.047  29.905  29.515  1.00  0.00     0.049 A 
ATOM     27  C   UNL A   1      46.408  28.052  29.184  1.00  0.00     0.074 A 
ATOM     28  C   UNL A   1      40.868  31.138  30.107  1.00  0.00     0.029 A 
ATOM     29  N   UNL A   1      42.413  29.656  29.486  1.00  0.00    -0.354 N 
ATOM     30  N   UNL A   1      45.221  28.600  29.301  1.00  0.00    -0.248 NA
ATOM     31  C   UNL A   1      47.521  28.933  29.554  1.00  0.00     0.031 C 
ATOM     32  C   UNL A   1      42.134  31.656  30.399  1.00  0.00     0.029 A 
ATOM     33  C   UNL A   1      43.096  30.721  30.038  1.00  0.00     0.049 A 
ATOM     34  H   UNL A   1      42.833  28.842  29.125  1.00  0.00     0.167 HD
ATOM     35  C   UNL A   1      45.434  29.866  29.822  1.00  0.00     0.074 A 
ATOM     36  C   UNL A   1      46.872  30.013  29.970  1.00  0.00     0.031 C 
ATOM     37  C   UNL A   1      44.529  30.808  30.182  1.00  0.00     0.031 A 
BRANCH  24  38
ATOM     38  C   UNL A   1      38.603  29.353  29.019  1.00  0.00    -0.014 A 
ATOM     39  C   UNL A   1      38.006  30.015  27.929  1.00  0.00     0.009 A 
ATOM     40  C   UNL A   1      37.830  29.098  30.159  1.00  0.00     0.009 A 
ATOM     41  C   UNL A   1      36.690  30.475  28.010  1.00  0.00     0.001 A 
ATOM     42  C   UNL A   1      36.502  29.528  30.223  1.00  0.00     0.001 A 
ATOM     43  C   UNL A   1      35.940  30.232  29.158  1.00  0.00     0.000 A 
ENDBRANCH  24  38
BRANCH  25  44
ATOM     44  C   UNL A   1      48.176  26.222  28.602  1.00  0.00    -0.014 A 
ATOM     45  C   UNL A   1      48.897  25.662  29.665  1.00  0.00     0.009 A 
ATOM     46  C   UNL A   1      48.798  26.344  27.350  1.00  0.00     0.009 A 
ATOM     47  C   UNL A   1      50.218  25.242  29.478  1.00  0.00     0.001 A 
ATOM     48  C   UNL A   1      50.111  25.907  27.162  1.00  0.00     0.001 A 
ATOM     49  C   UNL A   1      50.823  25.360  28.227  1.00  0.00     0.000 A 
ENDBRANCH  25  44
BRANCH  37  50
ATOM     50  C   UNL A   1      45.061  32.031  30.863  1.00  0.00    -0.014 A 
ATOM     51  C   UNL A   1      45.407  33.182  30.143  1.00  0.00     0.009 A 
ATOM     52  C   UNL A   1      45.149  32.039  32.264  1.00  0.00     0.009 A 
ATOM     53  C   UNL A   1      45.854  34.318  30.819  1.00  0.00     0.001 A 
ATOM     54  C   UNL A   1      45.567  33.185  32.937  1.00  0.00     0.001 A 
ATOM     55  C   UNL A   1      45.925  34.320  32.213  1.00  0.00     0.000 A 
ENDBRANCH  37  50
ENDBRANCH  11  12
ENDBRANCH   4   6
ENDBRANCH   3   4
ENDBRANCH   2   3
ENDBRANCH   1   2
BRANCH   1  56
ATOM     56  O   UNL A   1      36.229  20.257  24.981  1.00  0.00    -0.458 OA
BRANCH  56  57
ATOM     57  C   UNL A   1      35.256  21.020  25.542  1.00  0.00     0.342 C 
ATOM     58  O   UNL A   1      35.175  21.362  26.709  1.00  0.00    -0.246 OA
BRANCH  57  59
ATOM     59  C   UNL A   1      34.200  21.246  24.539  1.00  0.00     0.104 A 
ATOM     60  C   UNL A   1      34.146  22.483  23.873  1.00  0.00     0.048 A 
ATOM     61  C   UNL A   1      33.286  20.240  24.212  1.00  0.00     0.143 A 
ATOM     62  C   UNL A   1      33.133  22.729  22.946  1.00  0.00     0.068 A 
ATOM     63  N   UNL A   1      32.236  20.510  23.405  1.00  0.00    -0.236 NA
ATOM     64  C   UNL A   1      32.173  21.735  22.819  1.00  0.00     0.140 A 
BRANCH  61  65
ATOM     65  N   UNL A   1      33.479  18.928  24.588  1.00  0.00    -0.356 N 
ATOM     66  C   UNL A   1      32.630  18.295  25.583  1.00  0.00     0.118 C 
ATOM     67  C   UNL A   1      33.645  17.979  23.484  1.00  0.00     0.118 C 
ATOM     68  C   UNL A   1      33.199  16.887  25.607  1.00  0.00     0.023 C 
ATOM     69  C   UNL A   1      33.462  16.600  24.135  1.00  0.00     0.023 C 
ENDBRANCH  61  65
BRANCH  62  70
ATOM     70  N   UNL A   1      33.335  23.804  22.010  1.00  0.00    -0.277 N 
ATOM     71  H   UNL A   1      33.816  23.605  21.175  1.00  0.00     0.180 HD
BRANCH  70  72
ATOM     72  S   UNL A   1      32.795  25.385  22.257  1.00  0.00     0.271 S 
ATOM     73  O   UNL A   1      33.674  26.257  21.521  1.00  0.00    -0.200 OA
ATOM     74  O   UNL A   1      31.367  25.364  22.019  1.00  0.00    -0.200 OA
BRANCH  72  75
ATOM     75  C   UNL A   1      32.971  25.864  23.955  1.00  0.00     0.141 A 
ATOM     76  C   UNL A   1      34.040  25.869  24.835  1.00  0.00     0.035 A 
ATOM     77  S   UNL A   1      31.573  26.560  24.671  1.00  0.00    -0.115 S 
ATOM     78  C   UNL A   1      33.757  26.634  26.009  1.00  0.00     0.029 A 
ATOM     79  C   UNL A   1      32.459  27.078  26.012  1.00  0.00     0.071 A 
ATOM     80  Br  UNL A   1      31.734  28.169  27.349  1.00  0.00    -0.039 Br
ENDBRANCH  72  75
ENDBRANCH  70  72
ENDBRANCH  62  70
ENDBRANCH  57  59
ENDBRANCH  56  57
ENDBRANCH   1  56
TORSDOF 15
ENDMDL
MODEL 2
REMARK VINA RESULT:     -11.2      2.763      7.469
REMARK SMILES O=C(OCCOC(=O)c1cc(NS(=O)(=O)c2ccc(Br)s2)cnc1N1CCCC1)c1ccc(-c2c3nc(c(-c4ccccc4)c4ccc([nH]4)c(-c4ccccc4)c4nc(c(-c5ccccc5)c5ccc2[nH]5)C=C4)C=C3)cc1
REMARK SMILES IDX 5 1 4 2 3 3 2 4 1 5 30 6 31 7 77 8 32 9 76 10 33 11 34 12
REMARK SMILES IDX 35 13 70 14 36 15 75 16 69 17 71 18 37 19 74 20 68 21 67 22
REMARK SMILES IDX 38 24 60 25 45 26 59 27 46 28 49 29 58 30 72 31 47 32 48 33
REMARK SMILES IDX 57 35 73 36 50 37 39 38 40 39 44 40 41 41 43 42 42 43 61 44
REMARK SMILES IDX 62 45 66 46 63 47 65 48 64 49 51 50 52 51 56 52 53 53 55 54
REMARK SMILES IDX 54 55 6 56 7 57 8 58 9 59 10 60 24 61 11 62 23 63 22 64
REMARK SMILES IDX 25 65 26 66 29 67 27 68 28 69 12 70 13 72 14 73 15 74 16 75
REMARK SMILES IDX 17 76 21 77 18 78 19 79 20 80
REMARK H PARENT 71 23 49 34 12 71
REMARK Flexibility Score: inf
ROOT
ATOM      1  C   UNL A   1      32.842  28.673  25.153  1.00  0.00     0.275 C 
ENDROOT
BRANCH   1   2
ATOM      2  C   UNL A   1      33.205  29.775  26.181  1.00  0.00     0.275 C 
BRANCH   2   3
ATOM      3  O   UNL A   1      34.007  29.359  27.283  1.00  0.00    -0.458 OA
BRANCH   3   4
ATOM      4  C   UNL A   1      34.564  30.354  28.014  1.00  0.00     0.338 C 
ATOM      5  O   UNL A   1      34.087  31.450  28.215  1.00  0.00    -0.246 OA
BRANCH   4   6
ATOM      6  C   UNL A   1      35.957  29.913  28.314  1.00  0.00     0.060 A 
ATOM      7  C   UNL A   1      36.960  30.078  27.346  1.00  0.00     0.016 A 
ATOM      8  C   UNL A   1      36.302  29.503  29.599  1.00  0.00     0.016 A 
ATOM      9  C   UNL A   1      38.283  29.823  27.650  1.00  0.00     0.010 A 
ATOM     10  C   UNL A   1      37.641  29.321  29.932  1.00  0.00     0.010 A 
ATOM     11  C   UNL A   1      38.625  29.436  28.943  1.00  0.00    -0.014 A 
BRANCH  11  12
ATOM     12  C   UNL A   1      39.977  28.912  29.177  1.00  0.00     0.031 A 
ATOM     13  C   UNL A   1      40.968  29.846  29.807  1.00  0.00     0.074 A 
ATOM     14  C   UNL A   1      40.263  27.627  28.908  1.00  0.00     0.049 A 
ATOM     15  N   UNL A   1      42.222  29.650  30.102  1.00  0.00    -0.248 NA
ATOM     16  C   UNL A   1      40.479  31.200  30.143  1.00  0.00     0.031 C 
ATOM     17  C   UNL A   1      39.341  26.645  28.320  1.00  0.00     0.029 A 
ATOM     18  N   UNL A   1      41.431  26.934  29.067  1.00  0.00    -0.354 N 
ATOM     19  C   UNL A   1      42.656  30.843  30.663  1.00  0.00     0.074 A 
ATOM     20  C   UNL A   1      41.581  31.796  30.554  1.00  0.00     0.031 C 
ATOM     21  C   UNL A   1      40.005  25.496  28.105  1.00  0.00     0.029 A 
ATOM     22  C   UNL A   1      41.391  25.673  28.526  1.00  0.00     0.049 A 
ATOM     23  H   UNL A   1      42.221  27.303  29.523  1.00  0.00     0.167 HD
ATOM     24  C   UNL A   1      43.825  31.098  31.290  1.00  0.00     0.031 A 
ATOM     25  C   UNL A   1      42.388  24.789  28.356  1.00  0.00     0.031 A 
ATOM     26  C   UNL A   1      44.867  30.121  31.398  1.00  0.00     0.049 A 
ATOM     27  C   UNL A   1      43.735  25.135  28.919  1.00  0.00     0.074 A 
ATOM     28  C   UNL A   1      46.080  30.212  32.048  1.00  0.00     0.029 A 
ATOM     29  N   UNL A   1      44.802  28.858  30.823  1.00  0.00    -0.354 N 
ATOM     30  N   UNL A   1      44.123  26.241  29.512  1.00  0.00    -0.248 NA
ATOM     31  C   UNL A   1      44.765  24.094  28.845  1.00  0.00     0.031 C 
ATOM     32  C   UNL A   1      46.769  29.014  31.832  1.00  0.00     0.029 A 
ATOM     33  C   UNL A   1      45.962  28.160  31.092  1.00  0.00     0.049 A 
ATOM     34  H   UNL A   1      44.041  28.513  30.302  1.00  0.00     0.167 HD
ATOM     35  C   UNL A   1      45.419  26.007  29.944  1.00  0.00     0.074 A 
ATOM     36  C   UNL A   1      45.759  24.661  29.516  1.00  0.00     0.031 C 
ATOM     37  C   UNL A   1      46.241  26.812  30.661  1.00  0.00     0.031 A 
BRANCH  24  38
ATOM     38  C   UNL A   1      43.984  32.466  31.892  1.00  0.00    -0.014 A 
ATOM     39  C   UNL A   1      44.706  33.474  31.224  1.00  0.00     0.009 A 
ATOM     40  C   UNL A   1      43.479  32.734  33.171  1.00  0.00     0.009 A 
ATOM     41  C   UNL A   1      44.977  34.691  31.851  1.00  0.00     0.001 A 
ATOM     42  C   UNL A   1      43.722  33.967  33.783  1.00  0.00     0.001 A 
ATOM     43  C   UNL A   1      44.486  34.936  33.131  1.00  0.00     0.000 A 
ENDBRANCH  24  38
BRANCH  25  44
ATOM     44  C   UNL A   1      42.141  23.519  27.632  1.00  0.00    -0.014 A 
ATOM     45  C   UNL A   1      42.441  23.387  26.270  1.00  0.00     0.009 A 
ATOM     46  C   UNL A   1      41.624  22.411  28.322  1.00  0.00     0.009 A 
ATOM     47  C   UNL A   1      42.218  22.174  25.611  1.00  0.00     0.001 A 
ATOM     48  C   UNL A   1      41.420  21.195  27.666  1.00  0.00     0.001 A 
ATOM     49  C   UNL A   1      41.713  21.078  26.309  1.00  0.00     0.000 A 
ENDBRANCH  25  44
BRANCH  37  50
ATOM     50  C   UNL A   1      47.540  26.219  31.112  1.00  0.00    -0.014 A 
ATOM     51  C   UNL A   1      48.679  26.237  30.297  1.00  0.00     0.009 A 
ATOM     52  C   UNL A   1      47.628  25.697  32.412  1.00  0.00     0.009 A 
ATOM     53  C   UNL A   1      49.884  25.718  30.772  1.00  0.00     0.001 A 
ATOM     54  C   UNL A   1      48.840  25.207  32.894  1.00  0.00     0.001 A 
ATOM     55  C   UNL A   1      49.965  25.212  32.070  1.00  0.00     0.000 A 
ENDBRANCH  37  50
ENDBRANCH  11  12
ENDBRANCH   4   6
ENDBRANCH   3   4
ENDBRANCH   2   3
ENDBRANCH   1   2
BRANCH   1  56
ATOM     56  O   UNL A   1      32.842  27.333  25.684  1.00  0.00    -0.458 OA
BRANCH  56  57
ATOM     57  C   UNL A   1      31.649  26.805  26.060  1.00  0.00     0.342 C 
ATOM     58  O   UNL A   1      30.991  27.107  27.040  1.00  0.00    -0.246 OA
BRANCH  57  59
ATOM     59  C   UNL A   1      31.335  25.672  25.171  1.00  0.00     0.104 A 
ATOM     60  C   UNL A   1      31.796  24.389  25.514  1.00  0.00     0.048 A 
ATOM     61  C   UNL A   1      30.554  25.847  24.025  1.00  0.00     0.143 A 
ATOM     62  C   UNL A   1      31.540  23.310  24.668  1.00  0.00     0.068 A 
ATOM     63  N   UNL A   1      30.402  24.834  23.143  1.00  0.00    -0.236 NA
ATOM     64  C   UNL A   1      30.909  23.616  23.469  1.00  0.00     0.140 A 
BRANCH  61  65
ATOM     65  N   UNL A   1      29.820  26.994  23.810  1.00  0.00    -0.356 N 
ATOM     66  C   UNL A   1      30.115  27.881  22.696  1.00  0.00     0.118 C 
ATOM     67  C   UNL A   1      28.366  26.826  23.865  1.00  0.00     0.118 C 
ATOM     68  C   UNL A   1      29.033  28.935  22.862  1.00  0.00     0.023 C 
ATOM     69  C   UNL A   1      27.808  28.111  23.236  1.00  0.00     0.023 C 
ENDBRANCH  61  65
BRANCH  62  70
ATOM     70  N   UNL A   1      31.658  21.987  25.222  1.00  0.00    -0.277 N 
ATOM     71  H   UNL A   1      30.996  21.708  25.895  1.00  0.00     0.180 HD
BRANCH  70  72
ATOM     72  S   UNL A   1      32.861  20.885  24.787  1.00  0.00     0.271 S 
ATOM     73  O   UNL A   1      33.072  20.014  25.915  1.00  0.00    -0.200 OA
ATOM     74  O   UNL A   1      32.483  20.370  23.488  1.00  0.00    -0.200 OA
BRANCH  72  75
ATOM     75  C   UNL A   1      34.413  21.701  24.525  1.00  0.00     0.141 A 
ATOM     76  C   UNL A   1      34.858  22.619  23.589  1.00  0.00     0.035 A 
ATOM     77  S   UNL A   1      35.616  21.390  25.712  1.00  0.00    -0.115 S 
ATOM     78  C   UNL A   1      36.100  23.212  23.977  1.00  0.00     0.029 A 
ATOM     79  C   UNL A   1      36.587  22.640  25.125  1.00  0.00     0.071 A 
ATOM     80  Br  UNL A   1      38.156  23.196  25.981  1.00  0.00    -0.039 Br
ENDBRANCH  72  75
ENDBRANCH  70  72
ENDBRANCH  62  70
ENDBRANCH  57  59
ENDBRANCH  56  57
ENDBRANCH   1  56
TORSDOF 15
ENDMDL
MODEL 3
REMARK VINA RESULT:     -10.9      3.912      8.876
REMARK SMILES O=C(OCCOC(=O)c1cc(NS(=O)(=O)c2ccc(Br)s2)cnc1N1CCCC1)c1ccc(-c2c3nc(c(-c4ccccc4)c4ccc([nH]4)c(-c4ccccc4)c4nc(c(-c5ccccc5)c5ccc2[nH]5)C=C4)C=C3)cc1
REMARK SMILES IDX 5 1 4 2 3 3 2 4 1 5 30 6 31 7 77 8 32 9 76 10 33 11 34 12
REMARK SMILES IDX 35 13 70 14 36 15 75 16 69 17 71 18 37 19 74 20 68 21 67 22
REMARK SMILES IDX 38 24 60 25 45 26 59 27 46 28 49 29 58 30 72 31 47 32 48 33
REMARK SMILES IDX 57 35 73 36 50 37 39 38 40 39 44 40 41 41 43 42 42 43 61 44
REMARK SMILES IDX 62 45 66 46 63 47 65 48 64 49 51 50 52 51 56 52 53 53 55 54
REMARK SMILES IDX 54 55 6 56 7 57 8 58 9 59 10 60 24 61 11 62 23 63 22 64
REMARK SMILES IDX 25 65 26 66 29 67 27 68 28 69 12 70 13 72 14 73 15 74 16 75
REMARK SMILES IDX 17 76 21 77 18 78 19 79 20 80
REMARK H PARENT 71 23 49 34 12 71
REMARK Flexibility Score: inf
ROOT
ATOM      1  C   UNL A   1      32.374  30.743  26.898  1.00  0.00     0.275 C 
ENDROOT
BRANCH   1   2
ATOM      2  C   UNL A   1      32.221  32.285  26.902  1.00  0.00     0.275 C 
BRANCH   2   3
ATOM      3  O   UNL A   1      32.195  32.907  28.184  1.00  0.00    -0.458 OA
BRANCH   3   4
ATOM      4  C   UNL A   1      33.033  33.959  28.346  1.00  0.00     0.338 C 
ATOM      5  O   UNL A   1      32.811  35.107  28.030  1.00  0.00    -0.246 OA
BRANCH   4   6
ATOM      6  C   UNL A   1      34.341  33.380  28.767  1.00  0.00     0.060 A 
ATOM      7  C   UNL A   1      35.496  33.658  28.018  1.00  0.00     0.016 A 
ATOM      8  C   UNL A   1      34.456  32.715  29.985  1.00  0.00     0.016 A 
ATOM      9  C   UNL A   1      36.741  33.266  28.469  1.00  0.00     0.010 A 
ATOM     10  C   UNL A   1      35.714  32.387  30.480  1.00  0.00     0.010 A 
ATOM     11  C   UNL A   1      36.852  32.623  29.698  1.00  0.00    -0.014 A 
BRANCH  11  12
ATOM     12  C   UNL A   1      38.128  31.978  30.033  1.00  0.00     0.031 A 
ATOM     13  C   UNL A   1      39.076  32.755  30.899  1.00  0.00     0.074 A 
ATOM     14  C   UNL A   1      38.376  30.717  29.639  1.00  0.00     0.049 A 
ATOM     15  N   UNL A   1      40.265  32.435  31.323  1.00  0.00    -0.248 NA
ATOM     16  C   UNL A   1      38.622  34.090  31.341  1.00  0.00     0.031 C 
ATOM     17  C   UNL A   1      37.489  29.883  28.818  1.00  0.00     0.029 A 
ATOM     18  N   UNL A   1      39.471  29.927  29.855  1.00  0.00    -0.354 N 
ATOM     19  C   UNL A   1      40.685  33.518  32.084  1.00  0.00     0.074 A 
ATOM     20  C   UNL A   1      39.690  34.552  31.963  1.00  0.00     0.031 C 
ATOM     21  C   UNL A   1      38.110  28.723  28.543  1.00  0.00     0.029 A 
ATOM     22  C   UNL A   1      39.434  28.747  29.156  1.00  0.00     0.049 A 
ATOM     23  H   UNL A   1      40.211  30.181  30.451  1.00  0.00     0.167 HD
ATOM     24  C   UNL A   1      41.771  33.610  32.882  1.00  0.00     0.031 A 
ATOM     25  C   UNL A   1      40.394  27.820  29.002  1.00  0.00     0.031 A 
ATOM     26  C   UNL A   1      42.733  32.555  32.995  1.00  0.00     0.049 A 
ATOM     27  C   UNL A   1      41.670  27.998  29.771  1.00  0.00     0.074 A 
ATOM     28  C   UNL A   1      43.850  32.479  33.801  1.00  0.00     0.029 A 
ATOM     29  N   UNL A   1      42.675  31.378  32.259  1.00  0.00    -0.354 N 
ATOM     30  N   UNL A   1      42.035  28.993  30.546  1.00  0.00    -0.248 NA
ATOM     31  C   UNL A   1      42.641  26.901  29.696  1.00  0.00     0.031 C 
ATOM     32  C   UNL A   1      44.493  31.269  33.521  1.00  0.00     0.029 A 
ATOM     33  C   UNL A   1      43.747  30.570  32.581  1.00  0.00     0.049 A 
ATOM     34  H   UNL A   1      41.974  31.153  31.605  1.00  0.00     0.167 HD
ATOM     35  C   UNL A   1      43.246  28.616  31.106  1.00  0.00     0.074 A 
ATOM     36  C   UNL A   1      43.565  27.311  30.555  1.00  0.00     0.031 C 
ATOM     37  C   UNL A   1      44.007  29.268  32.019  1.00  0.00     0.031 A 
BRANCH  24  38
ATOM     38  C   UNL A   1      41.923  34.881  33.671  1.00  0.00    -0.014 A 
ATOM     39  C   UNL A   1      42.699  35.950  33.182  1.00  0.00     0.009 A 
ATOM     40  C   UNL A   1      41.355  34.988  34.947  1.00  0.00     0.009 A 
ATOM     41  C   UNL A   1      42.959  37.064  33.981  1.00  0.00     0.001 A 
ATOM     42  C   UNL A   1      41.588  36.121  35.731  1.00  0.00     0.001 A 
ATOM     43  C   UNL A   1      42.404  37.148  35.256  1.00  0.00     0.000 A 
ENDBRANCH  24  38
BRANCH  25  44
ATOM     44  C   UNL A   1      40.177  26.667  28.094  1.00  0.00    -0.014 A 
ATOM     45  C   UNL A   1      40.656  26.677  26.778  1.00  0.00     0.009 A 
ATOM     46  C   UNL A   1      39.506  25.527  28.563  1.00  0.00     0.009 A 
ATOM     47  C   UNL A   1      40.456  25.571  25.945  1.00  0.00     0.001 A 
ATOM     48  C   UNL A   1      39.325  24.417  27.736  1.00  0.00     0.001 A 
ATOM     49  C   UNL A   1      39.796  24.440  26.425  1.00  0.00     0.000 A 
ENDBRANCH  25  44
BRANCH  37  50
ATOM     50  C   UNL A   1      45.198  28.533  32.551  1.00  0.00    -0.014 A 
ATOM     51  C   UNL A   1      46.454  28.626  31.939  1.00  0.00     0.009 A 
ATOM     52  C   UNL A   1      45.059  27.788  33.734  1.00  0.00     0.009 A 
ATOM     53  C   UNL A   1      47.551  27.965  32.494  1.00  0.00     0.001 A 
ATOM     54  C   UNL A   1      46.162  27.155  34.302  1.00  0.00     0.001 A 
ATOM     55  C   UNL A   1      47.405  27.238  33.676  1.00  0.00     0.000 A 
ENDBRANCH  37  50
ENDBRANCH  11  12
ENDBRANCH   4   6
ENDBRANCH   3   4
ENDBRANCH   2   3
ENDBRANCH   1   2
BRANCH   1  56
ATOM     56  O   UNL A   1      31.560  30.062  25.921  1.00  0.00    -0.458 OA
BRANCH  56  57
ATOM     57  C   UNL A   1      32.193  29.272  25.016  1.00  0.00     0.342 C 
ATOM     58  O   UNL A   1      33.120  29.587  24.291  1.00  0.00    -0.246 OA
BRANCH  57  59
ATOM     59  C   UNL A   1      31.470  27.991  24.925  1.00  0.00     0.104 A 
ATOM     60  C   UNL A   1      31.804  26.955  25.814  1.00  0.00     0.048 A 
ATOM     61  C   UNL A   1      30.435  27.809  24.003  1.00  0.00     0.143 A 
ATOM     62  C   UNL A   1      31.156  25.724  25.721  1.00  0.00     0.068 A 
ATOM     63  N   UNL A   1      29.885  26.587  23.829  1.00  0.00    -0.236 NA
ATOM     64  C   UNL A   1      30.268  25.584  24.663  1.00  0.00     0.140 A 
BRANCH  61  65
ATOM     65  N   UNL A   1      29.857  28.868  23.336  1.00  0.00    -0.356 N 
ATOM     66  C   UNL A   1      30.406  29.362  22.084  1.00  0.00     0.118 C 
ATOM     67  C   UNL A   1      28.402  28.789  23.178  1.00  0.00     0.118 C 
ATOM     68  C   UNL A   1      29.418  30.463  21.741  1.00  0.00     0.023 C 
ATOM     69  C   UNL A   1      28.075  29.846  22.113  1.00  0.00     0.023 C 
ENDBRANCH  61  65
BRANCH  62  70
ATOM     70  N   UNL A   1      31.218  24.850  26.864  1.00  0.00    -0.277 N 
ATOM     71  H   UNL A   1      31.080  25.245  27.755  1.00  0.00     0.180 HD
BRANCH  70  72
ATOM     72  S   UNL A   1      31.513  23.190  26.768  1.00  0.00     0.271 S 
ATOM     73  O   UNL A   1      32.208  22.808  27.970  1.00  0.00    -0.200 OA
ATOM     74  O   UNL A   1      30.256  22.580  26.388  1.00  0.00    -0.200 OA
BRANCH  72  75
ATOM     75  C   UNL A   1      32.627  22.813  25.441  1.00  0.00     0.141 A 
ATOM     76  C   UNL A   1      32.445  22.550  24.094  1.00  0.00     0.035 A 
ATOM     77  S   UNL A   1      34.296  22.867  25.845  1.00  0.00    -0.115 S 
ATOM     78  C   UNL A   1      33.678  22.604  23.372  1.00  0.00     0.029 A 
ATOM     79  C   UNL A   1      34.741  22.798  24.218  1.00  0.00     0.071 A 
ATOM     80  Br  UNL A   1      36.511  22.993  23.639  1.00  0.00    -0.039 Br
ENDBRANCH  72  75
ENDBRANCH  70  72
ENDBRANCH  62  70
ENDBRANCH  57  59
ENDBRANCH  56  57
ENDBRANCH   1  56
TORSDOF 15
ENDMDL
