MODEL 1
REMARK VINA RESULT:     -10.6      0.000      0.000
REMARK SMILES CCn1ncc(NC(=O)[C@@H]2CCCC[C@@H]2C(=O)OCCOC(=O)c2ccc(-c3c4nc(c(-c5ccccc5)c5ccc([nH]5)c(-c5ccccc5)c5nc(c(-c6ccccc6)c6ccc3[nH]6)C=C5)C=C4)cc2)c1C(=O)Nc1cnn(C)c1C
REMARK SMILES IDX 19 1 18 2 16 3 17 4 15 5 10 6 11 7 12 8 14 9 13 10 8 11 7 12
REMARK SMILES IDX 9 14 6 15 3 16 4 17 72 18 5 19 2 20 1 21 73 22 74 23 75 24
REMARK SMILES IDX 76 26 77 27 81 28 78 29 79 30 82 31 80 32 20 33 21 34 22 35
REMARK SMILES IDX 23 36 24 37 25 38 71 39 26 40 70 41 27 42 28 43 29 44 64 45
REMARK SMILES IDX 30 46 69 47 63 48 65 49 31 50 68 51 62 52 61 53 32 55 54 56
REMARK SMILES IDX 39 57 53 58 40 59 43 60 52 61 66 62 41 63 42 64 51 66 67 67
REMARK SMILES IDX 44 68 33 69 34 70 38 71 35 72 37 73 36 74 55 75 56 76 60 77
REMARK SMILES IDX 57 78 59 79 58 80 45 81 46 82 50 83 47 84 49 85 48 86
REMARK H PARENT 7 13 75 25 65 54 43 65
REMARK Flexibility Score: inf
ROOT
ATOM      1  C   UNL A   1      34.457  33.328  32.780  1.00  0.00     0.274 C 
ENDROOT
BRANCH   1   2
ATOM      2  O   UNL A   1      35.461  32.306  33.001  1.00  0.00    -0.462 OA
BRANCH   2   3
ATOM      3  C   UNL A   1      36.409  32.598  33.938  1.00  0.00     0.309 C 
ATOM      4  O   UNL A   1      36.158  33.203  34.977  1.00  0.00    -0.252 OA
BRANCH   3   5
ATOM      5  C   UNL A   1      37.819  32.172  33.520  1.00  0.00     0.111 C 
ATOM      6  C   UNL A   1      38.952  32.235  34.589  1.00  0.00     0.093 C 
ATOM      7  C   UNL A   1      39.267  33.657  34.899  1.00  0.00     0.014 C 
ATOM      8  C   UNL A   1      39.478  34.647  33.796  1.00  0.00     0.001 C 
ATOM      9  C   UNL A   1      38.183  33.102  32.316  1.00  0.00     0.016 C 
ATOM     10  C   UNL A   1      38.454  34.559  32.700  1.00  0.00     0.001 C 
BRANCH   6  11
ATOM     11  C   UNL A   1      38.849  31.392  35.904  1.00  0.00     0.228 C 
ATOM     12  N   UNL A   1      39.628  31.677  37.044  1.00  0.00    -0.322 N 
ATOM     13  H   UNL A   1      40.317  31.022  37.300  1.00  0.00     0.170 HD
ATOM     14  O   UNL A   1      38.273  30.296  35.869  1.00  0.00    -0.274 OA
BRANCH  12  15
ATOM     15  C   UNL A   1      39.494  32.843  37.857  1.00  0.00     0.092 A 
ATOM     16  N   UNL A   1      38.714  34.739  39.974  1.00  0.00    -0.258 N 
ATOM     17  N   UNL A   1      40.480  35.246  39.541  1.00  0.00    -0.178 NA
ATOM     18  C   UNL A   1      38.185  33.305  38.973  1.00  0.00     0.150 A 
ATOM     19  C   UNL A   1      41.003  34.058  38.121  1.00  0.00     0.162 A 
BRANCH  16  20
ATOM     20  C   UNL A   1      38.195  35.013  41.304  1.00  0.00     0.142 C 
ATOM     21  C   UNL A   1      38.917  34.232  42.391  1.00  0.00     0.029 C 
ENDBRANCH  16  20
BRANCH  18  22
ATOM     22  C   UNL A   1      36.906  32.574  39.212  1.00  0.00     0.276 C 
ATOM     23  O   UNL A   1      35.972  32.620  38.413  1.00  0.00    -0.267 OA
ATOM     24  N   UNL A   1      36.930  31.518  40.132  1.00  0.00    -0.318 N 
ATOM     25  H   UNL A   1      37.222  30.645  39.781  1.00  0.00     0.170 HD
BRANCH  24  26
ATOM     26  C   UNL A   1      36.593  31.552  41.482  1.00  0.00     0.082 A 
ATOM     27  C   UNL A   1      35.540  32.233  42.127  1.00  0.00     0.161 A 
ATOM     28  C   UNL A   1      37.239  30.867  42.509  1.00  0.00     0.059 A 
ATOM     29  N   UNL A   1      35.643  32.180  43.456  1.00  0.00    -0.179 NA
ATOM     30  N   UNL A   1      36.738  31.429  43.665  1.00  0.00    -0.271 N 
ATOM     31  C   UNL A   1      38.347  29.874  42.582  1.00  0.00     0.068 C 
ATOM     32  C   UNL A   1      37.365  31.456  44.970  1.00  0.00     0.174 C 
ENDBRANCH  24  26
ENDBRANCH  18  22
ENDBRANCH  12  15
ENDBRANCH   6  11
ENDBRANCH   3   5
ENDBRANCH   2   3
ENDBRANCH   1   2
BRANCH   1  33
ATOM     33  C   UNL A   1      34.455  33.911  31.362  1.00  0.00     0.275 C 
BRANCH  33  34
ATOM     34  O   UNL A   1      35.226  33.104  30.454  1.00  0.00    -0.458 OA
BRANCH  34  35
ATOM     35  C   UNL A   1      34.833  33.305  29.183  1.00  0.00     0.338 C 
ATOM     36  O   UNL A   1      33.709  33.643  28.837  1.00  0.00    -0.246 OA
BRANCH  35  37
ATOM     37  C   UNL A   1      35.748  32.726  28.188  1.00  0.00     0.060 A 
ATOM     38  C   UNL A   1      35.383  31.016  27.925  1.00  0.00     0.016 A 
ATOM     39  C   UNL A   1      37.298  33.128  28.737  1.00  0.00     0.016 A 
ATOM     40  C   UNL A   1      36.838  29.603  28.452  1.00  0.00     0.010 A 
ATOM     41  C   UNL A   1      38.497  32.027  29.162  1.00  0.00     0.010 A 
ATOM     42  C   UNL A   1      38.347  30.321  29.117  1.00  0.00    -0.014 A 
BRANCH  42  43
ATOM     43  C   UNL A   1      39.598  29.648  29.327  1.00  0.00     0.031 A 
ATOM     44  C   UNL A   1      39.740  29.378  30.766  1.00  0.00     0.074 A 
ATOM     45  C   UNL A   1      40.311  29.087  28.318  1.00  0.00     0.049 A 
ATOM     46  N   UNL A   1      40.528  30.004  31.568  1.00  0.00    -0.248 NA
ATOM     47  C   UNL A   1      38.727  28.552  31.459  1.00  0.00     0.031 C 
ATOM     48  C   UNL A   1      40.063  29.082  26.867  1.00  0.00     0.029 A 
ATOM     49  N   UNL A   1      41.415  28.297  28.397  1.00  0.00    -0.354 N 
ATOM     50  C   UNL A   1      40.332  29.423  32.808  1.00  0.00     0.074 A 
ATOM     51  C   UNL A   1      39.065  28.742  32.739  1.00  0.00     0.031 C 
ATOM     52  C   UNL A   1      40.832  28.142  26.259  1.00  0.00     0.029 A 
ATOM     53  C   UNL A   1      41.753  27.595  27.235  1.00  0.00     0.049 A 
ATOM     54  H   UNL A   1      41.947  28.224  29.223  1.00  0.00     0.167 HD
ATOM     55  C   UNL A   1      41.392  29.274  33.644  1.00  0.00     0.031 A 
ATOM     56  C   UNL A   1      42.726  26.647  27.114  1.00  0.00     0.031 A 
ATOM     57  C   UNL A   1      42.519  30.059  33.184  1.00  0.00     0.049 A 
ATOM     58  C   UNL A   1      43.654  26.850  28.259  1.00  0.00     0.074 A 
ATOM     59  C   UNL A   1      42.720  31.406  32.954  1.00  0.00     0.029 A 
ATOM     60  N   UNL A   1      43.450  29.393  32.416  1.00  0.00    -0.354 N 
ATOM     61  N   UNL A   1      44.379  27.927  28.382  1.00  0.00    -0.248 NA
ATOM     62  C   UNL A   1      43.330  26.162  29.502  1.00  0.00     0.031 C 
ATOM     63  C   UNL A   1      43.436  31.466  31.720  1.00  0.00     0.029 A 
ATOM     64  C   UNL A   1      43.755  30.167  31.322  1.00  0.00     0.049 A 
ATOM     65  H   UNL A   1      43.832  28.509  32.617  1.00  0.00     0.167 HD
ATOM     66  C   UNL A   1      44.205  28.315  29.703  1.00  0.00     0.074 A 
ATOM     67  C   UNL A   1      43.589  27.155  30.360  1.00  0.00     0.031 C 
ATOM     68  C   UNL A   1      44.236  29.634  30.063  1.00  0.00     0.031 A 
BRANCH  55  69
ATOM     69  C   UNL A   1      41.567  28.083  34.543  1.00  0.00    -0.014 A 
ATOM     70  C   UNL A   1      41.780  28.316  35.910  1.00  0.00     0.009 A 
ATOM     71  C   UNL A   1      41.821  26.782  34.067  1.00  0.00     0.009 A 
ATOM     72  C   UNL A   1      42.294  27.316  36.742  1.00  0.00     0.001 A 
ATOM     73  C   UNL A   1      42.302  25.772  34.902  1.00  0.00     0.001 A 
ATOM     74  C   UNL A   1      42.563  26.048  36.236  1.00  0.00     0.000 A 
ENDBRANCH  55  69
BRANCH  56  75
ATOM     75  C   UNL A   1      42.736  25.386  26.318  1.00  0.00    -0.014 A 
ATOM     76  C   UNL A   1      43.763  25.090  25.398  1.00  0.00     0.009 A 
ATOM     77  C   UNL A   1      41.888  24.325  26.687  1.00  0.00     0.009 A 
ATOM     78  C   UNL A   1      43.947  23.787  24.899  1.00  0.00     0.001 A 
ATOM     79  C   UNL A   1      42.076  23.024  26.196  1.00  0.00     0.001 A 
ATOM     80  C   UNL A   1      43.114  22.751  25.311  1.00  0.00     0.000 A 
ENDBRANCH  56  75
BRANCH  68  81
ATOM     81  C   UNL A   1      44.624  30.648  29.004  1.00  0.00    -0.014 A 
ATOM     82  C   UNL A   1      43.722  31.217  28.080  1.00  0.00     0.009 A 
ATOM     83  C   UNL A   1      45.925  31.164  29.048  1.00  0.00     0.009 A 
ATOM     84  C   UNL A   1      44.125  32.246  27.214  1.00  0.00     0.001 A 
ATOM     85  C   UNL A   1      46.322  32.200  28.198  1.00  0.00     0.001 A 
ATOM     86  C   UNL A   1      45.426  32.736  27.276  1.00  0.00     0.000 A 
ENDBRANCH  68  81
ENDBRANCH  42  43
ENDBRANCH  35  37
ENDBRANCH  34  35
ENDBRANCH  33  34
ENDBRANCH   1  33
TORSDOF 16
ENDMDL
MODEL 2
REMARK VINA RESULT:     -10.0      5.101     10.872
REMARK SMILES CCn1ncc(NC(=O)[C@@H]2CCCC[C@@H]2C(=O)OCCOC(=O)c2ccc(-c3c4nc(c(-c5ccccc5)c5ccc([nH]5)c(-c5ccccc5)c5nc(c(-c6ccccc6)c6ccc3[nH]6)C=C5)C=C4)cc2)c1C(=O)Nc1cnn(C)c1C
REMARK SMILES IDX 19 1 18 2 16 3 17 4 15 5 10 6 11 7 12 8 14 9 13 10 8 11 7 12
REMARK SMILES IDX 9 14 6 15 3 16 4 17 72 18 5 19 2 20 1 21 73 22 74 23 75 24
REMARK SMILES IDX 76 26 77 27 81 28 78 29 79 30 82 31 80 32 20 33 21 34 22 35
REMARK SMILES IDX 23 36 24 37 25 38 71 39 26 40 70 41 27 42 28 43 29 44 64 45
REMARK SMILES IDX 30 46 69 47 63 48 65 49 31 50 68 51 62 52 61 53 32 55 54 56
REMARK SMILES IDX 39 57 53 58 40 59 43 60 52 61 66 62 41 63 42 64 51 66 67 67
REMARK SMILES IDX 44 68 33 69 34 70 38 71 35 72 37 73 36 74 55 75 56 76 60 77
REMARK SMILES IDX 57 78 59 79 58 80 45 81 46 82 50 83 47 84 49 85 48 86
REMARK H PARENT 7 13 75 25 65 54 43 65
REMARK Flexibility Score: inf
ROOT
ATOM      1  C   UNL A   1      44.683  23.484  24.697  1.00  0.00     0.274 C 
ENDROOT
BRANCH   1   2
ATOM      2  O   UNL A   1      45.790  23.821  25.572  1.00  0.00    -0.462 OA
BRANCH   2   3
ATOM      3  C   UNL A   1      46.828  24.485  24.987  1.00  0.00     0.309 C 
ATOM      4  O   UNL A   1      47.246  24.216  23.863  1.00  0.00    -0.252 OA
BRANCH   3   5
ATOM      5  C   UNL A   1      47.466  25.531  25.904  1.00  0.00     0.111 C 
ATOM      6  C   UNL A   1      46.523  26.517  26.659  1.00  0.00     0.093 C 
ATOM      7  C   UNL A   1      45.909  27.464  25.689  1.00  0.00     0.014 C 
ATOM      8  C   UNL A   1      46.755  28.163  24.670  1.00  0.00     0.001 C 
ATOM      9  C   UNL A   1      48.438  26.340  24.983  1.00  0.00     0.016 C 
ATOM     10  C   UNL A   1      47.739  27.262  23.980  1.00  0.00     0.001 C 
BRANCH   6  11
ATOM     11  C   UNL A   1      45.448  25.975  27.660  1.00  0.00     0.228 C 
ATOM     12  N   UNL A   1      45.785  25.156  28.757  1.00  0.00    -0.322 N 
ATOM     13  H   UNL A   1      45.477  24.220  28.737  1.00  0.00     0.170 HD
ATOM     14  O   UNL A   1      44.251  26.042  27.347  1.00  0.00    -0.274 OA
BRANCH  12  15
ATOM     15  C   UNL A   1      46.538  25.577  29.893  1.00  0.00     0.092 A 
ATOM     16  N   UNL A   1      47.509  25.997  32.644  1.00  0.00    -0.258 N 
ATOM     17  N   UNL A   1      49.084  25.991  31.605  1.00  0.00    -0.178 NA
ATOM     18  C   UNL A   1      46.036  25.726  31.596  1.00  0.00     0.150 A 
ATOM     19  C   UNL A   1      48.481  25.771  29.790  1.00  0.00     0.162 A 
BRANCH  16  20
ATOM     20  C   UNL A   1      47.571  25.602  34.042  1.00  0.00     0.142 C 
ATOM     21  C   UNL A   1      47.073  26.687  34.984  1.00  0.00     0.029 C 
ENDBRANCH  16  20
BRANCH  18  22
ATOM     22  C   UNL A   1      44.670  25.508  32.154  1.00  0.00     0.276 C 
ATOM     23  O   UNL A   1      43.705  26.179  31.791  1.00  0.00    -0.267 OA
ATOM     24  N   UNL A   1      44.417  24.279  32.776  1.00  0.00    -0.318 N 
ATOM     25  H   UNL A   1      44.159  23.538  32.181  1.00  0.00     0.170 HD
BRANCH  24  26
ATOM     26  C   UNL A   1      44.485  23.977  34.133  1.00  0.00     0.082 A 
ATOM     27  C   UNL A   1      43.958  24.679  35.237  1.00  0.00     0.161 A 
ATOM     28  C   UNL A   1      45.091  22.857  34.697  1.00  0.00     0.059 A 
ATOM     29  N   UNL A   1      44.384  24.186  36.401  1.00  0.00    -0.179 NA
ATOM     30  N   UNL A   1      45.151  23.140  36.046  1.00  0.00    -0.271 N 
ATOM     31  C   UNL A   1      45.748  21.631  34.163  1.00  0.00     0.068 C 
ATOM     32  C   UNL A   1      46.069  22.586  37.019  1.00  0.00     0.174 C 
ENDBRANCH  24  26
ENDBRANCH  18  22
ENDBRANCH  12  15
ENDBRANCH   6  11
ENDBRANCH   3   5
ENDBRANCH   2   3
ENDBRANCH   1   2
BRANCH   1  33
ATOM     33  C   UNL A   1      43.670  22.511  25.311  1.00  0.00     0.275 C 
BRANCH  33  34
ATOM     34  O   UNL A   1      42.658  23.202  26.064  1.00  0.00    -0.458 OA
BRANCH  34  35
ATOM     35  C   UNL A   1      41.673  22.360  26.427  1.00  0.00     0.338 C 
ATOM     36  O   UNL A   1      41.283  21.405  25.767  1.00  0.00    -0.246 OA
BRANCH  35  37
ATOM     37  C   UNL A   1      40.824  22.881  27.508  1.00  0.00     0.060 A 
ATOM     38  C   UNL A   1      39.493  23.841  26.850  1.00  0.00     0.016 A 
ATOM     39  C   UNL A   1      41.897  23.644  28.573  1.00  0.00     0.016 A 
ATOM     40  C   UNL A   1      39.423  25.883  27.315  1.00  0.00     0.010 A 
ATOM     41  C   UNL A   1      41.872  25.276  28.979  1.00  0.00     0.010 A 
ATOM     42  C   UNL A   1      40.763  26.437  28.378  1.00  0.00    -0.014 A 
BRANCH  42  43
ATOM     43  C   UNL A   1      40.851  27.694  29.066  1.00  0.00     0.031 A 
ATOM     44  C   UNL A   1      41.816  28.545  28.351  1.00  0.00     0.074 A 
ATOM     45  C   UNL A   1      39.940  28.094  29.989  1.00  0.00     0.049 A 
ATOM     46  N   UNL A   1      43.005  28.824  28.754  1.00  0.00    -0.248 NA
ATOM     47  C   UNL A   1      41.578  28.886  26.931  1.00  0.00     0.031 C 
ATOM     48  C   UNL A   1      38.774  27.386  30.543  1.00  0.00     0.029 A 
ATOM     49  N   UNL A   1      39.820  29.307  30.592  1.00  0.00    -0.354 N 
ATOM     50  C   UNL A   1      43.543  29.643  27.777  1.00  0.00     0.074 A 
ATOM     51  C   UNL A   1      42.749  29.437  26.595  1.00  0.00     0.031 C 
ATOM     52  C   UNL A   1      37.955  28.256  31.188  1.00  0.00     0.029 A 
ATOM     53  C   UNL A   1      38.610  29.547  31.252  1.00  0.00     0.049 A 
ATOM     54  H   UNL A   1      40.541  29.977  30.566  1.00  0.00     0.167 HD
ATOM     55  C   UNL A   1      44.367  30.658  28.147  1.00  0.00     0.031 A 
ATOM     56  C   UNL A   1      38.208  30.728  31.806  1.00  0.00     0.031 A 
ATOM     57  C   UNL A   1      44.786  30.501  29.523  1.00  0.00     0.049 A 
ATOM     58  C   UNL A   1      39.441  31.533  32.014  1.00  0.00     0.074 A 
ATOM     59  C   UNL A   1      45.471  29.519  30.212  1.00  0.00     0.029 A 
ATOM     60  N   UNL A   1      44.053  31.192  30.465  1.00  0.00    -0.354 N 
ATOM     61  N   UNL A   1      40.370  31.175  32.857  1.00  0.00    -0.248 NA
ATOM     62  C   UNL A   1      39.884  32.364  30.902  1.00  0.00     0.031 C 
ATOM     63  C   UNL A   1      44.763  29.370  31.442  1.00  0.00     0.029 A 
ATOM     64  C   UNL A   1      43.769  30.347  31.511  1.00  0.00     0.049 A 
ATOM     65  H   UNL A   1      43.777  32.134  30.398  1.00  0.00     0.167 HD
ATOM     66  C   UNL A   1      41.556  31.319  32.149  1.00  0.00     0.074 A 
ATOM     67  C   UNL A   1      41.196  32.109  30.964  1.00  0.00     0.031 C 
ATOM     68  C   UNL A   1      42.626  30.500  32.387  1.00  0.00     0.031 A 
BRANCH  55  69
ATOM     69  C   UNL A   1      44.381  31.994  27.459  1.00  0.00    -0.014 A 
ATOM     70  C   UNL A   1      43.860  33.097  28.153  1.00  0.00     0.009 A 
ATOM     71  C   UNL A   1      44.605  32.155  26.078  1.00  0.00     0.009 A 
ATOM     72  C   UNL A   1      43.513  34.275  27.484  1.00  0.00     0.001 A 
ATOM     73  C   UNL A   1      44.291  33.340  25.412  1.00  0.00     0.001 A 
ATOM     74  C   UNL A   1      43.719  34.392  26.112  1.00  0.00     0.000 A 
ENDBRANCH  55  69
BRANCH  56  75
ATOM     75  C   UNL A   1      36.854  31.352  31.844  1.00  0.00    -0.014 A 
ATOM     76  C   UNL A   1      36.355  31.983  33.002  1.00  0.00     0.009 A 
ATOM     77  C   UNL A   1      36.167  31.594  30.641  1.00  0.00     0.009 A 
ATOM     78  C   UNL A   1      35.240  32.841  32.946  1.00  0.00     0.001 A 
ATOM     79  C   UNL A   1      35.060  32.455  30.583  1.00  0.00     0.001 A 
ATOM     80  C   UNL A   1      34.603  33.089  31.733  1.00  0.00     0.000 A 
ENDBRANCH  56  75
BRANCH  68  81
ATOM     81  C   UNL A   1      42.533  29.536  33.554  1.00  0.00    -0.014 A 
ATOM     82  C   UNL A   1      43.023  29.805  34.849  1.00  0.00     0.009 A 
ATOM     83  C   UNL A   1      41.779  28.369  33.371  1.00  0.00     0.009 A 
ATOM     84  C   UNL A   1      42.787  28.919  35.911  1.00  0.00     0.001 A 
ATOM     85  C   UNL A   1      41.529  27.496  34.432  1.00  0.00     0.001 A 
ATOM     86  C   UNL A   1      42.038  27.765  35.700  1.00  0.00     0.000 A 
ENDBRANCH  68  81
ENDBRANCH  42  43
ENDBRANCH  35  37
ENDBRANCH  34  35
ENDBRANCH  33  34
ENDBRANCH   1  33
TORSDOF 16
ENDMDL
MODEL 3
REMARK VINA RESULT:      -9.9      5.619     12.256
REMARK SMILES CCn1ncc(NC(=O)[C@@H]2CCCC[C@@H]2C(=O)OCCOC(=O)c2ccc(-c3c4nc(c(-c5ccccc5)c5ccc([nH]5)c(-c5ccccc5)c5nc(c(-c6ccccc6)c6ccc3[nH]6)C=C5)C=C4)cc2)c1C(=O)Nc1cnn(C)c1C
REMARK SMILES IDX 19 1 18 2 16 3 17 4 15 5 10 6 11 7 12 8 14 9 13 10 8 11 7 12
REMARK SMILES IDX 9 14 6 15 3 16 4 17 72 18 5 19 2 20 1 21 73 22 74 23 75 24
REMARK SMILES IDX 76 26 77 27 81 28 78 29 79 30 82 31 80 32 20 33 21 34 22 35
REMARK SMILES IDX 23 36 24 37 25 38 71 39 26 40 70 41 27 42 28 43 29 44 64 45
REMARK SMILES IDX 30 46 69 47 63 48 65 49 31 50 68 51 62 52 61 53 32 55 54 56
REMARK SMILES IDX 39 57 53 58 40 59 43 60 52 61 66 62 41 63 42 64 51 66 67 67
REMARK SMILES IDX 44 68 33 69 34 70 38 71 35 72 37 73 36 74 55 75 56 76 60 77
REMARK SMILES IDX 57 78 59 79 58 80 45 81 46 82 50 83 47 84 49 85 48 86
REMARK H PARENT 7 13 75 25 65 54 43 65
REMARK Flexibility Score: inf
ROOT
ATOM      1  C   UNL A   1      38.136  21.337  25.086  1.00  0.00     0.274 C 
ENDROOT
BRANCH   1   2
ATOM      2  O   UNL A   1      36.915  20.608  25.371  1.00  0.00    -0.462 OA
BRANCH   2   3
ATOM      3  C   UNL A   1      35.821  21.372  25.660  1.00  0.00     0.309 C 
ATOM      4  O   UNL A   1      35.597  21.822  26.780  1.00  0.00    -0.252 OA
BRANCH   3   5
ATOM      5  C   UNL A   1      34.871  21.535  24.470  1.00  0.00     0.111 C 
ATOM      6  C   UNL A   1      33.847  22.710  24.505  1.00  0.00     0.093 C 
ATOM      7  C   UNL A   1      32.812  22.442  25.540  1.00  0.00     0.014 C 
ATOM      8  C   UNL A   1      32.138  21.106  25.613  1.00  0.00     0.001 C 
ATOM      9  C   UNL A   1      34.103  20.175  24.376  1.00  0.00     0.016 C 
ATOM     10  C   UNL A   1      33.084  19.945  25.496  1.00  0.00     0.001 C 
BRANCH   6  11
ATOM     11  C   UNL A   1      34.345  24.192  24.592  1.00  0.00     0.228 C 
ATOM     12  N   UNL A   1      33.874  25.197  23.721  1.00  0.00    -0.322 N 
ATOM     13  H   UNL A   1      34.512  25.572  23.073  1.00  0.00     0.170 HD
ATOM     14  O   UNL A   1      35.359  24.446  25.256  1.00  0.00    -0.274 OA
BRANCH  12  15
ATOM     15  C   UNL A   1      32.542  25.711  23.707  1.00  0.00     0.092 A 
ATOM     16  N   UNL A   1      30.176  27.419  23.300  1.00  0.00    -0.258 N 
ATOM     17  N   UNL A   1      29.497  25.664  23.156  1.00  0.00    -0.178 NA
ATOM     18  C   UNL A   1      31.978  27.397  23.602  1.00  0.00     0.150 A 
ATOM     19  C   UNL A   1      31.011  24.518  23.470  1.00  0.00     0.162 A 
BRANCH  16  20
ATOM     20  C   UNL A   1      29.500  28.508  22.613  1.00  0.00     0.142 C 
ATOM     21  C   UNL A   1      29.005  29.588  23.563  1.00  0.00     0.029 C 
ENDBRANCH  16  20
BRANCH  18  22
ATOM     22  C   UNL A   1      32.820  28.629  23.588  1.00  0.00     0.276 C 
ATOM     23  O   UNL A   1      33.539  28.914  22.631  1.00  0.00    -0.267 OA
ATOM     24  N   UNL A   1      32.475  29.655  24.477  1.00  0.00    -0.318 N 
ATOM     25  H   UNL A   1      31.775  30.276  24.170  1.00  0.00     0.170 HD
BRANCH  24  26
ATOM     26  C   UNL A   1      33.000  29.902  25.742  1.00  0.00     0.082 A 
ATOM     27  C   UNL A   1      32.807  31.009  26.594  1.00  0.00     0.161 A 
ATOM     28  C   UNL A   1      33.835  29.054  26.466  1.00  0.00     0.059 A 
ATOM     29  N   UNL A   1      33.622  30.983  27.650  1.00  0.00    -0.179 NA
ATOM     30  N   UNL A   1      34.307  29.836  27.500  1.00  0.00    -0.271 N 
ATOM     31  C   UNL A   1      34.372  27.678  26.267  1.00  0.00     0.068 C 
ATOM     32  C   UNL A   1      35.528  29.648  28.256  1.00  0.00     0.174 C 
ENDBRANCH  24  26
ENDBRANCH  18  22
ENDBRANCH  12  15
ENDBRANCH   6  11
ENDBRANCH   3   5
ENDBRANCH   2   3
ENDBRANCH   1   2
BRANCH   1  33
ATOM     33  C   UNL A   1      39.222  21.185  26.158  1.00  0.00     0.275 C 
BRANCH  33  34
ATOM     34  O   UNL A   1      40.532  21.454  25.630  1.00  0.00    -0.458 OA
BRANCH  34  35
ATOM     35  C   UNL A   1      41.032  22.592  26.145  1.00  0.00     0.338 C 
ATOM     36  O   UNL A   1      42.134  23.058  25.887  1.00  0.00    -0.246 OA
BRANCH  35  37
ATOM     37  C   UNL A   1      40.315  23.061  27.339  1.00  0.00     0.060 A 
ATOM     38  C   UNL A   1      38.974  24.122  26.887  1.00  0.00     0.016 A 
ATOM     39  C   UNL A   1      41.518  23.694  28.348  1.00  0.00     0.016 A 
ATOM     40  C   UNL A   1      39.047  26.123  27.505  1.00  0.00     0.010 A 
ATOM     41  C   UNL A   1      41.609  25.289  28.873  1.00  0.00     0.010 A 
ATOM     42  C   UNL A   1      40.506  26.537  28.471  1.00  0.00    -0.014 A 
BRANCH  42  43
ATOM     43  C   UNL A   1      40.718  27.733  29.237  1.00  0.00     0.031 A 
ATOM     44  C   UNL A   1      41.664  28.589  28.505  1.00  0.00     0.074 A 
ATOM     45  C   UNL A   1      39.910  28.103  30.263  1.00  0.00     0.049 A 
ATOM     46  N   UNL A   1      42.897  28.779  28.823  1.00  0.00    -0.248 NA
ATOM     47  C   UNL A   1      41.328  29.049  27.139  1.00  0.00     0.031 C 
ATOM     48  C   UNL A   1      38.757  27.411  30.863  1.00  0.00     0.029 A 
ATOM     49  N   UNL A   1      39.905  29.271  30.960  1.00  0.00    -0.354 N 
ATOM     50  C   UNL A   1      43.395  29.644  27.865  1.00  0.00     0.074 A 
ATOM     51  C   UNL A   1      42.495  29.568  26.744  1.00  0.00     0.031 C 
ATOM     52  C   UNL A   1      38.043  28.267  31.638  1.00  0.00     0.029 A 
ATOM     53  C   UNL A   1      38.769  29.517  31.738  1.00  0.00     0.049 A 
ATOM     54  H   UNL A   1      40.657  29.906  30.920  1.00  0.00     0.167 HD
ATOM     55  C   UNL A   1      44.300  30.588  28.233  1.00  0.00     0.031 A 
ATOM     56  C   UNL A   1      38.479  30.670  32.409  1.00  0.00     0.031 A 
ATOM     57  C   UNL A   1      44.823  30.306  29.553  1.00  0.00     0.049 A 
ATOM     58  C   UNL A   1      39.767  31.397  32.567  1.00  0.00     0.074 A 
ATOM     59  C   UNL A   1      45.509  29.243  30.107  1.00  0.00     0.029 A 
ATOM     60  N   UNL A   1      44.209  30.957  30.602  1.00  0.00    -0.354 N 
ATOM     61  N   UNL A   1      40.742  30.932  33.298  1.00  0.00    -0.248 NA
ATOM     62  C   UNL A   1      40.160  32.289  31.483  1.00  0.00     0.031 C 
ATOM     63  C   UNL A   1      44.899  29.033  31.381  1.00  0.00     0.029 A 
ATOM     64  C   UNL A   1      43.968  30.048  31.605  1.00  0.00     0.049 A 
ATOM     65  H   UNL A   1      43.980  31.913  30.628  1.00  0.00     0.167 HD
ATOM     66  C   UNL A   1      41.871  31.073  32.502  1.00  0.00     0.074 A 
ATOM     67  C   UNL A   1      41.457  31.967  31.413  1.00  0.00     0.031 C 
ATOM     68  C   UNL A   1      42.911  30.188  32.586  1.00  0.00     0.031 A 
BRANCH  55  69
ATOM     69  C   UNL A   1      44.329  31.971  27.645  1.00  0.00    -0.014 A 
ATOM     70  C   UNL A   1      43.796  33.021  28.408  1.00  0.00     0.009 A 
ATOM     71  C   UNL A   1      44.581  32.231  26.285  1.00  0.00     0.009 A 
ATOM     72  C   UNL A   1      43.463  34.245  27.820  1.00  0.00     0.001 A 
ATOM     73  C   UNL A   1      44.280  33.463  25.701  1.00  0.00     0.001 A 
ATOM     74  C   UNL A   1      43.696  34.462  26.465  1.00  0.00     0.000 A 
ENDBRANCH  55  69
BRANCH  56  75
ATOM     75  C   UNL A   1      37.169  31.352  32.610  1.00  0.00    -0.014 A 
ATOM     76  C   UNL A   1      36.925  32.192  33.716  1.00  0.00     0.009 A 
ATOM     77  C   UNL A   1      36.251  31.421  31.546  1.00  0.00     0.009 A 
ATOM     78  C   UNL A   1      35.831  33.078  33.738  1.00  0.00     0.001 A 
ATOM     79  C   UNL A   1      35.165  32.310  31.562  1.00  0.00     0.001 A 
ATOM     80  C   UNL A   1      34.961  33.148  32.653  1.00  0.00     0.000 A 
ENDBRANCH  56  75
BRANCH  68  81
ATOM     81  C   UNL A   1      42.864  29.143  33.684  1.00  0.00    -0.014 A 
ATOM     82  C   UNL A   1      43.436  29.306  34.963  1.00  0.00     0.009 A 
ATOM     83  C   UNL A   1      42.072  28.009  33.463  1.00  0.00     0.009 A 
ATOM     84  C   UNL A   1      43.240  28.350  35.971  1.00  0.00     0.001 A 
ATOM     85  C   UNL A   1      41.864  27.065  34.472  1.00  0.00     0.001 A 
ATOM     86  C   UNL A   1      42.453  27.230  35.723  1.00  0.00     0.000 A 
ENDBRANCH  68  81
ENDBRANCH  42  43
ENDBRANCH  35  37
ENDBRANCH  34  35
ENDBRANCH  33  34
ENDBRANCH   1  33
TORSDOF 16
ENDMDL
