MODEL 1
REMARK VINA RESULT:     -10.4      0.000      0.000
REMARK SMILES Cc1n[nH]c(S[C@H]2CC[C@]([NH3+])(C(=O)OCCOC(=O)c3ccc(-c4c5nc(c(-c6ccccc6)c6ccc([nH]6)c(-c6ccccc6)c6nc(c(-c7ccccc7)c7ccc4[nH]7)C=C6)C=C5)cc3)C2)n1
REMARK SMILES IDX 15 1 14 2 12 3 13 4 10 5 7 6 8 7 68 8 9 9 6 10 5 11 1 12
REMARK SMILES IDX 2 13 3 14 69 15 4 16 11 18 16 22 17 23 18 24 19 25 20 26
REMARK SMILES IDX 21 27 67 28 22 29 66 30 23 31 24 32 25 33 60 34 26 35 65 36
REMARK SMILES IDX 59 37 61 38 27 39 64 40 58 41 57 42 28 44 50 45 35 46 49 47
REMARK SMILES IDX 36 48 39 49 48 50 62 51 37 52 38 53 47 55 63 56 40 57 29 58
REMARK SMILES IDX 30 59 34 60 31 61 33 62 32 63 51 64 52 65 56 66 53 67 55 68
REMARK SMILES IDX 54 69 41 70 42 71 46 72 43 73 45 74 44 75
REMARK H PARENT 4 17 11 19 11 20 11 21 61 43 39 54
REMARK Flexibility Score: inf
ROOT
ATOM      1  C   UNL A   1      33.478  31.612  27.504  1.00  0.00     0.274 C 
ENDROOT
BRANCH   1   2
ATOM      2  O   UNL A   1      32.745  30.440  27.118  1.00  0.00    -0.457 OA
BRANCH   2   3
ATOM      3  C   UNL A   1      33.476  29.322  26.836  1.00  0.00     0.368 C 
ATOM      4  O   UNL A   1      34.413  28.907  27.511  1.00  0.00    -0.245 OA
BRANCH   3   5
ATOM      5  C   UNL A   1      32.997  28.663  25.525  1.00  0.00     0.193 C 
ATOM      6  C   UNL A   1      31.305  27.242  24.457  1.00  0.00     0.062 C 
ATOM      7  C   UNL A   1      32.618  26.449  24.505  1.00  0.00     0.022 C 
ATOM      8  C   UNL A   1      31.487  28.342  25.508  1.00  0.00     0.096 C 
ATOM      9  C   UNL A   1      33.617  27.268  25.332  1.00  0.00     0.082 C 
BRANCH   6  10
ATOM     10  S   UNL A   1      30.978  28.067  22.874  1.00  0.00    -0.083 SA
BRANCH  10  11
ATOM     11  C   UNL A   1      29.489  28.896  23.019  1.00  0.00     0.183 A 
ATOM     12  C   UNL A   1      27.500  31.753  23.452  1.00  0.00     0.092 C 
ATOM     13  C   UNL A   1      28.050  30.401  23.246  1.00  0.00     0.148 A 
ATOM     14  N   UNL A   1      27.299  29.298  23.119  1.00  0.00    -0.158 NA
ATOM     15  N   UNL A   1      29.397  30.190  23.190  1.00  0.00    -0.206 NA
ATOM     16  N   UNL A   1      28.247  28.349  22.984  1.00  0.00    -0.254 N 
ATOM     17  H   UNL A   1      28.063  27.387  22.874  1.00  0.00     0.192 HD
ENDBRANCH  10  11
ENDBRANCH   6  10
BRANCH   5  18
ATOM     18  N   UNL A   1      33.382  29.554  24.411  1.00  0.00    -0.343 N 
ATOM     19  H   UNL A   1      33.782  28.999  23.655  1.00  0.00     0.345 HD
ATOM     20  H   UNL A   1      34.072  30.230  24.739  1.00  0.00     0.345 HD
ATOM     21  H   UNL A   1      32.558  30.049  24.070  1.00  0.00     0.345 HD
ENDBRANCH   5  18
ENDBRANCH   3   5
ENDBRANCH   2   3
ENDBRANCH   1   2
BRANCH   1  22
ATOM     22  C   UNL A   1      32.539  32.806  27.605  1.00  0.00     0.275 C 
BRANCH  22  23
ATOM     23  O   UNL A   1      33.260  34.019  27.848  1.00  0.00    -0.458 OA
BRANCH  23  24
ATOM     24  C   UNL A   1      33.349  34.370  29.147  1.00  0.00     0.338 C 
ATOM     25  O   UNL A   1      32.484  34.876  29.840  1.00  0.00    -0.246 OA
BRANCH  24  26
ATOM     26  C   UNL A   1      34.742  34.380  29.589  1.00  0.00     0.060 A 
ATOM     27  C   UNL A   1      35.703  34.590  28.590  1.00  0.00     0.016 A 
ATOM     28  C   UNL A   1      35.052  33.777  30.812  1.00  0.00     0.016 A 
ATOM     29  C   UNL A   1      36.939  34.006  28.736  1.00  0.00     0.010 A 
ATOM     30  C   UNL A   1      36.280  33.178  30.945  1.00  0.00     0.010 A 
ATOM     31  C   UNL A   1      37.177  33.237  29.875  1.00  0.00    -0.014 A 
BRANCH  31  32
ATOM     32  C   UNL A   1      38.424  32.511  29.953  1.00  0.00     0.031 A 
ATOM     33  C   UNL A   1      38.342  31.090  29.556  1.00  0.00     0.074 A 
ATOM     34  C   UNL A   1      39.593  33.137  30.177  1.00  0.00     0.049 A 
ATOM     35  N   UNL A   1      38.722  30.053  30.224  1.00  0.00    -0.248 NA
ATOM     36  C   UNL A   1      37.677  30.786  28.279  1.00  0.00     0.031 C 
ATOM     37  C   UNL A   1      39.837  34.580  30.238  1.00  0.00     0.029 A 
ATOM     38  N   UNL A   1      40.843  32.601  30.219  1.00  0.00    -0.354 N 
ATOM     39  C   UNL A   1      38.479  28.967  29.391  1.00  0.00     0.074 A 
ATOM     40  C   UNL A   1      37.717  29.458  28.272  1.00  0.00     0.031 C 
ATOM     41  C   UNL A   1      41.155  34.803  30.037  1.00  0.00     0.029 A 
ATOM     42  C   UNL A   1      41.838  33.522  29.937  1.00  0.00     0.049 A 
ATOM     43  H   UNL A   1      41.021  31.656  30.428  1.00  0.00     0.167 HD
ATOM     44  C   UNL A   1      39.096  27.769  29.559  1.00  0.00     0.031 A 
ATOM     45  C   UNL A   1      43.096  33.237  29.520  1.00  0.00     0.031 A 
ATOM     46  C   UNL A   1      39.681  27.622  30.862  1.00  0.00     0.049 A 
ATOM     47  C   UNL A   1      43.369  31.810  29.827  1.00  0.00     0.074 A 
ATOM     48  C   UNL A   1      39.191  27.668  32.153  1.00  0.00     0.029 A 
ATOM     49  N   UNL A   1      41.045  27.738  30.973  1.00  0.00    -0.354 N 
ATOM     50  N   UNL A   1      43.513  31.338  31.031  1.00  0.00    -0.248 NA
ATOM     51  C   UNL A   1      43.084  30.814  28.803  1.00  0.00     0.031 C 
ATOM     52  C   UNL A   1      40.222  28.284  32.918  1.00  0.00     0.029 A 
ATOM     53  C   UNL A   1      41.285  28.551  32.051  1.00  0.00     0.049 A 
ATOM     54  H   UNL A   1      41.720  27.317  30.392  1.00  0.00     0.167 HD
ATOM     55  C   UNL A   1      42.929  30.080  30.997  1.00  0.00     0.074 A 
ATOM     56  C   UNL A   1      42.796  29.764  29.578  1.00  0.00     0.031 C 
ATOM     57  C   UNL A   1      42.340  29.537  32.106  1.00  0.00     0.031 A 
BRANCH  44  58
ATOM     58  C   UNL A   1      39.462  26.883  28.402  1.00  0.00    -0.014 A 
ATOM     59  C   UNL A   1      39.167  25.514  28.467  1.00  0.00     0.009 A 
ATOM     60  C   UNL A   1      40.320  27.306  27.364  1.00  0.00     0.009 A 
ATOM     61  C   UNL A   1      39.731  24.610  27.559  1.00  0.00     0.001 A 
ATOM     62  C   UNL A   1      40.844  26.414  26.429  1.00  0.00     0.001 A 
ATOM     63  C   UNL A   1      40.568  25.060  26.542  1.00  0.00     0.000 A 
ENDBRANCH  44  58
BRANCH  45  64
ATOM     64  C   UNL A   1      43.954  34.043  28.625  1.00  0.00    -0.014 A 
ATOM     65  C   UNL A   1      43.655  34.157  27.260  1.00  0.00     0.009 A 
ATOM     66  C   UNL A   1      44.955  34.887  29.143  1.00  0.00     0.009 A 
ATOM     67  C   UNL A   1      44.318  35.092  26.453  1.00  0.00     0.001 A 
ATOM     68  C   UNL A   1      45.630  35.808  28.336  1.00  0.00     0.001 A 
ATOM     69  C   UNL A   1      45.301  35.919  26.992  1.00  0.00     0.000 A 
ENDBRANCH  45  64
BRANCH  57  70
ATOM     70  C   UNL A   1      42.550  30.221  33.436  1.00  0.00    -0.014 A 
ATOM     71  C   UNL A   1      43.590  29.866  34.313  1.00  0.00     0.009 A 
ATOM     72  C   UNL A   1      41.789  31.359  33.738  1.00  0.00     0.009 A 
ATOM     73  C   UNL A   1      43.835  30.602  35.475  1.00  0.00     0.001 A 
ATOM     74  C   UNL A   1      42.049  32.111  34.888  1.00  0.00     0.001 A 
ATOM     75  C   UNL A   1      43.066  31.727  35.760  1.00  0.00     0.000 A 
ENDBRANCH  57  70
ENDBRANCH  31  32
ENDBRANCH  24  26
ENDBRANCH  23  24
ENDBRANCH  22  23
ENDBRANCH   1  22
TORSDOF 14
ENDMDL
MODEL 2
REMARK VINA RESULT:     -10.3      5.137      9.552
REMARK SMILES Cc1n[nH]c(S[C@H]2CC[C@]([NH3+])(C(=O)OCCOC(=O)c3ccc(-c4c5nc(c(-c6ccccc6)c6ccc([nH]6)c(-c6ccccc6)c6nc(c(-c7ccccc7)c7ccc4[nH]7)C=C6)C=C5)cc3)C2)n1
REMARK SMILES IDX 15 1 14 2 12 3 13 4 10 5 7 6 8 7 68 8 9 9 6 10 5 11 1 12
REMARK SMILES IDX 2 13 3 14 69 15 4 16 11 18 16 22 17 23 18 24 19 25 20 26
REMARK SMILES IDX 21 27 67 28 22 29 66 30 23 31 24 32 25 33 60 34 26 35 65 36
REMARK SMILES IDX 59 37 61 38 27 39 64 40 58 41 57 42 28 44 50 45 35 46 49 47
REMARK SMILES IDX 36 48 39 49 48 50 62 51 37 52 38 53 47 55 63 56 40 57 29 58
REMARK SMILES IDX 30 59 34 60 31 61 33 62 32 63 51 64 52 65 56 66 53 67 55 68
REMARK SMILES IDX 54 69 41 70 42 71 46 72 43 73 45 74 44 75
REMARK H PARENT 4 17 11 19 11 20 11 21 61 43 39 54
REMARK Flexibility Score: inf
ROOT
ATOM      1  C   UNL A   1      39.024  21.726  26.205  1.00  0.00     0.274 C 
ENDROOT
BRANCH   1   2
ATOM      2  O   UNL A   1      37.746  21.793  25.557  1.00  0.00    -0.457 OA
BRANCH   2   3
ATOM      3  C   UNL A   1      37.066  22.972  25.655  1.00  0.00     0.368 C 
ATOM      4  O   UNL A   1      37.589  24.075  25.791  1.00  0.00    -0.245 OA
BRANCH   3   5
ATOM      5  C   UNL A   1      35.541  22.737  25.616  1.00  0.00     0.193 C 
ATOM      6  C   UNL A   1      33.640  21.889  24.316  1.00  0.00     0.062 C 
ATOM      7  C   UNL A   1      33.514  23.417  24.384  1.00  0.00     0.022 C 
ATOM      8  C   UNL A   1      35.110  21.614  24.650  1.00  0.00     0.096 C 
ATOM      9  C   UNL A   1      34.794  23.952  25.038  1.00  0.00     0.082 C 
BRANCH   6  10
ATOM     10  S   UNL A   1      32.640  20.994  25.538  1.00  0.00    -0.083 SA
BRANCH  10  11
ATOM     11  C   UNL A   1      32.936  19.323  25.325  1.00  0.00     0.183 A 
ATOM     12  C   UNL A   1      33.948  16.508  23.491  1.00  0.00     0.092 C 
ATOM     13  C   UNL A   1      33.479  17.476  24.499  1.00  0.00     0.148 A 
ATOM     14  N   UNL A   1      33.089  17.137  25.737  1.00  0.00    -0.158 NA
ATOM     15  N   UNL A   1      33.398  18.807  24.214  1.00  0.00    -0.206 NA
ATOM     16  N   UNL A   1      32.739  18.339  26.239  1.00  0.00    -0.254 N 
ATOM     17  H   UNL A   1      32.387  18.483  27.148  1.00  0.00     0.192 HD
ENDBRANCH  10  11
ENDBRANCH   6  10
BRANCH   5  18
ATOM     18  N   UNL A   1      35.095  22.473  27.001  1.00  0.00    -0.343 N 
ATOM     19  H   UNL A   1      35.597  21.666  27.371  1.00  0.00     0.345 HD
ATOM     20  H   UNL A   1      34.093  22.283  27.004  1.00  0.00     0.345 HD
ATOM     21  H   UNL A   1      35.287  23.289  27.581  1.00  0.00     0.345 HD
ENDBRANCH   5  18
ENDBRANCH   3   5
ENDBRANCH   2   3
ENDBRANCH   1   2
BRANCH   1  22
ATOM     22  C   UNL A   1      39.668  20.370  25.954  1.00  0.00     0.275 C 
BRANCH  22  23
ATOM     23  O   UNL A   1      40.897  20.500  25.232  1.00  0.00    -0.458 OA
BRANCH  23  24
ATOM     24  C   UNL A   1      41.962  19.923  25.825  1.00  0.00     0.338 C 
ATOM     25  O   UNL A   1      42.200  18.732  25.925  1.00  0.00    -0.246 OA
BRANCH  24  26
ATOM     26  C   UNL A   1      42.683  20.886  26.653  1.00  0.00     0.060 A 
ATOM     27  C   UNL A   1      42.317  20.928  28.006  1.00  0.00     0.016 A 
ATOM     28  C   UNL A   1      43.330  21.951  26.019  1.00  0.00     0.016 A 
ATOM     29  C   UNL A   1      42.417  22.125  28.676  1.00  0.00     0.010 A 
ATOM     30  C   UNL A   1      43.409  23.150  26.684  1.00  0.00     0.010 A 
ATOM     31  C   UNL A   1      42.883  23.238  27.975  1.00  0.00    -0.014 A 
BRANCH  31  32
ATOM     32  C   UNL A   1      42.850  24.520  28.643  1.00  0.00     0.031 A 
ATOM     33  C   UNL A   1      41.712  25.386  28.269  1.00  0.00     0.074 A 
ATOM     34  C   UNL A   1      43.679  24.808  29.661  1.00  0.00     0.049 A 
ATOM     35  N   UNL A   1      41.743  26.604  27.846  1.00  0.00    -0.248 NA
ATOM     36  C   UNL A   1      40.370  24.782  28.301  1.00  0.00     0.031 C 
ATOM     37  C   UNL A   1      44.608  23.901  30.341  1.00  0.00     0.029 A 
ATOM     38  N   UNL A   1      43.726  25.937  30.417  1.00  0.00    -0.354 N 
ATOM     39  C   UNL A   1      40.412  26.977  27.694  1.00  0.00     0.074 A 
ATOM     40  C   UNL A   1      39.620  25.785  27.855  1.00  0.00     0.031 C 
ATOM     41  C   UNL A   1      44.912  24.424  31.550  1.00  0.00     0.029 A 
ATOM     42  C   UNL A   1      44.281  25.730  31.670  1.00  0.00     0.049 A 
ATOM     43  H   UNL A   1      43.399  26.812  30.107  1.00  0.00     0.167 HD
ATOM     44  C   UNL A   1      40.021  28.277  27.654  1.00  0.00     0.031 A 
ATOM     45  C   UNL A   1      44.114  26.520  32.758  1.00  0.00     0.031 A 
ATOM     46  C   UNL A   1      41.107  29.176  27.384  1.00  0.00     0.049 A 
ATOM     47  C   UNL A   1      43.614  27.838  32.297  1.00  0.00     0.074 A 
ATOM     48  C   UNL A   1      42.019  29.311  26.355  1.00  0.00     0.029 A 
ATOM     49  N   UNL A   1      41.607  29.915  28.429  1.00  0.00    -0.354 N 
ATOM     50  N   UNL A   1      44.326  28.691  31.618  1.00  0.00    -0.248 NA
ATOM     51  C   UNL A   1      42.175  28.055  32.243  1.00  0.00     0.031 C 
ATOM     52  C   UNL A   1      43.230  29.716  26.985  1.00  0.00     0.029 A 
ATOM     53  C   UNL A   1      42.974  29.827  28.354  1.00  0.00     0.049 A 
ATOM     54  H   UNL A   1      41.086  30.411  29.101  1.00  0.00     0.167 HD
ATOM     55  C   UNL A   1      43.436  29.274  30.727  1.00  0.00     0.074 A 
ATOM     56  C   UNL A   1      42.112  28.936  31.240  1.00  0.00     0.031 C 
ATOM     57  C   UNL A   1      43.846  29.724  29.502  1.00  0.00     0.031 A 
BRANCH  44  58
ATOM     58  C   UNL A   1      38.706  28.739  28.215  1.00  0.00    -0.014 A 
ATOM     59  C   UNL A   1      37.920  29.631  27.471  1.00  0.00     0.009 A 
ATOM     60  C   UNL A   1      38.339  28.528  29.560  1.00  0.00     0.009 A 
ATOM     61  C   UNL A   1      36.843  30.304  28.058  1.00  0.00     0.001 A 
ATOM     62  C   UNL A   1      37.236  29.161  30.133  1.00  0.00     0.001 A 
ATOM     63  C   UNL A   1      36.501  30.069  29.386  1.00  0.00     0.000 A 
ENDBRANCH  44  58
BRANCH  45  64
ATOM     64  C   UNL A   1      44.089  26.104  34.178  1.00  0.00    -0.014 A 
ATOM     65  C   UNL A   1      45.019  26.622  35.091  1.00  0.00     0.009 A 
ATOM     66  C   UNL A   1      43.014  25.358  34.699  1.00  0.00     0.009 A 
ATOM     67  C   UNL A   1      44.866  26.418  36.469  1.00  0.00     0.001 A 
ATOM     68  C   UNL A   1      42.870  25.138  36.071  1.00  0.00     0.001 A 
ATOM     69  C   UNL A   1      43.790  25.680  36.958  1.00  0.00     0.000 A 
ENDBRANCH  45  64
BRANCH  57  70
ATOM     70  C   UNL A   1      45.328  29.803  29.227  1.00  0.00    -0.014 A 
ATOM     71  C   UNL A   1      46.079  28.693  28.800  1.00  0.00     0.009 A 
ATOM     72  C   UNL A   1      45.952  31.059  29.236  1.00  0.00     0.009 A 
ATOM     73  C   UNL A   1      47.420  28.829  28.432  1.00  0.00     0.001 A 
ATOM     74  C   UNL A   1      47.286  31.201  28.845  1.00  0.00     0.001 A 
ATOM     75  C   UNL A   1      48.021  30.084  28.451  1.00  0.00     0.000 A 
ENDBRANCH  57  70
ENDBRANCH  31  32
ENDBRANCH  24  26
ENDBRANCH  23  24
ENDBRANCH  22  23
ENDBRANCH   1  22
TORSDOF 14
ENDMDL
MODEL 3
REMARK VINA RESULT:     -10.2      3.019      6.917
REMARK SMILES Cc1n[nH]c(S[C@H]2CC[C@]([NH3+])(C(=O)OCCOC(=O)c3ccc(-c4c5nc(c(-c6ccccc6)c6ccc([nH]6)c(-c6ccccc6)c6nc(c(-c7ccccc7)c7ccc4[nH]7)C=C6)C=C5)cc3)C2)n1
REMARK SMILES IDX 15 1 14 2 12 3 13 4 10 5 7 6 8 7 68 8 9 9 6 10 5 11 1 12
REMARK SMILES IDX 2 13 3 14 69 15 4 16 11 18 16 22 17 23 18 24 19 25 20 26
REMARK SMILES IDX 21 27 67 28 22 29 66 30 23 31 24 32 25 33 60 34 26 35 65 36
REMARK SMILES IDX 59 37 61 38 27 39 64 40 58 41 57 42 28 44 50 45 35 46 49 47
REMARK SMILES IDX 36 48 39 49 48 50 62 51 37 52 38 53 47 55 63 56 40 57 29 58
REMARK SMILES IDX 30 59 34 60 31 61 33 62 32 63 51 64 52 65 56 66 53 67 55 68
REMARK SMILES IDX 54 69 41 70 42 71 46 72 43 73 45 74 44 75
REMARK H PARENT 4 17 11 19 11 20 11 21 61 43 39 54
REMARK Flexibility Score: inf
ROOT
ATOM      1  C   UNL A   1      34.057  31.846  27.967  1.00  0.00     0.274 C 
ENDROOT
BRANCH   1   2
ATOM      2  O   UNL A   1      34.047  30.767  27.021  1.00  0.00    -0.457 OA
BRANCH   2   3
ATOM      3  C   UNL A   1      32.828  30.253  26.687  1.00  0.00     0.368 C 
ATOM      4  O   UNL A   1      31.757  30.618  27.162  1.00  0.00    -0.245 OA
BRANCH   3   5
ATOM      5  C   UNL A   1      32.971  29.112  25.657  1.00  0.00     0.193 C 
ATOM      6  C   UNL A   1      32.107  26.954  24.870  1.00  0.00     0.062 C 
ATOM      7  C   UNL A   1      33.483  26.703  25.503  1.00  0.00     0.022 C 
ATOM      8  C   UNL A   1      31.671  28.310  25.433  1.00  0.00     0.096 C 
ATOM      9  C   UNL A   1      33.934  28.018  26.151  1.00  0.00     0.082 C 
BRANCH   6  10
ATOM     10  S   UNL A   1      32.125  27.109  23.062  1.00  0.00    -0.083 SA
BRANCH  10  11
ATOM     11  C   UNL A   1      30.877  28.194  22.624  1.00  0.00     0.183 A 
ATOM     12  C   UNL A   1      27.551  29.308  22.543  1.00  0.00     0.092 C 
ATOM     13  C   UNL A   1      29.006  29.112  22.411  1.00  0.00     0.148 A 
ATOM     14  N   UNL A   1      29.818  29.948  21.747  1.00  0.00    -0.158 NA
ATOM     15  N   UNL A   1      29.624  28.026  22.961  1.00  0.00    -0.206 NA
ATOM     16  N   UNL A   1      31.008  29.330  21.892  1.00  0.00    -0.254 N 
ATOM     17  H   UNL A   1      31.857  29.660  21.518  1.00  0.00     0.192 HD
ENDBRANCH  10  11
ENDBRANCH   6  10
BRANCH   5  18
ATOM     18  N   UNL A   1      33.473  29.707  24.400  1.00  0.00    -0.343 N 
ATOM     19  H   UNL A   1      32.685  30.035  23.842  1.00  0.00     0.345 HD
ATOM     20  H   UNL A   1      33.993  29.004  23.875  1.00  0.00     0.345 HD
ATOM     21  H   UNL A   1      34.087  30.492  24.616  1.00  0.00     0.345 HD
ENDBRANCH   5  18
ENDBRANCH   3   5
ENDBRANCH   2   3
ENDBRANCH   1   2
BRANCH   1  22
ATOM     22  C   UNL A   1      35.406  32.550  27.943  1.00  0.00     0.275 C 
BRANCH  22  23
ATOM     23  O   UNL A   1      35.925  32.731  29.266  1.00  0.00    -0.458 OA
BRANCH  23  24
ATOM     24  C   UNL A   1      36.248  31.589  29.904  1.00  0.00     0.338 C 
ATOM     25  O   UNL A   1      35.858  31.213  30.996  1.00  0.00    -0.246 OA
BRANCH  24  26
ATOM     26  C   UNL A   1      37.408  30.955  29.283  1.00  0.00     0.060 A 
ATOM     27  C   UNL A   1      37.240  29.620  28.888  1.00  0.00     0.016 A 
ATOM     28  C   UNL A   1      38.669  31.517  29.507  1.00  0.00     0.016 A 
ATOM     29  C   UNL A   1      38.333  28.785  28.915  1.00  0.00     0.010 A 
ATOM     30  C   UNL A   1      39.754  30.676  29.554  1.00  0.00     0.010 A 
ATOM     31  C   UNL A   1      39.557  29.311  29.332  1.00  0.00    -0.014 A 
BRANCH  31  32
ATOM     32  C   UNL A   1      40.664  28.397  29.495  1.00  0.00     0.031 A 
ATOM     33  C   UNL A   1      41.147  28.247  30.884  1.00  0.00     0.074 A 
ATOM     34  C   UNL A   1      41.082  27.606  28.491  1.00  0.00     0.049 A 
ATOM     35  N   UNL A   1      42.349  28.386  31.329  1.00  0.00    -0.248 NA
ATOM     36  C   UNL A   1      40.136  27.982  31.921  1.00  0.00     0.031 C 
ATOM     37  C   UNL A   1      40.456  27.421  27.179  1.00  0.00     0.029 A 
ATOM     38  N   UNL A   1      42.063  26.665  28.511  1.00  0.00    -0.354 N 
ATOM     39  C   UNL A   1      42.280  28.084  32.685  1.00  0.00     0.074 A 
ATOM     40  C   UNL A   1      40.884  27.976  33.020  1.00  0.00     0.031 C 
ATOM     41  C   UNL A   1      40.899  26.258  26.651  1.00  0.00     0.029 A 
ATOM     42  C   UNL A   1      41.900  25.689  27.541  1.00  0.00     0.049 A 
ATOM     43  H   UNL A   1      42.814  26.676  29.149  1.00  0.00     0.167 HD
ATOM     44  C   UNL A   1      43.374  27.731  33.408  1.00  0.00     0.031 A 
ATOM     45  C   UNL A   1      42.452  24.451  27.553  1.00  0.00     0.031 A 
ATOM     46  C   UNL A   1      44.606  28.085  32.762  1.00  0.00     0.049 A 
ATOM     47  C   UNL A   1      43.578  24.459  28.518  1.00  0.00     0.074 A 
ATOM     48  C   UNL A   1      45.157  29.269  32.312  1.00  0.00     0.029 A 
ATOM     49  N   UNL A   1      45.334  27.082  32.170  1.00  0.00    -0.354 N 
ATOM     50  N   UNL A   1      44.694  25.104  28.331  1.00  0.00    -0.248 NA
ATOM     51  C   UNL A   1      43.315  24.069  29.896  1.00  0.00     0.031 C 
ATOM     52  C   UNL A   1      45.858  28.922  31.122  1.00  0.00     0.029 A 
ATOM     53  C   UNL A   1      45.711  27.545  30.936  1.00  0.00     0.049 A 
ATOM     54  H   UNL A   1      45.546  26.202  32.558  1.00  0.00     0.167 HD
ATOM     55  C   UNL A   1      45.055  25.568  29.588  1.00  0.00     0.074 A 
ATOM     56  C   UNL A   1      44.241  24.799  30.524  1.00  0.00     0.031 C 
ATOM     57  C   UNL A   1      45.761  26.730  29.742  1.00  0.00     0.031 A 
BRANCH  44  58
ATOM     58  C   UNL A   1      43.305  26.746  34.540  1.00  0.00    -0.014 A 
ATOM     59  C   UNL A   1      43.306  27.218  35.860  1.00  0.00     0.009 A 
ATOM     60  C   UNL A   1      43.502  25.361  34.354  1.00  0.00     0.009 A 
ATOM     61  C   UNL A   1      43.529  26.352  36.936  1.00  0.00     0.001 A 
ATOM     62  C   UNL A   1      43.675  24.488  35.427  1.00  0.00     0.001 A 
ATOM     63  C   UNL A   1      43.712  24.989  36.720  1.00  0.00     0.000 A 
ENDBRANCH  44  58
BRANCH  45  64
ATOM     64  C   UNL A   1      41.881  23.205  26.996  1.00  0.00    -0.014 A 
ATOM     65  C   UNL A   1      42.716  22.218  26.452  1.00  0.00     0.009 A 
ATOM     66  C   UNL A   1      40.526  22.875  27.189  1.00  0.00     0.009 A 
ATOM     67  C   UNL A   1      42.215  20.947  26.134  1.00  0.00     0.001 A 
ATOM     68  C   UNL A   1      40.021  21.615  26.856  1.00  0.00     0.001 A 
ATOM     69  C   UNL A   1      40.871  20.646  26.340  1.00  0.00     0.000 A 
ENDBRANCH  45  64
BRANCH  57  70
ATOM     70  C   UNL A   1      46.356  27.375  28.514  1.00  0.00    -0.014 A 
ATOM     71  C   UNL A   1      47.676  27.132  28.096  1.00  0.00     0.009 A 
ATOM     72  C   UNL A   1      45.518  28.112  27.664  1.00  0.00     0.009 A 
ATOM     73  C   UNL A   1      48.155  27.644  26.887  1.00  0.00     0.001 A 
ATOM     74  C   UNL A   1      45.988  28.604  26.443  1.00  0.00     0.001 A 
ATOM     75  C   UNL A   1      47.308  28.376  26.059  1.00  0.00     0.000 A 
ENDBRANCH  57  70
ENDBRANCH  31  32
ENDBRANCH  24  26
ENDBRANCH  23  24
ENDBRANCH  22  23
ENDBRANCH   1  22
TORSDOF 14
ENDMDL
