MODEL 1
REMARK VINA RESULT:     -11.4      0.000      0.000
REMARK SMILES COc1ccc2c(CC(=O)OCCOC(=O)c3ccc(-c4c5nc(c(-c6ccccc6)c6ccc([nH]6)c(-c6ccccc6)c6nc(c(-c7ccccc7)c7ccc4[nH]7)C=C6)C=C5)cc3)c(C(=O)c3cc(C)ccn3)[nH]c2c1
REMARK SMILES IDX 12 1 11 2 9 3 10 4 8 5 7 6 3 7 4 8 77 9 5 10 76 11 6 12
REMARK SMILES IDX 75 13 65 14 2 16 1 17 66 18 67 19 68 20 69 21 74 22 70 23
REMARK SMILES IDX 73 24 71 25 72 26 13 27 14 28 15 29 16 30 17 31 18 32 64 33
REMARK SMILES IDX 19 34 63 35 20 36 21 37 22 38 57 39 23 40 62 41 56 42 58 43
REMARK SMILES IDX 24 44 61 45 55 46 54 47 25 49 47 50 32 51 46 52 33 53 36 54
REMARK SMILES IDX 45 55 59 56 34 57 35 58 44 60 60 61 37 62 26 63 27 64 31 65
REMARK SMILES IDX 28 66 30 67 29 68 48 69 49 70 53 71 50 72 52 73 51 74 38 75
REMARK SMILES IDX 39 76 43 77 40 78 42 79 41 80
REMARK H PARENT 75 15 58 48 36 59
REMARK Flexibility Score: inf
ROOT
ATOM      1  C   UNL A   1      32.245  27.857  27.149  1.00  0.00     0.274 C 
ENDROOT
BRANCH   1   2
ATOM      2  O   UNL A   1      31.071  27.518  26.382  1.00  0.00    -0.462 OA
BRANCH   2   3
ATOM      3  C   UNL A   1      30.944  26.202  26.064  1.00  0.00     0.310 C 
ATOM      4  O   UNL A   1      31.101  25.281  26.864  1.00  0.00    -0.252 OA
BRANCH   3   5
ATOM      5  C   UNL A   1      30.551  25.925  24.631  1.00  0.00     0.161 C 
BRANCH   5   6
ATOM      6  C   UNL A   1      30.766  27.025  23.633  1.00  0.00     0.000 A 
ATOM      7  C   UNL A   1      28.298  30.092  22.222  1.00  0.00     0.120 A 
ATOM      8  C   UNL A   1      27.640  29.091  22.931  1.00  0.00     0.047 A 
ATOM      9  C   UNL A   1      29.640  29.963  21.852  1.00  0.00     0.073 A 
ATOM     10  C   UNL A   1      28.344  27.973  23.388  1.00  0.00     0.014 A 
ATOM     11  C   UNL A   1      30.334  28.858  22.355  1.00  0.00     0.050 A 
ATOM     12  C   UNL A   1      29.731  27.885  23.146  1.00  0.00     0.004 A 
ATOM     13  N   UNL A   1      31.659  28.509  22.238  1.00  0.00    -0.351 N 
ATOM     14  C   UNL A   1      31.977  27.548  23.176  1.00  0.00     0.093 A 
ATOM     15  H   UNL A   1      32.286  28.889  21.582  1.00  0.00     0.167 HD
BRANCH   7  16
ATOM     16  O   UNL A   1      27.660  31.246  21.841  1.00  0.00    -0.497 OA
ATOM     17  C   UNL A   1      28.570  32.348  21.791  1.00  0.00     0.278 C 
ENDBRANCH   7  16
BRANCH  14  18
ATOM     18  C   UNL A   1      33.330  27.273  23.636  1.00  0.00     0.227 C 
ATOM     19  O   UNL A   1      34.147  28.158  23.880  1.00  0.00    -0.285 OA
BRANCH  18  20
ATOM     20  C   UNL A   1      33.813  25.873  23.679  1.00  0.00     0.113 A 
ATOM     21  C   UNL A   1      34.320  25.363  24.870  1.00  0.00     0.036 A 
ATOM     22  N   UNL A   1      33.686  25.157  22.539  1.00  0.00    -0.253 NA
ATOM     23  C   UNL A   1      34.720  24.025  24.898  1.00  0.00    -0.047 A 
ATOM     24  C   UNL A   1      34.015  23.851  22.612  1.00  0.00     0.112 A 
ATOM     25  C   UNL A   1      35.310  23.414  26.132  1.00  0.00     0.044 C 
ATOM     26  C   UNL A   1      34.533  23.250  23.749  1.00  0.00     0.023 A 
ENDBRANCH  18  20
ENDBRANCH  14  18
ENDBRANCH   5   6
ENDBRANCH   3   5
ENDBRANCH   2   3
ENDBRANCH   1   2
BRANCH   1  27
ATOM     27  C   UNL A   1      32.555  29.347  27.033  1.00  0.00     0.275 C 
BRANCH  27  28
ATOM     28  O   UNL A   1      33.977  29.539  26.948  1.00  0.00    -0.458 OA
BRANCH  28  29
ATOM     29  C   UNL A   1      34.490  30.455  27.800  1.00  0.00     0.338 C 
ATOM     30  O   UNL A   1      33.938  31.472  28.201  1.00  0.00    -0.246 OA
BRANCH  29  31
ATOM     31  C   UNL A   1      35.878  30.105  28.156  1.00  0.00     0.060 A 
ATOM     32  C   UNL A   1      36.928  30.268  27.252  1.00  0.00     0.016 A 
ATOM     33  C   UNL A   1      36.117  29.519  29.400  1.00  0.00     0.016 A 
ATOM     34  C   UNL A   1      38.193  29.766  27.556  1.00  0.00     0.010 A 
ATOM     35  C   UNL A   1      37.407  29.109  29.742  1.00  0.00     0.010 A 
ATOM     36  C   UNL A   1      38.456  29.201  28.814  1.00  0.00    -0.014 A 
BRANCH  36  37
ATOM     37  C   UNL A   1      39.820  28.725  29.165  1.00  0.00     0.031 A 
ATOM     38  C   UNL A   1      40.767  29.595  29.949  1.00  0.00     0.074 A 
ATOM     39  C   UNL A   1      40.227  27.506  28.758  1.00  0.00     0.049 A 
ATOM     40  N   UNL A   1      42.038  29.407  30.208  1.00  0.00    -0.248 NA
ATOM     41  C   UNL A   1      40.221  30.845  30.503  1.00  0.00     0.031 C 
ATOM     42  C   UNL A   1      39.413  26.545  28.010  1.00  0.00     0.029 A 
ATOM     43  N   UNL A   1      41.430  26.864  28.921  1.00  0.00    -0.354 N 
ATOM     44  C   UNL A   1      42.455  30.532  30.908  1.00  0.00     0.074 A 
ATOM     45  C   UNL A   1      41.304  31.401  31.034  1.00  0.00     0.031 C 
ATOM     46  C   UNL A   1      40.121  25.423  27.819  1.00  0.00     0.029 A 
ATOM     47  C   UNL A   1      41.462  25.612  28.359  1.00  0.00     0.049 A 
ATOM     48  H   UNL A   1      42.194  27.264  29.395  1.00  0.00     0.167 HD
ATOM     49  C   UNL A   1      43.687  30.816  31.397  1.00  0.00     0.031 A 
ATOM     50  C   UNL A   1      42.463  24.719  28.258  1.00  0.00     0.031 A 
ATOM     51  C   UNL A   1      44.826  29.940  31.312  1.00  0.00     0.049 A 
ATOM     52  C   UNL A   1      43.818  25.062  28.800  1.00  0.00     0.074 A 
ATOM     53  C   UNL A   1      46.108  30.141  31.795  1.00  0.00     0.029 A 
ATOM     54  N   UNL A   1      44.816  28.688  30.718  1.00  0.00    -0.354 N 
ATOM     55  N   UNL A   1      44.206  26.150  29.419  1.00  0.00    -0.248 NA
ATOM     56  C   UNL A   1      44.874  24.058  28.619  1.00  0.00     0.031 C 
ATOM     57  C   UNL A   1      46.883  29.022  31.469  1.00  0.00     0.029 A 
ATOM     58  C   UNL A   1      46.072  28.110  30.815  1.00  0.00     0.049 A 
ATOM     59  H   UNL A   1      44.034  28.272  30.289  1.00  0.00     0.167 HD
ATOM     60  C   UNL A   1      45.550  25.960  29.704  1.00  0.00     0.074 A 
ATOM     61  C   UNL A   1      45.904  24.644  29.211  1.00  0.00     0.031 C 
ATOM     62  C   UNL A   1      46.414  26.805  30.315  1.00  0.00     0.031 A 
BRANCH  49  63
ATOM     63  C   UNL A   1      43.881  32.154  32.053  1.00  0.00    -0.014 A 
ATOM     64  C   UNL A   1      44.212  33.294  31.306  1.00  0.00     0.009 A 
ATOM     65  C   UNL A   1      43.671  32.283  33.435  1.00  0.00     0.009 A 
ATOM     66  C   UNL A   1      44.349  34.535  31.935  1.00  0.00     0.001 A 
ATOM     67  C   UNL A   1      43.789  33.526  34.058  1.00  0.00     0.001 A 
ATOM     68  C   UNL A   1      44.133  34.650  33.308  1.00  0.00     0.000 A 
ENDBRANCH  49  63
BRANCH  50  69
ATOM     69  C   UNL A   1      42.221  23.421  27.582  1.00  0.00    -0.014 A 
ATOM     70  C   UNL A   1      42.582  23.243  26.238  1.00  0.00     0.009 A 
ATOM     71  C   UNL A   1      41.653  22.347  28.286  1.00  0.00     0.009 A 
ATOM     72  C   UNL A   1      42.370  22.015  25.610  1.00  0.00     0.001 A 
ATOM     73  C   UNL A   1      41.466  21.114  27.661  1.00  0.00     0.001 A 
ATOM     74  C   UNL A   1      41.819  20.950  26.322  1.00  0.00     0.000 A 
ENDBRANCH  50  69
BRANCH  62  75
ATOM     75  C   UNL A   1      47.820  26.316  30.500  1.00  0.00    -0.014 A 
ATOM     76  C   UNL A   1      48.760  26.414  29.464  1.00  0.00     0.009 A 
ATOM     77  C   UNL A   1      48.208  25.759  31.728  1.00  0.00     0.009 A 
ATOM     78  C   UNL A   1      50.058  25.932  29.644  1.00  0.00     0.001 A 
ATOM     79  C   UNL A   1      49.512  25.296  31.911  1.00  0.00     0.001 A 
ATOM     80  C   UNL A   1      50.432  25.375  30.867  1.00  0.00     0.000 A 
ENDBRANCH  62  75
ENDBRANCH  36  37
ENDBRANCH  29  31
ENDBRANCH  28  29
ENDBRANCH  27  28
ENDBRANCH   1  27
TORSDOF 15
ENDMDL
MODEL 2
REMARK VINA RESULT:     -11.4      3.443      8.560
REMARK SMILES COc1ccc2c(CC(=O)OCCOC(=O)c3ccc(-c4c5nc(c(-c6ccccc6)c6ccc([nH]6)c(-c6ccccc6)c6nc(c(-c7ccccc7)c7ccc4[nH]7)C=C6)C=C5)cc3)c(C(=O)c3cc(C)ccn3)[nH]c2c1
REMARK SMILES IDX 12 1 11 2 9 3 10 4 8 5 7 6 3 7 4 8 77 9 5 10 76 11 6 12
REMARK SMILES IDX 75 13 65 14 2 16 1 17 66 18 67 19 68 20 69 21 74 22 70 23
REMARK SMILES IDX 73 24 71 25 72 26 13 27 14 28 15 29 16 30 17 31 18 32 64 33
REMARK SMILES IDX 19 34 63 35 20 36 21 37 22 38 57 39 23 40 62 41 56 42 58 43
REMARK SMILES IDX 24 44 61 45 55 46 54 47 25 49 47 50 32 51 46 52 33 53 36 54
REMARK SMILES IDX 45 55 59 56 34 57 35 58 44 60 60 61 37 62 26 63 27 64 31 65
REMARK SMILES IDX 28 66 30 67 29 68 48 69 49 70 53 71 50 72 52 73 51 74 38 75
REMARK SMILES IDX 39 76 43 77 40 78 42 79 41 80
REMARK H PARENT 75 15 58 48 36 59
REMARK Flexibility Score: inf
ROOT
ATOM      1  C   UNL A   1      36.478  22.917  23.814  1.00  0.00     0.274 C 
ENDROOT
BRANCH   1   2
ATOM      2  O   UNL A   1      35.310  22.134  23.493  1.00  0.00    -0.462 OA
BRANCH   2   3
ATOM      3  C   UNL A   1      34.223  22.846  23.093  1.00  0.00     0.310 C 
ATOM      4  O   UNL A   1      34.284  23.912  22.483  1.00  0.00    -0.252 OA
BRANCH   3   5
ATOM      5  C   UNL A   1      32.888  22.216  23.419  1.00  0.00     0.161 C 
BRANCH   5   6
ATOM      6  C   UNL A   1      32.869  21.156  24.480  1.00  0.00     0.000 A 
ATOM      7  C   UNL A   1      33.097  16.982  24.322  1.00  0.00     0.120 A 
ATOM      8  C   UNL A   1      32.852  17.602  23.100  1.00  0.00     0.047 A 
ATOM      9  C   UNL A   1      33.066  17.698  25.522  1.00  0.00     0.073 A 
ATOM     10  C   UNL A   1      32.679  18.987  23.035  1.00  0.00     0.014 A 
ATOM     11  C   UNL A   1      32.932  19.088  25.429  1.00  0.00     0.050 A 
ATOM     12  C   UNL A   1      32.781  19.751  24.216  1.00  0.00     0.004 A 
ATOM     13  N   UNL A   1      32.953  20.052  26.409  1.00  0.00    -0.351 N 
ATOM     14  C   UNL A   1      33.143  21.295  25.842  1.00  0.00     0.093 A 
ATOM     15  H   UNL A   1      32.847  19.880  27.372  1.00  0.00     0.167 HD
BRANCH   7  16
ATOM     16  O   UNL A   1      33.365  15.639  24.410  1.00  0.00    -0.497 OA
ATOM     17  C   UNL A   1      32.590  15.023  25.441  1.00  0.00     0.278 C 
ENDBRANCH   7  16
BRANCH  14  18
ATOM     18  C   UNL A   1      33.648  22.453  26.564  1.00  0.00     0.227 C 
ATOM     19  O   UNL A   1      34.546  22.382  27.400  1.00  0.00    -0.285 OA
BRANCH  18  20
ATOM     20  C   UNL A   1      32.967  23.761  26.410  1.00  0.00     0.113 A 
ATOM     21  C   UNL A   1      33.711  24.877  26.039  1.00  0.00     0.036 A 
ATOM     22  N   UNL A   1      31.630  23.770  26.605  1.00  0.00    -0.253 NA
ATOM     23  C   UNL A   1      33.036  26.085  25.849  1.00  0.00    -0.047 A 
ATOM     24  C   UNL A   1      30.994  24.931  26.349  1.00  0.00     0.112 A 
ATOM     25  C   UNL A   1      33.772  27.339  25.485  1.00  0.00     0.044 C 
ATOM     26  C   UNL A   1      31.644  26.099  25.979  1.00  0.00     0.023 A 
ENDBRANCH  18  20
ENDBRANCH  14  18
ENDBRANCH   5   6
ENDBRANCH   3   5
ENDBRANCH   2   3
ENDBRANCH   1   2
BRANCH   1  27
ATOM     27  C   UNL A   1      37.451  22.112  24.670  1.00  0.00     0.275 C 
BRANCH  27  28
ATOM     28  O   UNL A   1      37.748  22.836  25.876  1.00  0.00    -0.458 OA
BRANCH  28  29
ATOM     29  C   UNL A   1      39.060  22.932  26.186  1.00  0.00     0.338 C 
ATOM     30  O   UNL A   1      39.908  22.058  26.060  1.00  0.00    -0.246 OA
BRANCH  29  31
ATOM     31  C   UNL A   1      39.353  24.249  26.783  1.00  0.00     0.060 A 
ATOM     32  C   UNL A   1      40.056  25.229  26.084  1.00  0.00     0.016 A 
ATOM     33  C   UNL A   1      38.984  24.472  28.110  1.00  0.00     0.016 A 
ATOM     34  C   UNL A   1      40.467  26.392  26.736  1.00  0.00     0.010 A 
ATOM     35  C   UNL A   1      39.309  25.680  28.731  1.00  0.00     0.010 A 
ATOM     36  C   UNL A   1      40.080  26.643  28.061  1.00  0.00    -0.014 A 
BRANCH  36  37
ATOM     37  C   UNL A   1      40.460  27.911  28.739  1.00  0.00     0.031 A 
ATOM     38  C   UNL A   1      41.838  28.097  29.320  1.00  0.00     0.074 A 
ATOM     39  C   UNL A   1      39.555  28.903  28.856  1.00  0.00     0.049 A 
ATOM     40  N   UNL A   1      42.289  29.067  30.077  1.00  0.00    -0.248 NA
ATOM     41  C   UNL A   1      42.832  27.052  29.028  1.00  0.00     0.031 C 
ATOM     42  C   UNL A   1      38.191  28.874  28.323  1.00  0.00     0.029 A 
ATOM     43  N   UNL A   1      39.649  30.133  29.457  1.00  0.00    -0.354 N 
ATOM     44  C   UNL A   1      43.599  28.727  30.390  1.00  0.00     0.074 A 
ATOM     45  C   UNL A   1      43.872  27.460  29.745  1.00  0.00     0.031 C 
ATOM     46  C   UNL A   1      37.592  30.045  28.582  1.00  0.00     0.029 A 
ATOM     47  C   UNL A   1      38.499  30.877  29.364  1.00  0.00     0.049 A 
ATOM     48  H   UNL A   1      40.463  30.451  29.911  1.00  0.00     0.167 HD
ATOM     49  C   UNL A   1      44.492  29.407  31.151  1.00  0.00     0.031 A 
ATOM     50  C   UNL A   1      38.188  32.082  29.874  1.00  0.00     0.031 A 
ATOM     51  C   UNL A   1      44.242  30.686  31.762  1.00  0.00     0.049 A 
ATOM     52  C   UNL A   1      39.190  32.810  30.718  1.00  0.00     0.074 A 
ATOM     53  C   UNL A   1      45.096  31.455  32.536  1.00  0.00     0.029 A 
ATOM     54  N   UNL A   1      43.055  31.394  31.655  1.00  0.00    -0.354 N 
ATOM     55  N   UNL A   1      40.408  32.451  31.043  1.00  0.00    -0.248 NA
ATOM     56  C   UNL A   1      38.769  34.101  31.276  1.00  0.00     0.031 C 
ATOM     57  C   UNL A   1      44.416  32.616  32.921  1.00  0.00     0.029 A 
ATOM     58  C   UNL A   1      43.153  32.586  32.355  1.00  0.00     0.049 A 
ATOM     59  H   UNL A   1      42.262  31.095  31.157  1.00  0.00     0.167 HD
ATOM     60  C   UNL A   1      40.901  33.474  31.839  1.00  0.00     0.074 A 
ATOM     61  C   UNL A   1      39.859  34.478  31.930  1.00  0.00     0.031 C 
ATOM     62  C   UNL A   1      42.108  33.571  32.446  1.00  0.00     0.031 A 
BRANCH  49  63
ATOM     63  C   UNL A   1      45.828  28.765  31.393  1.00  0.00    -0.014 A 
ATOM     64  C   UNL A   1      46.040  27.902  32.478  1.00  0.00     0.009 A 
ATOM     65  C   UNL A   1      46.875  28.984  30.483  1.00  0.00     0.009 A 
ATOM     66  C   UNL A   1      47.282  27.287  32.659  1.00  0.00     0.001 A 
ATOM     67  C   UNL A   1      48.108  28.353  30.655  1.00  0.00     0.001 A 
ATOM     68  C   UNL A   1      48.312  27.510  31.745  1.00  0.00     0.000 A 
ENDBRANCH  49  63
BRANCH  50  69
ATOM     69  C   UNL A   1      36.846  32.660  29.621  1.00  0.00    -0.014 A 
ATOM     70  C   UNL A   1      36.592  33.377  28.441  1.00  0.00     0.009 A 
ATOM     71  C   UNL A   1      35.805  32.475  30.545  1.00  0.00     0.009 A 
ATOM     72  C   UNL A   1      35.323  33.904  28.198  1.00  0.00     0.001 A 
ATOM     73  C   UNL A   1      34.532  32.982  30.285  1.00  0.00     0.001 A 
ATOM     74  C   UNL A   1      34.293  33.701  29.115  1.00  0.00     0.000 A 
ENDBRANCH  50  69
BRANCH  62  75
ATOM     75  C   UNL A   1      42.367  34.815  33.241  1.00  0.00    -0.014 A 
ATOM     76  C   UNL A   1      41.944  34.920  34.575  1.00  0.00     0.009 A 
ATOM     77  C   UNL A   1      43.049  35.890  32.652  1.00  0.00     0.009 A 
ATOM     78  C   UNL A   1      42.172  36.094  35.294  1.00  0.00     0.001 A 
ATOM     79  C   UNL A   1      43.292  37.055  33.381  1.00  0.00     0.001 A 
ATOM     80  C   UNL A   1      42.846  37.160  34.698  1.00  0.00     0.000 A 
ENDBRANCH  62  75
ENDBRANCH  36  37
ENDBRANCH  29  31
ENDBRANCH  28  29
ENDBRANCH  27  28
ENDBRANCH   1  27
TORSDOF 15
ENDMDL
MODEL 3
REMARK VINA RESULT:     -11.3      1.567      4.191
REMARK SMILES COc1ccc2c(CC(=O)OCCOC(=O)c3ccc(-c4c5nc(c(-c6ccccc6)c6ccc([nH]6)c(-c6ccccc6)c6nc(c(-c7ccccc7)c7ccc4[nH]7)C=C6)C=C5)cc3)c(C(=O)c3cc(C)ccn3)[nH]c2c1
REMARK SMILES IDX 12 1 11 2 9 3 10 4 8 5 7 6 3 7 4 8 77 9 5 10 76 11 6 12
REMARK SMILES IDX 75 13 65 14 2 16 1 17 66 18 67 19 68 20 69 21 74 22 70 23
REMARK SMILES IDX 73 24 71 25 72 26 13 27 14 28 15 29 16 30 17 31 18 32 64 33
REMARK SMILES IDX 19 34 63 35 20 36 21 37 22 38 57 39 23 40 62 41 56 42 58 43
REMARK SMILES IDX 24 44 61 45 55 46 54 47 25 49 47 50 32 51 46 52 33 53 36 54
REMARK SMILES IDX 45 55 59 56 34 57 35 58 44 60 60 61 37 62 26 63 27 64 31 65
REMARK SMILES IDX 28 66 30 67 29 68 48 69 49 70 53 71 50 72 52 73 51 74 38 75
REMARK SMILES IDX 39 76 43 77 40 78 42 79 41 80
REMARK H PARENT 75 15 58 48 36 59
REMARK Flexibility Score: inf
ROOT
ATOM      1  C   UNL A   1      32.805  28.083  26.105  1.00  0.00     0.274 C 
ENDROOT
BRANCH   1   2
ATOM      2  O   UNL A   1      33.843  27.228  25.584  1.00  0.00    -0.462 OA
BRANCH   2   3
ATOM      3  C   UNL A   1      33.573  25.896  25.621  1.00  0.00     0.310 C 
ATOM      4  O   UNL A   1      32.644  25.398  26.255  1.00  0.00    -0.252 OA
BRANCH   3   5
ATOM      5  C   UNL A   1      34.488  25.033  24.782  1.00  0.00     0.161 C 
BRANCH   5   6
ATOM      6  C   UNL A   1      33.846  23.992  23.913  1.00  0.00     0.000 A 
ATOM      7  C   UNL A   1      32.626  20.057  24.634  1.00  0.00     0.120 A 
ATOM      8  C   UNL A   1      33.449  20.604  25.615  1.00  0.00     0.047 A 
ATOM      9  C   UNL A   1      32.400  20.714  23.422  1.00  0.00     0.073 A 
ATOM     10  C   UNL A   1      33.984  21.885  25.451  1.00  0.00     0.014 A 
ATOM     11  C   UNL A   1      32.912  22.011  23.296  1.00  0.00     0.050 A 
ATOM     12  C   UNL A   1      33.659  22.625  24.295  1.00  0.00     0.004 A 
ATOM     13  N   UNL A   1      32.785  22.924  22.276  1.00  0.00    -0.351 N 
ATOM     14  C   UNL A   1      33.141  24.180  22.722  1.00  0.00     0.093 A 
ATOM     15  H   UNL A   1      32.485  22.712  21.363  1.00  0.00     0.167 HD
BRANCH   7  16
ATOM     16  O   UNL A   1      32.007  18.844  24.805  1.00  0.00    -0.497 OA
ATOM     17  C   UNL A   1      32.747  18.008  25.699  1.00  0.00     0.278 C 
ENDBRANCH   7  16
BRANCH  14  18
ATOM     18  C   UNL A   1      32.725  25.420  22.086  1.00  0.00     0.227 C 
ATOM     19  O   UNL A   1      33.375  25.970  21.200  1.00  0.00    -0.285 OA
BRANCH  18  20
ATOM     20  C   UNL A   1      31.547  26.149  22.614  1.00  0.00     0.113 A 
ATOM     21  C   UNL A   1      31.368  27.488  22.281  1.00  0.00     0.036 A 
ATOM     22  N   UNL A   1      30.683  25.432  23.367  1.00  0.00    -0.253 NA
ATOM     23  C   UNL A   1      30.222  28.136  22.747  1.00  0.00    -0.047 A 
ATOM     24  C   UNL A   1      29.553  26.061  23.747  1.00  0.00     0.112 A 
ATOM     25  C   UNL A   1      29.977  29.587  22.462  1.00  0.00     0.044 C 
ATOM     26  C   UNL A   1      29.284  27.393  23.470  1.00  0.00     0.023 A 
ENDBRANCH  18  20
ENDBRANCH  14  18
ENDBRANCH   5   6
ENDBRANCH   3   5
ENDBRANCH   2   3
ENDBRANCH   1   2
BRANCH   1  27
ATOM     27  C   UNL A   1      33.283  28.815  27.356  1.00  0.00     0.275 C 
BRANCH  27  28
ATOM     28  O   UNL A   1      34.016  29.992  26.977  1.00  0.00    -0.458 OA
BRANCH  28  29
ATOM     29  C   UNL A   1      34.604  30.660  27.995  1.00  0.00     0.338 C 
ATOM     30  O   UNL A   1      34.159  31.637  28.584  1.00  0.00    -0.246 OA
BRANCH  29  31
ATOM     31  C   UNL A   1      35.934  30.091  28.283  1.00  0.00     0.060 A 
ATOM     32  C   UNL A   1      36.262  29.599  29.547  1.00  0.00     0.016 A 
ATOM     33  C   UNL A   1      36.904  30.130  27.281  1.00  0.00     0.016 A 
ATOM     34  C   UNL A   1      37.577  29.232  29.833  1.00  0.00     0.010 A 
ATOM     35  C   UNL A   1      38.195  29.666  27.540  1.00  0.00     0.010 A 
ATOM     36  C   UNL A   1      38.556  29.239  28.827  1.00  0.00    -0.014 A 
BRANCH  36  37
ATOM     37  C   UNL A   1      39.943  28.784  29.112  1.00  0.00     0.031 A 
ATOM     38  C   UNL A   1      40.931  29.692  29.797  1.00  0.00     0.074 A 
ATOM     39  C   UNL A   1      40.332  27.551  28.734  1.00  0.00     0.049 A 
ATOM     40  N   UNL A   1      42.217  29.521  29.982  1.00  0.00    -0.248 NA
ATOM     41  C   UNL A   1      40.412  30.963  30.329  1.00  0.00     0.031 C 
ATOM     42  C   UNL A   1      39.480  26.554  28.081  1.00  0.00     0.029 A 
ATOM     43  N   UNL A   1      41.547  26.922  28.848  1.00  0.00    -0.354 N 
ATOM     44  C   UNL A   1      42.669  30.678  30.605  1.00  0.00     0.074 A 
ATOM     45  C   UNL A   1      41.522  31.546  30.766  1.00  0.00     0.031 C 
ATOM     46  C   UNL A   1      40.182  25.428  27.895  1.00  0.00     0.029 A 
ATOM     47  C   UNL A   1      41.553  25.647  28.341  1.00  0.00     0.049 A 
ATOM     48  H   UNL A   1      42.337  27.345  29.256  1.00  0.00     0.167 HD
ATOM     49  C   UNL A   1      43.927  30.989  31.003  1.00  0.00     0.031 A 
ATOM     50  C   UNL A   1      42.552  24.754  28.215  1.00  0.00     0.031 A 
ATOM     51  C   UNL A   1      45.065  30.115  30.884  1.00  0.00     0.049 A 
ATOM     52  C   UNL A   1      43.936  25.127  28.656  1.00  0.00     0.074 A 
ATOM     53  C   UNL A   1      46.373  30.343  31.277  1.00  0.00     0.029 A 
ATOM     54  N   UNL A   1      45.027  28.838  30.347  1.00  0.00    -0.354 N 
ATOM     55  N   UNL A   1      44.354  26.243  29.201  1.00  0.00    -0.248 NA
ATOM     56  C   UNL A   1      44.986  24.120  28.452  1.00  0.00     0.031 C 
ATOM     57  C   UNL A   1      47.134  29.213  30.951  1.00  0.00     0.029 A 
ATOM     58  C   UNL A   1      46.290  28.271  30.390  1.00  0.00     0.049 A 
ATOM     59  H   UNL A   1      44.223  28.400  29.987  1.00  0.00     0.167 HD
ATOM     60  C   UNL A   1      45.715  26.072  29.408  1.00  0.00     0.074 A 
ATOM     61  C   UNL A   1      46.047  24.737  28.952  1.00  0.00     0.031 C 
ATOM     62  C   UNL A   1      46.610  26.947  29.926  1.00  0.00     0.031 A 
BRANCH  49  63
ATOM     63  C   UNL A   1      44.152  32.355  31.586  1.00  0.00    -0.014 A 
ATOM     64  C   UNL A   1      44.448  33.458  30.773  1.00  0.00     0.009 A 
ATOM     65  C   UNL A   1      44.008  32.548  32.970  1.00  0.00     0.009 A 
ATOM     66  C   UNL A   1      44.615  34.726  31.337  1.00  0.00     0.001 A 
ATOM     67  C   UNL A   1      44.155  33.819  33.528  1.00  0.00     0.001 A 
ATOM     68  C   UNL A   1      44.464  34.905  32.712  1.00  0.00     0.000 A 
ENDBRANCH  49  63
BRANCH  50  69
ATOM     69  C   UNL A   1      42.278  23.427  27.613  1.00  0.00    -0.014 A 
ATOM     70  C   UNL A   1      41.804  22.372  28.407  1.00  0.00     0.009 A 
ATOM     71  C   UNL A   1      42.463  23.218  26.237  1.00  0.00     0.009 A 
ATOM     72  C   UNL A   1      41.530  21.130  27.834  1.00  0.00     0.001 A 
ATOM     73  C   UNL A   1      42.164  21.982  25.665  1.00  0.00     0.001 A 
ATOM     74  C   UNL A   1      41.703  20.937  26.463  1.00  0.00     0.000 A 
ENDBRANCH  50  69
BRANCH  62  75
ATOM     75  C   UNL A   1      48.028  26.472  30.044  1.00  0.00    -0.014 A 
ATOM     76  C   UNL A   1      48.471  25.799  31.193  1.00  0.00     0.009 A 
ATOM     77  C   UNL A   1      48.926  26.693  28.989  1.00  0.00     0.009 A 
ATOM     78  C   UNL A   1      49.799  25.385  31.296  1.00  0.00     0.001 A 
ATOM     79  C   UNL A   1      50.249  26.260  29.089  1.00  0.00     0.001 A 
ATOM     80  C   UNL A   1      50.687  25.615  30.245  1.00  0.00     0.000 A 
ENDBRANCH  62  75
ENDBRANCH  36  37
ENDBRANCH  29  31
ENDBRANCH  28  29
ENDBRANCH  27  28
ENDBRANCH   1  27
TORSDOF 15
ENDMDL
