MODEL 1
REMARK VINA RESULT:      -9.8      0.000      0.000
REMARK SMILES [NH3+][C@@H]1C(=O)N2C(C(=O)OCCOC(=O)c3ccc(-c4c5nc(c(-c6ccccc6)c6ccc([nH]6)c(-c6ccccc6)c6nc(c(-c7ccccc7)c7ccc4[nH]7)C=C6)C=C5)cc3)=CCS[C@@H]12
REMARK SMILES IDX 11 1 10 2 9 3 7 4 8 5 6 6 2 7 3 8 66 9 4 10 5 11 65 12 64 13
REMARK SMILES IDX 63 14 1 15 12 19 13 20 14 21 15 22 16 23 62 24 17 25 61 26
REMARK SMILES IDX 18 27 19 28 20 29 55 30 21 31 60 32 54 33 56 34 22 35 59 36
REMARK SMILES IDX 53 37 52 38 23 40 45 41 30 42 44 43 31 44 34 45 43 46 57 47
REMARK SMILES IDX 32 48 33 49 42 51 58 52 35 53 24 54 25 55 29 56 26 57 28 58
REMARK SMILES IDX 27 59 46 60 47 61 51 62 48 63 50 64 49 65 36 66 37 67 41 68
REMARK SMILES IDX 38 69 40 70 39 71
REMARK H PARENT 1 16 1 17 1 18 56 39 34 50
REMARK Flexibility Score: inf
ROOT
ATOM      1  C   UNL A   1      37.250  32.130  33.852  1.00  0.00     0.275 C 
ENDROOT
BRANCH   1   2
ATOM      2  C   UNL A   1      36.126  33.127  34.146  1.00  0.00     0.275 C 
BRANCH   2   3
ATOM      3  O   UNL A   1      35.666  33.772  32.940  1.00  0.00    -0.457 OA
BRANCH   3   4
ATOM      4  C   UNL A   1      34.404  33.469  32.519  1.00  0.00     0.354 C 
ATOM      5  O   UNL A   1      33.476  33.178  33.255  1.00  0.00    -0.244 OA
BRANCH   4   6
ATOM      6  C   UNL A   1      34.297  33.626  31.023  1.00  0.00     0.128 C 
ATOM      7  C   UNL A   1      32.994  36.318  29.349  1.00  0.00     0.305 C 
ATOM      8  C   UNL A   1      32.998  35.820  30.845  1.00  0.00     0.289 C 
ATOM      9  C   UNL A   1      34.032  35.178  29.137  1.00  0.00     0.217 C 
ATOM     10  O   UNL A   1      32.547  36.229  31.885  1.00  0.00    -0.267 OA
ATOM     11  N   UNL A   1      33.710  34.730  30.484  1.00  0.00    -0.282 N 
ATOM     12  S   UNL A   1      33.540  33.870  27.989  1.00  0.00    -0.126 SA
ATOM     13  C   UNL A   1      34.695  32.653  28.693  1.00  0.00     0.101 C 
ATOM     14  C   UNL A   1      34.778  32.672  30.197  1.00  0.00     0.018 C 
BRANCH   7  15
ATOM     15  N   UNL A   1      33.645  37.631  29.124  1.00  0.00    -0.345 N 
ATOM     16  H   UNL A   1      34.242  37.855  29.920  1.00  0.00     0.345 HD
ATOM     17  H   UNL A   1      32.930  38.351  29.020  1.00  0.00     0.345 HD
ATOM     18  H   UNL A   1      34.211  37.588  28.276  1.00  0.00     0.345 HD
ENDBRANCH   7  15
ENDBRANCH   4   6
ENDBRANCH   3   4
ENDBRANCH   2   3
ENDBRANCH   1   2
BRANCH   1  19
ATOM     19  O   UNL A   1      37.425  31.948  32.433  1.00  0.00    -0.458 OA
BRANCH  19  20
ATOM     20  C   UNL A   1      37.158  30.702  31.979  1.00  0.00     0.338 C 
ATOM     21  O   UNL A   1      36.092  30.111  32.017  1.00  0.00    -0.246 OA
BRANCH  20  22
ATOM     22  C   UNL A   1      38.301  30.211  31.193  1.00  0.00     0.060 A 
ATOM     23  C   UNL A   1      39.335  29.646  31.928  1.00  0.00     0.016 A 
ATOM     24  C   UNL A   1      38.427  30.365  29.814  1.00  0.00     0.016 A 
ATOM     25  C   UNL A   1      40.496  29.221  31.301  1.00  0.00     0.010 A 
ATOM     26  C   UNL A   1      39.608  29.933  29.178  1.00  0.00     0.010 A 
ATOM     27  C   UNL A   1      40.656  29.360  29.921  1.00  0.00    -0.014 A 
BRANCH  27  28
ATOM     28  C   UNL A   1      41.964  28.964  29.335  1.00  0.00     0.031 A 
ATOM     29  C   UNL A   1      42.155  27.577  28.788  1.00  0.00     0.074 A 
ATOM     30  C   UNL A   1      42.937  29.881  29.156  1.00  0.00     0.049 A 
ATOM     31  N   UNL A   1      43.213  27.041  28.231  1.00  0.00    -0.248 NA
ATOM     32  C   UNL A   1      40.994  26.676  28.861  1.00  0.00     0.031 C 
ATOM     33  C   UNL A   1      42.844  31.296  29.520  1.00  0.00     0.029 A 
ATOM     34  N   UNL A   1      44.185  29.763  28.595  1.00  0.00    -0.354 N 
ATOM     35  C   UNL A   1      42.856  25.738  27.911  1.00  0.00     0.074 A 
ATOM     36  C   UNL A   1      41.488  25.559  28.349  1.00  0.00     0.031 C 
ATOM     37  C   UNL A   1      43.980  31.916  29.161  1.00  0.00     0.029 A 
ATOM     38  C   UNL A   1      44.904  30.934  28.602  1.00  0.00     0.049 A 
ATOM     39  H   UNL A   1      44.532  28.920  28.224  1.00  0.00     0.167 HD
ATOM     40  C   UNL A   1      43.598  24.775  27.309  1.00  0.00     0.031 A 
ATOM     41  C   UNL A   1      46.175  31.186  28.230  1.00  0.00     0.031 A 
ATOM     42  C   UNL A   1      44.961  24.948  26.876  1.00  0.00     0.049 A 
ATOM     43  C   UNL A   1      47.019  30.068  27.685  1.00  0.00     0.074 A 
ATOM     44  C   UNL A   1      45.799  24.023  26.275  1.00  0.00     0.029 A 
ATOM     45  N   UNL A   1      45.691  26.120  27.003  1.00  0.00    -0.354 N 
ATOM     46  N   UNL A   1      46.682  28.829  27.418  1.00  0.00    -0.248 NA
ATOM     47  C   UNL A   1      48.423  30.386  27.386  1.00  0.00     0.031 C 
ATOM     48  C   UNL A   1      47.055  24.615  26.102  1.00  0.00     0.029 A 
ATOM     49  C   UNL A   1      46.978  25.931  26.523  1.00  0.00     0.049 A 
ATOM     50  H   UNL A   1      45.346  26.962  27.378  1.00  0.00     0.167 HD
ATOM     51  C   UNL A   1      47.823  28.227  26.903  1.00  0.00     0.074 A 
ATOM     52  C   UNL A   1      48.853  29.246  26.865  1.00  0.00     0.031 C 
ATOM     53  C   UNL A   1      48.003  26.945  26.498  1.00  0.00     0.031 A 
BRANCH  40  54
ATOM     54  C   UNL A   1      42.965  23.420  27.149  1.00  0.00    -0.014 A 
ATOM     55  C   UNL A   1      42.950  22.480  28.193  1.00  0.00     0.009 A 
ATOM     56  C   UNL A   1      42.357  23.084  25.929  1.00  0.00     0.009 A 
ATOM     57  C   UNL A   1      42.377  21.220  28.002  1.00  0.00     0.001 A 
ATOM     58  C   UNL A   1      41.756  21.838  25.751  1.00  0.00     0.001 A 
ATOM     59  C   UNL A   1      41.778  20.902  26.783  1.00  0.00     0.000 A 
ENDBRANCH  40  54
BRANCH  41  60
ATOM     60  C   UNL A   1      46.756  32.544  28.418  1.00  0.00    -0.014 A 
ATOM     61  C   UNL A   1      46.701  33.503  27.395  1.00  0.00     0.009 A 
ATOM     62  C   UNL A   1      47.406  32.875  29.618  1.00  0.00     0.009 A 
ATOM     63  C   UNL A   1      47.308  34.751  27.561  1.00  0.00     0.001 A 
ATOM     64  C   UNL A   1      47.981  34.135  29.795  1.00  0.00     0.001 A 
ATOM     65  C   UNL A   1      47.941  35.068  28.762  1.00  0.00     0.000 A 
ENDBRANCH  41  60
BRANCH  53  66
ATOM     66  C   UNL A   1      49.356  26.582  25.946  1.00  0.00    -0.014 A 
ATOM     67  C   UNL A   1      50.292  25.863  26.706  1.00  0.00     0.009 A 
ATOM     68  C   UNL A   1      49.696  26.960  24.637  1.00  0.00     0.009 A 
ATOM     69  C   UNL A   1      51.556  25.574  26.185  1.00  0.00     0.001 A 
ATOM     70  C   UNL A   1      50.946  26.637  24.106  1.00  0.00     0.001 A 
ATOM     71  C   UNL A   1      51.880  25.957  24.884  1.00  0.00     0.000 A 
ENDBRANCH  53  66
ENDBRANCH  27  28
ENDBRANCH  20  22
ENDBRANCH  19  20
ENDBRANCH   1  19
TORSDOF 12
ENDMDL
MODEL 2
REMARK VINA RESULT:      -9.7      2.780      7.179
REMARK SMILES [NH3+][C@@H]1C(=O)N2C(C(=O)OCCOC(=O)c3ccc(-c4c5nc(c(-c6ccccc6)c6ccc([nH]6)c(-c6ccccc6)c6nc(c(-c7ccccc7)c7ccc4[nH]7)C=C6)C=C5)cc3)=CCS[C@@H]12
REMARK SMILES IDX 11 1 10 2 9 3 7 4 8 5 6 6 2 7 3 8 66 9 4 10 5 11 65 12 64 13
REMARK SMILES IDX 63 14 1 15 12 19 13 20 14 21 15 22 16 23 62 24 17 25 61 26
REMARK SMILES IDX 18 27 19 28 20 29 55 30 21 31 60 32 54 33 56 34 22 35 59 36
REMARK SMILES IDX 53 37 52 38 23 40 45 41 30 42 44 43 31 44 34 45 43 46 57 47
REMARK SMILES IDX 32 48 33 49 42 51 58 52 35 53 24 54 25 55 29 56 26 57 28 58
REMARK SMILES IDX 27 59 46 60 47 61 51 62 48 63 50 64 49 65 36 66 37 67 41 68
REMARK SMILES IDX 38 69 40 70 39 71
REMARK H PARENT 1 16 1 17 1 18 56 39 34 50
REMARK Flexibility Score: inf
ROOT
ATOM      1  C   UNL A   1      33.037  31.918  27.626  1.00  0.00     0.275 C 
ENDROOT
BRANCH   1   2
ATOM      2  C   UNL A   1      32.950  33.446  27.685  1.00  0.00     0.275 C 
BRANCH   2   3
ATOM      3  O   UNL A   1      34.229  34.057  27.415  1.00  0.00    -0.457 OA
BRANCH   3   4
ATOM      4  C   UNL A   1      34.663  35.000  28.302  1.00  0.00     0.354 C 
ATOM      5  O   UNL A   1      34.466  36.198  28.196  1.00  0.00    -0.244 OA
BRANCH   4   6
ATOM      6  C   UNL A   1      35.349  34.343  29.474  1.00  0.00     0.128 C 
ATOM      7  C   UNL A   1      34.214  34.255  32.706  1.00  0.00     0.305 C 
ATOM      8  C   UNL A   1      33.827  35.051  31.401  1.00  0.00     0.289 C 
ATOM      9  C   UNL A   1      35.109  33.427  31.741  1.00  0.00     0.217 C 
ATOM     10  O   UNL A   1      33.003  35.884  31.118  1.00  0.00    -0.267 OA
ATOM     11  N   UNL A   1      34.813  34.424  30.723  1.00  0.00    -0.282 N 
ATOM     12  S   UNL A   1      36.887  33.488  32.070  1.00  0.00    -0.126 SA
ATOM     13  C   UNL A   1      37.338  33.013  30.373  1.00  0.00     0.101 C 
ATOM     14  C   UNL A   1      36.506  33.669  29.302  1.00  0.00     0.018 C 
BRANCH   7  15
ATOM     15  N   UNL A   1      33.140  33.391  33.253  1.00  0.00    -0.345 N 
ATOM     16  H   UNL A   1      32.372  33.973  33.586  1.00  0.00     0.345 HD
ATOM     17  H   UNL A   1      33.510  32.839  34.027  1.00  0.00     0.345 HD
ATOM     18  H   UNL A   1      32.801  32.766  32.521  1.00  0.00     0.345 HD
ENDBRANCH   7  15
ENDBRANCH   4   6
ENDBRANCH   3   4
ENDBRANCH   2   3
ENDBRANCH   1   2
BRANCH   1  19
ATOM     19  O   UNL A   1      34.291  31.449  28.162  1.00  0.00    -0.458 OA
BRANCH  19  20
ATOM     20  C   UNL A   1      34.581  30.157  27.888  1.00  0.00     0.338 C 
ATOM     21  O   UNL A   1      33.922  29.371  27.228  1.00  0.00    -0.246 OA
BRANCH  20  22
ATOM     22  C   UNL A   1      35.961  29.865  28.308  1.00  0.00     0.060 A 
ATOM     23  C   UNL A   1      36.926  29.980  27.316  1.00  0.00     0.016 A 
ATOM     24  C   UNL A   1      36.314  29.411  29.577  1.00  0.00     0.016 A 
ATOM     25  C   UNL A   1      38.248  29.654  27.576  1.00  0.00     0.010 A 
ATOM     26  C   UNL A   1      37.659  29.080  29.840  1.00  0.00     0.010 A 
ATOM     27  C   UNL A   1      38.637  29.196  28.836  1.00  0.00    -0.014 A 
BRANCH  27  28
ATOM     28  C   UNL A   1      40.054  28.781  29.012  1.00  0.00     0.031 A 
ATOM     29  C   UNL A   1      41.022  29.688  29.721  1.00  0.00     0.074 A 
ATOM     30  C   UNL A   1      40.448  27.537  28.670  1.00  0.00     0.049 A 
ATOM     31  N   UNL A   1      42.293  29.506  29.981  1.00  0.00    -0.248 NA
ATOM     32  C   UNL A   1      40.482  30.962  30.220  1.00  0.00     0.031 C 
ATOM     33  C   UNL A   1      39.587  26.505  28.090  1.00  0.00     0.029 A 
ATOM     34  N   UNL A   1      41.671  26.922  28.789  1.00  0.00    -0.354 N 
ATOM     35  C   UNL A   1      42.711  30.649  30.649  1.00  0.00     0.074 A 
ATOM     36  C   UNL A   1      41.562  31.525  30.742  1.00  0.00     0.031 C 
ATOM     37  C   UNL A   1      40.304  25.383  27.918  1.00  0.00     0.029 A 
ATOM     38  C   UNL A   1      41.687  25.633  28.312  1.00  0.00     0.049 A 
ATOM     39  H   UNL A   1      42.461  27.363  29.177  1.00  0.00     0.167 HD
ATOM     40  C   UNL A   1      43.940  30.946  31.140  1.00  0.00     0.031 A 
ATOM     41  C   UNL A   1      42.704  24.760  28.177  1.00  0.00     0.031 A 
ATOM     42  C   UNL A   1      45.087  30.081  31.046  1.00  0.00     0.049 A 
ATOM     43  C   UNL A   1      44.086  25.164  28.612  1.00  0.00     0.074 A 
ATOM     44  C   UNL A   1      46.377  30.306  31.497  1.00  0.00     0.029 A 
ATOM     45  N   UNL A   1      45.087  28.826  30.455  1.00  0.00    -0.354 N 
ATOM     46  N   UNL A   1      44.478  26.262  29.212  1.00  0.00    -0.248 NA
ATOM     47  C   UNL A   1      45.167  24.203  28.351  1.00  0.00     0.031 C 
ATOM     48  C   UNL A   1      47.172  29.218  31.118  1.00  0.00     0.029 A 
ATOM     49  C   UNL A   1      46.361  28.281  30.499  1.00  0.00     0.049 A 
ATOM     50  H   UNL A   1      44.299  28.387  30.062  1.00  0.00     0.167 HD
ATOM     51  C   UNL A   1      45.844  26.115  29.419  1.00  0.00     0.074 A 
ATOM     52  C   UNL A   1      46.206  24.808  28.908  1.00  0.00     0.031 C 
ATOM     53  C   UNL A   1      46.720  26.985  29.980  1.00  0.00     0.031 A 
BRANCH  40  54
ATOM     54  C   UNL A   1      44.120  32.304  31.764  1.00  0.00    -0.014 A 
ATOM     55  C   UNL A   1      43.936  32.519  33.140  1.00  0.00     0.009 A 
ATOM     56  C   UNL A   1      44.498  33.388  30.955  1.00  0.00     0.009 A 
ATOM     57  C   UNL A   1      44.086  33.798  33.682  1.00  0.00     0.001 A 
ATOM     58  C   UNL A   1      44.680  34.657  31.504  1.00  0.00     0.001 A 
ATOM     59  C   UNL A   1      44.461  34.864  32.865  1.00  0.00     0.000 A 
ENDBRANCH  40  54
BRANCH  41  60
ATOM     60  C   UNL A   1      42.473  23.432  27.544  1.00  0.00    -0.014 A 
ATOM     61  C   UNL A   1      42.087  22.321  28.310  1.00  0.00     0.009 A 
ATOM     62  C   UNL A   1      42.677  23.261  26.165  1.00  0.00     0.009 A 
ATOM     63  C   UNL A   1      41.939  21.066  27.714  1.00  0.00     0.001 A 
ATOM     64  C   UNL A   1      42.493  22.014  25.565  1.00  0.00     0.001 A 
ATOM     65  C   UNL A   1      42.135  20.915  26.342  1.00  0.00     0.000 A 
ENDBRANCH  41  60
BRANCH  53  66
ATOM     66  C   UNL A   1      48.151  26.535  30.103  1.00  0.00    -0.014 A 
ATOM     67  C   UNL A   1      49.092  26.791  29.092  1.00  0.00     0.009 A 
ATOM     68  C   UNL A   1      48.568  25.849  31.255  1.00  0.00     0.009 A 
ATOM     69  C   UNL A   1      50.405  26.327  29.212  1.00  0.00     0.001 A 
ATOM     70  C   UNL A   1      49.890  25.420  31.389  1.00  0.00     0.001 A 
ATOM     71  C   UNL A   1      50.803  25.646  30.362  1.00  0.00     0.000 A 
ENDBRANCH  53  66
ENDBRANCH  27  28
ENDBRANCH  20  22
ENDBRANCH  19  20
ENDBRANCH   1  19
TORSDOF 12
ENDMDL
MODEL 3
REMARK VINA RESULT:      -9.7      5.481     10.531
REMARK SMILES [NH3+][C@@H]1C(=O)N2C(C(=O)OCCOC(=O)c3ccc(-c4c5nc(c(-c6ccccc6)c6ccc([nH]6)c(-c6ccccc6)c6nc(c(-c7ccccc7)c7ccc4[nH]7)C=C6)C=C5)cc3)=CCS[C@@H]12
REMARK SMILES IDX 11 1 10 2 9 3 7 4 8 5 6 6 2 7 3 8 66 9 4 10 5 11 65 12 64 13
REMARK SMILES IDX 63 14 1 15 12 19 13 20 14 21 15 22 16 23 62 24 17 25 61 26
REMARK SMILES IDX 18 27 19 28 20 29 55 30 21 31 60 32 54 33 56 34 22 35 59 36
REMARK SMILES IDX 53 37 52 38 23 40 45 41 30 42 44 43 31 44 34 45 43 46 57 47
REMARK SMILES IDX 32 48 33 49 42 51 58 52 35 53 24 54 25 55 29 56 26 57 28 58
REMARK SMILES IDX 27 59 46 60 47 61 51 62 48 63 50 64 49 65 36 66 37 67 41 68
REMARK SMILES IDX 38 69 40 70 39 71
REMARK H PARENT 1 16 1 17 1 18 56 39 34 50
REMARK Flexibility Score: inf
ROOT
ATOM      1  C   UNL A   1      39.127  19.992  25.371  1.00  0.00     0.275 C 
ENDROOT
BRANCH   1   2
ATOM      2  C   UNL A   1      38.625  21.409  25.667  1.00  0.00     0.275 C 
BRANCH   2   3
ATOM      3  O   UNL A   1      37.185  21.451  25.744  1.00  0.00    -0.457 OA
BRANCH   3   4
ATOM      4  C   UNL A   1      36.520  21.918  24.647  1.00  0.00     0.354 C 
ATOM      5  O   UNL A   1      37.044  22.193  23.581  1.00  0.00    -0.244 OA
BRANCH   4   6
ATOM      6  C   UNL A   1      35.036  21.967  24.912  1.00  0.00     0.128 C 
ATOM      7  C   UNL A   1      32.961  19.276  25.356  1.00  0.00     0.305 C 
ATOM      8  C   UNL A   1      34.437  19.483  24.843  1.00  0.00     0.289 C 
ATOM      9  C   UNL A   1      33.065  20.774  25.764  1.00  0.00     0.217 C 
ATOM     10  O   UNL A   1      35.315  18.759  24.445  1.00  0.00    -0.267 OA
ATOM     11  N   UNL A   1      34.315  20.817  25.021  1.00  0.00    -0.282 N 
ATOM     12  S   UNL A   1      31.901  21.894  24.949  1.00  0.00    -0.126 SA
ATOM     13  C   UNL A   1      32.925  23.367  25.248  1.00  0.00     0.101 C 
ATOM     14  C   UNL A   1      34.401  23.151  25.042  1.00  0.00     0.018 C 
BRANCH   7  15
ATOM     15  N   UNL A   1      32.832  18.437  26.572  1.00  0.00    -0.345 N 
ATOM     16  H   UNL A   1      32.060  18.782  27.142  1.00  0.00     0.345 HD
ATOM     17  H   UNL A   1      33.698  18.482  27.108  1.00  0.00     0.345 HD
ATOM     18  H   UNL A   1      32.649  17.471  26.300  1.00  0.00     0.345 HD
ENDBRANCH   7  15
ENDBRANCH   4   6
ENDBRANCH   3   4
ENDBRANCH   2   3
ENDBRANCH   1   2
BRANCH   1  19
ATOM     19  O   UNL A   1      40.003  19.523  26.415  1.00  0.00    -0.458 OA
BRANCH  19  20
ATOM     20  C   UNL A   1      41.324  19.630  26.143  1.00  0.00     0.338 C 
ATOM     21  O   UNL A   1      42.009  18.869  25.480  1.00  0.00    -0.246 OA
BRANCH  20  22
ATOM     22  C   UNL A   1      41.807  20.952  26.571  1.00  0.00     0.060 A 
ATOM     23  C   UNL A   1      41.599  21.262  27.909  1.00  0.00     0.016 A 
ATOM     24  C   UNL A   1      42.358  21.901  25.711  1.00  0.00     0.016 A 
ATOM     25  C   UNL A   1      41.941  22.510  28.405  1.00  0.00     0.010 A 
ATOM     26  C   UNL A   1      42.706  23.168  26.219  1.00  0.00     0.010 A 
ATOM     27  C   UNL A   1      42.495  23.484  27.573  1.00  0.00    -0.014 A 
BRANCH  27  28
ATOM     28  C   UNL A   1      42.752  24.827  28.158  1.00  0.00     0.031 A 
ATOM     29  C   UNL A   1      44.157  25.246  28.493  1.00  0.00     0.074 A 
ATOM     30  C   UNL A   1      41.755  25.729  28.259  1.00  0.00     0.049 A 
ATOM     31  N   UNL A   1      44.589  26.373  29.002  1.00  0.00    -0.248 NA
ATOM     32  C   UNL A   1      45.220  24.272  28.199  1.00  0.00     0.031 C 
ATOM     33  C   UNL A   1      40.366  25.507  27.852  1.00  0.00     0.029 A 
ATOM     34  N   UNL A   1      41.766  27.028  28.708  1.00  0.00    -0.354 N 
ATOM     35  C   UNL A   1      45.967  26.236  29.112  1.00  0.00     0.074 A 
ATOM     36  C   UNL A   1      46.297  24.911  28.631  1.00  0.00     0.031 C 
ATOM     37  C   UNL A   1      39.664  26.632  28.058  1.00  0.00     0.029 A 
ATOM     38  C   UNL A   1      40.533  27.634  28.669  1.00  0.00     0.049 A 
ATOM     39  H   UNL A   1      42.579  27.481  29.028  1.00  0.00     0.167 HD
ATOM     40  C   UNL A   1      46.876  27.131  29.574  1.00  0.00     0.031 A 
ATOM     41  C   UNL A   1      40.137  28.846  29.102  1.00  0.00     0.031 A 
ATOM     42  C   UNL A   1      46.552  28.448  30.057  1.00  0.00     0.049 A 
ATOM     43  C   UNL A   1      41.144  29.770  29.730  1.00  0.00     0.074 A 
ATOM     44  C   UNL A   1      47.404  29.415  30.563  1.00  0.00     0.029 A 
ATOM     45  N   UNL A   1      45.273  28.983  30.104  1.00  0.00    -0.354 N 
ATOM     46  N   UNL A   1      42.439  29.618  29.862  1.00  0.00    -0.248 NA
ATOM     47  C   UNL A   1      40.630  31.039  30.268  1.00  0.00     0.031 C 
ATOM     48  C   UNL A   1      46.634  30.507  30.978  1.00  0.00     0.029 A 
ATOM     49  C   UNL A   1      45.311  30.252  30.661  1.00  0.00     0.049 A 
ATOM     50  H   UNL A   1      44.459  28.529  29.788  1.00  0.00     0.167 HD
ATOM     51  C   UNL A   1      42.898  30.776  30.477  1.00  0.00     0.074 A 
ATOM     52  C   UNL A   1      41.746  31.634  30.663  1.00  0.00     0.031 C 
ATOM     53  C   UNL A   1      44.160  31.098  30.855  1.00  0.00     0.031 A 
BRANCH  40  54
ATOM     54  C   UNL A   1      48.310  26.678  29.642  1.00  0.00    -0.014 A 
ATOM     55  C   UNL A   1      49.226  26.957  28.615  1.00  0.00     0.009 A 
ATOM     56  C   UNL A   1      48.754  25.970  30.770  1.00  0.00     0.009 A 
ATOM     57  C   UNL A   1      50.543  26.499  28.699  1.00  0.00     0.001 A 
ATOM     58  C   UNL A   1      50.078  25.543  30.867  1.00  0.00     0.001 A 
ATOM     59  C   UNL A   1      50.969  25.796  29.826  1.00  0.00     0.000 A 
ENDBRANCH  40  54
BRANCH  41  60
ATOM     60  C   UNL A   1      38.703  29.241  29.019  1.00  0.00    -0.014 A 
ATOM     61  C   UNL A   1      38.171  29.795  27.845  1.00  0.00     0.009 A 
ATOM     62  C   UNL A   1      37.865  29.099  30.138  1.00  0.00     0.009 A 
ATOM     63  C   UNL A   1      36.841  30.222  27.803  1.00  0.00     0.001 A 
ATOM     64  C   UNL A   1      36.527  29.493  30.082  1.00  0.00     0.001 A 
ATOM     65  C   UNL A   1      36.019  30.065  28.918  1.00  0.00     0.000 A 
ENDBRANCH  41  60
BRANCH  53  66
ATOM     66  C   UNL A   1      44.365  32.454  31.477  1.00  0.00    -0.014 A 
ATOM     67  C   UNL A   1      44.300  32.644  32.867  1.00  0.00     0.009 A 
ATOM     68  C   UNL A   1      44.637  33.562  30.657  1.00  0.00     0.009 A 
ATOM     69  C   UNL A   1      44.453  33.920  33.416  1.00  0.00     0.001 A 
ATOM     70  C   UNL A   1      44.827  34.828  31.212  1.00  0.00     0.001 A 
ATOM     71  C   UNL A   1      44.721  35.009  32.589  1.00  0.00     0.000 A 
ENDBRANCH  53  66
ENDBRANCH  27  28
ENDBRANCH  20  22
ENDBRANCH  19  20
ENDBRANCH   1  19
TORSDOF 12
ENDMDL
