MODEL 1
REMARK VINA RESULT:     -10.8      0.000      0.000
REMARK SMILES C[C@@H]1[NH2+]CC[C@H]1C(=O)NCc1cccc(C(=O)OCCOC(=O)c2ccc(-c3c4nc(c(-c5ccccc5)c5ccc([nH]5)c(-c5ccccc5)c5nc(c(-c6ccccc6)c6ccc3[nH]6)C=C5)C=C4)cc2)c1
REMARK SMILES IDX 19 1 18 2 16 3 17 4 15 5 11 6 12 7 72 8 13 9 14 10 10 11
REMARK SMILES IDX 9 12 7 13 8 14 6 16 1 17 2 18 3 19 4 20 5 23 20 24 21 25
REMARK SMILES IDX 22 26 23 27 24 28 25 29 71 30 26 31 70 32 27 33 28 34 29 35
REMARK SMILES IDX 64 36 30 37 69 38 63 39 65 40 31 41 68 42 62 43 61 44 32 46
REMARK SMILES IDX 54 47 39 48 53 49 40 50 43 51 52 52 66 53 41 54 42 55 51 57
REMARK SMILES IDX 67 58 44 59 33 60 34 61 38 62 35 63 37 64 36 65 55 66 56 67
REMARK SMILES IDX 60 68 57 69 59 70 58 71 45 72 46 73 50 74 47 75 49 76 48 77
REMARK H PARENT 9 15 3 21 3 22 65 45 43 56
REMARK Flexibility Score: inf
ROOT
ATOM      1  C   UNL A   1      43.045  20.810  25.772  1.00  0.00     0.275 C 
ENDROOT
BRANCH   1   2
ATOM      2  O   UNL A   1      41.806  21.538  25.666  1.00  0.00    -0.458 OA
BRANCH   2   3
ATOM      3  C   UNL A   1      40.883  21.303  26.631  1.00  0.00     0.338 C 
ATOM      4  O   UNL A   1      41.040  20.623  27.634  1.00  0.00    -0.246 OA
BRANCH   3   5
ATOM      5  C   UNL A   1      39.653  22.098  26.379  1.00  0.00     0.060 A 
ATOM      6  C   UNL A   1      37.434  22.381  25.416  1.00  0.00    -0.028 A 
ATOM      7  C   UNL A   1      37.474  23.738  25.773  1.00  0.00     0.005 A 
ATOM      8  C   UNL A   1      38.555  21.577  25.687  1.00  0.00     0.021 A 
ATOM      9  C   UNL A   1      38.552  24.254  26.489  1.00  0.00     0.001 A 
ATOM     10  C   UNL A   1      39.622  23.428  26.823  1.00  0.00     0.016 A 
BRANCH   6  11
ATOM     11  C   UNL A   1      36.208  21.820  24.741  1.00  0.00     0.151 C 
BRANCH  11  12
ATOM     12  N   UNL A   1      35.151  21.508  25.686  1.00  0.00    -0.352 N 
ATOM     13  C   UNL A   1      34.087  20.670  25.629  1.00  0.00     0.229 C 
ATOM     14  O   UNL A   1      33.295  20.719  26.576  1.00  0.00    -0.275 OA
ATOM     15  H   UNL A   1      35.221  22.001  26.535  1.00  0.00     0.163 HD
BRANCH  13  16
ATOM     16  C   UNL A   1      33.840  19.686  24.495  1.00  0.00     0.142 C 
ATOM     17  C   UNL A   1      34.627  17.273  24.517  1.00  0.00     0.076 C 
ATOM     18  C   UNL A   1      33.534  18.257  24.942  1.00  0.00     0.192 C 
ATOM     19  N   UNL A   1      32.267  17.872  24.295  1.00  0.00    -0.343 N 
ATOM     20  C   UNL A   1      32.083  18.766  23.152  1.00  0.00     0.261 C 
ATOM     21  H   UNL A   1      31.492  17.977  24.950  1.00  0.00     0.346 HD
ATOM     22  H   UNL A   1      32.290  16.897  23.995  1.00  0.00     0.346 HD
ATOM     23  C   UNL A   1      32.720  20.084  23.545  1.00  0.00     0.081 C 
ENDBRANCH  13  16
ENDBRANCH  11  12
ENDBRANCH   6  11
ENDBRANCH   3   5
ENDBRANCH   2   3
ENDBRANCH   1   2
BRANCH   1  24
ATOM     24  C   UNL A   1      44.188  21.593  25.124  1.00  0.00     0.275 C 
BRANCH  24  25
ATOM     25  O   UNL A   1      44.700  22.580  26.038  1.00  0.00    -0.458 OA
BRANCH  25  26
ATOM     26  C   UNL A   1      44.688  23.857  25.594  1.00  0.00     0.338 C 
ATOM     27  O   UNL A   1      45.144  24.294  24.551  1.00  0.00    -0.246 OA
BRANCH  26  28
ATOM     28  C   UNL A   1      43.912  24.682  26.531  1.00  0.00     0.060 A 
ATOM     29  C   UNL A   1      44.069  26.064  26.456  1.00  0.00     0.016 A 
ATOM     30  C   UNL A   1      43.137  24.113  27.538  1.00  0.00     0.016 A 
ATOM     31  C   UNL A   1      43.471  26.894  27.399  1.00  0.00     0.010 A 
ATOM     32  C   UNL A   1      42.512  24.949  28.475  1.00  0.00     0.010 A 
ATOM     33  C   UNL A   1      42.693  26.345  28.426  1.00  0.00    -0.014 A 
BRANCH  33  34
ATOM     34  C   UNL A   1      42.148  27.234  29.486  1.00  0.00     0.031 A 
ATOM     35  C   UNL A   1      42.903  27.414  30.775  1.00  0.00     0.074 A 
ATOM     36  C   UNL A   1      41.010  27.926  29.282  1.00  0.00     0.049 A 
ATOM     37  N   UNL A   1      42.560  28.080  31.850  1.00  0.00    -0.248 NA
ATOM     38  C   UNL A   1      44.217  26.759  30.867  1.00  0.00     0.031 C 
ATOM     39  C   UNL A   1      40.209  27.899  28.058  1.00  0.00     0.029 A 
ATOM     40  N   UNL A   1      40.341  28.804  30.099  1.00  0.00    -0.354 N 
ATOM     41  C   UNL A   1      43.591  27.885  32.760  1.00  0.00     0.074 A 
ATOM     42  C   UNL A   1      44.572  27.039  32.114  1.00  0.00     0.031 C 
ATOM     43  C   UNL A   1      39.174  28.745  28.194  1.00  0.00     0.029 A 
ATOM     44  C   UNL A   1      39.205  29.326  29.532  1.00  0.00     0.049 A 
ATOM     45  H   UNL A   1      40.648  29.036  31.006  1.00  0.00     0.167 HD
ATOM     46  C   UNL A   1      43.712  28.365  34.022  1.00  0.00     0.031 A 
ATOM     47  C   UNL A   1      38.277  30.161  30.040  1.00  0.00     0.031 A 
ATOM     48  C   UNL A   1      42.758  29.232  34.659  1.00  0.00     0.049 A 
ATOM     49  C   UNL A   1      38.415  30.651  31.454  1.00  0.00     0.074 A 
ATOM     50  C   UNL A   1      42.797  29.766  35.937  1.00  0.00     0.029 A 
ATOM     51  N   UNL A   1      41.599  29.702  34.064  1.00  0.00    -0.354 N 
ATOM     52  N   UNL A   1      39.373  30.421  32.318  1.00  0.00    -0.248 NA
ATOM     53  C   UNL A   1      37.336  31.509  31.965  1.00  0.00     0.031 C 
ATOM     54  C   UNL A   1      41.643  30.535  36.125  1.00  0.00     0.029 A 
ATOM     55  C   UNL A   1      40.909  30.513  34.950  1.00  0.00     0.049 A 
ATOM     56  H   UNL A   1      41.309  29.492  33.147  1.00  0.00     0.167 HD
ATOM     57  C   UNL A   1      39.017  31.112  33.468  1.00  0.00     0.074 A 
ATOM     58  C   UNL A   1      37.768  31.787  33.186  1.00  0.00     0.031 C 
ATOM     59  C   UNL A   1      39.668  31.177  34.656  1.00  0.00     0.031 A 
BRANCH  46  60
ATOM     60  C   UNL A   1      44.908  27.922  34.814  1.00  0.00    -0.014 A 
ATOM     61  C   UNL A   1      46.099  28.663  34.820  1.00  0.00     0.009 A 
ATOM     62  C   UNL A   1      44.828  26.755  35.589  1.00  0.00     0.009 A 
ATOM     63  C   UNL A   1      47.197  28.227  35.564  1.00  0.00     0.001 A 
ATOM     64  C   UNL A   1      45.918  26.334  36.351  1.00  0.00     0.001 A 
ATOM     65  C   UNL A   1      47.105  27.065  36.331  1.00  0.00     0.000 A 
ENDBRANCH  46  60
BRANCH  47  66
ATOM     66  C   UNL A   1      37.110  30.563  29.213  1.00  0.00    -0.014 A 
ATOM     67  C   UNL A   1      36.107  29.635  28.894  1.00  0.00     0.009 A 
ATOM     68  C   UNL A   1      36.998  31.877  28.732  1.00  0.00     0.009 A 
ATOM     69  C   UNL A   1      35.024  30.012  28.096  1.00  0.00     0.001 A 
ATOM     70  C   UNL A   1      35.903  32.257  27.957  1.00  0.00     0.001 A 
ATOM     71  C   UNL A   1      34.921  31.323  27.633  1.00  0.00     0.000 A 
ENDBRANCH  47  66
BRANCH  59  72
ATOM     72  C   UNL A   1      39.053  32.031  35.727  1.00  0.00    -0.014 A 
ATOM     73  C   UNL A   1      39.290  33.413  35.778  1.00  0.00     0.009 A 
ATOM     74  C   UNL A   1      38.196  31.448  36.673  1.00  0.00     0.009 A 
ATOM     75  C   UNL A   1      38.703  34.192  36.778  1.00  0.00     0.001 A 
ATOM     76  C   UNL A   1      37.594  32.234  37.658  1.00  0.00     0.001 A 
ATOM     77  C   UNL A   1      37.854  33.602  37.714  1.00  0.00     0.000 A 
ENDBRANCH  59  72
ENDBRANCH  33  34
ENDBRANCH  26  28
ENDBRANCH  25  26
ENDBRANCH  24  25
ENDBRANCH   1  24
TORSDOF 14
ENDMDL
MODEL 2
REMARK VINA RESULT:     -10.7      4.605      6.966
REMARK SMILES C[C@@H]1[NH2+]CC[C@H]1C(=O)NCc1cccc(C(=O)OCCOC(=O)c2ccc(-c3c4nc(c(-c5ccccc5)c5ccc([nH]5)c(-c5ccccc5)c5nc(c(-c6ccccc6)c6ccc3[nH]6)C=C5)C=C4)cc2)c1
REMARK SMILES IDX 19 1 18 2 16 3 17 4 15 5 11 6 12 7 72 8 13 9 14 10 10 11
REMARK SMILES IDX 9 12 7 13 8 14 6 16 1 17 2 18 3 19 4 20 5 23 20 24 21 25
REMARK SMILES IDX 22 26 23 27 24 28 25 29 71 30 26 31 70 32 27 33 28 34 29 35
REMARK SMILES IDX 64 36 30 37 69 38 63 39 65 40 31 41 68 42 62 43 61 44 32 46
REMARK SMILES IDX 54 47 39 48 53 49 40 50 43 51 52 52 66 53 41 54 42 55 51 57
REMARK SMILES IDX 67 58 44 59 33 60 34 61 38 62 35 63 37 64 36 65 55 66 56 67
REMARK SMILES IDX 60 68 57 69 59 70 58 71 45 72 46 73 50 74 47 75 49 76 48 77
REMARK H PARENT 9 15 3 21 3 22 65 45 43 56
REMARK Flexibility Score: inf
ROOT
ATOM      1  C   UNL A   1      41.955  19.230  26.438  1.00  0.00     0.275 C 
ENDROOT
BRANCH   1   2
ATOM      2  O   UNL A   1      41.578  20.494  25.860  1.00  0.00    -0.458 OA
BRANCH   2   3
ATOM      3  C   UNL A   1      41.392  21.522  26.725  1.00  0.00     0.338 C 
ATOM      4  O   UNL A   1      42.215  21.966  27.511  1.00  0.00    -0.246 OA
BRANCH   3   5
ATOM      5  C   UNL A   1      40.059  22.147  26.511  1.00  0.00     0.060 A 
ATOM      6  C   UNL A   1      37.803  22.141  25.596  1.00  0.00    -0.028 A 
ATOM      7  C   UNL A   1      37.666  23.485  25.979  1.00  0.00     0.005 A 
ATOM      8  C   UNL A   1      39.028  21.493  25.829  1.00  0.00     0.021 A 
ATOM      9  C   UNL A   1      38.678  24.130  26.687  1.00  0.00     0.001 A 
ATOM     10  C   UNL A   1      39.858  23.451  26.983  1.00  0.00     0.016 A 
BRANCH   6  11
ATOM     11  C   UNL A   1      36.651  21.431  24.931  1.00  0.00     0.151 C 
BRANCH  11  12
ATOM     12  N   UNL A   1      35.597  21.092  25.869  1.00  0.00    -0.352 N 
ATOM     13  C   UNL A   1      34.371  21.624  26.104  1.00  0.00     0.229 C 
ATOM     14  O   UNL A   1      33.748  21.167  27.069  1.00  0.00    -0.275 OA
ATOM     15  H   UNL A   1      35.813  20.326  26.447  1.00  0.00     0.163 HD
BRANCH  13  16
ATOM     16  C   UNL A   1      33.739  22.712  25.249  1.00  0.00     0.142 C 
ATOM     17  C   UNL A   1      32.871  24.912  26.172  1.00  0.00     0.076 C 
ATOM     18  C   UNL A   1      34.092  24.139  25.666  1.00  0.00     0.192 C 
ATOM     19  N   UNL A   1      34.620  24.813  24.466  1.00  0.00    -0.343 N 
ATOM     20  C   UNL A   1      34.148  24.054  23.308  1.00  0.00     0.261 C 
ATOM     21  H   UNL A   1      35.640  24.820  24.488  1.00  0.00     0.346 HD
ATOM     22  H   UNL A   1      34.303  25.782  24.420  1.00  0.00     0.346 HD
ATOM     23  C   UNL A   1      34.052  22.611  23.764  1.00  0.00     0.081 C 
ENDBRANCH  13  16
ENDBRANCH  11  12
ENDBRANCH   6  11
ENDBRANCH   3   5
ENDBRANCH   2   3
ENDBRANCH   1   2
BRANCH   1  24
ATOM     24  C   UNL A   1      43.181  18.656  25.727  1.00  0.00     0.275 C 
BRANCH  24  25
ATOM     25  O   UNL A   1      43.465  19.408  24.532  1.00  0.00    -0.458 OA
BRANCH  25  26
ATOM     26  C   UNL A   1      44.772  19.653  24.287  1.00  0.00     0.338 C 
ATOM     27  O   UNL A   1      45.596  18.904  23.791  1.00  0.00    -0.246 OA
BRANCH  26  28
ATOM     28  C   UNL A   1      45.066  21.055  24.613  1.00  0.00     0.060 A 
ATOM     29  C   UNL A   1      45.673  21.320  25.838  1.00  0.00     0.016 A 
ATOM     30  C   UNL A   1      44.651  22.100  23.791  1.00  0.00     0.016 A 
ATOM     31  C   UNL A   1      45.855  22.630  26.267  1.00  0.00     0.010 A 
ATOM     32  C   UNL A   1      44.856  23.423  24.209  1.00  0.00     0.010 A 
ATOM     33  C   UNL A   1      45.440  23.698  25.462  1.00  0.00    -0.014 A 
BRANCH  33  34
ATOM     34  C   UNL A   1      45.545  25.089  25.978  1.00  0.00     0.031 A 
ATOM     35  C   UNL A   1      46.857  25.821  25.898  1.00  0.00     0.074 A 
ATOM     36  C   UNL A   1      44.460  25.722  26.465  1.00  0.00     0.049 A 
ATOM     37  N   UNL A   1      47.174  27.005  26.361  1.00  0.00    -0.248 NA
ATOM     38  C   UNL A   1      47.957  25.131  25.206  1.00  0.00     0.031 C 
ATOM     39  C   UNL A   1      43.112  25.158  26.544  1.00  0.00     0.029 A 
ATOM     40  N   UNL A   1      44.321  26.990  26.972  1.00  0.00    -0.354 N 
ATOM     41  C   UNL A   1      48.518  27.181  26.059  1.00  0.00     0.074 A 
ATOM     42  C   UNL A   1      48.958  25.984  25.374  1.00  0.00     0.031 C 
ATOM     43  C   UNL A   1      42.278  26.087  27.039  1.00  0.00     0.029 A 
ATOM     44  C   UNL A   1      43.040  27.287  27.368  1.00  0.00     0.049 A 
ATOM     45  H   UNL A   1      45.070  27.627  27.044  1.00  0.00     0.167 HD
ATOM     46  C   UNL A   1      49.317  28.242  26.328  1.00  0.00     0.031 A 
ATOM     47  C   UNL A   1      42.538  28.392  27.954  1.00  0.00     0.031 A 
ATOM     48  C   UNL A   1      48.880  29.447  26.979  1.00  0.00     0.049 A 
ATOM     49  C   UNL A   1      43.452  29.542  28.274  1.00  0.00     0.074 A 
ATOM     50  C   UNL A   1      49.620  30.575  27.294  1.00  0.00     0.029 A 
ATOM     51  N   UNL A   1      47.583  29.689  27.402  1.00  0.00    -0.354 N 
ATOM     52  N   UNL A   1      44.731  29.674  28.023  1.00  0.00    -0.248 NA
ATOM     53  C   UNL A   1      42.851  30.690  28.969  1.00  0.00     0.031 C 
ATOM     54  C   UNL A   1      48.777  31.487  27.939  1.00  0.00     0.029 A 
ATOM     55  C   UNL A   1      47.503  30.943  27.985  1.00  0.00     0.049 A 
ATOM     56  H   UNL A   1      46.830  29.063  27.303  1.00  0.00     0.167 HD
ATOM     57  C   UNL A   1      45.085  30.922  28.519  1.00  0.00     0.074 A 
ATOM     58  C   UNL A   1      43.883  31.516  29.066  1.00  0.00     0.031 C 
ATOM     59  C   UNL A   1      46.302  31.520  28.525  1.00  0.00     0.031 A 
BRANCH  46  60
ATOM     60  C   UNL A   1      50.766  28.125  25.952  1.00  0.00    -0.014 A 
ATOM     61  C   UNL A   1      51.715  27.603  26.843  1.00  0.00     0.009 A 
ATOM     62  C   UNL A   1      51.179  28.520  24.670  1.00  0.00     0.009 A 
ATOM     63  C   UNL A   1      53.057  27.508  26.468  1.00  0.00     0.001 A 
ATOM     64  C   UNL A   1      52.516  28.401  24.289  1.00  0.00     0.001 A 
ATOM     65  C   UNL A   1      53.456  27.904  25.191  1.00  0.00     0.000 A 
ENDBRANCH  46  60
BRANCH  47  66
ATOM     66  C   UNL A   1      41.097  28.453  28.309  1.00  0.00    -0.014 A 
ATOM     67  C   UNL A   1      40.640  27.937  29.531  1.00  0.00     0.009 A 
ATOM     68  C   UNL A   1      40.169  29.021  27.422  1.00  0.00     0.009 A 
ATOM     69  C   UNL A   1      39.280  27.975  29.849  1.00  0.00     0.001 A 
ATOM     70  C   UNL A   1      38.816  29.081  27.753  1.00  0.00     0.001 A 
ATOM     71  C   UNL A   1      38.371  28.552  28.962  1.00  0.00     0.000 A 
ENDBRANCH  47  66
BRANCH  59  72
ATOM     72  C   UNL A   1      46.383  32.898  29.115  1.00  0.00    -0.014 A 
ATOM     73  C   UNL A   1      46.687  33.088  30.472  1.00  0.00     0.009 A 
ATOM     74  C   UNL A   1      46.189  34.019  28.294  1.00  0.00     0.009 A 
ATOM     75  C   UNL A   1      46.766  34.378  31.002  1.00  0.00     0.001 A 
ATOM     76  C   UNL A   1      46.290  35.307  28.823  1.00  0.00     0.001 A 
ATOM     77  C   UNL A   1      46.570  35.486  30.176  1.00  0.00     0.000 A 
ENDBRANCH  59  72
ENDBRANCH  33  34
ENDBRANCH  26  28
ENDBRANCH  25  26
ENDBRANCH  24  25
ENDBRANCH   1  24
TORSDOF 14
ENDMDL
MODEL 3
REMARK VINA RESULT:     -10.5      4.955      9.646
REMARK SMILES C[C@@H]1[NH2+]CC[C@H]1C(=O)NCc1cccc(C(=O)OCCOC(=O)c2ccc(-c3c4nc(c(-c5ccccc5)c5ccc([nH]5)c(-c5ccccc5)c5nc(c(-c6ccccc6)c6ccc3[nH]6)C=C5)C=C4)cc2)c1
REMARK SMILES IDX 19 1 18 2 16 3 17 4 15 5 11 6 12 7 72 8 13 9 14 10 10 11
REMARK SMILES IDX 9 12 7 13 8 14 6 16 1 17 2 18 3 19 4 20 5 23 20 24 21 25
REMARK SMILES IDX 22 26 23 27 24 28 25 29 71 30 26 31 70 32 27 33 28 34 29 35
REMARK SMILES IDX 64 36 30 37 69 38 63 39 65 40 31 41 68 42 62 43 61 44 32 46
REMARK SMILES IDX 54 47 39 48 53 49 40 50 43 51 52 52 66 53 41 54 42 55 51 57
REMARK SMILES IDX 67 58 44 59 33 60 34 61 38 62 35 63 37 64 36 65 55 66 56 67
REMARK SMILES IDX 60 68 57 69 59 70 58 71 45 72 46 73 50 74 47 75 49 76 48 77
REMARK H PARENT 9 15 3 21 3 22 65 45 43 56
REMARK Flexibility Score: inf
ROOT
ATOM      1  C   UNL A   1      34.025  35.447  29.126  1.00  0.00     0.275 C 
ENDROOT
BRANCH   1   2
ATOM      2  O   UNL A   1      33.947  34.062  28.737  1.00  0.00    -0.458 OA
BRANCH   2   3
ATOM      3  C   UNL A   1      35.127  33.418  28.559  1.00  0.00     0.338 C 
ATOM      4  O   UNL A   1      36.233  33.830  28.875  1.00  0.00    -0.246 OA
BRANCH   3   5
ATOM      5  C   UNL A   1      34.896  32.048  28.027  1.00  0.00     0.060 A 
ATOM      6  C   UNL A   1      33.449  30.295  27.155  1.00  0.00    -0.028 A 
ATOM      7  C   UNL A   1      34.522  29.394  27.243  1.00  0.00     0.005 A 
ATOM      8  C   UNL A   1      33.638  31.617  27.595  1.00  0.00     0.021 A 
ATOM      9  C   UNL A   1      35.785  29.827  27.642  1.00  0.00     0.001 A 
ATOM     10  C   UNL A   1      35.979  31.159  28.000  1.00  0.00     0.016 A 
BRANCH   6  11
ATOM     11  C   UNL A   1      32.122  29.829  26.612  1.00  0.00     0.151 C 
BRANCH  11  12
ATOM     12  N   UNL A   1      32.104  29.784  25.162  1.00  0.00    -0.352 N 
ATOM     13  C   UNL A   1      32.024  28.760  24.276  1.00  0.00     0.229 C 
ATOM     14  O   UNL A   1      32.149  29.053  23.082  1.00  0.00    -0.275 OA
ATOM     15  H   UNL A   1      32.160  30.670  24.737  1.00  0.00     0.163 HD
BRANCH  13  16
ATOM     16  C   UNL A   1      31.776  27.312  24.671  1.00  0.00     0.142 C 
ATOM     17  C   UNL A   1      33.524  25.820  25.752  1.00  0.00     0.076 C 
ATOM     18  C   UNL A   1      32.444  26.882  25.977  1.00  0.00     0.192 C 
ATOM     19  N   UNL A   1      31.383  26.311  26.828  1.00  0.00    -0.343 N 
ATOM     20  C   UNL A   1      30.281  25.939  25.942  1.00  0.00     0.261 C 
ATOM     21  H   UNL A   1      31.068  27.004  27.507  1.00  0.00     0.346 HD
ATOM     22  H   UNL A   1      31.725  25.501  27.345  1.00  0.00     0.346 HD
ATOM     23  C   UNL A   1      30.308  26.933  24.798  1.00  0.00     0.081 C 
ENDBRANCH  13  16
ENDBRANCH  11  12
ENDBRANCH   6  11
ENDBRANCH   3   5
ENDBRANCH   2   3
ENDBRANCH   1   2
BRANCH   1  24
ATOM     24  C   UNL A   1      32.672  35.940  29.642  1.00  0.00     0.275 C 
BRANCH  24  25
ATOM     25  O   UNL A   1      32.321  35.255  30.859  1.00  0.00    -0.458 OA
BRANCH  25  26
ATOM     26  C   UNL A   1      32.734  35.841  32.005  1.00  0.00     0.338 C 
ATOM     27  O   UNL A   1      32.229  36.784  32.591  1.00  0.00    -0.246 OA
BRANCH  26  28
ATOM     28  C   UNL A   1      33.874  35.086  32.544  1.00  0.00     0.060 A 
ATOM     29  C   UNL A   1      35.133  35.675  32.466  1.00  0.00     0.016 A 
ATOM     30  C   UNL A   1      33.732  33.782  33.012  1.00  0.00     0.016 A 
ATOM     31  C   UNL A   1      36.270  34.962  32.834  1.00  0.00     0.010 A 
ATOM     32  C   UNL A   1      34.873  33.069  33.406  1.00  0.00     0.010 A 
ATOM     33  C   UNL A   1      36.155  33.646  33.299  1.00  0.00    -0.014 A 
BRANCH  33  34
ATOM     34  C   UNL A   1      37.384  32.861  33.588  1.00  0.00     0.031 A 
ATOM     35  C   UNL A   1      38.101  33.045  34.898  1.00  0.00     0.074 A 
ATOM     36  C   UNL A   1      37.831  31.942  32.711  1.00  0.00     0.049 A 
ATOM     37  N   UNL A   1      39.227  32.516  35.307  1.00  0.00    -0.248 NA
ATOM     38  C   UNL A   1      37.467  33.944  35.876  1.00  0.00     0.031 C 
ATOM     39  C   UNL A   1      37.201  31.611  31.432  1.00  0.00     0.029 A 
ATOM     40  N   UNL A   1      38.916  31.103  32.774  1.00  0.00    -0.354 N 
ATOM     41  C   UNL A   1      39.460  33.053  36.567  1.00  0.00     0.074 A 
ATOM     42  C   UNL A   1      38.360  33.948  36.856  1.00  0.00     0.031 C 
ATOM     43  C   UNL A   1      37.893  30.620  30.847  1.00  0.00     0.029 A 
ATOM     44  C   UNL A   1      39.046  30.287  31.677  1.00  0.00     0.049 A 
ATOM     45  H   UNL A   1      39.542  31.088  33.535  1.00  0.00     0.167 HD
ATOM     46  C   UNL A   1      40.496  32.822  37.409  1.00  0.00     0.031 A 
ATOM     47  C   UNL A   1      39.999  29.389  31.361  1.00  0.00     0.031 A 
ATOM     48  C   UNL A   1      41.576  31.910  37.144  1.00  0.00     0.049 A 
ATOM     49  C   UNL A   1      41.157  29.177  32.295  1.00  0.00     0.074 A 
ATOM     50  C   UNL A   1      42.671  31.614  37.939  1.00  0.00     0.029 A 
ATOM     51  N   UNL A   1      41.690  31.135  36.001  1.00  0.00    -0.354 N 
ATOM     52  N   UNL A   1      41.387  29.726  33.463  1.00  0.00    -0.248 NA
ATOM     53  C   UNL A   1      42.193  28.228  31.860  1.00  0.00     0.031 C 
ATOM     54  C   UNL A   1      43.465  30.683  37.261  1.00  0.00     0.029 A 
ATOM     55  C   UNL A   1      42.842  30.369  36.064  1.00  0.00     0.049 A 
ATOM     56  H   UNL A   1      41.048  31.130  35.255  1.00  0.00     0.167 HD
ATOM     57  C   UNL A   1      42.586  29.183  33.905  1.00  0.00     0.074 A 
ATOM     58  C   UNL A   1      43.024  28.246  32.892  1.00  0.00     0.031 C 
ATOM     59  C   UNL A   1      43.266  29.441  35.050  1.00  0.00     0.031 A 
BRANCH  46  60
ATOM     60  C   UNL A   1      40.532  33.609  38.687  1.00  0.00    -0.014 A 
ATOM     61  C   UNL A   1      40.028  33.084  39.887  1.00  0.00     0.009 A 
ATOM     62  C   UNL A   1      41.105  34.890  38.692  1.00  0.00     0.009 A 
ATOM     63  C   UNL A   1      40.072  33.840  41.060  1.00  0.00     0.001 A 
ATOM     64  C   UNL A   1      41.169  35.634  39.871  1.00  0.00     0.001 A 
ATOM     65  C   UNL A   1      40.645  35.112  41.052  1.00  0.00     0.000 A 
ENDBRANCH  46  60
BRANCH  47  66
ATOM     66  C   UNL A   1      39.917  28.640  30.081  1.00  0.00    -0.014 A 
ATOM     67  C   UNL A   1      40.421  29.196  28.895  1.00  0.00     0.009 A 
ATOM     68  C   UNL A   1      39.327  27.368  30.037  1.00  0.00     0.009 A 
ATOM     69  C   UNL A   1      40.319  28.499  27.688  1.00  0.00     0.001 A 
ATOM     70  C   UNL A   1      39.250  26.663  28.836  1.00  0.00     0.001 A 
ATOM     71  C   UNL A   1      39.739  27.231  27.661  1.00  0.00     0.000 A 
ENDBRANCH  47  66
BRANCH  59  72
ATOM     72  C   UNL A   1      44.538  28.679  35.276  1.00  0.00    -0.014 A 
ATOM     73  C   UNL A   1      44.530  27.428  35.913  1.00  0.00     0.009 A 
ATOM     74  C   UNL A   1      45.755  29.203  34.814  1.00  0.00     0.009 A 
ATOM     75  C   UNL A   1      45.724  26.730  36.109  1.00  0.00     0.001 A 
ATOM     76  C   UNL A   1      46.943  28.492  34.993  1.00  0.00     0.001 A 
ATOM     77  C   UNL A   1      46.928  27.261  35.646  1.00  0.00     0.000 A 
ENDBRANCH  59  72
ENDBRANCH  33  34
ENDBRANCH  26  28
ENDBRANCH  25  26
ENDBRANCH  24  25
ENDBRANCH   1  24
TORSDOF 14
ENDMDL
