MODEL 1
REMARK VINA RESULT:     -12.9      0.000      0.000
REMARK SMILES COc1ccc(/C=C2/C(=O)N(c3ccccc3)C(=O)N=C2OCCOC(=O)c2ccc(-c3c4nc(c(-c5ccccc5)c5ccc([nH]5)c(-c5ccccc5)c5nc(c(-c6ccccc6)c6ccc3[nH]6)C=C5)C=C4)cc2)cc1C(=O)[O-]
REMARK SMILES IDX 24 1 23 2 22 3 21 4 7 5 8 6 9 7 10 8 11 9 20 10 18 11 19 12
REMARK SMILES IDX 6 13 3 14 4 15 77 16 5 17 76 18 2 19 1 20 78 21 79 22 80 23
REMARK SMILES IDX 12 24 13 25 17 26 14 27 16 28 15 29 25 30 26 31 27 32 28 33
REMARK SMILES IDX 29 34 75 35 30 36 74 37 31 38 32 39 33 40 68 41 34 42 73 43
REMARK SMILES IDX 67 44 69 45 35 46 72 47 66 48 65 49 36 51 58 52 43 53 57 54
REMARK SMILES IDX 44 55 47 56 56 57 70 58 45 59 46 60 55 62 71 63 48 64 37 65
REMARK SMILES IDX 38 66 42 67 39 68 41 69 40 70 59 71 60 72 64 73 61 74 63 75
REMARK SMILES IDX 62 76 49 77 50 78 54 79 51 80 53 81 52 82
REMARK H PARENT 69 50 47 61
REMARK Flexibility Score: inf
ROOT
ATOM      1  C   UNL A   1      36.007  22.064  24.175  1.00  0.00     0.274 C 
ENDROOT
BRANCH   1   2
ATOM      2  C   UNL A   1      35.126  23.315  24.208  1.00  0.00     0.273 C 
BRANCH   2   3
ATOM      3  O   UNL A   1      34.302  23.323  25.399  1.00  0.00    -0.473 OA
BRANCH   3   4
ATOM      4  C   UNL A   1      33.120  23.976  25.417  1.00  0.00     0.231 C 
ATOM      5  C   UNL A   1      31.891  22.278  23.976  1.00  0.00     0.027 C 
ATOM      6  C   UNL A   1      32.200  23.529  24.375  1.00  0.00     0.103 C 
ATOM      7  C   UNL A   1      31.428  24.657  23.769  1.00  0.00     0.272 C 
ATOM      8  O   UNL A   1      30.923  24.537  22.654  1.00  0.00    -0.268 OA
ATOM      9  N   UNL A   1      31.302  25.765  24.605  1.00  0.00    -0.226 N 
ATOM     10  N   UNL A   1      32.882  24.978  26.184  1.00  0.00    -0.156 NA
ATOM     11  C   UNL A   1      31.722  25.689  25.945  1.00  0.00     0.358 C 
ATOM     12  O   UNL A   1      31.174  26.271  26.875  1.00  0.00    -0.245 OA
BRANCH   5  13
ATOM     13  C   UNL A   1      32.327  20.926  24.400  1.00  0.00    -0.024 A 
ATOM     14  C   UNL A   1      33.193  18.284  24.985  1.00  0.00     0.127 A 
ATOM     15  C   UNL A   1      32.932  19.196  26.008  1.00  0.00     0.048 A 
ATOM     16  C   UNL A   1      32.938  18.652  23.662  1.00  0.00     0.040 A 
ATOM     17  C   UNL A   1      32.468  20.486  25.717  1.00  0.00     0.012 A 
ATOM     18  C   UNL A   1      32.544  19.978  23.385  1.00  0.00     0.022 A 
BRANCH  14  19
ATOM     19  O   UNL A   1      33.556  17.026  25.378  1.00  0.00    -0.496 OA
ATOM     20  C   UNL A   1      32.422  16.238  25.750  1.00  0.00     0.278 C 
ENDBRANCH  14  19
BRANCH  16  21
ATOM     21  C   UNL A   1      32.945  17.726  22.502  1.00  0.00     0.075 C 
ATOM     22  O   UNL A   1      32.091  17.703  21.633  1.00  0.00    -0.545 OA
ATOM     23  O   UNL A   1      33.994  16.894  22.438  1.00  0.00    -0.545 OA
ENDBRANCH  16  21
ENDBRANCH   5  13
BRANCH   9  24
ATOM     24  C   UNL A   1      30.714  26.977  24.090  1.00  0.00     0.054 A 
ATOM     25  C   UNL A   1      29.321  27.026  23.875  1.00  0.00     0.027 A 
ATOM     26  C   UNL A   1      31.477  28.065  23.649  1.00  0.00     0.027 A 
ATOM     27  C   UNL A   1      28.732  28.082  23.170  1.00  0.00     0.002 A 
ATOM     28  C   UNL A   1      30.881  29.143  22.982  1.00  0.00     0.002 A 
ATOM     29  C   UNL A   1      29.515  29.138  22.718  1.00  0.00     0.000 A 
ENDBRANCH   9  24
ENDBRANCH   3   4
ENDBRANCH   2   3
ENDBRANCH   1   2
BRANCH   1  30
ATOM     30  O   UNL A   1      36.547  21.824  25.488  1.00  0.00    -0.458 OA
BRANCH  30  31
ATOM     31  C   UNL A   1      37.826  21.396  25.522  1.00  0.00     0.338 C 
ATOM     32  O   UNL A   1      38.316  20.441  24.945  1.00  0.00    -0.246 OA
BRANCH  31  33
ATOM     33  C   UNL A   1      38.631  22.451  26.149  1.00  0.00     0.060 A 
ATOM     34  C   UNL A   1      38.070  23.721  26.125  1.00  0.00     0.016 A 
ATOM     35  C   UNL A   1      39.908  22.256  26.667  1.00  0.00     0.016 A 
ATOM     36  C   UNL A   1      38.787  24.814  26.582  1.00  0.00     0.010 A 
ATOM     37  C   UNL A   1      40.637  23.368  27.127  1.00  0.00     0.010 A 
ATOM     38  C   UNL A   1      40.093  24.666  27.049  1.00  0.00    -0.014 A 
BRANCH  38  39
ATOM     39  C   UNL A   1      40.900  25.904  27.245  1.00  0.00     0.031 A 
ATOM     40  C   UNL A   1      40.465  26.900  28.291  1.00  0.00     0.074 A 
ATOM     41  C   UNL A   1      42.104  26.062  26.658  1.00  0.00     0.049 A 
ATOM     42  N   UNL A   1      40.967  28.075  28.576  1.00  0.00    -0.248 NA
ATOM     43  C   UNL A   1      39.321  26.518  29.136  1.00  0.00     0.031 C 
ATOM     44  C   UNL A   1      42.743  25.102  25.754  1.00  0.00     0.029 A 
ATOM     45  N   UNL A   1      43.037  27.063  26.785  1.00  0.00    -0.354 N 
ATOM     46  C   UNL A   1      40.152  28.601  29.572  1.00  0.00     0.074 A 
ATOM     47  C   UNL A   1      39.143  27.608  29.867  1.00  0.00     0.031 C 
ATOM     48  C   UNL A   1      43.985  25.524  25.472  1.00  0.00     0.029 A 
ATOM     49  C   UNL A   1      44.198  26.831  26.085  1.00  0.00     0.049 A 
ATOM     50  H   UNL A   1      42.888  27.872  27.326  1.00  0.00     0.167 HD
ATOM     51  C   UNL A   1      40.227  29.812  30.172  1.00  0.00     0.031 A 
ATOM     52  C   UNL A   1      45.295  27.598  25.927  1.00  0.00     0.031 A 
ATOM     53  C   UNL A   1      41.265  30.775  29.928  1.00  0.00     0.049 A 
ATOM     54  C   UNL A   1      45.325  28.966  26.558  1.00  0.00     0.074 A 
ATOM     55  C   UNL A   1      41.394  32.054  30.440  1.00  0.00     0.029 A 
ATOM     56  N   UNL A   1      42.372  30.550  29.127  1.00  0.00    -0.354 N 
ATOM     57  N   UNL A   1      44.472  29.515  27.388  1.00  0.00    -0.248 NA
ATOM     58  C   UNL A   1      46.459  29.831  26.202  1.00  0.00     0.031 C 
ATOM     59  C   UNL A   1      42.562  32.619  29.917  1.00  0.00     0.029 A 
ATOM     60  C   UNL A   1      43.185  31.670  29.123  1.00  0.00     0.049 A 
ATOM     61  H   UNL A   1      42.553  29.717  28.635  1.00  0.00     0.167 HD
ATOM     62  C   UNL A   1      44.969  30.786  27.654  1.00  0.00     0.074 A 
ATOM     63  C   UNL A   1      46.218  30.909  26.934  1.00  0.00     0.031 C 
ATOM     64  C   UNL A   1      44.429  31.772  28.409  1.00  0.00     0.031 A 
BRANCH  51  65
ATOM     65  C   UNL A   1      39.104  30.202  31.089  1.00  0.00    -0.014 A 
ATOM     66  C   UNL A   1      39.159  29.983  32.472  1.00  0.00     0.009 A 
ATOM     67  C   UNL A   1      37.981  30.848  30.543  1.00  0.00     0.009 A 
ATOM     68  C   UNL A   1      38.099  30.389  33.290  1.00  0.00     0.001 A 
ATOM     69  C   UNL A   1      36.938  31.274  31.364  1.00  0.00     0.001 A 
ATOM     70  C   UNL A   1      36.995  31.039  32.736  1.00  0.00     0.000 A 
ENDBRANCH  51  65
BRANCH  52  71
ATOM     71  C   UNL A   1      46.427  27.149  25.068  1.00  0.00    -0.014 A 
ATOM     72  C   UNL A   1      47.258  26.088  25.467  1.00  0.00     0.009 A 
ATOM     73  C   UNL A   1      46.729  27.828  23.876  1.00  0.00     0.009 A 
ATOM     74  C   UNL A   1      48.381  25.742  24.707  1.00  0.00     0.001 A 
ATOM     75  C   UNL A   1      47.826  27.453  23.099  1.00  0.00     0.001 A 
ATOM     76  C   UNL A   1      48.661  26.422  23.523  1.00  0.00     0.000 A 
ENDBRANCH  52  71
BRANCH  64  77
ATOM     77  C   UNL A   1      45.205  33.054  28.518  1.00  0.00    -0.014 A 
ATOM     78  C   UNL A   1      46.149  33.249  29.537  1.00  0.00     0.009 A 
ATOM     79  C   UNL A   1      45.001  34.074  27.574  1.00  0.00     0.009 A 
ATOM     80  C   UNL A   1      46.843  34.456  29.636  1.00  0.00     0.001 A 
ATOM     81  C   UNL A   1      45.718  35.267  27.657  1.00  0.00     0.001 A 
ATOM     82  C   UNL A   1      46.628  35.462  28.695  1.00  0.00     0.000 A 
ENDBRANCH  64  77
ENDBRANCH  38  39
ENDBRANCH  31  33
ENDBRANCH  30  31
ENDBRANCH   1  30
TORSDOF 14
ENDMDL
MODEL 2
REMARK VINA RESULT:     -12.5      0.792      5.801
REMARK SMILES COc1ccc(/C=C2/C(=O)N(c3ccccc3)C(=O)N=C2OCCOC(=O)c2ccc(-c3c4nc(c(-c5ccccc5)c5ccc([nH]5)c(-c5ccccc5)c5nc(c(-c6ccccc6)c6ccc3[nH]6)C=C5)C=C4)cc2)cc1C(=O)[O-]
REMARK SMILES IDX 24 1 23 2 22 3 21 4 7 5 8 6 9 7 10 8 11 9 20 10 18 11 19 12
REMARK SMILES IDX 6 13 3 14 4 15 77 16 5 17 76 18 2 19 1 20 78 21 79 22 80 23
REMARK SMILES IDX 12 24 13 25 17 26 14 27 16 28 15 29 25 30 26 31 27 32 28 33
REMARK SMILES IDX 29 34 75 35 30 36 74 37 31 38 32 39 33 40 68 41 34 42 73 43
REMARK SMILES IDX 67 44 69 45 35 46 72 47 66 48 65 49 36 51 58 52 43 53 57 54
REMARK SMILES IDX 44 55 47 56 56 57 70 58 45 59 46 60 55 62 71 63 48 64 37 65
REMARK SMILES IDX 38 66 42 67 39 68 41 69 40 70 59 71 60 72 64 73 61 74 63 75
REMARK SMILES IDX 62 76 49 77 50 78 54 79 51 80 53 81 52 82
REMARK H PARENT 69 50 47 61
REMARK Flexibility Score: inf
ROOT
ATOM      1  C   UNL A   1      36.332  21.650  24.843  1.00  0.00     0.274 C 
ENDROOT
BRANCH   1   2
ATOM      2  C   UNL A   1      35.414  22.862  24.672  1.00  0.00     0.273 C 
BRANCH   2   3
ATOM      3  O   UNL A   1      34.492  22.960  25.785  1.00  0.00    -0.473 OA
BRANCH   3   4
ATOM      4  C   UNL A   1      33.339  23.654  25.667  1.00  0.00     0.231 C 
ATOM      5  C   UNL A   1      32.238  22.010  24.068  1.00  0.00     0.027 C 
ATOM      6  C   UNL A   1      32.538  23.247  24.516  1.00  0.00     0.103 C 
ATOM      7  C   UNL A   1      31.882  24.405  23.835  1.00  0.00     0.272 C 
ATOM      8  O   UNL A   1      31.514  24.312  22.665  1.00  0.00    -0.268 OA
ATOM      9  N   UNL A   1      31.693  25.510  24.663  1.00  0.00    -0.226 N 
ATOM     10  N   UNL A   1      33.042  24.657  26.411  1.00  0.00    -0.156 NA
ATOM     11  C   UNL A   1      31.944  25.409  26.042  1.00  0.00     0.358 C 
ATOM     12  O   UNL A   1      31.308  26.003  26.906  1.00  0.00    -0.245 OA
BRANCH   5  13
ATOM     13  C   UNL A   1      32.574  20.641  24.526  1.00  0.00    -0.024 A 
ATOM     14  C   UNL A   1      33.263  17.962  25.178  1.00  0.00     0.127 A 
ATOM     15  C   UNL A   1      32.973  18.892  26.177  1.00  0.00     0.048 A 
ATOM     16  C   UNL A   1      33.123  18.335  23.839  1.00  0.00     0.040 A 
ATOM     17  C   UNL A   1      32.596  20.202  25.850  1.00  0.00     0.012 A 
ATOM     18  C   UNL A   1      32.818  19.677  23.531  1.00  0.00     0.022 A 
BRANCH  14  19
ATOM     19  O   UNL A   1      33.533  16.690  25.599  1.00  0.00    -0.496 OA
ATOM     20  C   UNL A   1      32.338  15.920  25.764  1.00  0.00     0.278 C 
ENDBRANCH  14  19
BRANCH  16  21
ATOM     21  C   UNL A   1      33.170  17.403  22.685  1.00  0.00     0.075 C 
ATOM     22  O   UNL A   1      33.942  16.465  22.587  1.00  0.00    -0.545 OA
ATOM     23  O   UNL A   1      32.266  17.635  21.723  1.00  0.00    -0.545 OA
ENDBRANCH  16  21
ENDBRANCH   5  13
BRANCH   9  24
ATOM     24  C   UNL A   1      31.213  26.746  24.095  1.00  0.00     0.054 A 
ATOM     25  C   UNL A   1      29.824  26.929  23.927  1.00  0.00     0.027 A 
ATOM     26  C   UNL A   1      32.065  27.719  23.560  1.00  0.00     0.027 A 
ATOM     27  C   UNL A   1      29.319  27.999  23.179  1.00  0.00     0.002 A 
ATOM     28  C   UNL A   1      31.556  28.814  22.849  1.00  0.00     0.002 A 
ATOM     29  C   UNL A   1      30.187  28.938  22.634  1.00  0.00     0.000 A 
ENDBRANCH   9  24
ENDBRANCH   3   4
ENDBRANCH   2   3
ENDBRANCH   1   2
BRANCH   1  30
ATOM     30  O   UNL A   1      37.706  22.073  24.752  1.00  0.00    -0.458 OA
BRANCH  30  31
ATOM     31  C   UNL A   1      38.557  21.473  25.610  1.00  0.00     0.338 C 
ATOM     32  O   UNL A   1      38.952  20.321  25.598  1.00  0.00    -0.246 OA
BRANCH  31  33
ATOM     33  C   UNL A   1      39.184  22.525  26.420  1.00  0.00     0.060 A 
ATOM     34  C   UNL A   1      38.611  23.785  26.307  1.00  0.00     0.016 A 
ATOM     35  C   UNL A   1      40.325  22.338  27.196  1.00  0.00     0.016 A 
ATOM     36  C   UNL A   1      39.186  24.876  26.934  1.00  0.00     0.010 A 
ATOM     37  C   UNL A   1      40.911  23.450  27.828  1.00  0.00     0.010 A 
ATOM     38  C   UNL A   1      40.366  24.739  27.666  1.00  0.00    -0.014 A 
BRANCH  38  39
ATOM     39  C   UNL A   1      41.082  25.986  28.061  1.00  0.00     0.031 A 
ATOM     40  C   UNL A   1      42.368  26.343  27.359  1.00  0.00     0.074 A 
ATOM     41  C   UNL A   1      40.514  26.895  28.880  1.00  0.00     0.049 A 
ATOM     42  N   UNL A   1      43.194  27.330  27.593  1.00  0.00    -0.248 NA
ATOM     43  C   UNL A   1      42.772  25.479  26.236  1.00  0.00     0.031 C 
ATOM     44  C   UNL A   1      39.193  26.774  29.502  1.00  0.00     0.029 A 
ATOM     45  N   UNL A   1      40.953  28.134  29.281  1.00  0.00    -0.354 N 
ATOM     46  C   UNL A   1      44.249  27.158  26.704  1.00  0.00     0.074 A 
ATOM     47  C   UNL A   1      43.947  25.993  25.905  1.00  0.00     0.031 C 
ATOM     48  C   UNL A   1      38.901  27.919  30.139  1.00  0.00     0.029 A 
ATOM     49  C   UNL A   1      40.049  28.817  30.062  1.00  0.00     0.049 A 
ATOM     50  H   UNL A   1      41.832  28.500  29.033  1.00  0.00     0.167 HD
ATOM     51  C   UNL A   1      45.378  27.895  26.582  1.00  0.00     0.031 A 
ATOM     52  C   UNL A   1      40.147  30.013  30.675  1.00  0.00     0.031 A 
ATOM     53  C   UNL A   1      45.651  29.091  27.331  1.00  0.00     0.049 A 
ATOM     54  C   UNL A   1      41.437  30.783  30.570  1.00  0.00     0.074 A 
ATOM     55  C   UNL A   1      46.794  29.872  27.322  1.00  0.00     0.029 A 
ATOM     56  N   UNL A   1      44.757  29.696  28.197  1.00  0.00    -0.354 N 
ATOM     57  N   UNL A   1      42.494  30.533  29.835  1.00  0.00    -0.248 NA
ATOM     58  C   UNL A   1      41.558  31.986  31.406  1.00  0.00     0.031 C 
ATOM     59  C   UNL A   1      46.604  30.932  28.216  1.00  0.00     0.029 A 
ATOM     60  C   UNL A   1      45.325  30.837  28.737  1.00  0.00     0.049 A 
ATOM     61  H   UNL A   1      43.852  29.364  28.399  1.00  0.00     0.167 HD
ATOM     62  C   UNL A   1      43.399  31.549  30.119  1.00  0.00     0.074 A 
ATOM     63  C   UNL A   1      42.752  32.441  31.056  1.00  0.00     0.031 C 
ATOM     64  C   UNL A   1      44.663  31.718  29.662  1.00  0.00     0.031 A 
BRANCH  51  65
ATOM     65  C   UNL A   1      46.446  27.378  25.662  1.00  0.00    -0.014 A 
ATOM     66  C   UNL A   1      46.629  27.887  24.369  1.00  0.00     0.009 A 
ATOM     67  C   UNL A   1      47.318  26.382  26.134  1.00  0.00     0.009 A 
ATOM     68  C   UNL A   1      47.656  27.393  23.559  1.00  0.00     0.001 A 
ATOM     69  C   UNL A   1      48.356  25.909  25.334  1.00  0.00     0.001 A 
ATOM     70  C   UNL A   1      48.521  26.410  24.044  1.00  0.00     0.000 A 
ENDBRANCH  51  65
BRANCH  52  71
ATOM     71  C   UNL A   1      39.037  30.533  31.523  1.00  0.00    -0.014 A 
ATOM     72  C   UNL A   1      38.082  31.419  30.997  1.00  0.00     0.009 A 
ATOM     73  C   UNL A   1      38.967  30.202  32.886  1.00  0.00     0.009 A 
ATOM     74  C   UNL A   1      37.106  31.985  31.824  1.00  0.00     0.001 A 
ATOM     75  C   UNL A   1      37.967  30.736  33.701  1.00  0.00     0.001 A 
ATOM     76  C   UNL A   1      37.048  31.640  33.174  1.00  0.00     0.000 A 
ENDBRANCH  52  71
BRANCH  64  77
ATOM     77  C   UNL A   1      45.411  32.927  30.146  1.00  0.00    -0.014 A 
ATOM     78  C   UNL A   1      46.208  32.875  31.299  1.00  0.00     0.009 A 
ATOM     79  C   UNL A   1      45.333  34.130  29.425  1.00  0.00     0.009 A 
ATOM     80  C   UNL A   1      46.877  34.016  31.747  1.00  0.00     0.001 A 
ATOM     81  C   UNL A   1      46.026  35.260  29.858  1.00  0.00     0.001 A 
ATOM     82  C   UNL A   1      46.787  35.206  31.025  1.00  0.00     0.000 A 
ENDBRANCH  64  77
ENDBRANCH  38  39
ENDBRANCH  31  33
ENDBRANCH  30  31
ENDBRANCH   1  30
TORSDOF 14
ENDMDL
MODEL 3
REMARK VINA RESULT:     -12.5      3.576      9.282
REMARK SMILES COc1ccc(/C=C2/C(=O)N(c3ccccc3)C(=O)N=C2OCCOC(=O)c2ccc(-c3c4nc(c(-c5ccccc5)c5ccc([nH]5)c(-c5ccccc5)c5nc(c(-c6ccccc6)c6ccc3[nH]6)C=C5)C=C4)cc2)cc1C(=O)[O-]
REMARK SMILES IDX 24 1 23 2 22 3 21 4 7 5 8 6 9 7 10 8 11 9 20 10 18 11 19 12
REMARK SMILES IDX 6 13 3 14 4 15 77 16 5 17 76 18 2 19 1 20 78 21 79 22 80 23
REMARK SMILES IDX 12 24 13 25 17 26 14 27 16 28 15 29 25 30 26 31 27 32 28 33
REMARK SMILES IDX 29 34 75 35 30 36 74 37 31 38 32 39 33 40 68 41 34 42 73 43
REMARK SMILES IDX 67 44 69 45 35 46 72 47 66 48 65 49 36 51 58 52 43 53 57 54
REMARK SMILES IDX 44 55 47 56 56 57 70 58 45 59 46 60 55 62 71 63 48 64 37 65
REMARK SMILES IDX 38 66 42 67 39 68 41 69 40 70 59 71 60 72 64 73 61 74 63 75
REMARK SMILES IDX 62 76 49 77 50 78 54 79 51 80 53 81 52 82
REMARK H PARENT 69 50 47 61
REMARK Flexibility Score: inf
ROOT
ATOM      1  C   UNL A   1      31.777  28.759  26.018  1.00  0.00     0.274 C 
ENDROOT
BRANCH   1   2
ATOM      2  C   UNL A   1      32.356  27.343  25.976  1.00  0.00     0.273 C 
BRANCH   2   3
ATOM      3  O   UNL A   1      33.129  27.147  24.766  1.00  0.00    -0.473 OA
BRANCH   3   4
ATOM      4  C   UNL A   1      33.123  25.958  24.128  1.00  0.00     0.231 C 
ATOM      5  C   UNL A   1      30.661  26.043  23.493  1.00  0.00     0.027 C 
ATOM      6  C   UNL A   1      31.780  25.423  23.921  1.00  0.00     0.103 C 
ATOM      7  C   UNL A   1      31.716  23.942  24.115  1.00  0.00     0.272 C 
ATOM      8  O   UNL A   1      30.645  23.393  24.368  1.00  0.00    -0.268 OA
ATOM      9  N   UNL A   1      32.935  23.296  23.918  1.00  0.00    -0.226 N 
ATOM     10  N   UNL A   1      34.191  25.302  23.852  1.00  0.00    -0.156 NA
ATOM     11  C   UNL A   1      34.034  24.005  23.403  1.00  0.00     0.358 C 
ATOM     12  O   UNL A   1      34.881  23.523  22.659  1.00  0.00    -0.245 OA
BRANCH   5  13
ATOM     13  C   UNL A   1      30.348  27.433  23.084  1.00  0.00    -0.024 A 
ATOM     14  C   UNL A   1      29.558  30.084  22.437  1.00  0.00     0.127 A 
ATOM     15  C   UNL A   1      30.763  29.561  21.969  1.00  0.00     0.048 A 
ATOM     16  C   UNL A   1      28.690  29.260  23.157  1.00  0.00     0.040 A 
ATOM     17  C   UNL A   1      31.131  28.240  22.258  1.00  0.00     0.012 A 
ATOM     18  C   UNL A   1      29.112  27.959  23.502  1.00  0.00     0.022 A 
BRANCH  14  19
ATOM     19  O   UNL A   1      29.251  31.351  22.026  1.00  0.00    -0.496 OA
ATOM     20  C   UNL A   1      28.530  31.349  20.790  1.00  0.00     0.278 C 
ENDBRANCH  14  19
BRANCH  16  21
ATOM     21  C   UNL A   1      27.291  29.600  23.515  1.00  0.00     0.075 C 
ATOM     22  O   UNL A   1      26.903  30.722  23.791  1.00  0.00    -0.545 OA
ATOM     23  O   UNL A   1      26.428  28.574  23.498  1.00  0.00    -0.545 OA
ENDBRANCH  16  21
ENDBRANCH   5  13
BRANCH   9  24
ATOM     24  C   UNL A   1      33.049  21.891  24.222  1.00  0.00     0.054 A 
ATOM     25  C   UNL A   1      32.573  20.946  23.289  1.00  0.00     0.027 A 
ATOM     26  C   UNL A   1      33.475  21.414  25.468  1.00  0.00     0.027 A 
ATOM     27  C   UNL A   1      32.449  19.593  23.625  1.00  0.00     0.002 A 
ATOM     28  C   UNL A   1      33.391  20.053  25.788  1.00  0.00     0.002 A 
ATOM     29  C   UNL A   1      32.852  19.148  24.879  1.00  0.00     0.000 A 
ENDBRANCH   9  24
ENDBRANCH   3   4
ENDBRANCH   2   3
ENDBRANCH   1   2
BRANCH   1  30
ATOM     30  O   UNL A   1      32.201  29.414  27.229  1.00  0.00    -0.458 OA
BRANCH  30  31
ATOM     31  C   UNL A   1      32.743  30.639  27.069  1.00  0.00     0.338 C 
ATOM     32  O   UNL A   1      32.180  31.679  26.775  1.00  0.00    -0.246 OA
BRANCH  31  33
ATOM     33  C   UNL A   1      34.111  30.592  27.600  1.00  0.00     0.060 A 
ATOM     34  C   UNL A   1      34.697  29.333  27.626  1.00  0.00     0.016 A 
ATOM     35  C   UNL A   1      34.781  31.691  28.130  1.00  0.00     0.016 A 
ATOM     36  C   UNL A   1      35.937  29.148  28.211  1.00  0.00     0.010 A 
ATOM     37  C   UNL A   1      36.041  31.500  28.727  1.00  0.00     0.010 A 
ATOM     38  C   UNL A   1      36.611  30.214  28.809  1.00  0.00    -0.014 A 
BRANCH  38  39
ATOM     39  C   UNL A   1      37.787  29.892  29.666  1.00  0.00     0.031 A 
ATOM     40  C   UNL A   1      38.978  29.206  29.045  1.00  0.00     0.074 A 
ATOM     41  C   UNL A   1      37.895  30.371  30.923  1.00  0.00     0.049 A 
ATOM     42  N   UNL A   1      40.069  28.763  29.614  1.00  0.00    -0.248 NA
ATOM     43  C   UNL A   1      38.939  29.002  27.587  1.00  0.00     0.031 C 
ATOM     44  C   UNL A   1      36.900  31.202  31.606  1.00  0.00     0.029 A 
ATOM     45  N   UNL A   1      38.923  30.279  31.830  1.00  0.00    -0.354 N 
ATOM     46  C   UNL A   1      40.805  28.159  28.601  1.00  0.00     0.074 A 
ATOM     47  C   UNL A   1      40.054  28.319  27.377  1.00  0.00     0.031 C 
ATOM     48  C   UNL A   1      37.399  31.602  32.787  1.00  0.00     0.029 A 
ATOM     49  C   UNL A   1      38.701  30.977  32.994  1.00  0.00     0.049 A 
ATOM     50  H   UNL A   1      39.744  29.761  31.662  1.00  0.00     0.167 HD
ATOM     51  C   UNL A   1      41.990  27.512  28.689  1.00  0.00     0.031 A 
ATOM     52  C   UNL A   1      39.444  31.075  34.114  1.00  0.00     0.031 A 
ATOM     53  C   UNL A   1      42.769  27.407  29.892  1.00  0.00     0.049 A 
ATOM     54  C   UNL A   1      40.730  30.295  34.206  1.00  0.00     0.074 A 
ATOM     55  C   UNL A   1      43.953  26.719  30.097  1.00  0.00     0.029 A 
ATOM     56  N   UNL A   1      42.459  28.036  31.086  1.00  0.00    -0.354 N 
ATOM     57  N   UNL A   1      41.347  29.602  33.280  1.00  0.00    -0.248 NA
ATOM     58  C   UNL A   1      41.405  30.289  35.512  1.00  0.00     0.031 C 
ATOM     59  C   UNL A   1      44.339  26.901  31.429  1.00  0.00     0.029 A 
ATOM     60  C   UNL A   1      43.424  27.745  32.035  1.00  0.00     0.049 A 
ATOM     61  H   UNL A   1      41.671  28.605  31.236  1.00  0.00     0.167 HD
ATOM     62  C   UNL A   1      42.482  29.082  33.892  1.00  0.00     0.074 A 
ATOM     63  C   UNL A   1      42.490  29.575  35.252  1.00  0.00     0.031 C 
ATOM     64  C   UNL A   1      43.422  28.252  33.381  1.00  0.00     0.031 A 
BRANCH  51  65
ATOM     65  C   UNL A   1      42.477  26.788  27.468  1.00  0.00    -0.014 A 
ATOM     66  C   UNL A   1      42.096  25.470  27.179  1.00  0.00     0.009 A 
ATOM     67  C   UNL A   1      43.306  27.473  26.563  1.00  0.00     0.009 A 
ATOM     68  C   UNL A   1      42.553  24.847  26.013  1.00  0.00     0.001 A 
ATOM     69  C   UNL A   1      43.739  26.858  25.389  1.00  0.00     0.001 A 
ATOM     70  C   UNL A   1      43.367  25.543  25.118  1.00  0.00     0.000 A 
ENDBRANCH  51  65
BRANCH  52  71
ATOM     71  C   UNL A   1      38.966  31.864  35.284  1.00  0.00    -0.014 A 
ATOM     72  C   UNL A   1      38.199  31.262  36.295  1.00  0.00     0.009 A 
ATOM     73  C   UNL A   1      39.215  33.245  35.362  1.00  0.00     0.009 A 
ATOM     74  C   UNL A   1      37.666  32.031  37.335  1.00  0.00     0.001 A 
ATOM     75  C   UNL A   1      38.716  34.002  36.423  1.00  0.00     0.001 A 
ATOM     76  C   UNL A   1      37.928  33.398  37.400  1.00  0.00     0.000 A 
ENDBRANCH  52  71
BRANCH  64  77
ATOM     77  C   UNL A   1      44.551  27.854  34.289  1.00  0.00    -0.014 A 
ATOM     78  C   UNL A   1      44.477  26.696  35.077  1.00  0.00     0.009 A 
ATOM     79  C   UNL A   1      45.714  28.639  34.339  1.00  0.00     0.009 A 
ATOM     80  C   UNL A   1      45.526  26.355  35.932  1.00  0.00     0.001 A 
ATOM     81  C   UNL A   1      46.773  28.280  35.172  1.00  0.00     0.001 A 
ATOM     82  C   UNL A   1      46.674  27.146  35.977  1.00  0.00     0.000 A 
ENDBRANCH  64  77
ENDBRANCH  38  39
ENDBRANCH  31  33
ENDBRANCH  30  31
ENDBRANCH   1  30
TORSDOF 14
ENDMDL
