MODEL 1
REMARK VINA RESULT:     -14.4      0.000      0.000
REMARK SMILES O=C(OCCOC(=O)c1ccc(-c2c3nc(c(-c4ccccc4)c4ccc([nH]4)c(-c4ccccc4)c4nc(c(-c5ccccc5)c5ccc2[nH]5)C=C4)C=C3)cc1)C1=Cc2cc(Cl)cc(-c3ccccc3)c2O[C@@H]1C(F)(F)F
REMARK SMILES IDX 5 1 4 2 3 3 2 4 1 5 57 6 58 7 73 8 59 9 72 10 60 11 71 12
REMARK SMILES IDX 61 13 64 14 62 15 63 16 74 17 75 18 76 19 77 20 65 21 66 22
REMARK SMILES IDX 70 23 67 24 69 25 68 26 6 27 7 28 8 29 9 30 10 31 56 32
REMARK SMILES IDX 11 33 55 34 12 35 13 36 14 37 49 38 15 39 54 40 48 41 50 42
REMARK SMILES IDX 16 43 53 44 47 45 46 46 17 48 39 49 24 50 38 51 25 52 28 53
REMARK SMILES IDX 37 54 51 55 26 56 27 57 36 59 52 60 29 61 18 62 19 63 23 64
REMARK SMILES IDX 20 65 22 66 21 67 40 68 41 69 45 70 42 71 44 72 43 73 30 74
REMARK SMILES IDX 31 75 35 76 32 77 34 78 33 79
REMARK H PARENT 50 47 28 58
REMARK Flexibility Score: inf
ROOT
ATOM      1  C   UNL A   1      31.760  29.422  26.029  1.00  0.00     0.275 C 
ENDROOT
BRANCH   1   2
ATOM      2  C   UNL A   1      31.383  27.308  26.318  1.00  0.00     0.275 C 
BRANCH   2   3
ATOM      3  O   UNL A   1      32.442  26.220  26.673  1.00  0.00    -0.459 OA
BRANCH   3   4
ATOM      4  C   UNL A   1      31.993  24.970  26.502  1.00  0.00     0.338 C 
ATOM      5  O   UNL A   1      31.553  24.189  27.305  1.00  0.00    -0.246 OA
BRANCH   4   6
ATOM      6  C   UNL A   1      32.629  24.789  25.219  1.00  0.00     0.087 C 
ATOM      7  C   UNL A   1      34.062  24.600  25.308  1.00  0.00     0.027 C 
ATOM      8  C   UNL A   1      31.355  23.511  24.552  1.00  0.00     0.316 C 
ATOM      9  C   UNL A   1      34.857  23.035  24.989  1.00  0.00     0.019 A 
ATOM     10  O   UNL A   1      32.182  21.771  24.296  1.00  0.00    -0.475 OA
ATOM     11  C   UNL A   1      36.195  22.991  25.272  1.00  0.00     0.032 A 
ATOM     12  C   UNL A   1      33.976  21.576  24.621  1.00  0.00     0.135 A 
ATOM     13  C   UNL A   1      36.752  21.718  25.251  1.00  0.00     0.042 A 
ATOM     14  C   UNL A   1      34.604  20.353  24.711  1.00  0.00     0.026 A 
ATOM     15  Cl  UNL A   1      38.437  21.589  25.630  1.00  0.00    -0.084 Cl
ATOM     16  C   UNL A   1      36.011  20.501  25.001  1.00  0.00     0.033 A 
BRANCH   8  17
ATOM     17  C   UNL A   1      30.667  24.624  23.613  1.00  0.00     0.430 C 
ATOM     18  F   UNL A   1      29.877  24.065  22.688  1.00  0.00    -0.167 F 
ATOM     19  F   UNL A   1      29.778  25.366  24.353  1.00  0.00    -0.167 F 
ATOM     20  F   UNL A   1      31.437  25.589  23.083  1.00  0.00    -0.167 F 
ENDBRANCH   8  17
BRANCH  14  21
ATOM     21  C   UNL A   1      34.090  18.989  24.721  1.00  0.00    -0.015 A 
ATOM     22  C   UNL A   1      32.919  18.712  25.464  1.00  0.00     0.009 A 
ATOM     23  C   UNL A   1      34.842  17.911  24.251  1.00  0.00     0.009 A 
ATOM     24  C   UNL A   1      32.528  17.403  25.751  1.00  0.00     0.001 A 
ATOM     25  C   UNL A   1      34.448  16.598  24.538  1.00  0.00     0.001 A 
ATOM     26  C   UNL A   1      33.300  16.345  25.290  1.00  0.00     0.000 A 
ENDBRANCH  14  21
ENDBRANCH   4   6
ENDBRANCH   3   4
ENDBRANCH   2   3
ENDBRANCH   1   2
BRANCH   1  27
ATOM     27  O   UNL A   1      32.579  30.457  27.189  1.00  0.00    -0.458 OA
BRANCH  27  28
ATOM     28  C   UNL A   1      33.265  31.645  27.331  1.00  0.00     0.338 C 
ATOM     29  O   UNL A   1      32.842  32.748  27.627  1.00  0.00    -0.246 OA
BRANCH  28  30
ATOM     30  C   UNL A   1      34.725  31.294  27.496  1.00  0.00     0.060 A 
ATOM     31  C   UNL A   1      35.637  32.322  27.811  1.00  0.00     0.016 A 
ATOM     32  C   UNL A   1      35.095  29.972  27.735  1.00  0.00     0.016 A 
ATOM     33  C   UNL A   1      36.767  32.043  28.614  1.00  0.00     0.010 A 
ATOM     34  C   UNL A   1      36.229  29.699  28.513  1.00  0.00     0.010 A 
ATOM     35  C   UNL A   1      37.016  30.734  29.051  1.00  0.00    -0.014 A 
BRANCH  35  36
ATOM     36  C   UNL A   1      38.183  30.379  29.917  1.00  0.00     0.031 A 
ATOM     37  C   UNL A   1      39.199  29.458  29.312  1.00  0.00     0.074 A 
ATOM     38  C   UNL A   1      38.310  30.741  31.216  1.00  0.00     0.049 A 
ATOM     39  N   UNL A   1      40.223  28.865  29.864  1.00  0.00    -0.248 NA
ATOM     40  C   UNL A   1      39.000  29.141  27.889  1.00  0.00     0.031 C 
ATOM     41  C   UNL A   1      37.422  31.635  31.956  1.00  0.00     0.029 A 
ATOM     42  N   UNL A   1      39.248  30.370  32.163  1.00  0.00    -0.354 N 
ATOM     43  C   UNL A   1      40.783  28.094  28.855  1.00  0.00     0.074 A 
ATOM     44  C   UNL A   1      39.961  28.260  27.678  1.00  0.00     0.031 C 
ATOM     45  C   UNL A   1      37.841  31.731  33.234  1.00  0.00     0.029 A 
ATOM     46  C   UNL A   1      39.018  30.885  33.424  1.00  0.00     0.049 A 
ATOM     47  H   UNL A   1      40.013  29.786  31.956  1.00  0.00     0.167 HD
ATOM     48  C   UNL A   1      41.889  27.320  28.893  1.00  0.00     0.031 A 
ATOM     49  C   UNL A   1      39.673  30.687  34.592  1.00  0.00     0.031 A 
ATOM     50  C   UNL A   1      42.698  27.117  30.057  1.00  0.00     0.049 A 
ATOM     51  C   UNL A   1      40.868  29.753  34.622  1.00  0.00     0.074 A 
ATOM     52  C   UNL A   1      43.848  26.360  30.181  1.00  0.00     0.029 A 
ATOM     53  N   UNL A   1      42.433  27.661  31.302  1.00  0.00    -0.354 N 
ATOM     54  N   UNL A   1      41.435  29.098  33.638  1.00  0.00    -0.248 NA
ATOM     55  C   UNL A   1      41.517  29.535  35.928  1.00  0.00     0.031 C 
ATOM     56  C   UNL A   1      44.250  26.401  31.519  1.00  0.00     0.029 A 
ATOM     57  C   UNL A   1      43.383  27.233  32.209  1.00  0.00     0.049 A 
ATOM     58  H   UNL A   1      41.682  28.262  31.509  1.00  0.00     0.167 HD
ATOM     59  C   UNL A   1      42.520  28.428  34.197  1.00  0.00     0.074 A 
ATOM     60  C   UNL A   1      42.548  28.769  35.602  1.00  0.00     0.031 C 
ATOM     61  C   UNL A   1      43.411  27.600  33.601  1.00  0.00     0.031 A 
BRANCH  48  62
ATOM     62  C   UNL A   1      42.251  26.616  27.620  1.00  0.00    -0.014 A 
ATOM     63  C   UNL A   1      41.873  25.281  27.404  1.00  0.00     0.009 A 
ATOM     64  C   UNL A   1      43.008  27.283  26.646  1.00  0.00     0.009 A 
ATOM     65  C   UNL A   1      42.287  24.611  26.253  1.00  0.00     0.001 A 
ATOM     66  C   UNL A   1      43.392  26.619  25.481  1.00  0.00     0.001 A 
ATOM     67  C   UNL A   1      43.042  25.282  25.292  1.00  0.00     0.000 A 
ENDBRANCH  48  62
BRANCH  49  68
ATOM     68  C   UNL A   1      39.242  31.339  35.870  1.00  0.00    -0.014 A 
ATOM     69  C   UNL A   1      38.154  30.829  36.603  1.00  0.00     0.009 A 
ATOM     70  C   UNL A   1      39.818  32.546  36.295  1.00  0.00     0.009 A 
ATOM     71  C   UNL A   1      37.625  31.534  37.690  1.00  0.00     0.001 A 
ATOM     72  C   UNL A   1      39.308  33.233  37.405  1.00  0.00     0.001 A 
ATOM     73  C   UNL A   1      38.202  32.736  38.090  1.00  0.00     0.000 A 
ENDBRANCH  49  68
BRANCH  61  74
ATOM     74  C   UNL A   1      44.524  27.035  34.441  1.00  0.00    -0.014 A 
ATOM     75  C   UNL A   1      44.386  25.809  35.109  1.00  0.00     0.009 A 
ATOM     76  C   UNL A   1      45.761  27.700  34.489  1.00  0.00     0.009 A 
ATOM     77  C   UNL A   1      45.459  25.270  35.823  1.00  0.00     0.001 A 
ATOM     78  C   UNL A   1      46.840  27.143  35.176  1.00  0.00     0.001 A 
ATOM     79  C   UNL A   1      46.687  25.932  35.847  1.00  0.00     0.000 A 
ENDBRANCH  61  74
ENDBRANCH  35  36
ENDBRANCH  28  30
ENDBRANCH  27  28
ENDBRANCH   1  27
TORSDOF 13
ENDMDL
MODEL 2
REMARK VINA RESULT:     -14.3      4.234      9.024
REMARK SMILES O=C(OCCOC(=O)c1ccc(-c2c3nc(c(-c4ccccc4)c4ccc([nH]4)c(-c4ccccc4)c4nc(c(-c5ccccc5)c5ccc2[nH]5)C=C4)C=C3)cc1)C1=Cc2cc(Cl)cc(-c3ccccc3)c2O[C@@H]1C(F)(F)F
REMARK SMILES IDX 5 1 4 2 3 3 2 4 1 5 57 6 58 7 73 8 59 9 72 10 60 11 71 12
REMARK SMILES IDX 61 13 64 14 62 15 63 16 74 17 75 18 76 19 77 20 65 21 66 22
REMARK SMILES IDX 70 23 67 24 69 25 68 26 6 27 7 28 8 29 9 30 10 31 56 32
REMARK SMILES IDX 11 33 55 34 12 35 13 36 14 37 49 38 15 39 54 40 48 41 50 42
REMARK SMILES IDX 16 43 53 44 47 45 46 46 17 48 39 49 24 50 38 51 25 52 28 53
REMARK SMILES IDX 37 54 51 55 26 56 27 57 36 59 52 60 29 61 18 62 19 63 23 64
REMARK SMILES IDX 20 65 22 66 21 67 40 68 41 69 45 70 42 71 44 72 43 73 30 74
REMARK SMILES IDX 31 75 35 76 32 77 34 78 33 79
REMARK H PARENT 50 47 28 58
REMARK Flexibility Score: inf
ROOT
ATOM      1  C   UNL A   1      37.393  21.232  24.731  1.00  0.00     0.275 C 
ENDROOT
BRANCH   1   2
ATOM      2  C   UNL A   1      36.641  23.075  23.877  1.00  0.00     0.275 C 
BRANCH   2   3
ATOM      3  O   UNL A   1      35.709  24.108  24.582  1.00  0.00    -0.459 OA
BRANCH   3   4
ATOM      4  C   UNL A   1      34.569  24.332  23.915  1.00  0.00     0.338 C 
ATOM      5  O   UNL A   1      34.390  24.601  22.755  1.00  0.00    -0.246 OA
BRANCH   4   6
ATOM      6  C   UNL A   1      33.783  24.577  25.101  1.00  0.00     0.087 C 
ATOM      7  C   UNL A   1      34.166  25.782  25.807  1.00  0.00     0.027 C 
ATOM      8  C   UNL A   1      32.079  24.239  24.275  1.00  0.00     0.316 C 
ATOM      9  C   UNL A   1      33.153  27.251  25.842  1.00  0.00     0.019 A 
ATOM     10  O   UNL A   1      31.001  25.855  24.213  1.00  0.00    -0.475 OA
ATOM     11  C   UNL A   1      33.734  28.348  26.419  1.00  0.00     0.032 A 
ATOM     12  C   UNL A   1      31.653  27.395  24.967  1.00  0.00     0.135 A 
ATOM     13  C   UNL A   1      33.042  29.538  26.230  1.00  0.00     0.042 A 
ATOM     14  C   UNL A   1      31.091  28.637  24.764  1.00  0.00     0.026 A 
ATOM     15  Cl  UNL A   1      33.739  30.971  26.909  1.00  0.00    -0.084 Cl
ATOM     16  C   UNL A   1      31.827  29.669  25.456  1.00  0.00     0.033 A 
BRANCH   8  17
ATOM     17  C   UNL A   1      31.976  22.795  24.983  1.00  0.00     0.430 C 
ATOM     18  F   UNL A   1      32.337  22.854  26.270  1.00  0.00    -0.167 F 
ATOM     19  F   UNL A   1      30.659  22.414  25.061  1.00  0.00    -0.167 F 
ATOM     20  F   UNL A   1      32.521  21.733  24.367  1.00  0.00    -0.167 F 
ENDBRANCH   8  17
BRANCH  14  21
ATOM     21  C   UNL A   1      30.023  29.094  23.884  1.00  0.00    -0.015 A 
ATOM     22  C   UNL A   1      29.726  30.477  23.841  1.00  0.00     0.009 A 
ATOM     23  C   UNL A   1      29.121  28.208  23.291  1.00  0.00     0.009 A 
ATOM     24  C   UNL A   1      28.555  30.955  23.251  1.00  0.00     0.001 A 
ATOM     25  C   UNL A   1      27.947  28.689  22.697  1.00  0.00     0.001 A 
ATOM     26  C   UNL A   1      27.662  30.056  22.683  1.00  0.00     0.000 A 
ENDBRANCH  14  21
ENDBRANCH   4   6
ENDBRANCH   3   4
ENDBRANCH   2   3
ENDBRANCH   1   2
BRANCH   1  27
ATOM     27  O   UNL A   1      38.931  21.074  25.567  1.00  0.00    -0.458 OA
BRANCH  27  28
ATOM     28  C   UNL A   1      39.885  20.167  25.981  1.00  0.00     0.338 C 
ATOM     29  O   UNL A   1      40.016  18.996  25.676  1.00  0.00    -0.246 OA
BRANCH  28  30
ATOM     30  C   UNL A   1      41.036  20.966  26.545  1.00  0.00     0.060 A 
ATOM     31  C   UNL A   1      41.747  21.828  25.685  1.00  0.00     0.016 A 
ATOM     32  C   UNL A   1      41.135  21.158  27.922  1.00  0.00     0.016 A 
ATOM     33  C   UNL A   1      42.302  23.027  26.190  1.00  0.00     0.010 A 
ATOM     34  C   UNL A   1      41.706  22.339  28.418  1.00  0.00     0.010 A 
ATOM     35  C   UNL A   1      42.199  23.335  27.553  1.00  0.00    -0.014 A 
BRANCH  35  36
ATOM     36  C   UNL A   1      42.748  24.595  28.143  1.00  0.00     0.031 A 
ATOM     37  C   UNL A   1      41.756  25.689  28.404  1.00  0.00     0.074 A 
ATOM     38  C   UNL A   1      44.065  24.836  28.343  1.00  0.00     0.049 A 
ATOM     39  N   UNL A   1      41.954  26.928  28.765  1.00  0.00    -0.248 NA
ATOM     40  C   UNL A   1      40.345  25.331  28.189  1.00  0.00     0.031 C 
ATOM     41  C   UNL A   1      45.157  23.884  28.151  1.00  0.00     0.029 A 
ATOM     42  N   UNL A   1      44.715  25.991  28.738  1.00  0.00    -0.354 N 
ATOM     43  C   UNL A   1      40.692  27.500  28.808  1.00  0.00     0.074 A 
ATOM     44  C   UNL A   1      39.745  26.489  28.394  1.00  0.00     0.031 C 
ATOM     45  C   UNL A   1      46.334  24.491  28.410  1.00  0.00     0.029 A 
ATOM     46  C   UNL A   1      46.093  25.888  28.764  1.00  0.00     0.049 A 
ATOM     47  H   UNL A   1      44.238  26.817  28.981  1.00  0.00     0.167 HD
ATOM     48  C   UNL A   1      40.338  28.753  29.168  1.00  0.00     0.031 A 
ATOM     49  C   UNL A   1      47.043  26.815  29.030  1.00  0.00     0.031 A 
ATOM     50  C   UNL A   1      41.263  29.778  29.550  1.00  0.00     0.049 A 
ATOM     51  C   UNL A   1      46.622  28.235  29.358  1.00  0.00     0.074 A 
ATOM     52  C   UNL A   1      40.991  31.074  29.946  1.00  0.00     0.029 A 
ATOM     53  N   UNL A   1      42.639  29.628  29.567  1.00  0.00    -0.354 N 
ATOM     54  N   UNL A   1      45.416  28.737  29.477  1.00  0.00    -0.248 NA
ATOM     55  C   UNL A   1      47.697  29.217  29.593  1.00  0.00     0.031 C 
ATOM     56  C   UNL A   1      42.209  31.728  30.151  1.00  0.00     0.029 A 
ATOM     57  C   UNL A   1      43.233  30.818  29.941  1.00  0.00     0.049 A 
ATOM     58  H   UNL A   1      43.121  28.798  29.348  1.00  0.00     0.167 HD
ATOM     59  C   UNL A   1      45.590  30.070  29.836  1.00  0.00     0.074 A 
ATOM     60  C   UNL A   1      47.014  30.300  29.936  1.00  0.00     0.031 C 
ATOM     61  C   UNL A   1      44.653  31.024  30.059  1.00  0.00     0.031 A 
BRANCH  48  62
ATOM     62  C   UNL A   1      38.875  29.069  29.127  1.00  0.00    -0.014 A 
ATOM     63  C   UNL A   1      38.263  29.494  27.936  1.00  0.00     0.009 A 
ATOM     64  C   UNL A   1      38.108  28.975  30.298  1.00  0.00     0.009 A 
ATOM     65  C   UNL A   1      36.919  29.864  27.930  1.00  0.00     0.001 A 
ATOM     66  C   UNL A   1      36.756  29.316  30.279  1.00  0.00     0.001 A 
ATOM     67  C   UNL A   1      36.167  29.771  29.100  1.00  0.00     0.000 A 
ENDBRANCH  48  62
BRANCH  49  68
ATOM     68  C   UNL A   1      48.506  26.495  28.985  1.00  0.00    -0.014 A 
ATOM     69  C   UNL A   1      49.185  26.080  30.147  1.00  0.00     0.009 A 
ATOM     70  C   UNL A   1      49.261  26.728  27.826  1.00  0.00     0.009 A 
ATOM     71  C   UNL A   1      50.579  25.960  30.162  1.00  0.00     0.001 A 
ATOM     72  C   UNL A   1      50.655  26.574  27.834  1.00  0.00     0.001 A 
ATOM     73  C   UNL A   1      51.313  26.208  29.006  1.00  0.00     0.000 A 
ENDBRANCH  49  68
BRANCH  61  74
ATOM     74  C   UNL A   1      45.120  32.392  30.477  1.00  0.00    -0.014 A 
ATOM     75  C   UNL A   1      45.352  33.405  29.536  1.00  0.00     0.009 A 
ATOM     76  C   UNL A   1      45.240  32.692  31.844  1.00  0.00     0.009 A 
ATOM     77  C   UNL A   1      45.714  34.688  29.955  1.00  0.00     0.001 A 
ATOM     78  C   UNL A   1      45.570  33.982  32.261  1.00  0.00     0.001 A 
ATOM     79  C   UNL A   1      45.812  34.977  31.316  1.00  0.00     0.000 A 
ENDBRANCH  61  74
ENDBRANCH  35  36
ENDBRANCH  28  30
ENDBRANCH  27  28
ENDBRANCH   1  27
TORSDOF 13
ENDMDL
MODEL 3
REMARK VINA RESULT:     -14.3      1.798      2.280
REMARK SMILES O=C(OCCOC(=O)c1ccc(-c2c3nc(c(-c4ccccc4)c4ccc([nH]4)c(-c4ccccc4)c4nc(c(-c5ccccc5)c5ccc2[nH]5)C=C4)C=C3)cc1)C1=Cc2cc(Cl)cc(-c3ccccc3)c2O[C@@H]1C(F)(F)F
REMARK SMILES IDX 5 1 4 2 3 3 2 4 1 5 57 6 58 7 73 8 59 9 72 10 60 11 71 12
REMARK SMILES IDX 61 13 64 14 62 15 63 16 74 17 75 18 76 19 77 20 65 21 66 22
REMARK SMILES IDX 70 23 67 24 69 25 68 26 6 27 7 28 8 29 9 30 10 31 56 32
REMARK SMILES IDX 11 33 55 34 12 35 13 36 14 37 49 38 15 39 54 40 48 41 50 42
REMARK SMILES IDX 16 43 53 44 47 45 46 46 17 48 39 49 24 50 38 51 25 52 28 53
REMARK SMILES IDX 37 54 51 55 26 56 27 57 36 59 52 60 29 61 18 62 19 63 23 64
REMARK SMILES IDX 20 65 22 66 21 67 40 68 41 69 45 70 42 71 44 72 43 73 30 74
REMARK SMILES IDX 31 75 35 76 32 77 34 78 33 79
REMARK H PARENT 50 47 28 58
REMARK Flexibility Score: inf
ROOT
ATOM      1  C   UNL A   1      32.116  30.436  26.346  1.00  0.00     0.275 C 
ENDROOT
BRANCH   1   2
ATOM      2  C   UNL A   1      31.901  28.413  27.089  1.00  0.00     0.275 C 
BRANCH   2   3
ATOM      3  O   UNL A   1      32.836  27.206  26.770  1.00  0.00    -0.459 OA
BRANCH   3   4
ATOM      4  C   UNL A   1      32.176  26.128  26.328  1.00  0.00     0.338 C 
ATOM      5  O   UNL A   1      31.439  25.377  26.914  1.00  0.00    -0.246 OA
BRANCH   4   6
ATOM      6  C   UNL A   1      32.988  25.966  25.146  1.00  0.00     0.087 C 
ATOM      7  C   UNL A   1      34.353  25.577  25.435  1.00  0.00     0.027 C 
ATOM      8  C   UNL A   1      31.696  24.930  24.167  1.00  0.00     0.316 C 
ATOM      9  C   UNL A   1      34.994  23.949  25.086  1.00  0.00     0.019 A 
ATOM     10  O   UNL A   1      32.338  23.119  23.866  1.00  0.00    -0.475 OA
ATOM     11  C   UNL A   1      36.252  23.701  25.565  1.00  0.00     0.032 A 
ATOM     12  C   UNL A   1      34.016  22.658  24.442  1.00  0.00     0.135 A 
ATOM     13  C   UNL A   1      36.646  22.370  25.502  1.00  0.00     0.042 A 
ATOM     14  C   UNL A   1      34.467  21.357  24.504  1.00  0.00     0.026 A 
ATOM     15  Cl  UNL A   1      38.217  21.984  26.120  1.00  0.00    -0.084 Cl
ATOM     16  C   UNL A   1      35.815  21.289  25.020  1.00  0.00     0.033 A 
BRANCH   8  17
ATOM     17  C   UNL A   1      31.313  26.197  23.250  1.00  0.00     0.430 C 
ATOM     18  F   UNL A   1      31.055  25.829  21.989  1.00  0.00    -0.167 F 
ATOM     19  F   UNL A   1      30.109  26.715  23.660  1.00  0.00    -0.167 F 
ATOM     20  F   UNL A   1      32.097  27.288  23.293  1.00  0.00    -0.167 F 
ENDBRANCH   8  17
BRANCH  14  21
ATOM     21  C   UNL A   1      33.797  20.080  24.297  1.00  0.00    -0.015 A 
ATOM     22  C   UNL A   1      34.490  18.890  24.625  1.00  0.00     0.009 A 
ATOM     23  C   UNL A   1      32.621  19.972  23.553  1.00  0.00     0.009 A 
ATOM     24  C   UNL A   1      34.037  17.640  24.201  1.00  0.00     0.001 A 
ATOM     25  C   UNL A   1      32.165  18.717  23.130  1.00  0.00     0.001 A 
ATOM     26  C   UNL A   1      32.874  17.556  23.446  1.00  0.00     0.000 A 
ENDBRANCH  14  21
ENDBRANCH   4   6
ENDBRANCH   3   4
ENDBRANCH   2   3
ENDBRANCH   1   2
BRANCH   1  27
ATOM     27  O   UNL A   1      32.967  31.723  27.186  1.00  0.00    -0.458 OA
BRANCH  27  28
ATOM     28  C   UNL A   1      32.901  33.054  27.542  1.00  0.00     0.338 C 
ATOM     29  O   UNL A   1      31.964  33.828  27.458  1.00  0.00    -0.246 OA
BRANCH  28  30
ATOM     30  C   UNL A   1      34.054  33.317  28.482  1.00  0.00     0.060 A 
ATOM     31  C   UNL A   1      34.038  32.716  29.757  1.00  0.00     0.016 A 
ATOM     32  C   UNL A   1      35.264  33.789  27.976  1.00  0.00     0.016 A 
ATOM     33  C   UNL A   1      35.254  32.337  30.374  1.00  0.00     0.010 A 
ATOM     34  C   UNL A   1      36.465  33.430  28.604  1.00  0.00     0.010 A 
ATOM     35  C   UNL A   1      36.478  32.610  29.749  1.00  0.00    -0.014 A 
BRANCH  35  36
ATOM     36  C   UNL A   1      37.794  32.218  30.341  1.00  0.00     0.031 A 
ATOM     37  C   UNL A   1      38.411  30.961  29.806  1.00  0.00     0.074 A 
ATOM     38  C   UNL A   1      38.387  32.854  31.379  1.00  0.00     0.049 A 
ATOM     39  N   UNL A   1      39.458  30.300  30.222  1.00  0.00    -0.248 NA
ATOM     40  C   UNL A   1      37.719  30.352  28.658  1.00  0.00     0.031 C 
ATOM     41  C   UNL A   1      37.929  34.090  32.011  1.00  0.00     0.029 A 
ATOM     42  N   UNL A   1      39.513  32.521  32.110  1.00  0.00    -0.354 N 
ATOM     43  C   UNL A   1      39.540  29.191  29.394  1.00  0.00     0.074 A 
ATOM     44  C   UNL A   1      38.417  29.245  28.486  1.00  0.00     0.031 C 
ATOM     45  C   UNL A   1      38.748  34.401  33.036  1.00  0.00     0.029 A 
ATOM     46  C   UNL A   1      39.783  33.376  33.161  1.00  0.00     0.049 A 
ATOM     47  H   UNL A   1      40.075  31.741  31.900  1.00  0.00     0.167 HD
ATOM     48  C   UNL A   1      40.470  28.211  29.375  1.00  0.00     0.031 A 
ATOM     49  C   UNL A   1      40.742  33.329  34.115  1.00  0.00     0.031 A 
ATOM     50  C   UNL A   1      41.572  28.121  30.286  1.00  0.00     0.049 A 
ATOM     51  C   UNL A   1      41.729  32.177  34.116  1.00  0.00     0.074 A 
ATOM     52  C   UNL A   1      42.573  27.170  30.330  1.00  0.00     0.029 A 
ATOM     53  N   UNL A   1      41.807  29.008  31.323  1.00  0.00    -0.354 N 
ATOM     54  N   UNL A   1      41.843  31.180  33.272  1.00  0.00    -0.248 NA
ATOM     55  C   UNL A   1      42.724  32.147  35.204  1.00  0.00     0.031 C 
ATOM     56  C   UNL A   1      43.386  27.450  31.432  1.00  0.00     0.029 A 
ATOM     57  C   UNL A   1      42.924  28.609  32.033  1.00  0.00     0.049 A 
ATOM     58  H   UNL A   1      41.261  29.802  31.524  1.00  0.00     0.167 HD
ATOM     59  C   UNL A   1      42.937  30.436  33.703  1.00  0.00     0.074 A 
ATOM     60  C   UNL A   1      43.468  31.102  34.872  1.00  0.00     0.031 C 
ATOM     61  C   UNL A   1      43.454  29.297  33.180  1.00  0.00     0.031 A 
BRANCH  48  62
ATOM     62  C   UNL A   1      40.293  27.145  28.338  1.00  0.00    -0.014 A 
ATOM     63  C   UNL A   1      39.543  25.990  28.614  1.00  0.00     0.009 A 
ATOM     64  C   UNL A   1      40.911  27.281  27.086  1.00  0.00     0.009 A 
ATOM     65  C   UNL A   1      39.454  24.968  27.670  1.00  0.00     0.001 A 
ATOM     66  C   UNL A   1      40.792  26.270  26.132  1.00  0.00     0.001 A 
ATOM     67  C   UNL A   1      40.075  25.111  26.430  1.00  0.00     0.000 A 
ENDBRANCH  48  62
BRANCH  49  68
ATOM     68  C   UNL A   1      40.849  34.365  35.192  1.00  0.00    -0.014 A 
ATOM     69  C   UNL A   1      40.085  34.255  36.370  1.00  0.00     0.009 A 
ATOM     70  C   UNL A   1      41.603  35.532  34.999  1.00  0.00     0.009 A 
ATOM     71  C   UNL A   1      40.033  35.305  37.294  1.00  0.00     0.001 A 
ATOM     72  C   UNL A   1      41.577  36.568  35.943  1.00  0.00     0.001 A 
ATOM     73  C   UNL A   1      40.779  36.461  37.080  1.00  0.00     0.000 A 
ENDBRANCH  49  68
BRANCH  61  74
ATOM     74  C   UNL A   1      44.681  28.714  33.828  1.00  0.00    -0.014 A 
ATOM     75  C   UNL A   1      44.585  27.721  34.813  1.00  0.00     0.009 A 
ATOM     76  C   UNL A   1      45.952  29.105  33.377  1.00  0.00     0.009 A 
ATOM     77  C   UNL A   1      45.740  27.143  35.347  1.00  0.00     0.001 A 
ATOM     78  C   UNL A   1      47.103  28.504  33.889  1.00  0.00     0.001 A 
ATOM     79  C   UNL A   1      46.996  27.528  34.877  1.00  0.00     0.000 A 
ENDBRANCH  61  74
ENDBRANCH  35  36
ENDBRANCH  28  30
ENDBRANCH  27  28
ENDBRANCH   1  27
TORSDOF 13
ENDMDL
