MODEL 1
REMARK VINA RESULT:     -12.5      0.000      0.000
REMARK SMILES O=C(OCCOC(=O)c1nnn(-c2cccc(C(F)(F)F)c2)c1[C@H]1COc2ccccc2O1)c1ccc(-c2c3nc(c(-c4ccccc4)c4ccc([nH]4)c(-c4ccccc4)c4nc(c(-c5ccccc5)c5ccc2[nH]5)C=C4)C=C3)cc1
REMARK SMILES IDX 4 1 3 2 2 3 1 4 34 5 35 6 81 7 36 8 80 9 37 10 38 11 39 12
REMARK SMILES IDX 74 13 40 14 79 15 73 16 75 17 41 18 78 19 72 20 71 21 42 23
REMARK SMILES IDX 64 24 49 25 63 26 50 27 53 28 62 29 76 30 51 31 52 32 61 34
REMARK SMILES IDX 77 35 54 36 43 37 44 38 48 39 45 40 47 41 46 42 65 43 66 44
REMARK SMILES IDX 70 45 67 46 69 47 68 48 55 49 56 50 60 51 57 52 59 53 58 54
REMARK SMILES IDX 5 55 6 56 7 57 8 58 9 59 10 60 23 61 11 62 12 63 24 64 25 65
REMARK SMILES IDX 33 66 26 67 32 68 27 69 31 70 28 71 30 72 29 73 13 74 14 75
REMARK SMILES IDX 22 76 15 77 17 78 16 79 18 80 19 81 20 82 21 83
REMARK H PARENT 75 22 53 33
REMARK Flexibility Score: inf
ROOT
ATOM      1  C   UNL A   1      32.072  30.686  26.811  1.00  0.00     0.275 C 
ENDROOT
BRANCH   1   2
ATOM      2  O   UNL A   1      33.249  30.501  27.621  1.00  0.00    -0.458 OA
BRANCH   2   3
ATOM      3  C   UNL A   1      34.138  31.511  27.745  1.00  0.00     0.338 C 
ATOM      4  O   UNL A   1      33.823  32.679  27.891  1.00  0.00    -0.246 OA
BRANCH   3   5
ATOM      5  C   UNL A   1      35.518  31.018  27.960  1.00  0.00     0.060 A 
ATOM      6  C   UNL A   1      35.888  29.689  27.725  1.00  0.00     0.016 A 
ATOM      7  C   UNL A   1      36.450  31.931  28.471  1.00  0.00     0.016 A 
ATOM      8  C   UNL A   1      37.134  29.241  28.126  1.00  0.00     0.010 A 
ATOM      9  C   UNL A   1      37.693  31.485  28.881  1.00  0.00     0.010 A 
ATOM     10  C   UNL A   1      38.004  30.132  28.758  1.00  0.00    -0.014 A 
BRANCH  10  11
ATOM     11  C   UNL A   1      39.304  29.633  29.174  1.00  0.00     0.031 A 
ATOM     12  C   UNL A   1      39.481  29.578  30.647  1.00  0.00     0.074 A 
ATOM     13  C   UNL A   1      40.209  29.146  28.301  1.00  0.00     0.049 A 
ATOM     14  N   UNL A   1      40.321  30.244  31.368  1.00  0.00    -0.248 NA
ATOM     15  C   UNL A   1      38.516  28.784  31.425  1.00  0.00     0.031 C 
ATOM     16  C   UNL A   1      40.024  28.902  26.868  1.00  0.00     0.029 A 
ATOM     17  N   UNL A   1      41.454  28.647  28.536  1.00  0.00    -0.354 N 
ATOM     18  C   UNL A   1      40.141  29.789  32.671  1.00  0.00     0.074 A 
ATOM     19  C   UNL A   1      38.911  29.039  32.673  1.00  0.00     0.031 C 
ATOM     20  C   UNL A   1      41.007  28.085  26.425  1.00  0.00     0.029 A 
ATOM     21  C   UNL A   1      41.956  27.860  27.503  1.00  0.00     0.049 A 
ATOM     22  H   UNL A   1      41.956  28.827  29.365  1.00  0.00     0.167 HD
ATOM     23  C   UNL A   1      41.164  29.813  33.570  1.00  0.00     0.031 A 
ATOM     24  C   UNL A   1      43.032  27.035  27.556  1.00  0.00     0.031 A 
ATOM     25  C   UNL A   1      42.201  30.731  33.170  1.00  0.00     0.049 A 
ATOM     26  C   UNL A   1      43.850  27.432  28.722  1.00  0.00     0.074 A 
ATOM     27  C   UNL A   1      42.251  32.080  32.872  1.00  0.00     0.029 A 
ATOM     28  N   UNL A   1      43.350  30.191  32.645  1.00  0.00    -0.354 N 
ATOM     29  N   UNL A   1      44.518  28.546  28.783  1.00  0.00    -0.248 NA
ATOM     30  C   UNL A   1      43.568  26.801  30.001  1.00  0.00     0.031 C 
ATOM     31  C   UNL A   1      43.162  32.181  31.778  1.00  0.00     0.029 A 
ATOM     32  C   UNL A   1      43.674  30.907  31.526  1.00  0.00     0.049 A 
ATOM     33  H   UNL A   1      43.850  29.424  33.010  1.00  0.00     0.167 HD
ATOM     34  C   UNL A   1      44.327  28.994  30.081  1.00  0.00     0.074 A 
ATOM     35  C   UNL A   1      43.829  27.829  30.813  1.00  0.00     0.031 C 
ATOM     36  C   UNL A   1      44.311  30.329  30.366  1.00  0.00     0.031 A 
BRANCH  23  37
ATOM     37  C   UNL A   1      41.440  28.660  34.512  1.00  0.00    -0.014 A 
ATOM     38  C   UNL A   1      41.883  28.952  35.816  1.00  0.00     0.009 A 
ATOM     39  C   UNL A   1      41.593  27.327  34.082  1.00  0.00     0.009 A 
ATOM     40  C   UNL A   1      42.549  27.995  36.592  1.00  0.00     0.001 A 
ATOM     41  C   UNL A   1      42.215  26.357  34.872  1.00  0.00     0.001 A 
ATOM     42  C   UNL A   1      42.727  26.702  36.113  1.00  0.00     0.000 A 
ENDBRANCH  23  37
BRANCH  24  43
ATOM     43  C   UNL A   1      43.271  25.758  26.844  1.00  0.00    -0.014 A 
ATOM     44  C   UNL A   1      42.369  24.687  26.966  1.00  0.00     0.009 A 
ATOM     45  C   UNL A   1      44.234  25.684  25.823  1.00  0.00     0.009 A 
ATOM     46  C   UNL A   1      42.403  23.607  26.071  1.00  0.00     0.001 A 
ATOM     47  C   UNL A   1      44.273  24.604  24.933  1.00  0.00     0.001 A 
ATOM     48  C   UNL A   1      43.346  23.574  25.047  1.00  0.00     0.000 A 
ENDBRANCH  24  43
BRANCH  36  49
ATOM     49  C   UNL A   1      44.761  31.290  29.293  1.00  0.00    -0.014 A 
ATOM     50  C   UNL A   1      43.917  31.766  28.274  1.00  0.00     0.009 A 
ATOM     51  C   UNL A   1      46.048  31.836  29.400  1.00  0.00     0.009 A 
ATOM     52  C   UNL A   1      44.365  32.733  27.367  1.00  0.00     0.001 A 
ATOM     53  C   UNL A   1      46.487  32.818  28.510  1.00  0.00     0.001 A 
ATOM     54  C   UNL A   1      45.649  33.260  27.489  1.00  0.00     0.000 A 
ENDBRANCH  36  49
ENDBRANCH  10  11
ENDBRANCH   3   5
ENDBRANCH   2   3
ENDBRANCH   1   2
BRANCH   1  55
ATOM     55  C   UNL A   1      31.853  29.706  25.663  1.00  0.00     0.275 C 
BRANCH  55  56
ATOM     56  O   UNL A   1      32.345  28.402  26.014  1.00  0.00    -0.457 OA
BRANCH  56  57
ATOM     57  C   UNL A   1      33.302  27.878  25.191  1.00  0.00     0.361 C 
ATOM     58  O   UNL A   1      33.973  28.517  24.381  1.00  0.00    -0.244 OA
BRANCH  57  59
ATOM     59  C   UNL A   1      33.323  26.437  25.261  1.00  0.00     0.198 A 
ATOM     60  N   UNL A   1      34.215  25.675  25.972  1.00  0.00    -0.122 NA
ATOM     61  C   UNL A   1      32.404  25.605  24.647  1.00  0.00     0.123 A 
ATOM     62  N   UNL A   1      33.891  24.395  25.798  1.00  0.00    -0.061 NA
ATOM     63  N   UNL A   1      32.917  24.351  24.867  1.00  0.00    -0.213 N 
BRANCH  61  64
ATOM     64  C   UNL A   1      31.117  25.896  23.951  1.00  0.00     0.262 C 
ATOM     65  C   UNL A   1      29.965  26.025  24.956  1.00  0.00     0.281 C 
ATOM     66  O   UNL A   1      31.341  27.114  23.237  1.00  0.00    -0.477 OA
ATOM     67  O   UNL A   1      28.748  26.389  24.293  1.00  0.00    -0.485 OA
ATOM     68  C   UNL A   1      30.210  27.837  23.004  1.00  0.00     0.162 A 
ATOM     69  C   UNL A   1      28.952  27.483  23.493  1.00  0.00     0.161 A 
ATOM     70  C   UNL A   1      30.376  28.995  22.250  1.00  0.00     0.050 A 
ATOM     71  C   UNL A   1      27.843  28.259  23.172  1.00  0.00     0.050 A 
ATOM     72  C   UNL A   1      29.272  29.794  21.961  1.00  0.00     0.004 A 
ATOM     73  C   UNL A   1      28.005  29.419  22.410  1.00  0.00     0.004 A 
ENDBRANCH  61  64
BRANCH  63  74
ATOM     74  C   UNL A   1      32.538  23.178  24.198  1.00  0.00     0.067 A 
ATOM     75  C   UNL A   1      32.130  23.221  22.870  1.00  0.00     0.028 A 
ATOM     76  C   UNL A   1      32.747  21.959  24.859  1.00  0.00     0.041 A 
ATOM     77  C   UNL A   1      32.033  22.018  22.168  1.00  0.00     0.003 A 
ATOM     78  C   UNL A   1      32.647  20.753  24.165  1.00  0.00     0.058 A 
ATOM     79  C   UNL A   1      32.304  20.796  22.805  1.00  0.00     0.013 A 
BRANCH  78  80
ATOM     80  C   UNL A   1      32.964  19.451  24.859  1.00  0.00     0.416 C 
ATOM     81  F   UNL A   1      34.167  18.936  24.494  1.00  0.00    -0.166 F 
ATOM     82  F   UNL A   1      33.000  19.588  26.213  1.00  0.00    -0.166 F 
ATOM     83  F   UNL A   1      32.046  18.476  24.611  1.00  0.00    -0.166 F 
ENDBRANCH  78  80
ENDBRANCH  63  74
ENDBRANCH  57  59
ENDBRANCH  56  57
ENDBRANCH  55  56
ENDBRANCH   1  55
TORSDOF 14
ENDMDL
MODEL 2
REMARK VINA RESULT:     -12.4      3.699      7.057
REMARK SMILES O=C(OCCOC(=O)c1nnn(-c2cccc(C(F)(F)F)c2)c1[C@H]1COc2ccccc2O1)c1ccc(-c2c3nc(c(-c4ccccc4)c4ccc([nH]4)c(-c4ccccc4)c4nc(c(-c5ccccc5)c5ccc2[nH]5)C=C4)C=C3)cc1
REMARK SMILES IDX 4 1 3 2 2 3 1 4 34 5 35 6 81 7 36 8 80 9 37 10 38 11 39 12
REMARK SMILES IDX 74 13 40 14 79 15 73 16 75 17 41 18 78 19 72 20 71 21 42 23
REMARK SMILES IDX 64 24 49 25 63 26 50 27 53 28 62 29 76 30 51 31 52 32 61 34
REMARK SMILES IDX 77 35 54 36 43 37 44 38 48 39 45 40 47 41 46 42 65 43 66 44
REMARK SMILES IDX 70 45 67 46 69 47 68 48 55 49 56 50 60 51 57 52 59 53 58 54
REMARK SMILES IDX 5 55 6 56 7 57 8 58 9 59 10 60 23 61 11 62 12 63 24 64 25 65
REMARK SMILES IDX 33 66 26 67 32 68 27 69 31 70 28 71 30 72 29 73 13 74 14 75
REMARK SMILES IDX 22 76 15 77 17 78 16 79 18 80 19 81 20 82 21 83
REMARK H PARENT 75 22 53 33
REMARK Flexibility Score: inf
ROOT
ATOM      1  C   UNL A   1      36.313  22.596  23.736  1.00  0.00     0.275 C 
ENDROOT
BRANCH   1   2
ATOM      2  O   UNL A   1      36.341  21.682  24.850  1.00  0.00    -0.458 OA
BRANCH   2   3
ATOM      3  C   UNL A   1      37.499  21.069  25.180  1.00  0.00     0.338 C 
ATOM      4  O   UNL A   1      37.797  19.942  24.823  1.00  0.00    -0.246 OA
BRANCH   3   5
ATOM      5  C   UNL A   1      38.475  22.005  25.783  1.00  0.00     0.060 A 
ATOM      6  C   UNL A   1      39.757  21.604  26.179  1.00  0.00     0.016 A 
ATOM      7  C   UNL A   1      38.049  23.321  26.001  1.00  0.00     0.016 A 
ATOM      8  C   UNL A   1      40.552  22.468  26.911  1.00  0.00     0.010 A 
ATOM      9  C   UNL A   1      38.838  24.185  26.740  1.00  0.00     0.010 A 
ATOM     10  C   UNL A   1      40.059  23.732  27.237  1.00  0.00    -0.014 A 
BRANCH  10  11
ATOM     11  C   UNL A   1      40.913  24.616  28.012  1.00  0.00     0.031 A 
ATOM     12  C   UNL A   1      40.394  26.002  28.127  1.00  0.00     0.074 A 
ATOM     13  C   UNL A   1      42.006  24.178  28.669  1.00  0.00     0.049 A 
ATOM     14  N   UNL A   1      40.925  27.087  27.671  1.00  0.00    -0.248 NA
ATOM     15  C   UNL A   1      39.053  26.186  28.707  1.00  0.00     0.031 C 
ATOM     16  C   UNL A   1      42.446  22.792  28.843  1.00  0.00     0.029 A 
ATOM     17  N   UNL A   1      42.895  24.877  29.428  1.00  0.00    -0.354 N 
ATOM     18  C   UNL A   1      40.095  28.120  28.097  1.00  0.00     0.074 A 
ATOM     19  C   UNL A   1      38.882  27.500  28.563  1.00  0.00     0.031 C 
ATOM     20  C   UNL A   1      43.352  22.735  29.846  1.00  0.00     0.029 A 
ATOM     21  C   UNL A   1      43.652  24.087  30.288  1.00  0.00     0.049 A 
ATOM     22  H   UNL A   1      42.992  25.856  29.374  1.00  0.00     0.167 HD
ATOM     23  C   UNL A   1      40.588  29.373  28.309  1.00  0.00     0.031 A 
ATOM     24  C   UNL A   1      44.415  24.512  31.327  1.00  0.00     0.031 A 
ATOM     25  C   UNL A   1      41.844  29.571  27.630  1.00  0.00     0.049 A 
ATOM     26  C   UNL A   1      44.677  25.955  31.134  1.00  0.00     0.074 A 
ATOM     27  C   UNL A   1      42.273  29.478  26.319  1.00  0.00     0.029 A 
ATOM     28  N   UNL A   1      42.983  29.545  28.398  1.00  0.00    -0.354 N 
ATOM     29  N   UNL A   1      45.440  26.425  30.192  1.00  0.00    -0.248 NA
ATOM     30  C   UNL A   1      43.737  26.903  31.711  1.00  0.00     0.031 C 
ATOM     31  C   UNL A   1      43.579  28.911  26.400  1.00  0.00     0.029 A 
ATOM     32  C   UNL A   1      43.904  28.768  27.750  1.00  0.00     0.049 A 
ATOM     33  H   UNL A   1      43.113  30.003  29.259  1.00  0.00     0.167 HD
ATOM     34  C   UNL A   1      44.771  27.550  29.735  1.00  0.00     0.074 A 
ATOM     35  C   UNL A   1      43.790  27.856  30.777  1.00  0.00     0.031 C 
ATOM     36  C   UNL A   1      44.876  27.947  28.433  1.00  0.00     0.031 A 
BRANCH  23  37
ATOM     37  C   UNL A   1      40.190  30.205  29.510  1.00  0.00    -0.014 A 
ATOM     38  C   UNL A   1      40.741  29.875  30.763  1.00  0.00     0.009 A 
ATOM     39  C   UNL A   1      39.077  31.068  29.522  1.00  0.00     0.009 A 
ATOM     40  C   UNL A   1      40.136  30.289  31.957  1.00  0.00     0.001 A 
ATOM     41  C   UNL A   1      38.499  31.521  30.710  1.00  0.00     0.001 A 
ATOM     42  C   UNL A   1      39.007  31.100  31.929  1.00  0.00     0.000 A 
ENDBRANCH  23  37
BRANCH  24  43
ATOM     43  C   UNL A   1      44.707  23.839  32.614  1.00  0.00    -0.014 A 
ATOM     44  C   UNL A   1      45.843  24.187  33.365  1.00  0.00     0.009 A 
ATOM     45  C   UNL A   1      43.726  23.054  33.243  1.00  0.00     0.009 A 
ATOM     46  C   UNL A   1      45.967  23.802  34.708  1.00  0.00     0.001 A 
ATOM     47  C   UNL A   1      43.851  22.665  34.582  1.00  0.00     0.001 A 
ATOM     48  C   UNL A   1      44.964  23.053  35.320  1.00  0.00     0.000 A 
ENDBRANCH  24  43
BRANCH  36  49
ATOM     49  C   UNL A   1      45.931  27.293  27.575  1.00  0.00    -0.014 A 
ATOM     50  C   UNL A   1      45.731  26.084  26.884  1.00  0.00     0.009 A 
ATOM     51  C   UNL A   1      47.122  27.998  27.350  1.00  0.00     0.009 A 
ATOM     52  C   UNL A   1      46.713  25.581  26.024  1.00  0.00     0.001 A 
ATOM     53  C   UNL A   1      48.092  27.507  26.474  1.00  0.00     0.001 A 
ATOM     54  C   UNL A   1      47.891  26.295  25.818  1.00  0.00     0.000 A 
ENDBRANCH  36  49
ENDBRANCH  10  11
ENDBRANCH   3   5
ENDBRANCH   2   3
ENDBRANCH   1   2
BRANCH   1  55
ATOM     55  C   UNL A   1      34.945  23.036  23.226  1.00  0.00     0.275 C 
BRANCH  55  56
ATOM     56  O   UNL A   1      34.905  24.462  23.060  1.00  0.00    -0.457 OA
BRANCH  56  57
ATOM     57  C   UNL A   1      33.802  24.964  22.429  1.00  0.00     0.361 C 
ATOM     58  O   UNL A   1      33.141  24.377  21.572  1.00  0.00    -0.244 OA
BRANCH  57  59
ATOM     59  C   UNL A   1      33.591  26.352  22.764  1.00  0.00     0.198 A 
ATOM     60  N   UNL A   1      33.749  27.420  21.918  1.00  0.00    -0.122 NA
ATOM     61  C   UNL A   1      33.151  26.808  23.993  1.00  0.00     0.123 A 
ATOM     62  N   UNL A   1      33.442  28.527  22.592  1.00  0.00    -0.061 NA
ATOM     63  N   UNL A   1      33.253  28.173  23.879  1.00  0.00    -0.213 N 
BRANCH  61  64
ATOM     64  C   UNL A   1      32.617  26.084  25.183  1.00  0.00     0.262 C 
ATOM     65  C   UNL A   1      31.436  25.184  24.796  1.00  0.00     0.281 C 
ATOM     66  O   UNL A   1      33.719  25.329  25.691  1.00  0.00    -0.477 OA
ATOM     67  O   UNL A   1      30.981  24.427  25.924  1.00  0.00    -0.485 OA
ATOM     68  C   UNL A   1      33.355  24.215  26.386  1.00  0.00     0.162 A 
ATOM     69  C   UNL A   1      32.035  23.785  26.520  1.00  0.00     0.161 A 
ATOM     70  C   UNL A   1      34.397  23.490  26.957  1.00  0.00     0.050 A 
ATOM     71  C   UNL A   1      31.751  22.657  27.283  1.00  0.00     0.050 A 
ATOM     72  C   UNL A   1      34.117  22.339  27.689  1.00  0.00     0.004 A 
ATOM     73  C   UNL A   1      32.794  21.930  27.863  1.00  0.00     0.004 A 
ENDBRANCH  61  64
BRANCH  63  74
ATOM     74  C   UNL A   1      33.223  29.091  24.938  1.00  0.00     0.067 A 
ATOM     75  C   UNL A   1      32.027  29.688  25.324  1.00  0.00     0.028 A 
ATOM     76  C   UNL A   1      34.395  29.252  25.691  1.00  0.00     0.041 A 
ATOM     77  C   UNL A   1      31.992  30.370  26.541  1.00  0.00     0.003 A 
ATOM     78  C   UNL A   1      34.366  29.936  26.906  1.00  0.00     0.058 A 
ATOM     79  C   UNL A   1      33.146  30.480  27.333  1.00  0.00     0.013 A 
BRANCH  78  80
ATOM     80  C   UNL A   1      35.612  30.025  27.754  1.00  0.00     0.416 C 
ATOM     81  F   UNL A   1      35.642  29.099  28.748  1.00  0.00    -0.166 F 
ATOM     82  F   UNL A   1      36.745  29.841  27.023  1.00  0.00    -0.166 F 
ATOM     83  F   UNL A   1      35.758  31.235  28.363  1.00  0.00    -0.166 F 
ENDBRANCH  78  80
ENDBRANCH  63  74
ENDBRANCH  57  59
ENDBRANCH  56  57
ENDBRANCH  55  56
ENDBRANCH   1  55
TORSDOF 14
ENDMDL
MODEL 3
REMARK VINA RESULT:     -12.3      3.431      7.778
REMARK SMILES O=C(OCCOC(=O)c1nnn(-c2cccc(C(F)(F)F)c2)c1[C@H]1COc2ccccc2O1)c1ccc(-c2c3nc(c(-c4ccccc4)c4ccc([nH]4)c(-c4ccccc4)c4nc(c(-c5ccccc5)c5ccc2[nH]5)C=C4)C=C3)cc1
REMARK SMILES IDX 4 1 3 2 2 3 1 4 34 5 35 6 81 7 36 8 80 9 37 10 38 11 39 12
REMARK SMILES IDX 74 13 40 14 79 15 73 16 75 17 41 18 78 19 72 20 71 21 42 23
REMARK SMILES IDX 64 24 49 25 63 26 50 27 53 28 62 29 76 30 51 31 52 32 61 34
REMARK SMILES IDX 77 35 54 36 43 37 44 38 48 39 45 40 47 41 46 42 65 43 66 44
REMARK SMILES IDX 70 45 67 46 69 47 68 48 55 49 56 50 60 51 57 52 59 53 58 54
REMARK SMILES IDX 5 55 6 56 7 57 8 58 9 59 10 60 23 61 11 62 12 63 24 64 25 65
REMARK SMILES IDX 33 66 26 67 32 68 27 69 31 70 28 71 30 72 29 73 13 74 14 75
REMARK SMILES IDX 22 76 15 77 17 78 16 79 18 80 19 81 20 82 21 83
REMARK H PARENT 75 22 53 33
REMARK Flexibility Score: inf
ROOT
ATOM      1  C   UNL A   1      37.333  21.053  25.151  1.00  0.00     0.275 C 
ENDROOT
BRANCH   1   2
ATOM      2  O   UNL A   1      38.304  22.108  25.299  1.00  0.00    -0.458 OA
BRANCH   2   3
ATOM      3  C   UNL A   1      39.328  21.954  26.168  1.00  0.00     0.338 C 
ATOM      4  O   UNL A   1      40.078  20.993  26.170  1.00  0.00    -0.246 OA
BRANCH   3   5
ATOM      5  C   UNL A   1      39.607  23.193  26.928  1.00  0.00     0.060 A 
ATOM      6  C   UNL A   1      38.780  24.321  26.861  1.00  0.00     0.016 A 
ATOM      7  C   UNL A   1      40.782  23.225  27.690  1.00  0.00     0.016 A 
ATOM      8  C   UNL A   1      39.192  25.510  27.435  1.00  0.00     0.010 A 
ATOM      9  C   UNL A   1      41.201  24.414  28.258  1.00  0.00     0.010 A 
ATOM     10  C   UNL A   1      40.430  25.562  28.077  1.00  0.00    -0.014 A 
BRANCH  10  11
ATOM     11  C   UNL A   1      40.839  26.826  28.665  1.00  0.00     0.031 A 
ATOM     12  C   UNL A   1      42.006  27.450  27.992  1.00  0.00     0.074 A 
ATOM     13  C   UNL A   1      40.140  27.430  29.647  1.00  0.00     0.049 A 
ATOM     14  N   UNL A   1      43.177  27.678  28.488  1.00  0.00    -0.248 NA
ATOM     15  C   UNL A   1      41.896  27.734  26.552  1.00  0.00     0.031 C 
ATOM     16  C   UNL A   1      38.836  27.037  30.185  1.00  0.00     0.029 A 
ATOM     17  N   UNL A   1      40.394  28.603  30.291  1.00  0.00    -0.354 N 
ATOM     18  C   UNL A   1      43.886  28.337  27.488  1.00  0.00     0.074 A 
ATOM     19  C   UNL A   1      43.122  28.180  26.277  1.00  0.00     0.031 C 
ATOM     20  C   UNL A   1      38.309  28.073  30.877  1.00  0.00     0.029 A 
ATOM     21  C   UNL A   1      39.289  29.144  30.942  1.00  0.00     0.049 A 
ATOM     22  H   UNL A   1      41.281  29.032  30.295  1.00  0.00     0.167 HD
ATOM     23  C   UNL A   1      44.888  29.208  27.796  1.00  0.00     0.031 A 
ATOM     24  C   UNL A   1      39.169  30.403  31.436  1.00  0.00     0.031 A 
ATOM     25  C   UNL A   1      45.382  28.997  29.134  1.00  0.00     0.049 A 
ATOM     26  C   UNL A   1      40.530  30.963  31.580  1.00  0.00     0.074 A 
ATOM     27  C   UNL A   1      45.920  27.925  29.820  1.00  0.00     0.029 A 
ATOM     28  N   UNL A   1      44.992  29.898  30.096  1.00  0.00    -0.354 N 
ATOM     29  N   UNL A   1      41.389  30.542  32.461  1.00  0.00    -0.248 NA
ATOM     30  C   UNL A   1      41.093  31.687  30.452  1.00  0.00     0.031 C 
ATOM     31  C   UNL A   1      45.380  28.023  31.137  1.00  0.00     0.029 A 
ATOM     32  C   UNL A   1      44.613  29.188  31.202  1.00  0.00     0.049 A 
ATOM     33  H   UNL A   1      44.987  30.878  30.005  1.00  0.00     0.167 HD
ATOM     34  C   UNL A   1      42.598  30.522  31.782  1.00  0.00     0.074 A 
ATOM     35  C   UNL A   1      42.376  31.338  30.588  1.00  0.00     0.031 C 
ATOM     36  C   UNL A   1      43.564  29.611  32.100  1.00  0.00     0.031 A 
BRANCH  23  37
ATOM     37  C   UNL A   1      45.052  30.535  27.085  1.00  0.00    -0.014 A 
ATOM     38  C   UNL A   1      46.350  30.943  26.722  1.00  0.00     0.009 A 
ATOM     39  C   UNL A   1      44.050  31.525  27.049  1.00  0.00     0.009 A 
ATOM     40  C   UNL A   1      46.645  32.287  26.459  1.00  0.00     0.001 A 
ATOM     41  C   UNL A   1      44.333  32.858  26.741  1.00  0.00     0.001 A 
ATOM     42  C   UNL A   1      45.638  33.246  26.483  1.00  0.00     0.000 A 
ENDBRANCH  23  37
BRANCH  24  43
ATOM     43  C   UNL A   1      37.965  31.261  31.538  1.00  0.00    -0.014 A 
ATOM     44  C   UNL A   1      37.235  31.613  30.390  1.00  0.00     0.009 A 
ATOM     45  C   UNL A   1      37.371  31.504  32.788  1.00  0.00     0.009 A 
ATOM     46  C   UNL A   1      35.941  32.145  30.492  1.00  0.00     0.001 A 
ATOM     47  C   UNL A   1      36.082  32.040  32.890  1.00  0.00     0.001 A 
ATOM     48  C   UNL A   1      35.360  32.345  31.741  1.00  0.00     0.000 A 
ENDBRANCH  24  43
BRANCH  36  49
ATOM     49  C   UNL A   1      43.393  28.807  33.365  1.00  0.00    -0.014 A 
ATOM     50  C   UNL A   1      43.923  29.194  34.609  1.00  0.00     0.009 A 
ATOM     51  C   UNL A   1      42.549  27.688  33.322  1.00  0.00     0.009 A 
ATOM     52  C   UNL A   1      43.646  28.458  35.766  1.00  0.00     0.001 A 
ATOM     53  C   UNL A   1      42.253  26.967  34.480  1.00  0.00     0.001 A 
ATOM     54  C   UNL A   1      42.807  27.347  35.700  1.00  0.00     0.000 A 
ENDBRANCH  36  49
ENDBRANCH  10  11
ENDBRANCH   3   5
ENDBRANCH   2   3
ENDBRANCH   1   2
BRANCH   1  55
ATOM     55  C   UNL A   1      35.869  21.463  25.037  1.00  0.00     0.275 C 
BRANCH  55  56
ATOM     56  O   UNL A   1      35.746  22.894  25.030  1.00  0.00    -0.457 OA
BRANCH  56  57
ATOM     57  C   UNL A   1      34.880  23.428  25.943  1.00  0.00     0.361 C 
ATOM     58  O   UNL A   1      34.636  22.959  27.054  1.00  0.00    -0.244 OA
BRANCH  57  59
ATOM     59  C   UNL A   1      34.143  24.535  25.382  1.00  0.00     0.198 A 
ATOM     60  N   UNL A   1      34.486  25.861  25.470  1.00  0.00    -0.122 NA
ATOM     61  C   UNL A   1      32.992  24.414  24.627  1.00  0.00     0.123 A 
ATOM     62  N   UNL A   1      33.569  26.567  24.811  1.00  0.00    -0.061 NA
ATOM     63  N   UNL A   1      32.586  25.714  24.457  1.00  0.00    -0.213 N 
BRANCH  61  64
ATOM     64  C   UNL A   1      32.316  23.220  24.039  1.00  0.00     0.262 C 
ATOM     65  C   UNL A   1      32.928  22.854  22.681  1.00  0.00     0.281 C 
ATOM     66  O   UNL A   1      32.489  22.177  25.001  1.00  0.00    -0.477 OA
ATOM     67  O   UNL A   1      32.335  21.658  22.160  1.00  0.00    -0.485 OA
ATOM     68  C   UNL A   1      32.461  20.923  24.471  1.00  0.00     0.162 A 
ATOM     69  C   UNL A   1      32.366  20.664  23.103  1.00  0.00     0.161 A 
ATOM     70  C   UNL A   1      32.555  19.876  25.384  1.00  0.00     0.050 A 
ATOM     71  C   UNL A   1      32.303  19.350  22.652  1.00  0.00     0.050 A 
ATOM     72  C   UNL A   1      32.531  18.560  24.930  1.00  0.00     0.004 A 
ATOM     73  C   UNL A   1      32.391  18.297  23.567  1.00  0.00     0.004 A 
ENDBRANCH  61  64
BRANCH  63  74
ATOM     74  C   UNL A   1      31.317  26.131  24.029  1.00  0.00     0.067 A 
ATOM     75  C   UNL A   1      30.181  25.405  24.370  1.00  0.00     0.028 A 
ATOM     76  C   UNL A   1      31.224  27.380  23.398  1.00  0.00     0.041 A 
ATOM     77  C   UNL A   1      28.933  25.996  24.165  1.00  0.00     0.003 A 
ATOM     78  C   UNL A   1      29.980  27.974  23.188  1.00  0.00     0.058 A 
ATOM     79  C   UNL A   1      28.834  27.275  23.594  1.00  0.00     0.013 A 
BRANCH  78  80
ATOM     80  C   UNL A   1      29.893  29.358  22.593  1.00  0.00     0.416 C 
ATOM     81  F   UNL A   1      29.856  30.337  23.535  1.00  0.00    -0.166 F 
ATOM     82  F   UNL A   1      30.955  29.639  21.790  1.00  0.00    -0.166 F 
ATOM     83  F   UNL A   1      28.786  29.539  21.818  1.00  0.00    -0.166 F 
ENDBRANCH  78  80
ENDBRANCH  63  74
ENDBRANCH  57  59
ENDBRANCH  56  57
ENDBRANCH  55  56
ENDBRANCH   1  55
TORSDOF 14
ENDMDL
