MODEL 1
REMARK VINA RESULT:     -11.2      0.000      0.000
REMARK SMILES CC[C@@H](C)N1C(=O)/C(=C/Nc2cccc(C(=O)OCCOC(=O)c3ccc(-c4c5nc(c(-c6ccccc6)c6ccc([nH]6)c(-c6ccccc6)c6nc(c(-c7ccccc7)c7ccc4[nH]7)C=C6)C=C5)cc3)c2)C(=O)NC1=S
REMARK SMILES IDX 19 1 18 2 16 3 17 4 15 5 11 6 12 7 72 8 13 9 14 10 10 11
REMARK SMILES IDX 9 13 5 14 6 15 76 16 7 17 8 18 75 19 77 20 73 21 74 23 3 24
REMARK SMILES IDX 4 25 2 26 1 27 20 28 21 29 22 30 23 31 24 32 25 33 71 34
REMARK SMILES IDX 26 35 70 36 27 37 28 38 29 39 64 40 30 41 69 42 63 43 65 44
REMARK SMILES IDX 31 45 68 46 62 47 61 48 32 50 54 51 39 52 53 53 40 54 43 55
REMARK SMILES IDX 52 56 66 57 41 58 42 59 51 61 67 62 44 63 33 64 34 65 38 66
REMARK SMILES IDX 35 67 37 68 36 69 55 70 56 71 60 72 57 73 59 74 58 75 45 76
REMARK SMILES IDX 46 77 50 78 47 79 49 80 48 81
REMARK H PARENT 10 12 75 22 65 49 43 60
REMARK Flexibility Score: inf
ROOT
ATOM      1  C   UNL A   1      42.094  19.173  26.555  1.00  0.00     0.275 C 
ENDROOT
BRANCH   1   2
ATOM      2  O   UNL A   1      41.753  20.463  26.003  1.00  0.00    -0.458 OA
BRANCH   2   3
ATOM      3  C   UNL A   1      41.563  21.470  26.892  1.00  0.00     0.338 C 
ATOM      4  O   UNL A   1      42.359  21.856  27.733  1.00  0.00    -0.246 OA
BRANCH   3   5
ATOM      5  C   UNL A   1      40.268  22.150  26.637  1.00  0.00     0.062 A 
ATOM      6  C   UNL A   1      38.094  22.263  25.551  1.00  0.00     0.039 A 
ATOM      7  C   UNL A   1      37.883  23.517  26.134  1.00  0.00     0.026 A 
ATOM      8  C   UNL A   1      39.308  21.596  25.790  1.00  0.00     0.041 A 
ATOM      9  C   UNL A   1      38.823  24.061  27.005  1.00  0.00     0.003 A 
ATOM     10  C   UNL A   1      39.992  23.357  27.287  1.00  0.00     0.016 A 
BRANCH   6  11
ATOM     11  N   UNL A   1      37.040  21.656  24.855  1.00  0.00    -0.361 N 
ATOM     12  H   UNL A   1      36.985  20.674  24.880  1.00  0.00     0.166 HD
BRANCH  11  13
ATOM     13  C   UNL A   1      36.078  22.323  24.141  1.00  0.00     0.102 C 
ATOM     14  N   UNL A   1      32.890  23.569  24.166  1.00  0.00    -0.282 N 
ATOM     15  C   UNL A   1      33.966  23.132  23.398  1.00  0.00     0.267 C 
ATOM     16  C   UNL A   1      32.207  22.680  24.997  1.00  0.00     0.183 C 
ATOM     17  O   UNL A   1      34.293  23.573  22.303  1.00  0.00    -0.268 OA
ATOM     18  C   UNL A   1      34.760  22.100  24.076  1.00  0.00     0.121 C 
ATOM     19  N   UNL A   1      32.803  21.455  25.214  1.00  0.00    -0.298 N 
ATOM     20  S   UNL A   1      30.739  22.937  25.764  1.00  0.00    -0.040 S 
ATOM     21  C   UNL A   1      34.080  21.089  24.879  1.00  0.00     0.264 C 
ATOM     22  H   UNL A   1      32.252  20.772  25.659  1.00  0.00     0.172 HD
ATOM     23  O   UNL A   1      34.606  20.054  25.270  1.00  0.00    -0.269 OA
BRANCH  14  24
ATOM     24  C   UNL A   1      32.451  24.976  23.950  1.00  0.00     0.090 C 
ATOM     25  C   UNL A   1      31.832  25.167  22.564  1.00  0.00     0.031 C 
BRANCH  24  26
ATOM     26  C   UNL A   1      33.600  25.979  24.239  1.00  0.00     0.022 C 
ATOM     27  C   UNL A   1      34.179  25.875  25.642  1.00  0.00     0.006 C 
ENDBRANCH  24  26
ENDBRANCH  14  24
ENDBRANCH  11  13
ENDBRANCH   6  11
ENDBRANCH   3   5
ENDBRANCH   2   3
ENDBRANCH   1   2
BRANCH   1  28
ATOM     28  C   UNL A   1      43.283  18.554  25.819  1.00  0.00     0.275 C 
BRANCH  28  29
ATOM     29  O   UNL A   1      43.546  19.283  24.607  1.00  0.00    -0.458 OA
BRANCH  29  30
ATOM     30  C   UNL A   1      44.846  19.551  24.355  1.00  0.00     0.338 C 
ATOM     31  O   UNL A   1      45.701  18.795  23.931  1.00  0.00    -0.246 OA
BRANCH  30  32
ATOM     32  C   UNL A   1      45.100  20.971  24.628  1.00  0.00     0.060 A 
ATOM     33  C   UNL A   1      45.599  21.330  25.876  1.00  0.00     0.016 A 
ATOM     34  C   UNL A   1      44.740  21.950  23.708  1.00  0.00     0.016 A 
ATOM     35  C   UNL A   1      45.664  22.666  26.254  1.00  0.00     0.010 A 
ATOM     36  C   UNL A   1      44.899  23.297  24.050  1.00  0.00     0.010 A 
ATOM     37  C   UNL A   1      45.335  23.669  25.336  1.00  0.00    -0.014 A 
BRANCH  37  38
ATOM     38  C   UNL A   1      45.415  25.106  25.713  1.00  0.00     0.031 A 
ATOM     39  C   UNL A   1      46.733  25.826  25.635  1.00  0.00     0.074 A 
ATOM     40  C   UNL A   1      44.321  25.770  26.136  1.00  0.00     0.049 A 
ATOM     41  N   UNL A   1      47.081  26.979  26.147  1.00  0.00    -0.248 NA
ATOM     42  C   UNL A   1      47.808  25.148  24.891  1.00  0.00     0.031 C 
ATOM     43  C   UNL A   1      42.959  25.234  26.181  1.00  0.00     0.029 A 
ATOM     44  N   UNL A   1      44.188  27.049  26.619  1.00  0.00    -0.354 N 
ATOM     45  C   UNL A   1      48.427  27.136  25.843  1.00  0.00     0.074 A 
ATOM     46  C   UNL A   1      48.833  25.962  25.101  1.00  0.00     0.031 C 
ATOM     47  C   UNL A   1      42.127  26.183  26.636  1.00  0.00     0.029 A 
ATOM     48  C   UNL A   1      42.907  27.356  27.010  1.00  0.00     0.049 A 
ATOM     49  H   UNL A   1      44.937  27.684  26.677  1.00  0.00     0.167 HD
ATOM     50  C   UNL A   1      49.252  28.162  26.164  1.00  0.00     0.031 A 
ATOM     51  C   UNL A   1      42.421  28.433  27.653  1.00  0.00     0.031 A 
ATOM     52  C   UNL A   1      48.834  29.339  26.880  1.00  0.00     0.049 A 
ATOM     53  C   UNL A   1      43.366  29.519  28.079  1.00  0.00     0.074 A 
ATOM     54  C   UNL A   1      49.591  30.432  27.265  1.00  0.00     0.029 A 
ATOM     55  N   UNL A   1      47.536  29.581  27.305  1.00  0.00    -0.354 N 
ATOM     56  N   UNL A   1      44.655  29.621  27.864  1.00  0.00    -0.248 NA
ATOM     57  C   UNL A   1      42.793  30.625  28.858  1.00  0.00     0.031 C 
ATOM     58  C   UNL A   1      48.758  31.317  27.959  1.00  0.00     0.029 A 
ATOM     59  C   UNL A   1      47.473  30.799  27.960  1.00  0.00     0.049 A 
ATOM     60  H   UNL A   1      46.773  28.975  27.162  1.00  0.00     0.167 HD
ATOM     61  C   UNL A   1      45.044  30.813  28.461  1.00  0.00     0.074 A 
ATOM     62  C   UNL A   1      43.853  31.401  29.039  1.00  0.00     0.031 C 
ATOM     63  C   UNL A   1      46.278  31.371  28.522  1.00  0.00     0.031 A 
BRANCH  50  64
ATOM     64  C   UNL A   1      50.702  28.023  25.794  1.00  0.00    -0.014 A 
ATOM     65  C   UNL A   1      51.639  27.462  26.674  1.00  0.00     0.009 A 
ATOM     66  C   UNL A   1      51.135  28.459  24.530  1.00  0.00     0.009 A 
ATOM     67  C   UNL A   1      52.987  27.379  26.313  1.00  0.00     0.001 A 
ATOM     68  C   UNL A   1      52.477  28.348  24.161  1.00  0.00     0.001 A 
ATOM     69  C   UNL A   1      53.404  27.819  25.057  1.00  0.00     0.000 A 
ENDBRANCH  50  64
BRANCH  51  70
ATOM     70  C   UNL A   1      40.973  28.511  27.980  1.00  0.00    -0.014 A 
ATOM     71  C   UNL A   1      40.480  27.927  29.156  1.00  0.00     0.009 A 
ATOM     72  C   UNL A   1      40.081  29.184  27.129  1.00  0.00     0.009 A 
ATOM     73  C   UNL A   1      39.120  28.009  29.468  1.00  0.00     0.001 A 
ATOM     74  C   UNL A   1      38.729  29.288  27.458  1.00  0.00     0.001 A 
ATOM     75  C   UNL A   1      38.248  28.695  28.625  1.00  0.00     0.000 A 
ENDBRANCH  51  70
BRANCH  63  76
ATOM     76  C   UNL A   1      46.390  32.709  29.192  1.00  0.00    -0.014 A 
ATOM     77  C   UNL A   1      46.690  32.819  30.557  1.00  0.00     0.009 A 
ATOM     78  C   UNL A   1      46.230  33.878  28.431  1.00  0.00     0.009 A 
ATOM     79  C   UNL A   1      46.804  34.077  31.154  1.00  0.00     0.001 A 
ATOM     80  C   UNL A   1      46.369  35.132  29.024  1.00  0.00     0.001 A 
ATOM     81  C   UNL A   1      46.649  35.230  30.386  1.00  0.00     0.000 A 
ENDBRANCH  63  76
ENDBRANCH  37  38
ENDBRANCH  30  32
ENDBRANCH  29  30
ENDBRANCH  28  29
ENDBRANCH   1  28
TORSDOF 15
ENDMDL
MODEL 2
REMARK VINA RESULT:     -11.1      7.195     12.331
REMARK SMILES CC[C@@H](C)N1C(=O)/C(=C/Nc2cccc(C(=O)OCCOC(=O)c3ccc(-c4c5nc(c(-c6ccccc6)c6ccc([nH]6)c(-c6ccccc6)c6nc(c(-c7ccccc7)c7ccc4[nH]7)C=C6)C=C5)cc3)c2)C(=O)NC1=S
REMARK SMILES IDX 19 1 18 2 16 3 17 4 15 5 11 6 12 7 72 8 13 9 14 10 10 11
REMARK SMILES IDX 9 13 5 14 6 15 76 16 7 17 8 18 75 19 77 20 73 21 74 23 3 24
REMARK SMILES IDX 4 25 2 26 1 27 20 28 21 29 22 30 23 31 24 32 25 33 71 34
REMARK SMILES IDX 26 35 70 36 27 37 28 38 29 39 64 40 30 41 69 42 63 43 65 44
REMARK SMILES IDX 31 45 68 46 62 47 61 48 32 50 54 51 39 52 53 53 40 54 43 55
REMARK SMILES IDX 52 56 66 57 41 58 42 59 51 61 67 62 44 63 33 64 34 65 38 66
REMARK SMILES IDX 35 67 37 68 36 69 55 70 56 71 60 72 57 73 59 74 58 75 45 76
REMARK SMILES IDX 46 77 50 78 47 79 49 80 48 81
REMARK H PARENT 10 12 75 22 65 49 43 60
REMARK Flexibility Score: inf
ROOT
ATOM      1  C   UNL A   1      33.962  35.346  28.966  1.00  0.00     0.275 C 
ENDROOT
BRANCH   1   2
ATOM      2  O   UNL A   1      33.907  33.917  28.768  1.00  0.00    -0.458 OA
BRANCH   2   3
ATOM      3  C   UNL A   1      35.080  33.301  28.477  1.00  0.00     0.338 C 
ATOM      4  O   UNL A   1      36.200  33.759  28.642  1.00  0.00    -0.246 OA
BRANCH   3   5
ATOM      5  C   UNL A   1      34.839  31.909  28.025  1.00  0.00     0.062 A 
ATOM      6  C   UNL A   1      33.345  30.123  27.317  1.00  0.00     0.039 A 
ATOM      7  C   UNL A   1      34.437  29.252  27.255  1.00  0.00     0.026 A 
ATOM      8  C   UNL A   1      33.554  31.450  27.730  1.00  0.00     0.041 A 
ATOM      9  C   UNL A   1      35.726  29.711  27.517  1.00  0.00     0.003 A 
ATOM     10  C   UNL A   1      35.927  31.046  27.859  1.00  0.00     0.016 A 
BRANCH   6  11
ATOM     11  N   UNL A   1      32.102  29.683  26.842  1.00  0.00    -0.361 N 
ATOM     12  H   UNL A   1      31.430  30.368  26.625  1.00  0.00     0.166 HD
BRANCH  11  13
ATOM     13  C   UNL A   1      31.748  28.371  26.657  1.00  0.00     0.102 C 
ATOM     14  N   UNL A   1      31.698  25.735  24.474  1.00  0.00    -0.282 N 
ATOM     15  C   UNL A   1      31.153  26.314  25.617  1.00  0.00     0.267 C 
ATOM     16  C   UNL A   1      31.554  26.353  23.231  1.00  0.00     0.183 C 
ATOM     17  O   UNL A   1      30.726  25.710  26.595  1.00  0.00    -0.268 OA
ATOM     18  C   UNL A   1      31.205  27.780  25.586  1.00  0.00     0.121 C 
ATOM     19  N   UNL A   1      31.096  27.654  23.238  1.00  0.00    -0.298 N 
ATOM     20  S   UNL A   1      31.878  25.689  21.727  1.00  0.00    -0.040 S 
ATOM     21  C   UNL A   1      30.964  28.476  24.326  1.00  0.00     0.264 C 
ATOM     22  H   UNL A   1      30.837  28.033  22.367  1.00  0.00     0.172 HD
ATOM     23  O   UNL A   1      30.733  29.676  24.236  1.00  0.00    -0.269 OA
BRANCH  14  24
ATOM     24  C   UNL A   1      32.314  24.389  24.643  1.00  0.00     0.090 C 
ATOM     25  C   UNL A   1      31.253  23.301  24.813  1.00  0.00     0.031 C 
BRANCH  24  26
ATOM     26  C   UNL A   1      33.367  24.387  25.784  1.00  0.00     0.022 C 
ATOM     27  C   UNL A   1      34.645  25.144  25.454  1.00  0.00     0.006 C 
ENDBRANCH  24  26
ENDBRANCH  14  24
ENDBRANCH  11  13
ENDBRANCH   6  11
ENDBRANCH   3   5
ENDBRANCH   2   3
ENDBRANCH   1   2
BRANCH   1  28
ATOM     28  C   UNL A   1      32.676  35.864  29.611  1.00  0.00     0.275 C 
BRANCH  28  29
ATOM     29  O   UNL A   1      32.985  36.587  30.815  1.00  0.00    -0.458 OA
BRANCH  29  30
ATOM     30  C   UNL A   1      32.575  36.010  31.966  1.00  0.00     0.338 C 
ATOM     31  O   UNL A   1      31.480  36.076  32.493  1.00  0.00    -0.246 OA
BRANCH  30  32
ATOM     32  C   UNL A   1      33.675  35.201  32.509  1.00  0.00     0.060 A 
ATOM     33  C   UNL A   1      34.954  35.746  32.527  1.00  0.00     0.016 A 
ATOM     34  C   UNL A   1      33.468  33.878  32.885  1.00  0.00     0.016 A 
ATOM     35  C   UNL A   1      36.055  34.955  32.839  1.00  0.00     0.010 A 
ATOM     36  C   UNL A   1      34.563  33.109  33.295  1.00  0.00     0.010 A 
ATOM     37  C   UNL A   1      35.871  33.630  33.248  1.00  0.00    -0.014 A 
BRANCH  37  38
ATOM     38  C   UNL A   1      37.032  32.771  33.604  1.00  0.00     0.031 A 
ATOM     39  C   UNL A   1      37.714  32.950  34.933  1.00  0.00     0.074 A 
ATOM     40  C   UNL A   1      37.490  31.841  32.744  1.00  0.00     0.049 A 
ATOM     41  N   UNL A   1      38.875  32.502  35.337  1.00  0.00    -0.248 NA
ATOM     42  C   UNL A   1      36.996  33.756  35.935  1.00  0.00     0.031 C 
ATOM     43  C   UNL A   1      36.881  31.489  31.459  1.00  0.00     0.029 A 
ATOM     44  N   UNL A   1      38.589  31.020  32.823  1.00  0.00    -0.354 N 
ATOM     45  C   UNL A   1      39.055  33.020  36.614  1.00  0.00     0.074 A 
ATOM     46  C   UNL A   1      37.884  33.815  36.917  1.00  0.00     0.031 C 
ATOM     47  C   UNL A   1      37.596  30.509  30.887  1.00  0.00     0.029 A 
ATOM     48  C   UNL A   1      38.766  30.233  31.711  1.00  0.00     0.049 A 
ATOM     49  H   UNL A   1      39.189  30.996  33.603  1.00  0.00     0.167 HD
ATOM     50  C   UNL A   1      40.108  32.856  37.451  1.00  0.00     0.031 A 
ATOM     51  C   UNL A   1      39.783  29.426  31.361  1.00  0.00     0.031 A 
ATOM     52  C   UNL A   1      41.257  32.042  37.152  1.00  0.00     0.049 A 
ATOM     53  C   UNL A   1      40.981  29.326  32.262  1.00  0.00     0.074 A 
ATOM     54  C   UNL A   1      42.382  31.816  37.926  1.00  0.00     0.029 A 
ATOM     55  N   UNL A   1      41.417  31.307  35.987  1.00  0.00    -0.354 N 
ATOM     56  N   UNL A   1      41.184  29.887  33.429  1.00  0.00    -0.248 NA
ATOM     57  C   UNL A   1      42.100  28.502  31.783  1.00  0.00     0.031 C 
ATOM     58  C   UNL A   1      43.242  30.975  37.210  1.00  0.00     0.029 A 
ATOM     59  C   UNL A   1      42.629  30.637  36.015  1.00  0.00     0.049 A 
ATOM     60  H   UNL A   1      40.766  31.267  35.250  1.00  0.00     0.167 HD
ATOM     61  C   UNL A   1      42.442  29.466  33.836  1.00  0.00     0.074 A 
ATOM     62  C   UNL A   1      42.952  28.597  32.795  1.00  0.00     0.031 C 
ATOM     63  C   UNL A   1      43.116  29.771  34.973  1.00  0.00     0.031 A 
BRANCH  50  64
ATOM     64  C   UNL A   1      40.086  33.622  38.744  1.00  0.00    -0.014 A 
ATOM     65  C   UNL A   1      39.531  33.081  39.913  1.00  0.00     0.009 A 
ATOM     66  C   UNL A   1      40.641  34.912  38.790  1.00  0.00     0.009 A 
ATOM     67  C   UNL A   1      39.495  33.832  41.091  1.00  0.00     0.001 A 
ATOM     68  C   UNL A   1      40.629  35.648  39.976  1.00  0.00     0.001 A 
ATOM     69  C   UNL A   1      40.046  35.113  41.123  1.00  0.00     0.000 A 
ENDBRANCH  50  64
BRANCH  51  70
ATOM     70  C   UNL A   1      39.736  28.688  30.072  1.00  0.00    -0.014 A 
ATOM     71  C   UNL A   1      40.113  29.321  28.879  1.00  0.00     0.009 A 
ATOM     72  C   UNL A   1      39.331  27.344  30.029  1.00  0.00     0.009 A 
ATOM     73  C   UNL A   1      40.077  28.625  27.667  1.00  0.00     0.001 A 
ATOM     74  C   UNL A   1      39.324  26.643  28.823  1.00  0.00     0.001 A 
ATOM     75  C   UNL A   1      39.691  27.286  27.641  1.00  0.00     0.000 A 
ENDBRANCH  51  70
BRANCH  63  76
ATOM     76  C   UNL A   1      44.451  29.117  35.172  1.00  0.00    -0.014 A 
ATOM     77  C   UNL A   1      45.639  29.751  34.780  1.00  0.00     0.009 A 
ATOM     78  C   UNL A   1      44.519  27.863  35.800  1.00  0.00     0.009 A 
ATOM     79  C   UNL A   1      46.872  29.127  34.991  1.00  0.00     0.001 A 
ATOM     80  C   UNL A   1      45.752  27.254  36.031  1.00  0.00     0.001 A 
ATOM     81  C   UNL A   1      46.926  27.884  35.620  1.00  0.00     0.000 A 
ENDBRANCH  63  76
ENDBRANCH  37  38
ENDBRANCH  30  32
ENDBRANCH  29  30
ENDBRANCH  28  29
ENDBRANCH   1  28
TORSDOF 15
ENDMDL
MODEL 3
REMARK VINA RESULT:     -10.9      4.214      6.303
REMARK SMILES CC[C@@H](C)N1C(=O)/C(=C/Nc2cccc(C(=O)OCCOC(=O)c3ccc(-c4c5nc(c(-c6ccccc6)c6ccc([nH]6)c(-c6ccccc6)c6nc(c(-c7ccccc7)c7ccc4[nH]7)C=C6)C=C5)cc3)c2)C(=O)NC1=S
REMARK SMILES IDX 19 1 18 2 16 3 17 4 15 5 11 6 12 7 72 8 13 9 14 10 10 11
REMARK SMILES IDX 9 13 5 14 6 15 76 16 7 17 8 18 75 19 77 20 73 21 74 23 3 24
REMARK SMILES IDX 4 25 2 26 1 27 20 28 21 29 22 30 23 31 24 32 25 33 71 34
REMARK SMILES IDX 26 35 70 36 27 37 28 38 29 39 64 40 30 41 69 42 63 43 65 44
REMARK SMILES IDX 31 45 68 46 62 47 61 48 32 50 54 51 39 52 53 53 40 54 43 55
REMARK SMILES IDX 52 56 66 57 41 58 42 59 51 61 67 62 44 63 33 64 34 65 38 66
REMARK SMILES IDX 35 67 37 68 36 69 55 70 56 71 60 72 57 73 59 74 58 75 45 76
REMARK SMILES IDX 46 77 50 78 47 79 49 80 48 81
REMARK H PARENT 10 12 75 22 65 49 43 60
REMARK Flexibility Score: inf
ROOT
ATOM      1  C   UNL A   1      42.840  20.543  26.072  1.00  0.00     0.275 C 
ENDROOT
BRANCH   1   2
ATOM      2  O   UNL A   1      41.428  20.637  25.780  1.00  0.00    -0.458 OA
BRANCH   2   3
ATOM      3  C   UNL A   1      40.616  20.956  26.818  1.00  0.00     0.338 C 
ATOM      4  O   UNL A   1      40.768  20.632  27.985  1.00  0.00    -0.246 OA
BRANCH   3   5
ATOM      5  C   UNL A   1      39.541  21.878  26.373  1.00  0.00     0.062 A 
ATOM      6  C   UNL A   1      37.587  22.380  25.013  1.00  0.00     0.039 A 
ATOM      7  C   UNL A   1      37.591  23.686  25.515  1.00  0.00     0.026 A 
ATOM      8  C   UNL A   1      38.588  21.487  25.432  1.00  0.00     0.041 A 
ATOM      9  C   UNL A   1      38.519  24.074  26.478  1.00  0.00     0.003 A 
ATOM     10  C   UNL A   1      39.463  23.157  26.934  1.00  0.00     0.016 A 
BRANCH   6  11
ATOM     11  N   UNL A   1      36.514  21.967  24.212  1.00  0.00    -0.361 N 
ATOM     12  H   UNL A   1      36.431  21.004  24.026  1.00  0.00     0.166 HD
BRANCH  11  13
ATOM     13  C   UNL A   1      35.571  22.799  23.666  1.00  0.00     0.102 C 
ATOM     14  N   UNL A   1      32.655  24.509  24.202  1.00  0.00    -0.282 N 
ATOM     15  C   UNL A   1      33.523  23.945  23.270  1.00  0.00     0.267 C 
ATOM     16  C   UNL A   1      31.976  23.702  25.114  1.00  0.00     0.183 C 
ATOM     17  O   UNL A   1      33.746  24.374  22.144  1.00  0.00    -0.268 OA
ATOM     18  C   UNL A   1      34.240  22.780  23.801  1.00  0.00     0.121 C 
ATOM     19  N   UNL A   1      32.400  22.393  25.217  1.00  0.00    -0.298 N 
ATOM     20  S   UNL A   1      30.697  24.146  26.102  1.00  0.00    -0.040 S 
ATOM     21  C   UNL A   1      33.540  21.852  24.683  1.00  0.00     0.264 C 
ATOM     22  H   UNL A   1      31.823  21.783  25.731  1.00  0.00     0.172 HD
ATOM     23  O   UNL A   1      33.952  20.735  24.973  1.00  0.00    -0.269 OA
BRANCH  14  24
ATOM     24  C   UNL A   1      32.412  25.974  24.078  1.00  0.00     0.090 C 
ATOM     25  C   UNL A   1      31.613  26.308  22.817  1.00  0.00     0.031 C 
BRANCH  24  26
ATOM     26  C   UNL A   1      33.735  26.778  24.183  1.00  0.00     0.022 C 
ATOM     27  C   UNL A   1      33.685  27.934  25.172  1.00  0.00     0.006 C 
ENDBRANCH  24  26
ENDBRANCH  14  24
ENDBRANCH  11  13
ENDBRANCH   6  11
ENDBRANCH   3   5
ENDBRANCH   2   3
ENDBRANCH   1   2
BRANCH   1  28
ATOM     28  C   UNL A   1      43.668  21.324  25.051  1.00  0.00     0.275 C 
BRANCH  28  29
ATOM     29  O   UNL A   1      43.032  22.580  24.759  1.00  0.00    -0.458 OA
BRANCH  29  30
ATOM     30  C   UNL A   1      43.821  23.673  24.857  1.00  0.00     0.338 C 
ATOM     31  O   UNL A   1      44.834  23.927  24.233  1.00  0.00    -0.246 OA
BRANCH  30  32
ATOM     32  C   UNL A   1      43.234  24.595  25.837  1.00  0.00     0.060 A 
ATOM     33  C   UNL A   1      43.267  25.959  25.570  1.00  0.00     0.016 A 
ATOM     34  C   UNL A   1      42.762  24.129  27.061  1.00  0.00     0.016 A 
ATOM     35  C   UNL A   1      42.911  26.880  26.550  1.00  0.00     0.010 A 
ATOM     36  C   UNL A   1      42.310  25.051  28.011  1.00  0.00     0.010 A 
ATOM     37  C   UNL A   1      42.407  26.437  27.776  1.00  0.00    -0.014 A 
BRANCH  37  38
ATOM     38  C   UNL A   1      42.003  27.404  28.832  1.00  0.00     0.031 A 
ATOM     39  C   UNL A   1      42.851  27.561  30.065  1.00  0.00     0.074 A 
ATOM     40  C   UNL A   1      40.877  28.133  28.705  1.00  0.00     0.049 A 
ATOM     41  N   UNL A   1      42.562  28.139  31.203  1.00  0.00    -0.248 NA
ATOM     42  C   UNL A   1      44.200  26.973  30.012  1.00  0.00     0.031 C 
ATOM     43  C   UNL A   1      40.001  28.157  27.531  1.00  0.00     0.029 A 
ATOM     44  N   UNL A   1      40.273  28.998  29.585  1.00  0.00    -0.354 N 
ATOM     45  C   UNL A   1      43.666  27.932  32.021  1.00  0.00     0.074 A 
ATOM     46  C   UNL A   1      44.630  27.177  31.249  1.00  0.00     0.031 C 
ATOM     47  C   UNL A   1      38.992  29.013  27.753  1.00  0.00     0.029 A 
ATOM     48  C   UNL A   1      39.091  29.518  29.116  1.00  0.00     0.049 A 
ATOM     49  H   UNL A   1      40.651  29.224  30.465  1.00  0.00     0.167 HD
ATOM     50  C   UNL A   1      43.852  28.327  33.304  1.00  0.00     0.031 A 
ATOM     51  C   UNL A   1      38.159  30.269  29.730  1.00  0.00     0.031 A 
ATOM     52  C   UNL A   1      42.900  29.102  34.056  1.00  0.00     0.049 A 
ATOM     53  C   UNL A   1      38.342  30.622  31.178  1.00  0.00     0.074 A 
ATOM     54  C   UNL A   1      42.986  29.546  35.364  1.00  0.00     0.029 A 
ATOM     55  N   UNL A   1      41.690  29.559  33.556  1.00  0.00    -0.354 N 
ATOM     56  N   UNL A   1      39.348  30.350  31.973  1.00  0.00    -0.248 NA
ATOM     57  C   UNL A   1      37.247  31.364  31.820  1.00  0.00     0.031 C 
ATOM     58  C   UNL A   1      41.809  30.238  35.668  1.00  0.00     0.029 A 
ATOM     59  C   UNL A   1      41.014  30.270  34.533  1.00  0.00     0.049 A 
ATOM     60  H   UNL A   1      41.360  29.402  32.641  1.00  0.00     0.167 HD
ATOM     61  C   UNL A   1      39.021  30.906  33.201  1.00  0.00     0.074 A 
ATOM     62  C   UNL A   1      37.726  31.538  33.045  1.00  0.00     0.031 C 
ATOM     63  C   UNL A   1      39.730  30.897  34.356  1.00  0.00     0.031 A 
BRANCH  50  64
ATOM     64  C   UNL A   1      45.111  27.874  33.989  1.00  0.00    -0.014 A 
ATOM     65  C   UNL A   1      45.165  26.676  34.718  1.00  0.00     0.009 A 
ATOM     66  C   UNL A   1      46.269  28.664  33.894  1.00  0.00     0.009 A 
ATOM     67  C   UNL A   1      46.342  26.301  35.372  1.00  0.00     0.001 A 
ATOM     68  C   UNL A   1      47.451  28.271  34.525  1.00  0.00     0.001 A 
ATOM     69  C   UNL A   1      47.483  27.096  35.273  1.00  0.00     0.000 A 
ENDBRANCH  50  64
BRANCH  51  70
ATOM     70  C   UNL A   1      36.941  30.692  28.991  1.00  0.00    -0.014 A 
ATOM     71  C   UNL A   1      36.785  32.026  28.588  1.00  0.00     0.009 A 
ATOM     72  C   UNL A   1      35.938  29.763  28.669  1.00  0.00     0.009 A 
ATOM     73  C   UNL A   1      35.644  32.423  27.884  1.00  0.00     0.001 A 
ATOM     74  C   UNL A   1      34.814  30.156  27.942  1.00  0.00     0.001 A 
ATOM     75  C   UNL A   1      34.664  31.487  27.555  1.00  0.00     0.000 A 
ENDBRANCH  51  70
BRANCH  63  76
ATOM     76  C   UNL A   1      39.145  31.636  35.524  1.00  0.00    -0.014 A 
ATOM     77  C   UNL A   1      39.441  32.988  35.753  1.00  0.00     0.009 A 
ATOM     78  C   UNL A   1      38.253  30.976  36.383  1.00  0.00     0.009 A 
ATOM     79  C   UNL A   1      38.872  33.658  36.838  1.00  0.00     0.001 A 
ATOM     80  C   UNL A   1      37.668  31.654  37.452  1.00  0.00     0.001 A 
ATOM     81  C   UNL A   1      37.983  32.993  37.682  1.00  0.00     0.000 A 
ENDBRANCH  63  76
ENDBRANCH  37  38
ENDBRANCH  30  32
ENDBRANCH  29  30
ENDBRANCH  28  29
ENDBRANCH   1  28
TORSDOF 15
ENDMDL
