MODEL 1
REMARK VINA RESULT:     -10.6      0.000      0.000
REMARK SMILES CC(C)C[C@H](NC(=O)[C@H](Cc1ccccc1)NC(=O)CNC(=O)C[NH3+])C(=O)OCCOC(=O)c1ccc(-c2c3nc(c(-c4ccccc4)c4ccc([nH]4)c(-c4ccccc4)c4nc(c(-c5ccccc5)c5ccc2[nH]5)C=C4)C=C3)cc1
REMARK SMILES IDX 26 1 27 2 5 3 4 4 2 5 1 6 3 7 6 8 7 9 8 11 9 12 17 13 18 14
REMARK SMILES IDX 19 16 20 17 21 18 22 19 23 21 24 22 25 23 10 27 11 28 12 29
REMARK SMILES IDX 16 30 13 31 15 32 14 33 28 34 29 35 30 36 31 37 32 38 33 39
REMARK SMILES IDX 34 40 35 41 81 42 36 43 80 44 37 45 38 46 39 47 74 48 40 49
REMARK SMILES IDX 79 50 73 51 75 52 41 53 78 54 72 55 71 56 42 58 64 59 49 60
REMARK SMILES IDX 63 61 50 62 53 63 62 64 76 65 51 66 52 67 61 69 77 70 54 71
REMARK SMILES IDX 43 72 44 73 48 74 45 75 47 76 46 77 65 78 66 79 70 80 67 81
REMARK SMILES IDX 69 82 68 83 55 84 56 85 60 86 57 87 59 88 58 89
REMARK H PARENT 6 10 17 15 21 20 25 24 25 25 25 26 75 57 53 68
REMARK Flexibility Score: inf
ROOT
ATOM      1  C   UNL A   1      31.444  27.278  26.320  1.00  0.00     0.328 C 
ATOM      2  O   UNL A   1      31.653  27.538  27.500  1.00  0.00    -0.250 OA
ENDROOT
BRANCH   1   3
ATOM      3  C   UNL A   1      31.582  25.859  25.766  1.00  0.00     0.192 C 
BRANCH   3   4
ATOM      4  C   UNL A   1      31.206  25.774  24.266  1.00  0.00     0.040 C 
BRANCH   4   5
ATOM      5  C   UNL A   1      32.278  25.449  23.195  1.00  0.00    -0.015 C 
ATOM      6  C   UNL A   1      31.768  25.604  21.754  1.00  0.00     0.007 C 
ATOM      7  C   UNL A   1      33.458  26.420  23.365  1.00  0.00     0.007 C 
ENDBRANCH   4   5
ENDBRANCH   3   4
BRANCH   3   8
ATOM      8  N   UNL A   1      30.868  24.859  26.568  1.00  0.00    -0.341 N 
ATOM      9  C   UNL A   1      31.079  23.527  26.806  1.00  0.00     0.243 C 
ATOM     10  H   UNL A   1      30.077  25.219  27.029  1.00  0.00     0.164 HD
ATOM     11  O   UNL A   1      30.251  22.994  27.556  1.00  0.00    -0.273 OA
BRANCH   9  12
ATOM     12  C   UNL A   1      32.182  22.659  26.091  1.00  0.00     0.175 C 
BRANCH  12  13
ATOM     13  N   UNL A   1      31.826  22.229  24.735  1.00  0.00    -0.342 N 
ATOM     14  C   UNL A   1      32.247  21.085  24.105  1.00  0.00     0.240 C 
ATOM     15  H   UNL A   1      31.225  22.820  24.226  1.00  0.00     0.164 HD
ATOM     16  O   UNL A   1      32.341  21.085  22.877  1.00  0.00    -0.273 OA
BRANCH  14  17
ATOM     17  C   UNL A   1      32.691  19.864  24.921  1.00  0.00     0.216 C 
BRANCH  17  18
ATOM     18  N   UNL A   1      33.327  18.830  24.131  1.00  0.00    -0.342 N 
ATOM     19  C   UNL A   1      33.405  17.489  24.375  1.00  0.00     0.275 C 
ATOM     20  H   UNL A   1      33.761  19.137  23.302  1.00  0.00     0.164 HD
ATOM     21  O   UNL A   1      34.129  16.797  23.657  1.00  0.00    -0.268 OA
BRANCH  19  22
ATOM     22  C   UNL A   1      32.620  16.860  25.533  1.00  0.00     0.360 C 
BRANCH  22  23
ATOM     23  N   UNL A   1      32.186  15.501  25.185  1.00  0.00    -0.350 N 
ATOM     24  H   UNL A   1      32.125  14.936  26.032  1.00  0.00     0.344 HD
ATOM     25  H   UNL A   1      32.860  15.082  24.545  1.00  0.00     0.344 HD
ATOM     26  H   UNL A   1      31.270  15.540  24.737  1.00  0.00     0.344 HD
ENDBRANCH  22  23
ENDBRANCH  19  22
ENDBRANCH  17  18
ENDBRANCH  14  17
ENDBRANCH  12  13
BRANCH  12  27
ATOM     27  C   UNL A   1      33.536  23.458  26.105  1.00  0.00     0.070 C 
BRANCH  27  28
ATOM     28  C   UNL A   1      34.835  22.960  25.479  1.00  0.00    -0.045 A 
ATOM     29  C   UNL A   1      35.670  21.981  26.015  1.00  0.00     0.004 A 
ATOM     30  C   UNL A   1      35.224  23.505  24.240  1.00  0.00     0.004 A 
ATOM     31  C   UNL A   1      36.824  21.537  25.357  1.00  0.00     0.000 A 
ATOM     32  C   UNL A   1      36.380  23.072  23.575  1.00  0.00     0.000 A 
ATOM     33  C   UNL A   1      37.179  22.081  24.134  1.00  0.00     0.000 A 
ENDBRANCH  27  28
ENDBRANCH  12  27
ENDBRANCH   9  12
ENDBRANCH   3   8
ENDBRANCH   1   3
BRANCH   1  34
ATOM     34  O   UNL A   1      31.202  28.205  25.350  1.00  0.00    -0.461 OA
BRANCH  34  35
ATOM     35  C   UNL A   1      32.194  29.244  25.231  1.00  0.00     0.274 C 
BRANCH  35  36
ATOM     36  C   UNL A   1      31.720  30.593  25.782  1.00  0.00     0.275 C 
BRANCH  36  37
ATOM     37  O   UNL A   1      32.158  30.816  27.134  1.00  0.00    -0.458 OA
BRANCH  37  38
ATOM     38  C   UNL A   1      32.869  31.954  27.313  1.00  0.00     0.338 C 
ATOM     39  O   UNL A   1      32.456  33.098  27.251  1.00  0.00    -0.246 OA
BRANCH  38  40
ATOM     40  C   UNL A   1      34.215  31.630  27.810  1.00  0.00     0.060 A 
ATOM     41  C   UNL A   1      34.466  30.293  28.117  1.00  0.00     0.016 A 
ATOM     42  C   UNL A   1      35.177  32.607  28.065  1.00  0.00     0.016 A 
ATOM     43  C   UNL A   1      35.675  29.924  28.686  1.00  0.00     0.010 A 
ATOM     44  C   UNL A   1      36.389  32.233  28.663  1.00  0.00     0.010 A 
ATOM     45  C   UNL A   1      36.632  30.888  28.993  1.00  0.00    -0.014 A 
BRANCH  45  46
ATOM     46  C   UNL A   1      37.800  30.474  29.805  1.00  0.00     0.031 A 
ATOM     47  C   UNL A   1      38.876  29.651  29.158  1.00  0.00     0.074 A 
ATOM     48  C   UNL A   1      37.967  30.929  31.060  1.00  0.00     0.049 A 
ATOM     49  N   UNL A   1      39.916  29.073  29.698  1.00  0.00    -0.248 NA
ATOM     50  C   UNL A   1      38.766  29.462  27.702  1.00  0.00     0.031 C 
ATOM     51  C   UNL A   1      37.078  31.866  31.750  1.00  0.00     0.029 A 
ATOM     52  N   UNL A   1      38.960  30.676  31.971  1.00  0.00    -0.354 N 
ATOM     53  C   UNL A   1      40.561  28.416  28.657  1.00  0.00     0.074 A 
ATOM     54  C   UNL A   1      39.800  28.670  27.454  1.00  0.00     0.031 C 
ATOM     55  C   UNL A   1      37.575  32.118  32.972  1.00  0.00     0.029 A 
ATOM     56  C   UNL A   1      38.773  31.308  33.176  1.00  0.00     0.049 A 
ATOM     57  H   UNL A   1      39.733  30.098  31.780  1.00  0.00     0.167 HD
ATOM     58  C   UNL A   1      41.682  27.660  28.708  1.00  0.00     0.031 A 
ATOM     59  C   UNL A   1      39.468  31.210  34.325  1.00  0.00     0.031 A 
ATOM     60  C   UNL A   1      42.444  27.431  29.904  1.00  0.00     0.049 A 
ATOM     61  C   UNL A   1      40.646  30.277  34.387  1.00  0.00     0.074 A 
ATOM     62  C   UNL A   1      43.566  26.639  30.078  1.00  0.00     0.029 A 
ATOM     63  N   UNL A   1      42.168  28.013  31.132  1.00  0.00    -0.354 N 
ATOM     64  N   UNL A   1      41.185  29.562  33.429  1.00  0.00    -0.248 NA
ATOM     65  C   UNL A   1      41.298  30.122  35.695  1.00  0.00     0.031 C 
ATOM     66  C   UNL A   1      43.944  26.711  31.423  1.00  0.00     0.029 A 
ATOM     67  C   UNL A   1      43.088  27.586  32.073  1.00  0.00     0.049 A 
ATOM     68  H   UNL A   1      41.429  28.638  31.308  1.00  0.00     0.167 HD
ATOM     69  C   UNL A   1      42.246  28.883  34.013  1.00  0.00     0.074 A 
ATOM     70  C   UNL A   1      42.286  29.286  35.405  1.00  0.00     0.031 C 
ATOM     71  C   UNL A   1      43.107  28.000  33.452  1.00  0.00     0.031 A 
BRANCH  58  72
ATOM     72  C   UNL A   1      42.100  26.968  27.443  1.00  0.00    -0.014 A 
ATOM     73  C   UNL A   1      42.987  27.563  26.534  1.00  0.00     0.009 A 
ATOM     74  C   UNL A   1      41.596  25.687  27.164  1.00  0.00     0.009 A 
ATOM     75  C   UNL A   1      43.336  26.901  25.354  1.00  0.00     0.001 A 
ATOM     76  C   UNL A   1      41.966  25.017  25.996  1.00  0.00     0.001 A 
ATOM     77  C   UNL A   1      42.829  25.628  25.088  1.00  0.00     0.000 A 
ENDBRANCH  58  72
BRANCH  59  78
ATOM     78  C   UNL A   1      39.024  31.956  35.531  1.00  0.00    -0.014 A 
ATOM     79  C   UNL A   1      38.156  31.369  36.463  1.00  0.00     0.009 A 
ATOM     80  C   UNL A   1      39.459  33.275  35.748  1.00  0.00     0.009 A 
ATOM     81  C   UNL A   1      37.720  32.092  37.578  1.00  0.00     0.001 A 
ATOM     82  C   UNL A   1      39.045  33.984  36.878  1.00  0.00     0.001 A 
ATOM     83  C   UNL A   1      38.170  33.395  37.786  1.00  0.00     0.000 A 
ENDBRANCH  59  78
BRANCH  71  84
ATOM     84  C   UNL A   1      44.179  27.434  34.336  1.00  0.00    -0.014 A 
ATOM     85  C   UNL A   1      45.408  28.093  34.498  1.00  0.00     0.009 A 
ATOM     86  C   UNL A   1      43.939  26.249  35.049  1.00  0.00     0.009 A 
ATOM     87  C   UNL A   1      46.387  27.558  35.336  1.00  0.00     0.001 A 
ATOM     88  C   UNL A   1      44.911  25.731  35.905  1.00  0.00     0.001 A 
ATOM     89  C   UNL A   1      46.137  26.380  36.042  1.00  0.00     0.000 A 
ENDBRANCH  71  84
ENDBRANCH  45  46
ENDBRANCH  38  40
ENDBRANCH  37  38
ENDBRANCH  36  37
ENDBRANCH  35  36
ENDBRANCH  34  35
ENDBRANCH   1  34
TORSDOF 22
ENDMDL
MODEL 2
REMARK VINA RESULT:     -10.6      3.630      7.680
REMARK SMILES CC(C)C[C@H](NC(=O)[C@H](Cc1ccccc1)NC(=O)CNC(=O)C[NH3+])C(=O)OCCOC(=O)c1ccc(-c2c3nc(c(-c4ccccc4)c4ccc([nH]4)c(-c4ccccc4)c4nc(c(-c5ccccc5)c5ccc2[nH]5)C=C4)C=C3)cc1
REMARK SMILES IDX 26 1 27 2 5 3 4 4 2 5 1 6 3 7 6 8 7 9 8 11 9 12 17 13 18 14
REMARK SMILES IDX 19 16 20 17 21 18 22 19 23 21 24 22 25 23 10 27 11 28 12 29
REMARK SMILES IDX 16 30 13 31 15 32 14 33 28 34 29 35 30 36 31 37 32 38 33 39
REMARK SMILES IDX 34 40 35 41 81 42 36 43 80 44 37 45 38 46 39 47 74 48 40 49
REMARK SMILES IDX 79 50 73 51 75 52 41 53 78 54 72 55 71 56 42 58 64 59 49 60
REMARK SMILES IDX 63 61 50 62 53 63 62 64 76 65 51 66 52 67 61 69 77 70 54 71
REMARK SMILES IDX 43 72 44 73 48 74 45 75 47 76 46 77 65 78 66 79 70 80 67 81
REMARK SMILES IDX 69 82 68 83 55 84 56 85 60 86 57 87 59 88 58 89
REMARK H PARENT 6 10 17 15 21 20 25 24 25 25 25 26 75 57 53 68
REMARK Flexibility Score: inf
ROOT
ATOM      1  C   UNL A   1      35.695  23.230  23.730  1.00  0.00     0.328 C 
ATOM      2  O   UNL A   1      36.430  23.233  22.747  1.00  0.00    -0.250 OA
ENDROOT
BRANCH   1   3
ATOM      3  C   UNL A   1      34.280  23.809  23.686  1.00  0.00     0.192 C 
BRANCH   3   4
ATOM      4  C   UNL A   1      33.203  22.758  24.047  1.00  0.00     0.040 C 
BRANCH   4   5
ATOM      5  C   UNL A   1      32.535  22.755  25.446  1.00  0.00    -0.015 C 
ATOM      6  C   UNL A   1      33.065  23.855  26.378  1.00  0.00     0.007 C 
ATOM      7  C   UNL A   1      31.026  22.994  25.275  1.00  0.00     0.007 C 
ENDBRANCH   4   5
ENDBRANCH   3   4
BRANCH   3   8
ATOM      8  N   UNL A   1      33.980  24.489  22.420  1.00  0.00    -0.341 N 
ATOM      9  C   UNL A   1      33.348  25.666  22.118  1.00  0.00     0.243 C 
ATOM     10  H   UNL A   1      34.296  24.000  21.627  1.00  0.00     0.164 HD
ATOM     11  O   UNL A   1      33.279  25.926  20.910  1.00  0.00    -0.273 OA
BRANCH   9  12
ATOM     12  C   UNL A   1      32.619  26.581  23.173  1.00  0.00     0.175 C 
BRANCH  12  13
ATOM     13  N   UNL A   1      31.387  26.006  23.722  1.00  0.00    -0.342 N 
ATOM     14  C   UNL A   1      30.176  26.638  23.845  1.00  0.00     0.240 C 
ATOM     15  H   UNL A   1      31.435  25.073  24.033  1.00  0.00     0.164 HD
ATOM     16  O   UNL A   1      29.417  26.292  24.751  1.00  0.00    -0.273 OA
BRANCH  14  17
ATOM     17  C   UNL A   1      29.818  27.821  22.936  1.00  0.00     0.216 C 
BRANCH  17  18
ATOM     18  N   UNL A   1      28.523  28.406  23.218  1.00  0.00    -0.342 N 
ATOM     19  C   UNL A   1      27.954  29.528  22.687  1.00  0.00     0.275 C 
ATOM     20  H   UNL A   1      27.977  27.926  23.882  1.00  0.00     0.164 HD
ATOM     21  O   UNL A   1      26.904  29.948  23.175  1.00  0.00    -0.268 OA
BRANCH  19  22
ATOM     22  C   UNL A   1      28.621  30.261  21.516  1.00  0.00     0.360 C 
BRANCH  22  23
ATOM     23  N   UNL A   1      29.543  31.292  22.010  1.00  0.00    -0.350 N 
ATOM     24  H   UNL A   1      30.137  31.613  21.245  1.00  0.00     0.344 HD
ATOM     25  H   UNL A   1      30.126  30.902  22.750  1.00  0.00     0.344 HD
ATOM     26  H   UNL A   1      29.009  32.079  22.378  1.00  0.00     0.344 HD
ENDBRANCH  22  23
ENDBRANCH  19  22
ENDBRANCH  17  18
ENDBRANCH  14  17
ENDBRANCH  12  13
BRANCH  12  27
ATOM     27  C   UNL A   1      33.641  26.947  24.310  1.00  0.00     0.070 C 
BRANCH  27  28
ATOM     28  C   UNL A   1      33.502  28.151  25.237  1.00  0.00    -0.045 A 
ATOM     29  C   UNL A   1      32.586  29.190  25.085  1.00  0.00     0.004 A 
ATOM     30  C   UNL A   1      34.346  28.220  26.363  1.00  0.00     0.004 A 
ATOM     31  C   UNL A   1      32.481  30.240  26.006  1.00  0.00     0.000 A 
ATOM     32  C   UNL A   1      34.253  29.269  27.289  1.00  0.00     0.000 A 
ATOM     33  C   UNL A   1      33.315  30.279  27.112  1.00  0.00     0.000 A 
ENDBRANCH  27  28
ENDBRANCH  12  27
ENDBRANCH   9  12
ENDBRANCH   3   8
ENDBRANCH   1   3
BRANCH   1  34
ATOM     34  O   UNL A   1      36.073  22.849  24.983  1.00  0.00    -0.461 OA
BRANCH  34  35
ATOM     35  C   UNL A   1      36.597  21.510  25.088  1.00  0.00     0.274 C 
BRANCH  35  36
ATOM     36  C   UNL A   1      38.121  21.471  25.239  1.00  0.00     0.275 C 
BRANCH  36  37
ATOM     37  O   UNL A   1      38.565  22.087  26.462  1.00  0.00    -0.458 OA
BRANCH  37  38
ATOM     38  C   UNL A   1      39.814  22.606  26.406  1.00  0.00     0.338 C 
ATOM     39  O   UNL A   1      40.785  22.130  25.845  1.00  0.00    -0.246 OA
BRANCH  38  40
ATOM     40  C   UNL A   1      39.813  23.970  26.955  1.00  0.00     0.060 A 
ATOM     41  C   UNL A   1      40.373  24.968  26.158  1.00  0.00     0.016 A 
ATOM     42  C   UNL A   1      39.371  24.261  28.245  1.00  0.00     0.016 A 
ATOM     43  C   UNL A   1      40.502  26.259  26.646  1.00  0.00     0.010 A 
ATOM     44  C   UNL A   1      39.526  25.562  28.744  1.00  0.00     0.010 A 
ATOM     45  C   UNL A   1      40.112  26.562  27.948  1.00  0.00    -0.014 A 
BRANCH  45  46
ATOM     46  C   UNL A   1      40.482  27.889  28.494  1.00  0.00     0.031 A 
ATOM     47  C   UNL A   1      41.927  28.178  28.775  1.00  0.00     0.074 A 
ATOM     48  C   UNL A   1      39.566  28.867  28.616  1.00  0.00     0.049 A 
ATOM     49  N   UNL A   1      42.468  29.211  29.366  1.00  0.00    -0.248 NA
ATOM     50  C   UNL A   1      42.896  27.166  28.321  1.00  0.00     0.031 C 
ATOM     51  C   UNL A   1      38.159  28.768  28.224  1.00  0.00     0.029 A 
ATOM     52  N   UNL A   1      39.694  30.148  29.088  1.00  0.00    -0.354 N 
ATOM     53  C   UNL A   1      43.833  28.955  29.394  1.00  0.00     0.074 A 
ATOM     54  C   UNL A   1      44.041  27.673  28.757  1.00  0.00     0.031 C 
ATOM     55  C   UNL A   1      37.557  29.945  28.461  1.00  0.00     0.029 A 
ATOM     56  C   UNL A   1      38.515  30.853  29.085  1.00  0.00     0.049 A 
ATOM     57  H   UNL A   1      40.547  30.527  29.399  1.00  0.00     0.167 HD
ATOM     58  C   UNL A   1      44.820  29.719  29.915  1.00  0.00     0.031 A 
ATOM     59  C   UNL A   1      38.234  32.078  29.571  1.00  0.00     0.031 A 
ATOM     60  C   UNL A   1      44.607  31.001  30.527  1.00  0.00     0.049 A 
ATOM     61  C   UNL A   1      39.326  32.862  30.245  1.00  0.00     0.074 A 
ATOM     62  C   UNL A   1      45.531  31.835  31.133  1.00  0.00     0.029 A 
ATOM     63  N   UNL A   1      43.381  31.644  30.591  1.00  0.00    -0.354 N 
ATOM     64  N   UNL A   1      40.597  32.565  30.377  1.00  0.00    -0.248 NA
ATOM     65  C   UNL A   1      38.940  34.141  30.857  1.00  0.00     0.031 C 
ATOM     66  C   UNL A   1      44.851  32.966  31.602  1.00  0.00     0.029 A 
ATOM     67  C   UNL A   1      43.518  32.857  31.242  1.00  0.00     0.049 A 
ATOM     68  H   UNL A   1      42.537  31.290  30.227  1.00  0.00     0.167 HD
ATOM     69  C   UNL A   1      41.164  33.624  31.073  1.00  0.00     0.074 A 
ATOM     70  C   UNL A   1      40.103  34.579  31.320  1.00  0.00     0.031 C 
ATOM     71  C   UNL A   1      42.446  33.790  31.478  1.00  0.00     0.031 A 
BRANCH  58  72
ATOM     72  C   UNL A   1      46.208  29.144  29.909  1.00  0.00    -0.014 A 
ATOM     73  C   UNL A   1      47.120  29.428  28.883  1.00  0.00     0.009 A 
ATOM     74  C   UNL A   1      46.606  28.305  30.962  1.00  0.00     0.009 A 
ATOM     75  C   UNL A   1      48.395  28.856  28.897  1.00  0.00     0.001 A 
ATOM     76  C   UNL A   1      47.889  27.756  30.987  1.00  0.00     0.001 A 
ATOM     77  C   UNL A   1      48.780  28.025  29.949  1.00  0.00     0.000 A 
ENDBRANCH  58  72
BRANCH  59  78
ATOM     78  C   UNL A   1      36.847  32.606  29.506  1.00  0.00    -0.014 A 
ATOM     79  C   UNL A   1      35.955  32.420  30.572  1.00  0.00     0.009 A 
ATOM     80  C   UNL A   1      36.402  33.289  28.363  1.00  0.00     0.009 A 
ATOM     81  C   UNL A   1      34.643  32.894  30.488  1.00  0.00     0.001 A 
ATOM     82  C   UNL A   1      35.099  33.787  28.292  1.00  0.00     0.001 A 
ATOM     83  C   UNL A   1      34.218  33.581  29.351  1.00  0.00     0.000 A 
ENDBRANCH  59  78
BRANCH  71  84
ATOM     84  C   UNL A   1      42.775  35.061  32.204  1.00  0.00    -0.014 A 
ATOM     85  C   UNL A   1      42.499  35.208  33.572  1.00  0.00     0.009 A 
ATOM     86  C   UNL A   1      43.408  36.109  31.517  1.00  0.00     0.009 A 
ATOM     87  C   UNL A   1      42.826  36.393  34.232  1.00  0.00     0.001 A 
ATOM     88  C   UNL A   1      43.756  37.283  32.186  1.00  0.00     0.001 A 
ATOM     89  C   UNL A   1      43.458  37.428  33.540  1.00  0.00     0.000 A 
ENDBRANCH  71  84
ENDBRANCH  45  46
ENDBRANCH  38  40
ENDBRANCH  37  38
ENDBRANCH  36  37
ENDBRANCH  35  36
ENDBRANCH  34  35
ENDBRANCH   1  34
TORSDOF 22
ENDMDL
MODEL 3
REMARK VINA RESULT:     -10.5      3.791      7.600
REMARK SMILES CC(C)C[C@H](NC(=O)[C@H](Cc1ccccc1)NC(=O)CNC(=O)C[NH3+])C(=O)OCCOC(=O)c1ccc(-c2c3nc(c(-c4ccccc4)c4ccc([nH]4)c(-c4ccccc4)c4nc(c(-c5ccccc5)c5ccc2[nH]5)C=C4)C=C3)cc1
REMARK SMILES IDX 26 1 27 2 5 3 4 4 2 5 1 6 3 7 6 8 7 9 8 11 9 12 17 13 18 14
REMARK SMILES IDX 19 16 20 17 21 18 22 19 23 21 24 22 25 23 10 27 11 28 12 29
REMARK SMILES IDX 16 30 13 31 15 32 14 33 28 34 29 35 30 36 31 37 32 38 33 39
REMARK SMILES IDX 34 40 35 41 81 42 36 43 80 44 37 45 38 46 39 47 74 48 40 49
REMARK SMILES IDX 79 50 73 51 75 52 41 53 78 54 72 55 71 56 42 58 64 59 49 60
REMARK SMILES IDX 63 61 50 62 53 63 62 64 76 65 51 66 52 67 61 69 77 70 54 71
REMARK SMILES IDX 43 72 44 73 48 74 45 75 47 76 46 77 65 78 66 79 70 80 67 81
REMARK SMILES IDX 69 82 68 83 55 84 56 85 60 86 57 87 59 88 58 89
REMARK H PARENT 6 10 17 15 21 20 25 24 25 25 25 26 75 57 53 68
REMARK Flexibility Score: inf
ROOT
ATOM      1  C   UNL A   1      35.391  22.798  23.811  1.00  0.00     0.328 C 
ATOM      2  O   UNL A   1      36.245  22.981  22.949  1.00  0.00    -0.250 OA
ENDROOT
BRANCH   1   3
ATOM      3  C   UNL A   1      33.977  23.367  23.684  1.00  0.00     0.192 C 
BRANCH   3   4
ATOM      4  C   UNL A   1      32.892  22.342  24.094  1.00  0.00     0.040 C 
BRANCH   4   5
ATOM      5  C   UNL A   1      32.058  22.542  25.385  1.00  0.00    -0.015 C 
ATOM      6  C   UNL A   1      32.840  23.229  26.516  1.00  0.00     0.007 C 
ATOM      7  C   UNL A   1      30.850  23.434  25.062  1.00  0.00     0.007 C 
ENDBRANCH   4   5
ENDBRANCH   3   4
BRANCH   3   8
ATOM      8  N   UNL A   1      33.711  23.949  22.363  1.00  0.00    -0.341 N 
ATOM      9  C   UNL A   1      33.188  25.148  21.957  1.00  0.00     0.243 C 
ATOM     10  H   UNL A   1      33.958  23.357  21.616  1.00  0.00     0.164 HD
ATOM     11  O   UNL A   1      33.113  25.296  20.731  1.00  0.00    -0.273 OA
BRANCH   9  12
ATOM     12  C   UNL A   1      32.579  26.228  22.929  1.00  0.00     0.175 C 
BRANCH  12  13
ATOM     13  N   UNL A   1      31.127  26.128  23.107  1.00  0.00    -0.342 N 
ATOM     14  C   UNL A   1      30.235  27.170  23.135  1.00  0.00     0.240 C 
ATOM     15  H   UNL A   1      30.755  25.223  23.216  1.00  0.00     0.164 HD
ATOM     16  O   UNL A   1      29.201  27.046  23.792  1.00  0.00    -0.273 OA
BRANCH  14  17
ATOM     17  C   UNL A   1      30.569  28.501  22.449  1.00  0.00     0.216 C 
BRANCH  17  18
ATOM     18  N   UNL A   1      30.211  29.668  23.228  1.00  0.00    -0.342 N 
ATOM     19  C   UNL A   1      29.126  30.487  23.098  1.00  0.00     0.275 C 
ATOM     20  H   UNL A   1      30.835  29.903  23.952  1.00  0.00     0.164 HD
ATOM     21  O   UNL A   1      29.082  31.524  23.761  1.00  0.00    -0.268 OA
BRANCH  19  22
ATOM     22  C   UNL A   1      27.990  30.128  22.130  1.00  0.00     0.360 C 
BRANCH  22  23
ATOM     23  N   UNL A   1      27.104  29.120  22.726  1.00  0.00    -0.350 N 
ATOM     24  H   UNL A   1      26.565  29.544  23.481  1.00  0.00     0.344 HD
ATOM     25  H   UNL A   1      27.662  28.352  23.097  1.00  0.00     0.344 HD
ATOM     26  H   UNL A   1      26.466  28.763  22.013  1.00  0.00     0.344 HD
ENDBRANCH  22  23
ENDBRANCH  19  22
ENDBRANCH  17  18
ENDBRANCH  14  17
ENDBRANCH  12  13
BRANCH  12  27
ATOM     27  C   UNL A   1      33.335  26.147  24.305  1.00  0.00     0.070 C 
BRANCH  27  28
ATOM     28  C   UNL A   1      33.140  27.133  25.453  1.00  0.00    -0.045 A 
ATOM     29  C   UNL A   1      33.950  28.236  25.720  1.00  0.00     0.004 A 
ATOM     30  C   UNL A   1      32.036  26.945  26.308  1.00  0.00     0.004 A 
ATOM     31  C   UNL A   1      33.680  29.130  26.764  1.00  0.00     0.000 A 
ATOM     32  C   UNL A   1      31.760  27.830  27.359  1.00  0.00     0.000 A 
ATOM     33  C   UNL A   1      32.581  28.929  27.584  1.00  0.00     0.000 A 
ENDBRANCH  27  28
ENDBRANCH  12  27
ENDBRANCH   9  12
ENDBRANCH   3   8
ENDBRANCH   1   3
BRANCH   1  34
ATOM     34  O   UNL A   1      35.617  22.203  25.016  1.00  0.00    -0.461 OA
BRANCH  34  35
ATOM     35  C   UNL A   1      35.782  20.772  24.975  1.00  0.00     0.274 C 
BRANCH  35  36
ATOM     36  C   UNL A   1      37.249  20.334  25.028  1.00  0.00     0.275 C 
BRANCH  36  37
ATOM     37  O   UNL A   1      38.145  21.445  25.211  1.00  0.00    -0.458 OA
BRANCH  37  38
ATOM     38  C   UNL A   1      39.193  21.191  26.029  1.00  0.00     0.338 C 
ATOM     39  O   UNL A   1      39.794  20.138  26.151  1.00  0.00    -0.246 OA
BRANCH  38  40
ATOM     40  C   UNL A   1      39.670  22.443  26.634  1.00  0.00     0.060 A 
ATOM     41  C   UNL A   1      39.110  23.626  26.155  1.00  0.00     0.016 A 
ATOM     42  C   UNL A   1      40.702  22.479  27.572  1.00  0.00     0.016 A 
ATOM     43  C   UNL A   1      39.579  24.852  26.601  1.00  0.00     0.010 A 
ATOM     44  C   UNL A   1      41.191  23.721  28.003  1.00  0.00     0.010 A 
ATOM     45  C   UNL A   1      40.641  24.913  27.501  1.00  0.00    -0.014 A 
BRANCH  45  46
ATOM     46  C   UNL A   1      41.251  26.237  27.765  1.00  0.00     0.031 A 
ATOM     47  C   UNL A   1      42.556  26.576  27.107  1.00  0.00     0.074 A 
ATOM     48  C   UNL A   1      40.595  27.172  28.476  1.00  0.00     0.049 A 
ATOM     49  N   UNL A   1      43.333  27.612  27.287  1.00  0.00    -0.248 NA
ATOM     50  C   UNL A   1      43.049  25.620  26.101  1.00  0.00     0.031 C 
ATOM     51  C   UNL A   1      39.249  27.028  29.033  1.00  0.00     0.029 A 
ATOM     52  N   UNL A   1      40.970  28.442  28.831  1.00  0.00    -0.354 N 
ATOM     53  C   UNL A   1      44.425  27.412  26.452  1.00  0.00     0.074 A 
ATOM     54  C   UNL A   1      44.210  26.160  25.761  1.00  0.00     0.031 C 
ATOM     55  C   UNL A   1      38.908  28.171  29.650  1.00  0.00     0.029 A 
ATOM     56  C   UNL A   1      40.034  29.098  29.592  1.00  0.00     0.049 A 
ATOM     57  H   UNL A   1      41.828  28.847  28.566  1.00  0.00     0.167 HD
ATOM     58  C   UNL A   1      45.512  28.200  26.288  1.00  0.00     0.031 A 
ATOM     59  C   UNL A   1      40.098  30.295  30.207  1.00  0.00     0.031 A 
ATOM     60  C   UNL A   1      45.706  29.453  26.963  1.00  0.00     0.049 A 
ATOM     61  C   UNL A   1      41.362  31.103  30.099  1.00  0.00     0.074 A 
ATOM     62  C   UNL A   1      46.796  30.306  26.909  1.00  0.00     0.029 A 
ATOM     63  N   UNL A   1      44.775  30.042  27.804  1.00  0.00    -0.354 N 
ATOM     64  N   UNL A   1      42.445  30.855  29.402  1.00  0.00    -0.248 NA
ATOM     65  C   UNL A   1      41.421  32.346  30.881  1.00  0.00     0.031 C 
ATOM     66  C   UNL A   1      46.538  31.393  27.752  1.00  0.00     0.029 A 
ATOM     67  C   UNL A   1      45.269  31.240  28.290  1.00  0.00     0.049 A 
ATOM     68  H   UNL A   1      43.892  29.666  28.022  1.00  0.00     0.167 HD
ATOM     69  C   UNL A   1      43.307  31.914  29.650  1.00  0.00     0.074 A 
ATOM     70  C   UNL A   1      42.614  32.817  30.547  1.00  0.00     0.031 C 
ATOM     71  C   UNL A   1      44.562  32.121  29.183  1.00  0.00     0.031 A 
BRANCH  58  72
ATOM     72  C   UNL A   1      46.605  27.683  25.397  1.00  0.00    -0.014 A 
ATOM     73  C   UNL A   1      46.710  28.073  24.055  1.00  0.00     0.009 A 
ATOM     74  C   UNL A   1      47.553  26.790  25.923  1.00  0.00     0.009 A 
ATOM     75  C   UNL A   1      47.726  27.554  23.248  1.00  0.00     0.001 A 
ATOM     76  C   UNL A   1      48.581  26.293  25.122  1.00  0.00     0.001 A 
ATOM     77  C   UNL A   1      48.662  26.668  23.782  1.00  0.00     0.000 A 
ENDBRANCH  58  72
BRANCH  59  78
ATOM     78  C   UNL A   1      38.962  30.767  31.040  1.00  0.00    -0.014 A 
ATOM     79  C   UNL A   1      38.868  30.417  32.394  1.00  0.00     0.009 A 
ATOM     80  C   UNL A   1      37.952  31.563  30.475  1.00  0.00     0.009 A 
ATOM     81  C   UNL A   1      37.778  30.841  33.161  1.00  0.00     0.001 A 
ATOM     82  C   UNL A   1      36.879  32.010  31.250  1.00  0.00     0.001 A 
ATOM     83  C   UNL A   1      36.789  31.641  32.589  1.00  0.00     0.000 A 
ENDBRANCH  59  78
BRANCH  71  84
ATOM     84  C   UNL A   1      45.252  33.382  29.611  1.00  0.00    -0.014 A 
ATOM     85  C   UNL A   1      46.173  33.381  30.671  1.00  0.00     0.009 A 
ATOM     86  C   UNL A   1      45.010  34.577  28.917  1.00  0.00     0.009 A 
ATOM     87  C   UNL A   1      46.815  34.562  31.044  1.00  0.00     0.001 A 
ATOM     88  C   UNL A   1      45.673  35.750  29.277  1.00  0.00     0.001 A 
ATOM     89  C   UNL A   1      46.569  35.744  30.345  1.00  0.00     0.000 A 
ENDBRANCH  71  84
ENDBRANCH  45  46
ENDBRANCH  38  40
ENDBRANCH  37  38
ENDBRANCH  36  37
ENDBRANCH  35  36
ENDBRANCH  34  35
ENDBRANCH   1  34
TORSDOF 22
ENDMDL
