MODEL 1
REMARK VINA RESULT:     -12.8      0.000      0.000
REMARK SMILES O=C(OCCOC(=O)c1ccc(-c2c3nc(c(-c4ccccc4)c4ccc([nH]4)c(-c4ccccc4)c4nc(c(-c5ccccc5)c5ccc2[nH]5)C=C4)C=C3)cc1)C1=Cc2ccc(Cl)c(Cl)c2O[C@@H]1C(F)(F)F
REMARK SMILES IDX 5 1 4 2 3 3 2 4 1 5 57 6 58 7 68 8 59 9 67 10 60 11 66 12
REMARK SMILES IDX 61 13 64 14 62 15 65 16 63 17 69 18 70 19 71 20 72 21 6 22
REMARK SMILES IDX 7 23 8 24 9 25 10 26 56 27 11 28 55 29 12 30 13 31 14 32
REMARK SMILES IDX 49 33 15 34 54 35 48 36 50 37 16 38 53 39 47 40 46 41 17 43
REMARK SMILES IDX 39 44 24 45 38 46 25 47 28 48 37 49 51 50 26 51 27 52 36 54
REMARK SMILES IDX 52 55 29 56 18 57 19 58 23 59 20 60 22 61 21 62 40 63 41 64
REMARK SMILES IDX 45 65 42 66 44 67 43 68 30 69 31 70 35 71 32 72 34 73 33 74
REMARK H PARENT 50 42 28 53
REMARK Flexibility Score: inf
ROOT
ATOM      1  C   UNL A   1      31.154  31.852  26.870  1.00  0.00     0.275 C 
ENDROOT
BRANCH   1   2
ATOM      2  C   UNL A   1      31.224  30.628  25.086  1.00  0.00     0.275 C 
BRANCH   2   3
ATOM      3  O   UNL A   1      30.785  29.143  24.965  1.00  0.00    -0.459 OA
BRANCH   3   4
ATOM      4  C   UNL A   1      31.785  28.330  24.600  1.00  0.00     0.338 C 
ATOM      5  O   UNL A   1      32.127  27.979  23.500  1.00  0.00    -0.246 OA
BRANCH   4   6
ATOM      6  C   UNL A   1      31.938  27.722  25.903  1.00  0.00     0.087 C 
ATOM      7  C   UNL A   1      31.013  26.632  26.153  1.00  0.00     0.027 C 
ATOM      8  C   UNL A   1      33.854  27.581  25.801  1.00  0.00     0.316 C 
ATOM      9  C   UNL A   1      31.514  24.918  26.190  1.00  0.00     0.019 A 
ATOM     10  O   UNL A   1      34.412  25.725  25.746  1.00  0.00    -0.474 OA
ATOM     11  C   UNL A   1      30.515  23.987  26.246  1.00  0.00     0.013 A 
ATOM     12  C   UNL A   1      33.144  24.404  25.880  1.00  0.00     0.148 A 
ATOM     13  C   UNL A   1      30.933  22.672  26.010  1.00  0.00     0.023 A 
ATOM     14  C   UNL A   1      33.459  23.087  25.655  1.00  0.00     0.102 A 
ATOM     15  C   UNL A   1      32.307  22.245  25.719  1.00  0.00     0.063 A 
ATOM     16  Cl  UNL A   1      35.022  22.543  25.261  1.00  0.00    -0.079 Cl
ATOM     17  Cl  UNL A   1      32.438  20.536  25.392  1.00  0.00    -0.083 Cl
BRANCH   8  18
ATOM     18  C   UNL A   1      34.050  28.805  26.821  1.00  0.00     0.430 C 
ATOM     19  F   UNL A   1      33.224  28.712  27.866  1.00  0.00    -0.167 F 
ATOM     20  F   UNL A   1      35.286  28.706  27.410  1.00  0.00    -0.167 F 
ATOM     21  F   UNL A   1      34.080  30.057  26.329  1.00  0.00    -0.167 F 
ENDBRANCH   8  18
ENDBRANCH   4   6
ENDBRANCH   3   4
ENDBRANCH   2   3
ENDBRANCH   1   2
BRANCH   1  22
ATOM     22  O   UNL A   1      32.044  33.357  27.071  1.00  0.00    -0.458 OA
BRANCH  22  23
ATOM     23  C   UNL A   1      32.832  34.067  27.958  1.00  0.00     0.338 C 
ATOM     24  O   UNL A   1      32.513  34.927  28.759  1.00  0.00    -0.246 OA
BRANCH  23  25
ATOM     25  C   UNL A   1      34.121  33.303  28.101  1.00  0.00     0.060 A 
ATOM     26  C   UNL A   1      35.340  33.970  27.857  1.00  0.00     0.016 A 
ATOM     27  C   UNL A   1      34.131  32.114  28.823  1.00  0.00     0.016 A 
ATOM     28  C   UNL A   1      36.498  33.599  28.578  1.00  0.00     0.010 A 
ATOM     29  C   UNL A   1      35.286  31.742  29.522  1.00  0.00     0.010 A 
ATOM     30  C   UNL A   1      36.446  32.539  29.496  1.00  0.00    -0.014 A 
BRANCH  30  31
ATOM     31  C   UNL A   1      37.623  32.112  30.311  1.00  0.00     0.031 A 
ATOM     32  C   UNL A   1      38.448  31.000  29.741  1.00  0.00     0.074 A 
ATOM     33  C   UNL A   1      37.903  32.576  31.553  1.00  0.00     0.049 A 
ATOM     34  N   UNL A   1      39.417  30.315  30.286  1.00  0.00    -0.248 NA
ATOM     35  C   UNL A   1      38.095  30.584  28.374  1.00  0.00     0.031 C 
ATOM     36  C   UNL A   1      37.208  33.657  32.250  1.00  0.00     0.029 A 
ATOM     37  N   UNL A   1      38.852  32.166  32.471  1.00  0.00    -0.354 N 
ATOM     38  C   UNL A   1      39.777  29.377  29.331  1.00  0.00     0.074 A 
ATOM     39  C   UNL A   1      38.898  29.550  28.198  1.00  0.00     0.031 C 
ATOM     40  C   UNL A   1      37.738  33.815  33.480  1.00  0.00     0.029 A 
ATOM     41  C   UNL A   1      38.797  32.828  33.682  1.00  0.00     0.049 A 
ATOM     42  H   UNL A   1      39.512  31.462  32.278  1.00  0.00     0.167 HD
ATOM     43  C   UNL A   1      40.759  28.451  29.381  1.00  0.00     0.031 A 
ATOM     44  C   UNL A   1      39.507  32.647  34.821  1.00  0.00     0.031 A 
ATOM     45  C   UNL A   1      41.622  28.245  30.505  1.00  0.00     0.049 A 
ATOM     46  C   UNL A   1      40.555  31.552  34.873  1.00  0.00     0.074 A 
ATOM     47  C   UNL A   1      42.660  27.342  30.633  1.00  0.00     0.029 A 
ATOM     48  N   UNL A   1      41.535  28.939  31.699  1.00  0.00    -0.354 N 
ATOM     49  N   UNL A   1      40.944  30.730  33.927  1.00  0.00    -0.248 NA
ATOM     50  C   UNL A   1      41.264  31.360  36.151  1.00  0.00     0.031 C 
ATOM     51  C   UNL A   1      43.167  27.450  31.930  1.00  0.00     0.029 A 
ATOM     52  C   UNL A   1      42.484  28.463  32.585  1.00  0.00     0.049 A 
ATOM     53  H   UNL A   1      40.895  29.663  31.889  1.00  0.00     0.167 HD
ATOM     54  C   UNL A   1      41.959  29.957  34.485  1.00  0.00     0.074 A 
ATOM     55  C   UNL A   1      42.144  30.419  35.842  1.00  0.00     0.031 C 
ATOM     56  C   UNL A   1      42.671  28.948  33.925  1.00  0.00     0.031 A 
BRANCH  43  57
ATOM     57  C   UNL A   1      40.912  27.578  28.174  1.00  0.00    -0.014 A 
ATOM     58  C   UNL A   1      41.716  27.976  27.093  1.00  0.00     0.009 A 
ATOM     59  C   UNL A   1      40.223  26.359  28.105  1.00  0.00     0.009 A 
ATOM     60  C   UNL A   1      41.792  27.188  25.946  1.00  0.00     0.001 A 
ATOM     61  C   UNL A   1      40.327  25.558  26.968  1.00  0.00     0.001 A 
ATOM     62  C   UNL A   1      41.101  25.978  25.887  1.00  0.00     0.000 A 
ENDBRANCH  43  57
BRANCH  44  63
ATOM     63  C   UNL A   1      39.273  33.472  36.049  1.00  0.00    -0.014 A 
ATOM     64  C   UNL A   1      40.031  34.635  36.287  1.00  0.00     0.009 A 
ATOM     65  C   UNL A   1      38.397  33.036  37.057  1.00  0.00     0.009 A 
ATOM     66  C   UNL A   1      39.959  35.304  37.515  1.00  0.00     0.001 A 
ATOM     67  C   UNL A   1      38.301  33.727  38.272  1.00  0.00     0.001 A 
ATOM     68  C   UNL A   1      39.094  34.849  38.507  1.00  0.00     0.000 A 
ENDBRANCH  44  63
BRANCH  56  69
ATOM     69  C   UNL A   1      43.745  28.297  34.752  1.00  0.00    -0.014 A 
ATOM     70  C   UNL A   1      43.477  27.167  35.538  1.00  0.00     0.009 A 
ATOM     71  C   UNL A   1      45.066  28.765  34.663  1.00  0.00     0.009 A 
ATOM     72  C   UNL A   1      44.508  26.531  36.234  1.00  0.00     0.001 A 
ATOM     73  C   UNL A   1      46.099  28.108  35.332  1.00  0.00     0.001 A 
ATOM     74  C   UNL A   1      45.818  26.995  36.122  1.00  0.00     0.000 A 
ENDBRANCH  56  69
ENDBRANCH  30  31
ENDBRANCH  23  25
ENDBRANCH  22  23
ENDBRANCH   1  22
TORSDOF 12
ENDMDL
MODEL 2
REMARK VINA RESULT:     -12.7      4.999      9.791
REMARK SMILES O=C(OCCOC(=O)c1ccc(-c2c3nc(c(-c4ccccc4)c4ccc([nH]4)c(-c4ccccc4)c4nc(c(-c5ccccc5)c5ccc2[nH]5)C=C4)C=C3)cc1)C1=Cc2ccc(Cl)c(Cl)c2O[C@@H]1C(F)(F)F
REMARK SMILES IDX 5 1 4 2 3 3 2 4 1 5 57 6 58 7 68 8 59 9 67 10 60 11 66 12
REMARK SMILES IDX 61 13 64 14 62 15 65 16 63 17 69 18 70 19 71 20 72 21 6 22
REMARK SMILES IDX 7 23 8 24 9 25 10 26 56 27 11 28 55 29 12 30 13 31 14 32
REMARK SMILES IDX 49 33 15 34 54 35 48 36 50 37 16 38 53 39 47 40 46 41 17 43
REMARK SMILES IDX 39 44 24 45 38 46 25 47 28 48 37 49 51 50 26 51 27 52 36 54
REMARK SMILES IDX 52 55 29 56 18 57 19 58 23 59 20 60 22 61 21 62 40 63 41 64
REMARK SMILES IDX 45 65 42 66 44 67 43 68 30 69 31 70 35 71 32 72 34 73 33 74
REMARK H PARENT 50 42 28 53
REMARK Flexibility Score: inf
ROOT
ATOM      1  C   UNL A   1      37.851  19.947  24.530  1.00  0.00     0.275 C 
ENDROOT
BRANCH   1   2
ATOM      2  C   UNL A   1      35.745  19.934  25.028  1.00  0.00     0.275 C 
BRANCH   2   3
ATOM      3  O   UNL A   1      34.635  20.805  24.379  1.00  0.00    -0.459 OA
BRANCH   3   4
ATOM      4  C   UNL A   1      34.305  21.870  25.120  1.00  0.00     0.338 C 
ATOM      5  O   UNL A   1      33.424  21.999  25.931  1.00  0.00    -0.246 OA
BRANCH   4   6
ATOM      6  C   UNL A   1      35.008  22.825  24.293  1.00  0.00     0.087 C 
ATOM      7  C   UNL A   1      34.311  23.163  23.066  1.00  0.00     0.027 C 
ATOM      8  C   UNL A   1      35.415  24.032  25.735  1.00  0.00     0.316 C 
ATOM      9  C   UNL A   1      33.515  24.740  22.801  1.00  0.00     0.019 A 
ATOM     10  O   UNL A   1      34.486  25.719  25.511  1.00  0.00    -0.474 OA
ATOM     11  C   UNL A   1      32.737  24.855  21.684  1.00  0.00     0.013 A 
ATOM     12  C   UNL A   1      33.467  25.988  24.008  1.00  0.00     0.148 A 
ATOM     13  C   UNL A   1      31.933  26.001  21.651  1.00  0.00     0.023 A 
ATOM     14  C   UNL A   1      32.640  27.077  23.892  1.00  0.00     0.102 A 
ATOM     15  C   UNL A   1      31.873  27.039  22.688  1.00  0.00     0.063 A 
ATOM     16  Cl  UNL A   1      32.490  28.281  25.085  1.00  0.00    -0.079 Cl
ATOM     17  Cl  UNL A   1      30.691  28.278  22.348  1.00  0.00    -0.083 Cl
BRANCH   8  18
ATOM     18  C   UNL A   1      36.951  23.567  25.760  1.00  0.00     0.430 C 
ATOM     19  F   UNL A   1      37.495  23.598  24.541  1.00  0.00    -0.167 F 
ATOM     20  F   UNL A   1      37.693  24.500  26.441  1.00  0.00    -0.167 F 
ATOM     21  F   UNL A   1      37.271  22.434  26.411  1.00  0.00    -0.167 F 
ENDBRANCH   8  18
ENDBRANCH   4   6
ENDBRANCH   3   4
ENDBRANCH   2   3
ENDBRANCH   1   2
BRANCH   1  22
ATOM     22  O   UNL A   1      39.115  19.291  25.565  1.00  0.00    -0.458 OA
BRANCH  22  23
ATOM     23  C   UNL A   1      40.434  19.460  25.944  1.00  0.00     0.338 C 
ATOM     24  O   UNL A   1      41.437  18.916  25.519  1.00  0.00    -0.246 OA
BRANCH  23  25
ATOM     25  C   UNL A   1      40.508  20.765  26.690  1.00  0.00     0.060 A 
ATOM     26  C   UNL A   1      41.127  20.792  27.957  1.00  0.00     0.016 A 
ATOM     27  C   UNL A   1      40.332  21.957  25.996  1.00  0.00     0.016 A 
ATOM     28  C   UNL A   1      41.816  21.954  28.375  1.00  0.00     0.010 A 
ATOM     29  C   UNL A   1      41.003  23.109  26.423  1.00  0.00     0.010 A 
ATOM     30  C   UNL A   1      41.840  23.092  27.555  1.00  0.00    -0.014 A 
BRANCH  30  31
ATOM     31  C   UNL A   1      42.571  24.342  27.922  1.00  0.00     0.031 A 
ATOM     32  C   UNL A   1      41.719  25.499  28.344  1.00  0.00     0.074 A 
ATOM     33  C   UNL A   1      43.906  24.519  27.778  1.00  0.00     0.049 A 
ATOM     34  N   UNL A   1      42.050  26.744  28.560  1.00  0.00    -0.248 NA
ATOM     35  C   UNL A   1      40.286  25.207  28.509  1.00  0.00     0.031 C 
ATOM     36  C   UNL A   1      44.877  23.498  27.386  1.00  0.00     0.029 A 
ATOM     37  N   UNL A   1      44.682  25.653  27.928  1.00  0.00    -0.354 N 
ATOM     38  C   UNL A   1      40.861  27.385  28.869  1.00  0.00     0.074 A 
ATOM     39  C   UNL A   1      39.802  26.408  28.771  1.00  0.00     0.031 C 
ATOM     40  C   UNL A   1      46.106  24.049  27.311  1.00  0.00     0.029 A 
ATOM     41  C   UNL A   1      46.018  25.474  27.622  1.00  0.00     0.049 A 
ATOM     42  H   UNL A   1      44.315  26.515  28.227  1.00  0.00     0.167 HD
ATOM     43  C   UNL A   1      40.658  28.675  29.215  1.00  0.00     0.031 A 
ATOM     44  C   UNL A   1      47.041  26.360  27.583  1.00  0.00     0.031 A 
ATOM     45  C   UNL A   1      41.689  29.665  29.291  1.00  0.00     0.049 A 
ATOM     46  C   UNL A   1      46.771  27.817  27.906  1.00  0.00     0.074 A 
ATOM     47  C   UNL A   1      41.577  30.993  29.656  1.00  0.00     0.029 A 
ATOM     48  N   UNL A   1      43.020  29.438  28.982  1.00  0.00    -0.354 N 
ATOM     49  N   UNL A   1      45.653  28.390  28.284  1.00  0.00    -0.248 NA
ATOM     50  C   UNL A   1      47.907  28.751  27.799  1.00  0.00     0.031 C 
ATOM     51  C   UNL A   1      42.832  31.588  29.512  1.00  0.00     0.029 A 
ATOM     52  C   UNL A   1      43.736  30.613  29.118  1.00  0.00     0.049 A 
ATOM     53  H   UNL A   1      43.399  28.571  28.708  1.00  0.00     0.167 HD
ATOM     54  C   UNL A   1      45.961  29.732  28.492  1.00  0.00     0.074 A 
ATOM     55  C   UNL A   1      47.372  29.888  28.221  1.00  0.00     0.031 C 
ATOM     56  C   UNL A   1      45.146  30.748  28.867  1.00  0.00     0.031 A 
BRANCH  43  57
ATOM     57  C   UNL A   1      39.243  29.072  29.505  1.00  0.00    -0.014 A 
ATOM     58  C   UNL A   1      38.703  28.927  30.793  1.00  0.00     0.009 A 
ATOM     59  C   UNL A   1      38.434  29.567  28.472  1.00  0.00     0.009 A 
ATOM     60  C   UNL A   1      37.365  29.232  31.032  1.00  0.00     0.001 A 
ATOM     61  C   UNL A   1      37.104  29.901  28.723  1.00  0.00     0.001 A 
ATOM     62  C   UNL A   1      36.568  29.722  29.998  1.00  0.00     0.000 A 
ENDBRANCH  43  57
BRANCH  44  63
ATOM     63  C   UNL A   1      48.433  25.958  27.200  1.00  0.00    -0.014 A 
ATOM     64  C   UNL A   1      49.340  25.500  28.174  1.00  0.00     0.009 A 
ATOM     65  C   UNL A   1      48.909  26.159  25.894  1.00  0.00     0.009 A 
ATOM     66  C   UNL A   1      50.693  25.307  27.865  1.00  0.00     0.001 A 
ATOM     67  C   UNL A   1      50.256  25.932  25.580  1.00  0.00     0.001 A 
ATOM     68  C   UNL A   1      51.150  25.524  26.568  1.00  0.00     0.000 A 
ENDBRANCH  44  63
BRANCH  56  69
ATOM     69  C   UNL A   1      45.752  32.110  29.051  1.00  0.00    -0.014 A 
ATOM     70  C   UNL A   1      45.799  33.038  27.999  1.00  0.00     0.009 A 
ATOM     71  C   UNL A   1      46.195  32.505  30.324  1.00  0.00     0.009 A 
ATOM     72  C   UNL A   1      46.294  34.326  28.216  1.00  0.00     0.001 A 
ATOM     73  C   UNL A   1      46.657  33.802  30.545  1.00  0.00     0.001 A 
ATOM     74  C   UNL A   1      46.713  34.710  29.489  1.00  0.00     0.000 A 
ENDBRANCH  56  69
ENDBRANCH  30  31
ENDBRANCH  23  25
ENDBRANCH  22  23
ENDBRANCH   1  22
TORSDOF 12
ENDMDL
MODEL 3
REMARK VINA RESULT:     -12.6      5.231      9.888
REMARK SMILES O=C(OCCOC(=O)c1ccc(-c2c3nc(c(-c4ccccc4)c4ccc([nH]4)c(-c4ccccc4)c4nc(c(-c5ccccc5)c5ccc2[nH]5)C=C4)C=C3)cc1)C1=Cc2ccc(Cl)c(Cl)c2O[C@@H]1C(F)(F)F
REMARK SMILES IDX 5 1 4 2 3 3 2 4 1 5 57 6 58 7 68 8 59 9 67 10 60 11 66 12
REMARK SMILES IDX 61 13 64 14 62 15 65 16 63 17 69 18 70 19 71 20 72 21 6 22
REMARK SMILES IDX 7 23 8 24 9 25 10 26 56 27 11 28 55 29 12 30 13 31 14 32
REMARK SMILES IDX 49 33 15 34 54 35 48 36 50 37 16 38 53 39 47 40 46 41 17 43
REMARK SMILES IDX 39 44 24 45 38 46 25 47 28 48 37 49 51 50 26 51 27 52 36 54
REMARK SMILES IDX 52 55 29 56 18 57 19 58 23 59 20 60 22 61 21 62 40 63 41 64
REMARK SMILES IDX 45 65 42 66 44 67 43 68 30 69 31 70 35 71 32 72 34 73 33 74
REMARK H PARENT 50 42 28 53
REMARK Flexibility Score: inf
ROOT
ATOM      1  C   UNL A   1      38.316  19.660  24.993  1.00  0.00     0.275 C 
ENDROOT
BRANCH   1   2
ATOM      2  C   UNL A   1      37.485  21.578  25.555  1.00  0.00     0.275 C 
BRANCH   2   3
ATOM      3  O   UNL A   1      37.307  22.815  24.634  1.00  0.00    -0.459 OA
BRANCH   3   4
ATOM      4  C   UNL A   1      36.188  22.766  23.901  1.00  0.00     0.338 C 
ATOM      5  O   UNL A   1      36.029  22.972  22.725  1.00  0.00    -0.246 OA
BRANCH   4   6
ATOM      6  C   UNL A   1      35.291  22.859  25.030  1.00  0.00     0.087 C 
ATOM      7  C   UNL A   1      35.242  24.179  25.632  1.00  0.00     0.027 C 
ATOM      8  C   UNL A   1      33.831  21.954  24.165  1.00  0.00     0.316 C 
ATOM      9  C   UNL A   1      33.842  25.276  25.463  1.00  0.00     0.019 A 
ATOM     10  O   UNL A   1      32.334  23.156  23.888  1.00  0.00    -0.474 OA
ATOM     11  C   UNL A   1      34.005  26.554  25.916  1.00  0.00     0.013 A 
ATOM     12  C   UNL A   1      32.438  24.876  24.521  1.00  0.00     0.148 A 
ATOM     13  C   UNL A   1      32.992  27.441  25.531  1.00  0.00     0.023 A 
ATOM     14  C   UNL A   1      31.496  25.817  24.187  1.00  0.00     0.102 A 
ATOM     15  C   UNL A   1      31.822  27.106  24.710  1.00  0.00     0.063 A 
ATOM     16  Cl  UNL A   1      30.151  25.497  23.196  1.00  0.00    -0.079 Cl
ATOM     17  Cl  UNL A   1      30.815  28.487  24.357  1.00  0.00    -0.083 Cl
BRANCH   8  18
ATOM     18  C   UNL A   1      34.083  20.619  25.020  1.00  0.00     0.430 C 
ATOM     19  F   UNL A   1      34.173  20.881  26.326  1.00  0.00    -0.167 F 
ATOM     20  F   UNL A   1      32.967  19.823  24.952  1.00  0.00    -0.167 F 
ATOM     21  F   UNL A   1      35.049  19.771  24.622  1.00  0.00    -0.167 F 
ENDBRANCH   8  18
ENDBRANCH   4   6
ENDBRANCH   3   4
ENDBRANCH   2   3
ENDBRANCH   1   2
BRANCH   1  22
ATOM     22  O   UNL A   1      39.808  18.999  25.652  1.00  0.00    -0.458 OA
BRANCH  22  23
ATOM     23  C   UNL A   1      41.091  19.337  26.044  1.00  0.00     0.338 C 
ATOM     24  O   UNL A   1      42.155  18.845  25.715  1.00  0.00    -0.246 OA
BRANCH  23  25
ATOM     25  C   UNL A   1      41.016  20.721  26.630  1.00  0.00     0.060 A 
ATOM     26  C   UNL A   1      41.290  20.897  28.002  1.00  0.00     0.016 A 
ATOM     27  C   UNL A   1      41.064  21.823  25.782  1.00  0.00     0.016 A 
ATOM     28  C   UNL A   1      41.888  22.098  28.449  1.00  0.00     0.010 A 
ATOM     29  C   UNL A   1      41.642  23.015  26.234  1.00  0.00     0.010 A 
ATOM     30  C   UNL A   1      42.160  23.130  27.538  1.00  0.00    -0.014 A 
BRANCH  30  31
ATOM     31  C   UNL A   1      42.815  24.412  27.936  1.00  0.00     0.031 A 
ATOM     32  C   UNL A   1      41.894  25.517  28.352  1.00  0.00     0.074 A 
ATOM     33  C   UNL A   1      44.142  24.661  27.826  1.00  0.00     0.049 A 
ATOM     34  N   UNL A   1      42.153  26.775  28.589  1.00  0.00    -0.248 NA
ATOM     35  C   UNL A   1      40.475  25.148  28.479  1.00  0.00     0.031 C 
ATOM     36  C   UNL A   1      45.174  23.698  27.445  1.00  0.00     0.029 A 
ATOM     37  N   UNL A   1      44.853  25.833  28.007  1.00  0.00    -0.354 N 
ATOM     38  C   UNL A   1      40.924  27.349  28.877  1.00  0.00     0.074 A 
ATOM     39  C   UNL A   1      39.921  26.318  28.743  1.00  0.00     0.031 C 
ATOM     40  C   UNL A   1      46.373  24.314  27.405  1.00  0.00     0.029 A 
ATOM     41  C   UNL A   1      46.203  25.729  27.730  1.00  0.00     0.049 A 
ATOM     42  H   UNL A   1      44.433  26.670  28.306  1.00  0.00     0.167 HD
ATOM     43  C   UNL A   1      40.646  28.621  29.232  1.00  0.00     0.031 A 
ATOM     44  C   UNL A   1      47.178  26.668  27.725  1.00  0.00     0.031 A 
ATOM     45  C   UNL A   1      41.621  29.663  29.345  1.00  0.00     0.049 A 
ATOM     46  C   UNL A   1      46.824  28.104  28.058  1.00  0.00     0.074 A 
ATOM     47  C   UNL A   1      41.429  30.979  29.721  1.00  0.00     0.029 A 
ATOM     48  N   UNL A   1      42.968  29.511  29.064  1.00  0.00    -0.354 N 
ATOM     49  N   UNL A   1      45.668  28.613  28.416  1.00  0.00    -0.248 NA
ATOM     50  C   UNL A   1      47.910  29.098  27.988  1.00  0.00     0.031 C 
ATOM     51  C   UNL A   1      42.654  31.641  29.613  1.00  0.00     0.029 A 
ATOM     52  C   UNL A   1      43.617  30.721  29.230  1.00  0.00     0.049 A 
ATOM     53  H   UNL A   1      43.399  28.669  28.790  1.00  0.00     0.167 HD
ATOM     54  C   UNL A   1      45.900  29.966  28.647  1.00  0.00     0.074 A 
ATOM     55  C   UNL A   1      47.307  30.200  28.411  1.00  0.00     0.031 C 
ATOM     56  C   UNL A   1      45.023  30.933  29.013  1.00  0.00     0.031 A 
BRANCH  43  57
ATOM     57  C   UNL A   1      39.205  28.939  29.494  1.00  0.00    -0.014 A 
ATOM     58  C   UNL A   1      38.379  29.434  28.473  1.00  0.00     0.009 A 
ATOM     59  C   UNL A   1      38.679  28.768  30.782  1.00  0.00     0.009 A 
ATOM     60  C   UNL A   1      37.061  29.794  28.748  1.00  0.00     0.001 A 
ATOM     61  C   UNL A   1      37.350  29.098  31.046  1.00  0.00     0.001 A 
ATOM     62  C   UNL A   1      36.547  29.622  30.033  1.00  0.00     0.000 A 
ENDBRANCH  43  57
BRANCH  44  63
ATOM     63  C   UNL A   1      48.598  26.345  27.371  1.00  0.00    -0.014 A 
ATOM     64  C   UNL A   1      49.046  26.445  26.041  1.00  0.00     0.009 A 
ATOM     65  C   UNL A   1      49.475  25.804  28.325  1.00  0.00     0.009 A 
ATOM     66  C   UNL A   1      50.307  25.964  25.666  1.00  0.00     0.001 A 
ATOM     67  C   UNL A   1      50.749  25.354  27.955  1.00  0.00     0.001 A 
ATOM     68  C   UNL A   1      51.158  25.419  26.624  1.00  0.00     0.000 A 
ENDBRANCH  44  63
BRANCH  56  69
ATOM     69  C   UNL A   1      45.552  32.323  29.227  1.00  0.00    -0.014 A 
ATOM     70  C   UNL A   1      45.530  33.279  28.201  1.00  0.00     0.009 A 
ATOM     71  C   UNL A   1      45.989  32.709  30.505  1.00  0.00     0.009 A 
ATOM     72  C   UNL A   1      45.952  34.588  28.446  1.00  0.00     0.001 A 
ATOM     73  C   UNL A   1      46.379  34.025  30.756  1.00  0.00     0.001 A 
ATOM     74  C   UNL A   1      46.366  34.962  29.725  1.00  0.00     0.000 A 
ENDBRANCH  56  69
ENDBRANCH  30  31
ENDBRANCH  23  25
ENDBRANCH  22  23
ENDBRANCH   1  22
TORSDOF 12
ENDMDL
