MODEL 1
REMARK VINA RESULT:     -10.6      0.000      0.000
REMARK SMILES CCN(Cc1ccccn1)c1nc(C)cc(C)c1C(=O)OCCOC(=O)c1ccc(-c2c3nc(c(-c4ccccc4)c4ccc([nH]4)c(-c4ccccc4)c4nc(c(-c5ccccc5)c5ccc2[nH]5)C=C4)C=C3)cc1
REMARK SMILES IDX 22 1 21 2 19 3 20 4 18 5 11 6 12 7 13 8 16 9 14 10 15 11
REMARK SMILES IDX 17 12 3 13 2 14 1 15 4 16 5 17 6 18 10 19 7 20 9 21 8 22
REMARK SMILES IDX 23 23 24 24 25 25 26 26 27 27 28 28 74 29 29 30 73 31 30 32
REMARK SMILES IDX 31 33 32 34 67 35 33 36 72 37 66 38 68 39 34 40 71 41 65 42
REMARK SMILES IDX 64 43 35 45 57 46 42 47 56 48 43 49 46 50 55 51 69 52 44 53
REMARK SMILES IDX 45 54 54 56 70 57 47 58 36 59 37 60 41 61 38 62 40 63 39 64
REMARK SMILES IDX 58 65 59 66 63 67 60 68 62 69 61 70 48 71 49 72 53 73 50 74
REMARK SMILES IDX 52 75 51 76
REMARK H PARENT 68 44 46 55
REMARK Flexibility Score: inf
ROOT
ATOM      1  C   UNL A   1      31.209  26.943  26.752  1.00  0.00     0.275 C 
ENDROOT
BRANCH   1   2
ATOM      2  O   UNL A   1      31.844  25.912  25.956  1.00  0.00    -0.458 OA
BRANCH   2   3
ATOM      3  C   UNL A   1      31.020  25.208  25.133  1.00  0.00     0.342 C 
ATOM      4  O   UNL A   1      29.947  25.591  24.691  1.00  0.00    -0.246 OA
BRANCH   3   5
ATOM      5  C   UNL A   1      31.558  23.850  24.887  1.00  0.00     0.105 A 
ATOM      6  C   UNL A   1      32.365  23.547  23.769  1.00  0.00     0.144 A 
ATOM      7  N   UNL A   1      32.642  22.255  23.474  1.00  0.00    -0.235 NA
ATOM      8  C   UNL A   1      32.246  21.265  24.301  1.00  0.00     0.040 A 
ATOM      9  C   UNL A   1      31.096  22.812  25.723  1.00  0.00    -0.031 A 
ATOM     10  C   UNL A   1      32.758  19.897  23.971  1.00  0.00     0.067 C 
ATOM     11  C   UNL A   1      31.487  21.504  25.434  1.00  0.00     0.028 A 
ATOM     12  C   UNL A   1      30.218  23.084  26.911  1.00  0.00     0.045 C 
BRANCH   6  13
ATOM     13  N   UNL A   1      32.966  24.462  22.941  1.00  0.00    -0.350 N 
BRANCH  13  14
ATOM     14  C   UNL A   1      32.331  24.932  21.737  1.00  0.00     0.115 C 
ATOM     15  C   UNL A   1      32.832  26.347  21.468  1.00  0.00     0.027 C 
ENDBRANCH  13  14
BRANCH  13  16
ATOM     16  C   UNL A   1      34.269  25.051  23.259  1.00  0.00     0.174 C 
BRANCH  16  17
ATOM     17  C   UNL A   1      35.286  24.170  23.964  1.00  0.00     0.060 A 
ATOM     18  C   UNL A   1      35.313  24.202  25.360  1.00  0.00     0.026 A 
ATOM     19  N   UNL A   1      36.012  23.269  23.245  1.00  0.00    -0.259 NA
ATOM     20  C   UNL A   1      36.132  23.316  26.049  1.00  0.00     0.004 A 
ATOM     21  C   UNL A   1      36.813  22.432  23.946  1.00  0.00     0.111 A 
ATOM     22  C   UNL A   1      36.906  22.417  25.329  1.00  0.00     0.020 A 
ENDBRANCH  16  17
ENDBRANCH  13  16
ENDBRANCH   6  13
ENDBRANCH   3   5
ENDBRANCH   2   3
ENDBRANCH   1   2
BRANCH   1  23
ATOM     23  C   UNL A   1      31.632  28.340  26.253  1.00  0.00     0.275 C 
BRANCH  23  24
ATOM     24  O   UNL A   1      32.044  29.186  27.355  1.00  0.00    -0.458 OA
BRANCH  24  25
ATOM     25  C   UNL A   1      32.539  30.419  27.048  1.00  0.00     0.338 C 
ATOM     26  O   UNL A   1      31.873  31.407  26.780  1.00  0.00    -0.246 OA
BRANCH  25  27
ATOM     27  C   UNL A   1      34.027  30.455  27.230  1.00  0.00     0.060 A 
ATOM     28  C   UNL A   1      34.776  29.296  27.198  1.00  0.00     0.016 A 
ATOM     29  C   UNL A   1      34.693  31.622  27.592  1.00  0.00     0.016 A 
ATOM     30  C   UNL A   1      36.010  29.232  27.865  1.00  0.00     0.010 A 
ATOM     31  C   UNL A   1      36.026  31.570  28.075  1.00  0.00     0.010 A 
ATOM     32  C   UNL A   1      36.669  30.351  28.378  1.00  0.00    -0.014 A 
BRANCH  32  33
ATOM     33  C   UNL A   1      37.931  30.285  29.250  1.00  0.00     0.031 A 
ATOM     34  C   UNL A   1      39.163  29.539  28.726  1.00  0.00     0.074 A 
ATOM     35  C   UNL A   1      38.127  30.896  30.450  1.00  0.00     0.049 A 
ATOM     36  N   UNL A   1      40.099  28.892  29.383  1.00  0.00    -0.248 NA
ATOM     37  C   UNL A   1      39.347  29.500  27.266  1.00  0.00     0.031 C 
ATOM     38  C   UNL A   1      37.250  31.846  31.134  1.00  0.00     0.029 A 
ATOM     39  N   UNL A   1      39.194  30.790  31.336  1.00  0.00    -0.354 N 
ATOM     40  C   UNL A   1      40.874  28.249  28.419  1.00  0.00     0.074 A 
ATOM     41  C   UNL A   1      40.317  28.605  27.133  1.00  0.00     0.031 C 
ATOM     42  C   UNL A   1      37.823  32.276  32.266  1.00  0.00     0.029 A 
ATOM     43  C   UNL A   1      39.023  31.500  32.506  1.00  0.00     0.049 A 
ATOM     44  H   UNL A   1      39.999  30.255  31.145  1.00  0.00     0.167 HD
ATOM     45  C   UNL A   1      41.943  27.428  28.587  1.00  0.00     0.031 A 
ATOM     46  C   UNL A   1      39.661  31.479  33.694  1.00  0.00     0.031 A 
ATOM     47  C   UNL A   1      42.600  27.202  29.851  1.00  0.00     0.049 A 
ATOM     48  C   UNL A   1      40.782  30.506  33.915  1.00  0.00     0.074 A 
ATOM     49  C   UNL A   1      43.659  26.357  30.145  1.00  0.00     0.029 A 
ATOM     50  N   UNL A   1      42.306  27.887  31.018  1.00  0.00    -0.354 N 
ATOM     51  N   UNL A   1      41.343  29.685  33.064  1.00  0.00    -0.248 NA
ATOM     52  C   UNL A   1      41.333  30.433  35.276  1.00  0.00     0.031 C 
ATOM     53  C   UNL A   1      43.987  26.513  31.497  1.00  0.00     0.029 A 
ATOM     54  C   UNL A   1      43.169  27.495  32.028  1.00  0.00     0.049 A 
ATOM     55  H   UNL A   1      41.589  28.554  31.116  1.00  0.00     0.167 HD
ATOM     56  C   UNL A   1      42.325  29.015  33.780  1.00  0.00     0.074 A 
ATOM     57  C   UNL A   1      42.303  29.543  35.127  1.00  0.00     0.031 C 
ATOM     58  C   UNL A   1      43.165  28.040  33.358  1.00  0.00     0.031 A 
BRANCH  45  59
ATOM     59  C   UNL A   1      42.442  26.656  27.390  1.00  0.00    -0.014 A 
ATOM     60  C   UNL A   1      41.891  25.429  26.996  1.00  0.00     0.009 A 
ATOM     61  C   UNL A   1      43.476  27.210  26.612  1.00  0.00     0.009 A 
ATOM     62  C   UNL A   1      42.395  24.752  25.879  1.00  0.00     0.001 A 
ATOM     63  C   UNL A   1      43.953  26.550  25.477  1.00  0.00     0.001 A 
ATOM     64  C   UNL A   1      43.421  25.315  25.119  1.00  0.00     0.000 A 
ENDBRANCH  45  59
BRANCH  46  65
ATOM     65  C   UNL A   1      39.163  32.304  34.839  1.00  0.00    -0.014 A 
ATOM     66  C   UNL A   1      39.636  33.608  35.053  1.00  0.00     0.009 A 
ATOM     67  C   UNL A   1      38.243  31.766  35.757  1.00  0.00     0.009 A 
ATOM     68  C   UNL A   1      39.219  34.340  36.170  1.00  0.00     0.001 A 
ATOM     69  C   UNL A   1      37.791  32.516  36.845  1.00  0.00     0.001 A 
ATOM     70  C   UNL A   1      38.291  33.799  37.059  1.00  0.00     0.000 A 
ENDBRANCH  46  65
BRANCH  58  71
ATOM     71  C   UNL A   1      44.187  27.546  34.339  1.00  0.00    -0.014 A 
ATOM     72  C   UNL A   1      43.936  26.445  35.173  1.00  0.00     0.009 A 
ATOM     73  C   UNL A   1      45.427  28.199  34.427  1.00  0.00     0.009 A 
ATOM     74  C   UNL A   1      44.892  26.034  36.104  1.00  0.00     0.001 A 
ATOM     75  C   UNL A   1      46.392  27.766  35.338  1.00  0.00     0.001 A 
ATOM     76  C   UNL A   1      46.120  26.692  36.183  1.00  0.00     0.000 A 
ENDBRANCH  58  71
ENDBRANCH  32  33
ENDBRANCH  25  27
ENDBRANCH  24  25
ENDBRANCH  23  24
ENDBRANCH   1  23
TORSDOF 15
ENDMDL
MODEL 2
REMARK VINA RESULT:     -10.6      3.863      6.197
REMARK SMILES CCN(Cc1ccccn1)c1nc(C)cc(C)c1C(=O)OCCOC(=O)c1ccc(-c2c3nc(c(-c4ccccc4)c4ccc([nH]4)c(-c4ccccc4)c4nc(c(-c5ccccc5)c5ccc2[nH]5)C=C4)C=C3)cc1
REMARK SMILES IDX 22 1 21 2 19 3 20 4 18 5 11 6 12 7 13 8 16 9 14 10 15 11
REMARK SMILES IDX 17 12 3 13 2 14 1 15 4 16 5 17 6 18 10 19 7 20 9 21 8 22
REMARK SMILES IDX 23 23 24 24 25 25 26 26 27 27 28 28 74 29 29 30 73 31 30 32
REMARK SMILES IDX 31 33 32 34 67 35 33 36 72 37 66 38 68 39 34 40 71 41 65 42
REMARK SMILES IDX 64 43 35 45 57 46 42 47 56 48 43 49 46 50 55 51 69 52 44 53
REMARK SMILES IDX 45 54 54 56 70 57 47 58 36 59 37 60 41 61 38 62 40 63 39 64
REMARK SMILES IDX 58 65 59 66 63 67 60 68 62 69 61 70 48 71 49 72 53 73 50 74
REMARK SMILES IDX 52 75 51 76
REMARK H PARENT 68 44 46 55
REMARK Flexibility Score: inf
ROOT
ATOM      1  C   UNL A   1      36.782  22.320  23.853  1.00  0.00     0.275 C 
ENDROOT
BRANCH   1   2
ATOM      2  O   UNL A   1      35.751  22.902  24.689  1.00  0.00    -0.458 OA
BRANCH   2   3
ATOM      3  C   UNL A   1      34.620  23.300  24.043  1.00  0.00     0.342 C 
ATOM      4  O   UNL A   1      34.564  23.775  22.919  1.00  0.00    -0.246 OA
BRANCH   3   5
ATOM      5  C   UNL A   1      33.436  23.152  24.920  1.00  0.00     0.105 A 
ATOM      6  C   UNL A   1      32.604  22.012  24.881  1.00  0.00     0.144 A 
ATOM      7  N   UNL A   1      31.419  22.026  25.536  1.00  0.00    -0.235 NA
ATOM      8  C   UNL A   1      31.080  23.075  26.314  1.00  0.00     0.040 A 
ATOM      9  C   UNL A   1      33.057  24.273  25.687  1.00  0.00    -0.031 A 
ATOM     10  C   UNL A   1      29.835  22.906  27.128  1.00  0.00     0.067 C 
ATOM     11  C   UNL A   1      31.873  24.205  26.423  1.00  0.00     0.028 A 
ATOM     12  C   UNL A   1      33.899  25.516  25.741  1.00  0.00     0.045 C 
BRANCH   6  13
ATOM     13  N   UNL A   1      32.901  20.821  24.265  1.00  0.00    -0.350 N 
BRANCH  13  14
ATOM     14  C   UNL A   1      32.153  20.343  23.131  1.00  0.00     0.115 C 
ATOM     15  C   UNL A   1      32.108  21.464  22.098  1.00  0.00     0.027 C 
ENDBRANCH  13  14
BRANCH  13  16
ATOM     16  C   UNL A   1      34.027  19.990  24.696  1.00  0.00     0.174 C 
BRANCH  16  17
ATOM     17  C   UNL A   1      33.799  18.491  24.791  1.00  0.00     0.060 A 
ATOM     18  C   UNL A   1      32.864  18.035  25.723  1.00  0.00     0.026 A 
ATOM     19  N   UNL A   1      34.373  17.662  23.875  1.00  0.00    -0.259 NA
ATOM     20  C   UNL A   1      32.527  16.688  25.751  1.00  0.00     0.004 A 
ATOM     21  C   UNL A   1      34.036  16.352  23.941  1.00  0.00     0.111 A 
ATOM     22  C   UNL A   1      33.130  15.825  24.848  1.00  0.00     0.020 A 
ENDBRANCH  16  17
ENDBRANCH  13  16
ENDBRANCH   6  13
ENDBRANCH   3   5
ENDBRANCH   2   3
ENDBRANCH   1   2
BRANCH   1  23
ATOM     23  C   UNL A   1      37.414  21.101  24.556  1.00  0.00     0.275 C 
BRANCH  23  24
ATOM     24  O   UNL A   1      37.816  21.429  25.909  1.00  0.00    -0.458 OA
BRANCH  24  25
ATOM     25  C   UNL A   1      39.152  21.561  26.152  1.00  0.00     0.338 C 
ATOM     26  O   UNL A   1      40.028  20.822  25.730  1.00  0.00    -0.246 OA
BRANCH  25  27
ATOM     27  C   UNL A   1      39.435  22.837  26.887  1.00  0.00     0.060 A 
ATOM     28  C   UNL A   1      38.598  23.928  26.769  1.00  0.00     0.016 A 
ATOM     29  C   UNL A   1      40.623  23.031  27.586  1.00  0.00     0.016 A 
ATOM     30  C   UNL A   1      39.088  25.225  26.988  1.00  0.00     0.010 A 
ATOM     31  C   UNL A   1      41.016  24.334  27.989  1.00  0.00     0.010 A 
ATOM     32  C   UNL A   1      40.335  25.492  27.559  1.00  0.00    -0.014 A 
BRANCH  32  33
ATOM     33  C   UNL A   1      40.957  26.892  27.656  1.00  0.00     0.031 A 
ATOM     34  C   UNL A   1      42.270  27.179  26.921  1.00  0.00     0.074 A 
ATOM     35  C   UNL A   1      40.428  27.979  28.282  1.00  0.00     0.049 A 
ATOM     36  N   UNL A   1      43.243  28.009  27.225  1.00  0.00    -0.248 NA
ATOM     37  C   UNL A   1      42.527  26.410  25.692  1.00  0.00     0.031 C 
ATOM     38  C   UNL A   1      39.107  28.114  28.895  1.00  0.00     0.029 A 
ATOM     39  N   UNL A   1      40.985  29.235  28.502  1.00  0.00    -0.354 N 
ATOM     40  C   UNL A   1      44.274  27.742  26.325  1.00  0.00     0.074 A 
ATOM     41  C   UNL A   1      43.800  26.694  25.448  1.00  0.00     0.031 C 
ATOM     42  C   UNL A   1      38.931  29.361  29.350  1.00  0.00     0.029 A 
ATOM     43  C   UNL A   1      40.185  30.079  29.244  1.00  0.00     0.049 A 
ATOM     44  H   UNL A   1      41.870  29.497  28.158  1.00  0.00     0.167 HD
ATOM     45  C   UNL A   1      45.507  28.306  26.243  1.00  0.00     0.031 A 
ATOM     46  C   UNL A   1      40.424  31.244  29.880  1.00  0.00     0.031 A 
ATOM     47  C   UNL A   1      45.923  29.457  27.006  1.00  0.00     0.049 A 
ATOM     48  C   UNL A   1      41.809  31.823  29.870  1.00  0.00     0.074 A 
ATOM     49  C   UNL A   1      47.160  30.082  27.038  1.00  0.00     0.029 A 
ATOM     50  N   UNL A   1      45.084  30.203  27.816  1.00  0.00    -0.354 N 
ATOM     51  N   UNL A   1      42.873  31.408  29.231  1.00  0.00    -0.248 NA
ATOM     52  C   UNL A   1      42.031  33.013  30.705  1.00  0.00     0.031 C 
ATOM     53  C   UNL A   1      47.074  31.191  27.887  1.00  0.00     0.029 A 
ATOM     54  C   UNL A   1      45.770  31.287  28.339  1.00  0.00     0.049 A 
ATOM     55  H   UNL A   1      44.138  29.994  27.994  1.00  0.00     0.167 HD
ATOM     56  C   UNL A   1      43.883  32.299  29.568  1.00  0.00     0.074 A 
ATOM     57  C   UNL A   1      43.301  33.290  30.446  1.00  0.00     0.031 C 
ATOM     58  C   UNL A   1      45.183  32.287  29.189  1.00  0.00     0.031 A 
BRANCH  45  59
ATOM     59  C   UNL A   1      46.528  27.656  25.343  1.00  0.00    -0.014 A 
ATOM     60  C   UNL A   1      46.782  28.101  24.037  1.00  0.00     0.009 A 
ATOM     61  C   UNL A   1      47.289  26.584  25.847  1.00  0.00     0.009 A 
ATOM     62  C   UNL A   1      47.738  27.458  23.243  1.00  0.00     0.001 A 
ATOM     63  C   UNL A   1      48.268  25.967  25.064  1.00  0.00     0.001 A 
ATOM     64  C   UNL A   1      48.483  26.396  23.758  1.00  0.00     0.000 A 
ENDBRANCH  45  59
BRANCH  46  65
ATOM     65  C   UNL A   1      39.362  31.883  30.720  1.00  0.00    -0.014 A 
ATOM     66  C   UNL A   1      38.655  33.006  30.264  1.00  0.00     0.009 A 
ATOM     67  C   UNL A   1      39.087  31.396  32.010  1.00  0.00     0.009 A 
ATOM     68  C   UNL A   1      37.719  33.639  31.089  1.00  0.00     0.001 A 
ATOM     69  C   UNL A   1      38.117  32.000  32.814  1.00  0.00     0.001 A 
ATOM     70  C   UNL A   1      37.444  33.131  32.358  1.00  0.00     0.000 A 
ENDBRANCH  46  65
BRANCH  58  71
ATOM     71  C   UNL A   1      46.040  33.429  29.650  1.00  0.00    -0.014 A 
ATOM     72  C   UNL A   1      46.172  34.604  28.893  1.00  0.00     0.009 A 
ATOM     73  C   UNL A   1      46.726  33.324  30.870  1.00  0.00     0.009 A 
ATOM     74  C   UNL A   1      47.007  35.634  29.330  1.00  0.00     0.001 A 
ATOM     75  C   UNL A   1      47.537  34.368  31.319  1.00  0.00     0.001 A 
ATOM     76  C   UNL A   1      47.687  35.516  30.543  1.00  0.00     0.000 A 
ENDBRANCH  58  71
ENDBRANCH  32  33
ENDBRANCH  25  27
ENDBRANCH  24  25
ENDBRANCH  23  24
ENDBRANCH   1  23
TORSDOF 15
ENDMDL
MODEL 3
REMARK VINA RESULT:     -10.5      1.512      3.159
REMARK SMILES CCN(Cc1ccccn1)c1nc(C)cc(C)c1C(=O)OCCOC(=O)c1ccc(-c2c3nc(c(-c4ccccc4)c4ccc([nH]4)c(-c4ccccc4)c4nc(c(-c5ccccc5)c5ccc2[nH]5)C=C4)C=C3)cc1
REMARK SMILES IDX 22 1 21 2 19 3 20 4 18 5 11 6 12 7 13 8 16 9 14 10 15 11
REMARK SMILES IDX 17 12 3 13 2 14 1 15 4 16 5 17 6 18 10 19 7 20 9 21 8 22
REMARK SMILES IDX 23 23 24 24 25 25 26 26 27 27 28 28 74 29 29 30 73 31 30 32
REMARK SMILES IDX 31 33 32 34 67 35 33 36 72 37 66 38 68 39 34 40 71 41 65 42
REMARK SMILES IDX 64 43 35 45 57 46 42 47 56 48 43 49 46 50 55 51 69 52 44 53
REMARK SMILES IDX 45 54 54 56 70 57 47 58 36 59 37 60 41 61 38 62 40 63 39 64
REMARK SMILES IDX 58 65 59 66 63 67 60 68 62 69 61 70 48 71 49 72 53 73 50 74
REMARK SMILES IDX 52 75 51 76
REMARK H PARENT 68 44 46 55
REMARK Flexibility Score: inf
ROOT
ATOM      1  C   UNL A   1      31.896  26.673  26.615  1.00  0.00     0.275 C 
ENDROOT
BRANCH   1   2
ATOM      2  O   UNL A   1      33.277  26.559  26.192  1.00  0.00    -0.458 OA
BRANCH   2   3
ATOM      3  C   UNL A   1      33.486  26.558  24.847  1.00  0.00     0.342 C 
ATOM      4  O   UNL A   1      33.795  27.526  24.168  1.00  0.00    -0.246 OA
BRANCH   3   5
ATOM      5  C   UNL A   1      33.214  25.220  24.273  1.00  0.00     0.105 A 
ATOM      6  C   UNL A   1      32.060  24.946  23.507  1.00  0.00     0.144 A 
ATOM      7  N   UNL A   1      31.750  23.665  23.200  1.00  0.00    -0.235 NA
ATOM      8  C   UNL A   1      32.592  22.661  23.523  1.00  0.00     0.040 A 
ATOM      9  C   UNL A   1      34.067  24.167  24.661  1.00  0.00    -0.031 A 
ATOM     10  C   UNL A   1      32.236  21.312  22.979  1.00  0.00     0.067 C 
ATOM     11  C   UNL A   1      33.759  22.872  24.239  1.00  0.00     0.028 A 
ATOM     12  C   UNL A   1      35.294  24.407  25.494  1.00  0.00     0.045 C 
BRANCH   6  13
ATOM     13  N   UNL A   1      31.207  25.882  22.977  1.00  0.00    -0.350 N 
BRANCH  13  14
ATOM     14  C   UNL A   1      31.426  26.461  21.676  1.00  0.00     0.115 C 
ATOM     15  C   UNL A   1      32.645  25.779  21.064  1.00  0.00     0.027 C 
ENDBRANCH  13  14
BRANCH  13  16
ATOM     16  C   UNL A   1      29.999  26.312  23.683  1.00  0.00     0.174 C 
BRANCH  16  17
ATOM     17  C   UNL A   1      29.472  27.708  23.392  1.00  0.00     0.060 A 
ATOM     18  C   UNL A   1      28.103  27.846  23.150  1.00  0.00     0.026 A 
ATOM     19  N   UNL A   1      30.295  28.783  23.537  1.00  0.00    -0.259 NA
ATOM     20  C   UNL A   1      27.558  29.116  23.012  1.00  0.00     0.004 A 
ATOM     21  C   UNL A   1      29.735  30.006  23.379  1.00  0.00     0.111 A 
ATOM     22  C   UNL A   1      28.391  30.221  23.120  1.00  0.00     0.020 A 
ENDBRANCH  16  17
ENDBRANCH  13  16
ENDBRANCH   6  13
ENDBRANCH   3   5
ENDBRANCH   2   3
ENDBRANCH   1   2
BRANCH   1  23
ATOM     23  C   UNL A   1      31.440  28.145  26.557  1.00  0.00     0.275 C 
BRANCH  23  24
ATOM     24  O   UNL A   1      32.169  28.955  27.512  1.00  0.00    -0.458 OA
BRANCH  24  25
ATOM     25  C   UNL A   1      32.628  30.167  27.085  1.00  0.00     0.338 C 
ATOM     26  O   UNL A   1      31.932  31.103  26.722  1.00  0.00    -0.246 OA
BRANCH  25  27
ATOM     27  C   UNL A   1      34.114  30.266  27.261  1.00  0.00     0.060 A 
ATOM     28  C   UNL A   1      34.917  29.148  27.166  1.00  0.00     0.016 A 
ATOM     29  C   UNL A   1      34.725  31.444  27.678  1.00  0.00     0.016 A 
ATOM     30  C   UNL A   1      36.158  29.110  27.823  1.00  0.00     0.010 A 
ATOM     31  C   UNL A   1      36.062  31.432  28.152  1.00  0.00     0.010 A 
ATOM     32  C   UNL A   1      36.766  30.232  28.389  1.00  0.00    -0.014 A 
BRANCH  32  33
ATOM     33  C   UNL A   1      38.036  30.184  29.250  1.00  0.00     0.031 A 
ATOM     34  C   UNL A   1      39.271  29.448  28.719  1.00  0.00     0.074 A 
ATOM     35  C   UNL A   1      38.236  30.802  30.446  1.00  0.00     0.049 A 
ATOM     36  N   UNL A   1      40.219  28.814  29.371  1.00  0.00    -0.248 NA
ATOM     37  C   UNL A   1      39.443  29.403  27.257  1.00  0.00     0.031 C 
ATOM     38  C   UNL A   1      37.356  31.746  31.133  1.00  0.00     0.029 A 
ATOM     39  N   UNL A   1      39.312  30.711  31.323  1.00  0.00    -0.354 N 
ATOM     40  C   UNL A   1      40.993  28.174  28.403  1.00  0.00     0.074 A 
ATOM     41  C   UNL A   1      40.420  28.517  27.120  1.00  0.00     0.031 C 
ATOM     42  C   UNL A   1      37.934  32.188  32.257  1.00  0.00     0.029 A 
ATOM     43  C   UNL A   1      39.144  31.426  32.490  1.00  0.00     0.049 A 
ATOM     44  H   UNL A   1      40.121  30.184  31.127  1.00  0.00     0.167 HD
ATOM     45  C   UNL A   1      42.072  27.364  28.566  1.00  0.00     0.031 A 
ATOM     46  C   UNL A   1      39.792  31.417  33.673  1.00  0.00     0.031 A 
ATOM     47  C   UNL A   1      42.741  27.151  29.825  1.00  0.00     0.049 A 
ATOM     48  C   UNL A   1      40.926  30.456  33.888  1.00  0.00     0.074 A 
ATOM     49  C   UNL A   1      43.811  26.318  30.114  1.00  0.00     0.029 A 
ATOM     50  N   UNL A   1      42.450  27.839  30.991  1.00  0.00    -0.354 N 
ATOM     51  N   UNL A   1      41.487  29.637  33.037  1.00  0.00    -0.248 NA
ATOM     52  C   UNL A   1      41.489  30.395  35.246  1.00  0.00     0.031 C 
ATOM     53  C   UNL A   1      44.150  26.485  31.462  1.00  0.00     0.029 A 
ATOM     54  C   UNL A   1      43.326  27.461  31.996  1.00  0.00     0.049 A 
ATOM     55  H   UNL A   1      41.727  28.499  31.092  1.00  0.00     0.167 HD
ATOM     56  C   UNL A   1      42.482  28.981  33.748  1.00  0.00     0.074 A 
ATOM     57  C   UNL A   1      42.467  29.515  35.093  1.00  0.00     0.031 C 
ATOM     58  C   UNL A   1      43.328  28.012  33.323  1.00  0.00     0.031 A 
BRANCH  45  59
ATOM     59  C   UNL A   1      42.568  26.592  27.369  1.00  0.00    -0.014 A 
ATOM     60  C   UNL A   1      43.606  27.051  26.546  1.00  0.00     0.009 A 
ATOM     61  C   UNL A   1      41.994  25.337  27.089  1.00  0.00     0.009 A 
ATOM     62  C   UNL A   1      44.024  26.296  25.445  1.00  0.00     0.001 A 
ATOM     63  C   UNL A   1      42.438  24.568  26.010  1.00  0.00     0.001 A 
ATOM     64  C   UNL A   1      43.445  25.054  25.181  1.00  0.00     0.000 A 
ENDBRANCH  45  59
BRANCH  46  65
ATOM     65  C   UNL A   1      39.296  32.242  34.818  1.00  0.00    -0.014 A 
ATOM     66  C   UNL A   1      38.314  31.752  35.694  1.00  0.00     0.009 A 
ATOM     67  C   UNL A   1      39.771  33.552  35.011  1.00  0.00     0.009 A 
ATOM     68  C   UNL A   1      37.804  32.562  36.714  1.00  0.00     0.001 A 
ATOM     69  C   UNL A   1      39.296  34.342  36.060  1.00  0.00     0.001 A 
ATOM     70  C   UNL A   1      38.302  33.851  36.903  1.00  0.00     0.000 A 
ENDBRANCH  46  65
BRANCH  58  71
ATOM     71  C   UNL A   1      44.364  27.534  34.298  1.00  0.00    -0.014 A 
ATOM     72  C   UNL A   1      45.627  28.138  34.387  1.00  0.00     0.009 A 
ATOM     73  C   UNL A   1      44.064  26.455  35.144  1.00  0.00     0.009 A 
ATOM     74  C   UNL A   1      46.584  27.646  35.277  1.00  0.00     0.001 A 
ATOM     75  C   UNL A   1      45.012  25.984  36.054  1.00  0.00     0.001 A 
ATOM     76  C   UNL A   1      46.274  26.571  36.111  1.00  0.00     0.000 A 
ENDBRANCH  58  71
ENDBRANCH  32  33
ENDBRANCH  25  27
ENDBRANCH  24  25
ENDBRANCH  23  24
ENDBRANCH   1  23
TORSDOF 15
ENDMDL
