MODEL 1
REMARK VINA RESULT:     -11.1      0.000      0.000
REMARK SMILES CCOc1ccc(-c2cnc(N)cc2C(=O)OCCOC(=O)c2ccc(-c3c4nc(c(-c5ccccc5)c5ccc([nH]5)c(-c5ccccc5)c5nc(c(-c6ccccc6)c6ccc3[nH]6)C=C5)C=C4)cc2)c(Cl)c1
REMARK SMILES IDX 18 1 17 2 15 3 16 4 14 5 8 6 9 7 10 8 13 9 11 10 7 11 4 12
REMARK SMILES IDX 5 13 73 14 6 15 71 16 72 17 3 18 2 19 1 20 12 21 19 24 20 25
REMARK SMILES IDX 21 26 22 27 23 28 24 29 70 30 25 31 69 32 26 33 27 34 28 35
REMARK SMILES IDX 63 36 29 37 68 38 62 39 64 40 30 41 67 42 61 43 60 44 31 46
REMARK SMILES IDX 53 47 38 48 52 49 39 50 42 51 51 52 65 53 40 54 41 55 50 57
REMARK SMILES IDX 66 58 43 59 32 60 33 61 37 62 34 63 36 64 35 65 54 66 55 67
REMARK SMILES IDX 59 68 56 69 58 70 57 71 44 72 45 73 49 74 46 75 48 76 47 77
REMARK H PARENT 12 22 12 23 64 45 42 56
REMARK Flexibility Score: inf
ROOT
ATOM      1  C   UNL A   1      45.621  22.492  39.868  1.00  0.00     0.275 C 
ENDROOT
BRANCH   1   2
ATOM      2  O   UNL A   1      46.507  21.396  40.186  1.00  0.00    -0.458 OA
BRANCH   2   3
ATOM      3  C   UNL A   1      46.598  20.429  39.242  1.00  0.00     0.339 C 
ATOM      4  O   UNL A   1      45.891  20.298  38.257  1.00  0.00    -0.246 OA
BRANCH   3   5
ATOM      5  C   UNL A   1      47.637  19.452  39.616  1.00  0.00     0.073 A 
ATOM      6  C   UNL A   1      47.341  18.199  40.184  1.00  0.00     0.016 A 
ATOM      7  C   UNL A   1      48.436  17.498  40.663  1.00  0.00     0.123 A 
ATOM      8  N   UNL A   1      49.717  17.960  40.648  1.00  0.00    -0.239 NA
ATOM      9  C   UNL A   1      48.946  19.936  39.564  1.00  0.00     0.062 A 
ATOM     10  C   UNL A   1      49.951  19.168  40.108  1.00  0.00     0.124 A 
BRANCH   6  11
ATOM     11  C   UNL A   1      45.964  17.740  40.424  1.00  0.00     0.003 A 
ATOM     12  C   UNL A   1      42.859  15.703  40.681  1.00  0.00     0.120 A 
ATOM     13  C   UNL A   1      43.691  15.976  39.182  1.00  0.00     0.047 A 
ATOM     14  C   UNL A   1      43.520  16.431  42.174  1.00  0.00     0.067 A 
ATOM     15  C   UNL A   1      45.172  16.941  39.049  1.00  0.00     0.014 A 
ATOM     16  C   UNL A   1      45.183  17.590  42.069  1.00  0.00     0.052 A 
ATOM     17  Cl  UNL A   1      46.189  18.611  43.196  1.00  0.00    -0.084 Cl
BRANCH  12  18
ATOM     18  O   UNL A   1      41.592  15.228  40.838  1.00  0.00    -0.494 OA
BRANCH  18  19
ATOM     19  C   UNL A   1      41.363  13.845  40.628  1.00  0.00     0.226 C 
ATOM     20  C   UNL A   1      41.776  12.987  41.811  1.00  0.00     0.049 C 
ENDBRANCH  18  19
ENDBRANCH  12  18
ENDBRANCH   6  11
BRANCH  10  21
ATOM     21  N   UNL A   1      51.225  19.681  40.234  1.00  0.00    -0.384 N 
ATOM     22  H   UNL A   1      51.811  19.744  39.445  1.00  0.00     0.158 HD
ATOM     23  H   UNL A   1      51.549  19.985  41.112  1.00  0.00     0.158 HD
ENDBRANCH  10  21
ENDBRANCH   3   5
ENDBRANCH   2   3
ENDBRANCH   1   2
BRANCH   1  24
ATOM     24  C   UNL A   1      46.276  23.418  38.849  1.00  0.00     0.275 C 
BRANCH  24  25
ATOM     25  O   UNL A   1      45.319  23.703  37.811  1.00  0.00    -0.458 OA
BRANCH  25  26
ATOM     26  C   UNL A   1      45.796  23.561  36.559  1.00  0.00     0.338 C 
ATOM     27  O   UNL A   1      46.599  22.736  36.159  1.00  0.00    -0.246 OA
BRANCH  26  28
ATOM     28  C   UNL A   1      45.111  24.472  35.635  1.00  0.00     0.060 A 
ATOM     29  C   UNL A   1      45.973  25.879  34.933  1.00  0.00     0.016 A 
ATOM     30  C   UNL A   1      43.360  24.550  35.751  1.00  0.00     0.016 A 
ATOM     31  C   UNL A   1      44.883  27.504  34.408  1.00  0.00     0.010 A 
ATOM     32  C   UNL A   1      42.397  25.955  35.211  1.00  0.00     0.010 A 
ATOM     33  C   UNL A   1      43.086  27.452  34.531  1.00  0.00    -0.014 A 
BRANCH  33  34
ATOM     34  C   UNL A   1      42.193  28.387  33.700  1.00  0.00     0.031 A 
ATOM     35  C   UNL A   1      41.274  29.384  34.397  1.00  0.00     0.074 A 
ATOM     36  C   UNL A   1      42.010  28.253  32.357  1.00  0.00     0.049 A 
ATOM     37  N   UNL A   1      40.189  29.980  33.953  1.00  0.00    -0.248 NA
ATOM     38  C   UNL A   1      41.613  29.751  35.780  1.00  0.00     0.031 C 
ATOM     39  C   UNL A   1      42.796  27.469  31.412  1.00  0.00     0.029 A 
ATOM     40  N   UNL A   1      41.006  28.755  31.536  1.00  0.00    -0.354 N 
ATOM     41  C   UNL A   1      39.706  30.744  35.011  1.00  0.00     0.074 A 
ATOM     42  C   UNL A   1      40.544  30.442  36.151  1.00  0.00     0.031 C 
ATOM     43  C   UNL A   1      42.217  27.435  30.212  1.00  0.00     0.029 A 
ATOM     44  C   UNL A   1      41.000  28.198  30.270  1.00  0.00     0.049 A 
ATOM     45  H   UNL A   1      40.362  29.440  31.827  1.00  0.00     0.167 HD
ATOM     46  C   UNL A   1      38.718  31.676  35.031  1.00  0.00     0.031 A 
ATOM     47  C   UNL A   1      40.148  28.248  29.229  1.00  0.00     0.031 A 
ATOM     48  C   UNL A   1      37.944  32.077  33.883  1.00  0.00     0.049 A 
ATOM     49  C   UNL A   1      39.006  29.192  29.279  1.00  0.00     0.074 A 
ATOM     50  C   UNL A   1      37.028  33.111  33.778  1.00  0.00     0.029 A 
ATOM     51  N   UNL A   1      38.009  31.478  32.636  1.00  0.00    -0.354 N 
ATOM     52  N   UNL A   1      38.610  29.936  30.278  1.00  0.00    -0.248 NA
ATOM     53  C   UNL A   1      38.254  29.378  28.033  1.00  0.00     0.031 C 
ATOM     54  C   UNL A   1      36.507  33.111  32.479  1.00  0.00     0.029 A 
ATOM     55  C   UNL A   1      37.133  32.107  31.762  1.00  0.00     0.049 A 
ATOM     56  H   UNL A   1      38.590  30.718  32.403  1.00  0.00     0.167 HD
ATOM     57  C   UNL A   1      37.619  30.747  29.758  1.00  0.00     0.074 A 
ATOM     58  C   UNL A   1      37.453  30.379  28.367  1.00  0.00     0.031 C 
ATOM     59  C   UNL A   1      36.948  31.742  30.383  1.00  0.00     0.031 A 
BRANCH  46  60
ATOM     60  C   UNL A   1      38.457  32.382  36.340  1.00  0.00    -0.014 A 
ATOM     61  C   UNL A   1      39.004  33.650  36.606  1.00  0.00     0.009 A 
ATOM     62  C   UNL A   1      37.636  31.790  37.313  1.00  0.00     0.009 A 
ATOM     63  C   UNL A   1      38.795  34.275  37.838  1.00  0.00     0.001 A 
ATOM     64  C   UNL A   1      37.397  32.434  38.530  1.00  0.00     0.001 A 
ATOM     65  C   UNL A   1      37.992  33.666  38.798  1.00  0.00     0.000 A 
ENDBRANCH  46  60
BRANCH  47  66
ATOM     66  C   UNL A   1      40.410  27.427  28.014  1.00  0.00    -0.014 A 
ATOM     67  C   UNL A   1      41.264  27.894  27.003  1.00  0.00     0.009 A 
ATOM     68  C   UNL A   1      39.839  26.150  27.884  1.00  0.00     0.009 A 
ATOM     69  C   UNL A   1      41.525  27.107  25.878  1.00  0.00     0.001 A 
ATOM     70  C   UNL A   1      40.119  25.358  26.767  1.00  0.00     0.001 A 
ATOM     71  C   UNL A   1      40.956  25.839  25.762  1.00  0.00     0.000 A 
ENDBRANCH  47  66
BRANCH  59  72
ATOM     72  C   UNL A   1      36.010  32.547  29.536  1.00  0.00    -0.014 A 
ATOM     73  C   UNL A   1      34.750  32.055  29.168  1.00  0.00     0.009 A 
ATOM     74  C   UNL A   1      36.410  33.815  29.086  1.00  0.00     0.009 A 
ATOM     75  C   UNL A   1      33.922  32.804  28.331  1.00  0.00     0.001 A 
ATOM     76  C   UNL A   1      35.567  34.574  28.277  1.00  0.00     0.001 A 
ATOM     77  C   UNL A   1      34.328  34.063  27.891  1.00  0.00     0.000 A 
ENDBRANCH  59  72
ENDBRANCH  33  34
ENDBRANCH  26  28
ENDBRANCH  25  26
ENDBRANCH  24  25
ENDBRANCH   1  24
TORSDOF 15
ENDMDL
MODEL 2
REMARK VINA RESULT:     -10.9      7.922     16.297
REMARK SMILES CCOc1ccc(-c2cnc(N)cc2C(=O)OCCOC(=O)c2ccc(-c3c4nc(c(-c5ccccc5)c5ccc([nH]5)c(-c5ccccc5)c5nc(c(-c6ccccc6)c6ccc3[nH]6)C=C5)C=C4)cc2)c(Cl)c1
REMARK SMILES IDX 18 1 17 2 15 3 16 4 14 5 8 6 9 7 10 8 13 9 11 10 7 11 4 12
REMARK SMILES IDX 5 13 73 14 6 15 71 16 72 17 3 18 2 19 1 20 12 21 19 24 20 25
REMARK SMILES IDX 21 26 22 27 23 28 24 29 70 30 25 31 69 32 26 33 27 34 28 35
REMARK SMILES IDX 63 36 29 37 68 38 62 39 64 40 30 41 67 42 61 43 60 44 31 46
REMARK SMILES IDX 53 47 38 48 52 49 39 50 42 51 51 52 65 53 40 54 41 55 50 57
REMARK SMILES IDX 66 58 43 59 32 60 33 61 37 62 34 63 36 64 35 65 54 66 55 67
REMARK SMILES IDX 59 68 56 69 58 70 57 71 44 72 45 73 49 74 46 75 48 76 47 77
REMARK H PARENT 12 22 12 23 64 45 42 56
REMARK Flexibility Score: inf
ROOT
ATOM      1  C   UNL A   1      31.561  28.278  27.003  1.00  0.00     0.275 C 
ENDROOT
BRANCH   1   2
ATOM      2  O   UNL A   1      31.437  26.924  26.516  1.00  0.00    -0.458 OA
BRANCH   2   3
ATOM      3  C   UNL A   1      32.525  26.434  25.874  1.00  0.00     0.339 C 
ATOM      4  O   UNL A   1      33.598  26.993  25.720  1.00  0.00    -0.246 OA
BRANCH   3   5
ATOM      5  C   UNL A   1      32.212  25.125  25.273  1.00  0.00     0.073 A 
ATOM      6  C   UNL A   1      31.365  24.977  24.158  1.00  0.00     0.016 A 
ATOM      7  C   UNL A   1      31.016  23.671  23.855  1.00  0.00     0.123 A 
ATOM      8  N   UNL A   1      31.402  22.581  24.574  1.00  0.00    -0.239 NA
ATOM      9  C   UNL A   1      32.643  24.020  26.010  1.00  0.00     0.062 A 
ATOM     10  C   UNL A   1      32.199  22.770  25.639  1.00  0.00     0.124 A 
BRANCH   6  11
ATOM     11  C   UNL A   1      30.744  26.121  23.474  1.00  0.00     0.003 A 
ATOM     12  C   UNL A   1      28.923  29.273  22.696  1.00  0.00     0.120 A 
ATOM     13  C   UNL A   1      28.182  27.925  23.500  1.00  0.00     0.047 A 
ATOM     14  C   UNL A   1      30.641  29.148  22.218  1.00  0.00     0.067 A 
ATOM     15  C   UNL A   1      29.039  26.422  23.879  1.00  0.00     0.014 A 
ATOM     16  C   UNL A   1      31.655  27.427  22.579  1.00  0.00     0.052 A 
ATOM     17  Cl  UNL A   1      33.310  26.740  22.239  1.00  0.00    -0.084 Cl
BRANCH  12  18
ATOM     18  O   UNL A   1      28.288  30.333  22.121  1.00  0.00    -0.494 OA
BRANCH  18  19
ATOM     19  C   UNL A   1      27.990  31.458  22.931  1.00  0.00     0.226 C 
ATOM     20  C   UNL A   1      28.770  32.699  22.536  1.00  0.00     0.049 C 
ENDBRANCH  18  19
ENDBRANCH  12  18
ENDBRANCH   6  11
BRANCH  10  21
ATOM     21  N   UNL A   1      32.458  21.677  26.439  1.00  0.00    -0.384 N 
ATOM     22  H   UNL A   1      32.766  21.806  27.365  1.00  0.00     0.158 HD
ATOM     23  H   UNL A   1      32.337  20.767  26.083  1.00  0.00     0.158 HD
ENDBRANCH  10  21
ENDBRANCH   3   5
ENDBRANCH   2   3
ENDBRANCH   1   2
BRANCH   1  24
ATOM     24  C   UNL A   1      31.407  29.266  25.851  1.00  0.00     0.275 C 
BRANCH  24  25
ATOM     25  O   UNL A   1      32.569  30.115  25.820  1.00  0.00    -0.458 OA
BRANCH  25  26
ATOM     26  C   UNL A   1      32.554  31.114  26.726  1.00  0.00     0.338 C 
ATOM     27  O   UNL A   1      31.666  31.925  26.921  1.00  0.00    -0.246 OA
BRANCH  26  28
ATOM     28  C   UNL A   1      33.731  31.042  27.598  1.00  0.00     0.060 A 
ATOM     29  C   UNL A   1      34.721  32.503  27.919  1.00  0.00     0.016 A 
ATOM     30  C   UNL A   1      34.499  29.472  27.768  1.00  0.00     0.016 A 
ATOM     31  C   UNL A   1      36.682  32.253  28.360  1.00  0.00     0.010 A 
ATOM     32  C   UNL A   1      36.210  29.255  28.237  1.00  0.00     0.010 A 
ATOM     33  C   UNL A   1      37.349  30.589  28.550  1.00  0.00    -0.014 A 
BRANCH  33  34
ATOM     34  C   UNL A   1      38.625  30.320  29.364  1.00  0.00     0.031 A 
ATOM     35  C   UNL A   1      39.643  29.298  28.871  1.00  0.00     0.074 A 
ATOM     36  C   UNL A   1      38.826  30.795  30.625  1.00  0.00     0.049 A 
ATOM     37  N   UNL A   1      40.562  28.637  29.541  1.00  0.00    -0.248 NA
ATOM     38  C   UNL A   1      39.617  28.966  27.440  1.00  0.00     0.031 C 
ATOM     39  C   UNL A   1      38.094  31.846  31.321  1.00  0.00     0.029 A 
ATOM     40  N   UNL A   1      39.716  30.376  31.608  1.00  0.00    -0.354 N 
ATOM     41  C   UNL A   1      41.178  27.793  28.622  1.00  0.00     0.074 A 
ATOM     42  C   UNL A   1      40.449  27.936  27.381  1.00  0.00     0.031 C 
ATOM     43  C   UNL A   1      38.454  31.919  32.603  1.00  0.00     0.029 A 
ATOM     44  C   UNL A   1      39.457  30.919  32.853  1.00  0.00     0.049 A 
ATOM     45  H   UNL A   1      40.458  29.753  31.434  1.00  0.00     0.167 HD
ATOM     46  C   UNL A   1      42.294  27.029  28.756  1.00  0.00     0.031 A 
ATOM     47  C   UNL A   1      39.929  30.688  34.092  1.00  0.00     0.031 A 
ATOM     48  C   UNL A   1      43.102  26.957  29.946  1.00  0.00     0.049 A 
ATOM     49  C   UNL A   1      41.087  29.778  34.262  1.00  0.00     0.074 A 
ATOM     50  C   UNL A   1      44.324  26.328  30.123  1.00  0.00     0.029 A 
ATOM     51  N   UNL A   1      42.783  27.548  31.158  1.00  0.00    -0.354 N 
ATOM     52  N   UNL A   1      41.676  29.035  33.362  1.00  0.00    -0.248 NA
ATOM     53  C   UNL A   1      41.707  29.747  35.592  1.00  0.00     0.031 C 
ATOM     54  C   UNL A   1      44.724  26.503  31.453  1.00  0.00     0.029 A 
ATOM     55  C   UNL A   1      43.773  27.279  32.092  1.00  0.00     0.049 A 
ATOM     56  H   UNL A   1      41.972  28.080  31.331  1.00  0.00     0.167 HD
ATOM     57  C   UNL A   1      42.792  28.516  33.991  1.00  0.00     0.074 A 
ATOM     58  C   UNL A   1      42.777  29.003  35.356  1.00  0.00     0.031 C 
ATOM     59  C   UNL A   1      43.764  27.744  33.454  1.00  0.00     0.031 A 
BRANCH  46  60
ATOM     60  C   UNL A   1      42.749  26.250  27.544  1.00  0.00    -0.014 A 
ATOM     61  C   UNL A   1      43.622  26.817  26.599  1.00  0.00     0.009 A 
ATOM     62  C   UNL A   1      42.323  24.926  27.354  1.00  0.00     0.009 A 
ATOM     63  C   UNL A   1      44.000  26.105  25.459  1.00  0.00     0.001 A 
ATOM     64  C   UNL A   1      42.734  24.202  26.231  1.00  0.00     0.001 A 
ATOM     65  C   UNL A   1      43.556  24.797  25.276  1.00  0.00     0.000 A 
ENDBRANCH  46  60
BRANCH  47  66
ATOM     66  C   UNL A   1      39.344  31.410  35.257  1.00  0.00    -0.014 A 
ATOM     67  C   UNL A   1      38.310  30.835  36.011  1.00  0.00     0.009 A 
ATOM     68  C   UNL A   1      39.853  32.661  35.644  1.00  0.00     0.009 A 
ATOM     69  C   UNL A   1      37.784  31.508  37.118  1.00  0.00     0.001 A 
ATOM     70  C   UNL A   1      39.339  33.319  36.764  1.00  0.00     0.001 A 
ATOM     71  C   UNL A   1      38.301  32.746  37.496  1.00  0.00     0.000 A 
ENDBRANCH  47  66
BRANCH  59  72
ATOM     72  C   UNL A   1      44.931  27.429  34.338  1.00  0.00    -0.014 A 
ATOM     73  C   UNL A   1      44.926  26.312  35.186  1.00  0.00     0.009 A 
ATOM     74  C   UNL A   1      46.045  28.281  34.333  1.00  0.00     0.009 A 
ATOM     75  C   UNL A   1      46.003  26.076  36.042  1.00  0.00     0.001 A 
ATOM     76  C   UNL A   1      47.134  28.024  35.164  1.00  0.00     0.001 A 
ATOM     77  C   UNL A   1      47.107  26.929  36.026  1.00  0.00     0.000 A 
ENDBRANCH  59  72
ENDBRANCH  33  34
ENDBRANCH  26  28
ENDBRANCH  25  26
ENDBRANCH  24  25
ENDBRANCH   1  24
TORSDOF 15
ENDMDL
MODEL 3
REMARK VINA RESULT:     -10.8      9.501     13.764
REMARK SMILES CCOc1ccc(-c2cnc(N)cc2C(=O)OCCOC(=O)c2ccc(-c3c4nc(c(-c5ccccc5)c5ccc([nH]5)c(-c5ccccc5)c5nc(c(-c6ccccc6)c6ccc3[nH]6)C=C5)C=C4)cc2)c(Cl)c1
REMARK SMILES IDX 18 1 17 2 15 3 16 4 14 5 8 6 9 7 10 8 13 9 11 10 7 11 4 12
REMARK SMILES IDX 5 13 73 14 6 15 71 16 72 17 3 18 2 19 1 20 12 21 19 24 20 25
REMARK SMILES IDX 21 26 22 27 23 28 24 29 70 30 25 31 69 32 26 33 27 34 28 35
REMARK SMILES IDX 63 36 29 37 68 38 62 39 64 40 30 41 67 42 61 43 60 44 31 46
REMARK SMILES IDX 53 47 38 48 52 49 39 50 42 51 51 52 65 53 40 54 41 55 50 57
REMARK SMILES IDX 66 58 43 59 32 60 33 61 37 62 34 63 36 64 35 65 54 66 55 67
REMARK SMILES IDX 59 68 56 69 58 70 57 71 44 72 45 73 49 74 46 75 48 76 47 77
REMARK H PARENT 12 22 12 23 64 45 42 56
REMARK Flexibility Score: inf
ROOT
ATOM      1  C   UNL A   1      36.128  22.707  23.508  1.00  0.00     0.275 C 
ENDROOT
BRANCH   1   2
ATOM      2  O   UNL A   1      34.972  23.509  23.183  1.00  0.00    -0.458 OA
BRANCH   2   3
ATOM      3  C   UNL A   1      34.594  24.397  24.134  1.00  0.00     0.339 C 
ATOM      4  O   UNL A   1      35.149  24.612  25.198  1.00  0.00    -0.246 OA
BRANCH   3   5
ATOM      5  C   UNL A   1      33.319  25.033  23.755  1.00  0.00     0.073 A 
ATOM      6  C   UNL A   1      32.100  24.331  23.703  1.00  0.00     0.016 A 
ATOM      7  C   UNL A   1      31.047  25.027  23.130  1.00  0.00     0.123 A 
ATOM      8  N   UNL A   1      31.142  26.280  22.606  1.00  0.00    -0.239 NA
ATOM      9  C   UNL A   1      33.435  26.329  23.249  1.00  0.00     0.062 A 
ATOM     10  C   UNL A   1      32.329  26.907  22.666  1.00  0.00     0.124 A 
BRANCH   6  11
ATOM     11  C   UNL A   1      31.986  22.907  24.053  1.00  0.00     0.003 A 
ATOM     12  C   UNL A   1      32.526  19.237  24.355  1.00  0.00     0.120 A 
ATOM     13  C   UNL A   1      32.247  20.031  22.837  1.00  0.00     0.047 A 
ATOM     14  C   UNL A   1      32.556  20.222  25.846  1.00  0.00     0.067 A 
ATOM     15  C   UNL A   1      31.993  21.778  22.681  1.00  0.00     0.014 A 
ATOM     16  C   UNL A   1      32.215  22.220  25.730  1.00  0.00     0.052 A 
ATOM     17  Cl  UNL A   1      32.041  23.628  26.876  1.00  0.00    -0.084 Cl
BRANCH  12  18
ATOM     18  O   UNL A   1      32.450  17.899  24.604  1.00  0.00    -0.494 OA
BRANCH  18  19
ATOM     19  C   UNL A   1      33.642  17.136  24.539  1.00  0.00     0.226 C 
ATOM     20  C   UNL A   1      34.030  16.755  23.122  1.00  0.00     0.049 C 
ENDBRANCH  18  19
ENDBRANCH  12  18
ENDBRANCH   6  11
BRANCH  10  21
ATOM     21  N   UNL A   1      32.444  28.110  22.002  1.00  0.00    -0.384 N 
ATOM     22  H   UNL A   1      32.319  28.147  21.026  1.00  0.00     0.158 HD
ATOM     23  H   UNL A   1      32.652  28.931  22.503  1.00  0.00     0.158 HD
ENDBRANCH  10  21
ENDBRANCH   3   5
ENDBRANCH   2   3
ENDBRANCH   1   2
BRANCH   1  24
ATOM     24  C   UNL A   1      35.717  21.523  24.377  1.00  0.00     0.275 C 
BRANCH  24  25
ATOM     25  O   UNL A   1      36.492  21.556  25.590  1.00  0.00    -0.458 OA
BRANCH  25  26
ATOM     26  C   UNL A   1      37.751  21.093  25.461  1.00  0.00     0.338 C 
ATOM     27  O   UNL A   1      38.105  20.022  25.000  1.00  0.00    -0.246 OA
BRANCH  26  28
ATOM     28  C   UNL A   1      38.725  22.126  25.832  1.00  0.00     0.060 A 
ATOM     29  C   UNL A   1      40.156  21.714  26.831  1.00  0.00     0.016 A 
ATOM     30  C   UNL A   1      38.152  23.785  25.854  1.00  0.00     0.016 A 
ATOM     31  C   UNL A   1      40.960  23.164  27.996  1.00  0.00     0.010 A 
ATOM     32  C   UNL A   1      38.916  25.080  26.821  1.00  0.00     0.010 A 
ATOM     33  C   UNL A   1      40.314  24.844  27.902  1.00  0.00    -0.014 A 
BRANCH  33  34
ATOM     34  C   UNL A   1      41.157  26.057  28.324  1.00  0.00     0.031 A 
ATOM     35  C   UNL A   1      40.498  27.240  29.023  1.00  0.00     0.074 A 
ATOM     36  C   UNL A   1      42.449  26.246  27.934  1.00  0.00     0.049 A 
ATOM     37  N   UNL A   1      40.900  28.488  29.122  1.00  0.00    -0.248 NA
ATOM     38  C   UNL A   1      39.212  26.990  29.690  1.00  0.00     0.031 C 
ATOM     39  C   UNL A   1      43.366  25.277  27.347  1.00  0.00     0.029 A 
ATOM     40  N   UNL A   1      43.220  27.404  27.918  1.00  0.00    -0.354 N 
ATOM     41  C   UNL A   1      39.899  29.163  29.815  1.00  0.00     0.074 A 
ATOM     42  C   UNL A   1      38.821  28.216  30.004  1.00  0.00     0.031 C 
ATOM     43  C   UNL A   1      44.489  25.862  26.930  1.00  0.00     0.029 A 
ATOM     44  C   UNL A   1      44.401  27.270  27.212  1.00  0.00     0.049 A 
ATOM     45  H   UNL A   1      42.950  28.238  28.366  1.00  0.00     0.167 HD
ATOM     46  C   UNL A   1      39.892  30.421  30.328  1.00  0.00     0.031 A 
ATOM     47  C   UNL A   1      45.348  28.132  26.800  1.00  0.00     0.031 A 
ATOM     48  C   UNL A   1      40.996  31.344  30.252  1.00  0.00     0.049 A 
ATOM     49  C   UNL A   1      45.298  29.536  27.274  1.00  0.00     0.074 A 
ATOM     50  C   UNL A   1      41.133  32.579  30.866  1.00  0.00     0.029 A 
ATOM     51  N   UNL A   1      42.161  31.129  29.534  1.00  0.00    -0.354 N 
ATOM     52  N   UNL A   1      44.362  30.125  27.971  1.00  0.00    -0.248 NA
ATOM     53  C   UNL A   1      46.475  30.366  26.992  1.00  0.00     0.031 C 
ATOM     54  C   UNL A   1      42.363  33.128  30.487  1.00  0.00     0.029 A 
ATOM     55  C   UNL A   1      43.012  32.216  29.673  1.00  0.00     0.049 A 
ATOM     56  H   UNL A   1      42.358  30.322  29.004  1.00  0.00     0.167 HD
ATOM     57  C   UNL A   1      44.874  31.369  28.290  1.00  0.00     0.074 A 
ATOM     58  C   UNL A   1      46.187  31.459  27.682  1.00  0.00     0.031 C 
ATOM     59  C   UNL A   1      44.311  32.325  29.064  1.00  0.00     0.031 A 
BRANCH  46  60
ATOM     60  C   UNL A   1      38.659  30.855  31.084  1.00  0.00    -0.014 A 
ATOM     61  C   UNL A   1      37.592  31.497  30.430  1.00  0.00     0.009 A 
ATOM     62  C   UNL A   1      38.546  30.600  32.460  1.00  0.00     0.009 A 
ATOM     63  C   UNL A   1      36.476  31.936  31.146  1.00  0.00     0.001 A 
ATOM     64  C   UNL A   1      37.411  31.007  33.167  1.00  0.00     0.001 A 
ATOM     65  C   UNL A   1      36.386  31.690  32.513  1.00  0.00     0.000 A 
ENDBRANCH  46  60
BRANCH  47  66
ATOM     66  C   UNL A   1      46.475  27.650  25.952  1.00  0.00    -0.014 A 
ATOM     67  C   UNL A   1      47.566  26.978  26.524  1.00  0.00     0.009 A 
ATOM     68  C   UNL A   1      46.439  27.823  24.559  1.00  0.00     0.009 A 
ATOM     69  C   UNL A   1      48.607  26.506  25.719  1.00  0.00     0.001 A 
ATOM     70  C   UNL A   1      47.472  27.331  23.756  1.00  0.00     0.001 A 
ATOM     71  C   UNL A   1      48.557  26.680  24.337  1.00  0.00     0.000 A 
ENDBRANCH  47  66
BRANCH  59  72
ATOM     72  C   UNL A   1      45.150  33.533  29.348  1.00  0.00    -0.014 A 
ATOM     73  C   UNL A   1      45.114  34.661  28.516  1.00  0.00     0.009 A 
ATOM     74  C   UNL A   1      46.004  33.528  30.461  1.00  0.00     0.009 A 
ATOM     75  C   UNL A   1      45.950  35.749  28.773  1.00  0.00     0.001 A 
ATOM     76  C   UNL A   1      46.814  34.629  30.734  1.00  0.00     0.001 A 
ATOM     77  C   UNL A   1      46.793  35.734  29.884  1.00  0.00     0.000 A 
ENDBRANCH  59  72
ENDBRANCH  33  34
ENDBRANCH  26  28
ENDBRANCH  25  26
ENDBRANCH  24  25
ENDBRANCH   1  24
TORSDOF 15
ENDMDL
