MODEL 1
REMARK VINA RESULT:     -11.4      0.000      0.000
REMARK SMILES Cc1ccccc1CC(=O)Oc1cccc(C(=O)OCCOC(=O)c2ccc(-c3c4nc(c(-c5ccccc5)c5ccc([nH]5)c(-c5ccccc5)c5nc(c(-c6ccccc6)c6ccc3[nH]6)C=C5)C=C4)cc2)c1
REMARK SMILES IDX 20 1 19 2 17 3 18 4 16 5 12 6 13 7 73 8 14 9 15 10 11 11
REMARK SMILES IDX 9 12 10 13 8 14 7 15 1 16 2 17 3 18 4 19 6 20 5 21 21 22
REMARK SMILES IDX 22 23 23 24 24 25 25 26 26 27 72 28 27 29 71 30 28 31 29 32
REMARK SMILES IDX 30 33 65 34 31 35 70 36 64 37 66 38 32 39 69 40 63 41 62 42
REMARK SMILES IDX 33 44 55 45 40 46 54 47 41 48 44 49 53 50 67 51 42 52 43 53
REMARK SMILES IDX 52 55 68 56 45 57 34 58 35 59 39 60 36 61 38 62 37 63 56 64
REMARK SMILES IDX 57 65 61 66 58 67 60 68 59 69 46 70 47 71 51 72 48 73 50 74
REMARK SMILES IDX 49 75
REMARK H PARENT 66 43 44 54
REMARK Flexibility Score: inf
ROOT
ATOM      1  C   UNL A   1      31.449  31.691  26.879  1.00  0.00     0.275 C 
ENDROOT
BRANCH   1   2
ATOM      2  O   UNL A   1      31.537  30.790  25.769  1.00  0.00    -0.458 OA
BRANCH   2   3
ATOM      3  C   UNL A   1      32.316  29.696  25.857  1.00  0.00     0.338 C 
ATOM      4  O   UNL A   1      33.483  29.652  26.206  1.00  0.00    -0.246 OA
BRANCH   3   5
ATOM      5  C   UNL A   1      31.526  28.525  25.416  1.00  0.00     0.063 A 
ATOM      6  C   UNL A   1      30.657  26.311  25.808  1.00  0.00     0.131 A 
ATOM      7  C   UNL A   1      29.967  26.364  24.595  1.00  0.00     0.047 A 
ATOM      8  C   UNL A   1      31.387  27.412  26.257  1.00  0.00     0.062 A 
ATOM      9  C   UNL A   1      30.099  27.480  23.768  1.00  0.00     0.005 A 
ATOM     10  C   UNL A   1      30.900  28.551  24.164  1.00  0.00     0.016 A 
BRANCH   6  11
ATOM     11  O   UNL A   1      30.583  25.179  26.646  1.00  0.00    -0.426 OA
BRANCH  11  12
ATOM     12  C   UNL A   1      31.212  24.006  26.209  1.00  0.00     0.315 C 
ATOM     13  O   UNL A   1      30.710  23.141  25.500  1.00  0.00    -0.251 OA
BRANCH  12  14
ATOM     14  C   UNL A   1      32.627  23.935  26.747  1.00  0.00     0.158 C 
BRANCH  14  15
ATOM     15  C   UNL A   1      33.662  23.445  25.755  1.00  0.00    -0.034 A 
ATOM     16  C   UNL A   1      34.169  25.798  24.825  1.00  0.00     0.044 C 
ATOM     17  C   UNL A   1      34.357  24.306  24.878  1.00  0.00    -0.047 A 
ATOM     18  C   UNL A   1      35.285  23.759  23.970  1.00  0.00     0.004 A 
ATOM     19  C   UNL A   1      35.581  22.397  23.968  1.00  0.00     0.000 A 
ATOM     20  C   UNL A   1      34.008  22.077  25.762  1.00  0.00     0.004 A 
ATOM     21  C   UNL A   1      34.959  21.561  24.881  1.00  0.00     0.000 A 
ENDBRANCH  14  15
ENDBRANCH  12  14
ENDBRANCH  11  12
ENDBRANCH   6  11
ENDBRANCH   3   5
ENDBRANCH   2   3
ENDBRANCH   1   2
BRANCH   1  22
ATOM     22  C   UNL A   1      32.158  33.069  26.868  1.00  0.00     0.275 C 
BRANCH  22  23
ATOM     23  O   UNL A   1      32.190  34.018  27.980  1.00  0.00    -0.458 OA
BRANCH  23  24
ATOM     24  C   UNL A   1      33.178  34.621  28.674  1.00  0.00     0.338 C 
ATOM     25  O   UNL A   1      33.114  35.776  29.072  1.00  0.00    -0.246 OA
BRANCH  24  26
ATOM     26  C   UNL A   1      34.356  33.815  28.964  1.00  0.00     0.060 A 
ATOM     27  C   UNL A   1      34.294  32.803  29.937  1.00  0.00     0.016 A 
ATOM     28  C   UNL A   1      35.486  34.027  28.191  1.00  0.00     0.016 A 
ATOM     29  C   UNL A   1      35.362  31.933  30.079  1.00  0.00     0.010 A 
ATOM     30  C   UNL A   1      36.448  33.063  28.188  1.00  0.00     0.010 A 
ATOM     31  C   UNL A   1      36.427  32.090  29.196  1.00  0.00    -0.014 A 
BRANCH  31  32
ATOM     32  C   UNL A   1      37.766  31.623  29.473  1.00  0.00     0.031 A 
ATOM     33  C   UNL A   1      38.227  30.341  28.930  1.00  0.00     0.074 A 
ATOM     34  C   UNL A   1      38.509  32.605  30.043  1.00  0.00     0.049 A 
ATOM     35  N   UNL A   1      39.138  29.615  29.472  1.00  0.00    -0.248 NA
ATOM     36  C   UNL A   1      37.667  29.741  27.714  1.00  0.00     0.031 C 
ATOM     37  C   UNL A   1      39.942  32.752  30.200  1.00  0.00     0.029 A 
ATOM     38  N   UNL A   1      38.027  33.769  30.672  1.00  0.00    -0.354 N 
ATOM     39  C   UNL A   1      39.552  28.727  28.501  1.00  0.00     0.074 A 
ATOM     40  C   UNL A   1      38.499  28.711  27.513  1.00  0.00     0.031 C 
ATOM     41  C   UNL A   1      40.165  33.678  31.160  1.00  0.00     0.029 A 
ATOM     42  C   UNL A   1      38.870  34.033  31.738  1.00  0.00     0.049 A 
ATOM     43  H   UNL A   1      37.239  34.296  30.404  1.00  0.00     0.167 HD
ATOM     44  C   UNL A   1      40.852  28.311  28.509  1.00  0.00     0.031 A 
ATOM     45  C   UNL A   1      38.460  33.773  33.019  1.00  0.00     0.031 A 
ATOM     46  C   UNL A   1      41.578  28.982  29.591  1.00  0.00     0.049 A 
ATOM     47  C   UNL A   1      39.274  32.627  33.584  1.00  0.00     0.074 A 
ATOM     48  C   UNL A   1      42.363  30.124  29.578  1.00  0.00     0.029 A 
ATOM     49  N   UNL A   1      41.210  28.768  30.915  1.00  0.00    -0.354 N 
ATOM     50  N   UNL A   1      39.754  31.653  32.855  1.00  0.00    -0.248 NA
ATOM     51  C   UNL A   1      39.643  32.514  34.990  1.00  0.00     0.031 C 
ATOM     52  C   UNL A   1      42.374  30.656  30.895  1.00  0.00     0.029 A 
ATOM     53  C   UNL A   1      41.608  29.833  31.704  1.00  0.00     0.049 A 
ATOM     54  H   UNL A   1      40.734  27.972  31.243  1.00  0.00     0.167 HD
ATOM     55  C   UNL A   1      40.563  30.871  33.627  1.00  0.00     0.074 A 
ATOM     56  C   UNL A   1      40.432  31.426  34.965  1.00  0.00     0.031 C 
ATOM     57  C   UNL A   1      41.312  29.844  33.129  1.00  0.00     0.031 A 
BRANCH  44  58
ATOM     58  C   UNL A   1      41.551  27.629  27.354  1.00  0.00    -0.014 A 
ATOM     59  C   UNL A   1      42.606  28.300  26.702  1.00  0.00     0.009 A 
ATOM     60  C   UNL A   1      41.232  26.356  26.853  1.00  0.00     0.009 A 
ATOM     61  C   UNL A   1      43.256  27.768  25.580  1.00  0.00     0.001 A 
ATOM     62  C   UNL A   1      41.863  25.825  25.716  1.00  0.00     0.001 A 
ATOM     63  C   UNL A   1      42.872  26.534  25.075  1.00  0.00     0.000 A 
ENDBRANCH  44  58
BRANCH  45  64
ATOM     64  C   UNL A   1      36.994  33.975  33.287  1.00  0.00    -0.014 A 
ATOM     65  C   UNL A   1      36.384  35.177  32.860  1.00  0.00     0.009 A 
ATOM     66  C   UNL A   1      36.152  32.925  33.678  1.00  0.00     0.009 A 
ATOM     67  C   UNL A   1      34.994  35.284  32.718  1.00  0.00     0.001 A 
ATOM     68  C   UNL A   1      34.756  33.044  33.555  1.00  0.00     0.001 A 
ATOM     69  C   UNL A   1      34.181  34.208  33.049  1.00  0.00     0.000 A 
ENDBRANCH  45  64
BRANCH  57  70
ATOM     70  C   UNL A   1      41.927  28.777  33.984  1.00  0.00    -0.014 A 
ATOM     71  C   UNL A   1      41.268  27.583  34.300  1.00  0.00     0.009 A 
ATOM     72  C   UNL A   1      43.283  28.887  34.355  1.00  0.00     0.009 A 
ATOM     73  C   UNL A   1      41.911  26.575  35.021  1.00  0.00     0.001 A 
ATOM     74  C   UNL A   1      43.946  27.858  35.018  1.00  0.00     0.001 A 
ATOM     75  C   UNL A   1      43.251  26.709  35.370  1.00  0.00     0.000 A 
ENDBRANCH  57  70
ENDBRANCH  31  32
ENDBRANCH  24  26
ENDBRANCH  23  24
ENDBRANCH  22  23
ENDBRANCH   1  22
TORSDOF 15
ENDMDL
MODEL 2
REMARK VINA RESULT:     -11.3      4.055     10.016
REMARK SMILES Cc1ccccc1CC(=O)Oc1cccc(C(=O)OCCOC(=O)c2ccc(-c3c4nc(c(-c5ccccc5)c5ccc([nH]5)c(-c5ccccc5)c5nc(c(-c6ccccc6)c6ccc3[nH]6)C=C5)C=C4)cc2)c1
REMARK SMILES IDX 20 1 19 2 17 3 18 4 16 5 12 6 13 7 73 8 14 9 15 10 11 11
REMARK SMILES IDX 9 12 10 13 8 14 7 15 1 16 2 17 3 18 4 19 6 20 5 21 21 22
REMARK SMILES IDX 22 23 23 24 24 25 25 26 26 27 72 28 27 29 71 30 28 31 29 32
REMARK SMILES IDX 30 33 65 34 31 35 70 36 64 37 66 38 32 39 69 40 63 41 62 42
REMARK SMILES IDX 33 44 55 45 40 46 54 47 41 48 44 49 53 50 67 51 42 52 43 53
REMARK SMILES IDX 52 55 68 56 45 57 34 58 35 59 39 60 36 61 38 62 37 63 56 64
REMARK SMILES IDX 57 65 61 66 58 67 60 68 59 69 46 70 47 71 51 72 48 73 50 74
REMARK SMILES IDX 49 75
REMARK H PARENT 66 43 44 54
REMARK Flexibility Score: inf
ROOT
ATOM      1  C   UNL A   1      38.435  21.020  25.566  1.00  0.00     0.275 C 
ENDROOT
BRANCH   1   2
ATOM      2  O   UNL A   1      37.503  21.438  24.561  1.00  0.00    -0.458 OA
BRANCH   2   3
ATOM      3  C   UNL A   1      36.883  22.627  24.677  1.00  0.00     0.338 C 
ATOM      4  O   UNL A   1      37.340  23.650  25.158  1.00  0.00    -0.246 OA
BRANCH   3   5
ATOM      5  C   UNL A   1      35.508  22.488  24.148  1.00  0.00     0.063 A 
ATOM      6  C   UNL A   1      33.766  23.162  22.624  1.00  0.00     0.131 A 
ATOM      7  C   UNL A   1      32.939  22.152  23.118  1.00  0.00     0.047 A 
ATOM      8  C   UNL A   1      35.076  23.297  23.089  1.00  0.00     0.062 A 
ATOM      9  C   UNL A   1      33.380  21.341  24.164  1.00  0.00     0.005 A 
ATOM     10  C   UNL A   1      34.654  21.525  24.700  1.00  0.00     0.016 A 
BRANCH   6  11
ATOM     11  O   UNL A   1      33.335  24.030  21.600  1.00  0.00    -0.426 OA
BRANCH  11  12
ATOM     12  C   UNL A   1      33.049  25.356  21.949  1.00  0.00     0.315 C 
ATOM     13  O   UNL A   1      33.712  26.340  21.640  1.00  0.00    -0.251 OA
BRANCH  12  14
ATOM     14  C   UNL A   1      31.789  25.420  22.787  1.00  0.00     0.158 C 
BRANCH  14  15
ATOM     15  C   UNL A   1      31.774  26.516  23.833  1.00  0.00    -0.034 A 
ATOM     16  C   UNL A   1      32.984  25.098  25.617  1.00  0.00     0.044 C 
ATOM     17  C   UNL A   1      32.320  26.356  25.125  1.00  0.00    -0.047 A 
ATOM     18  C   UNL A   1      32.240  27.422  26.043  1.00  0.00     0.004 A 
ATOM     19  C   UNL A   1      31.697  28.652  25.679  1.00  0.00     0.000 A 
ATOM     20  C   UNL A   1      31.267  27.783  23.475  1.00  0.00     0.004 A 
ATOM     21  C   UNL A   1      31.231  28.839  24.386  1.00  0.00     0.000 A 
ENDBRANCH  14  15
ENDBRANCH  12  14
ENDBRANCH  11  12
ENDBRANCH   6  11
ENDBRANCH   3   5
ENDBRANCH   2   3
ENDBRANCH   1   2
BRANCH   1  22
ATOM     22  C   UNL A   1      39.035  19.591  25.576  1.00  0.00     0.275 C 
BRANCH  22  23
ATOM     23  O   UNL A   1      40.454  19.265  25.438  1.00  0.00    -0.458 OA
BRANCH  23  24
ATOM     24  C   UNL A   1      41.561  19.558  26.154  1.00  0.00     0.338 C 
ATOM     25  O   UNL A   1      42.426  18.737  26.423  1.00  0.00    -0.246 OA
BRANCH  24  26
ATOM     26  C   UNL A   1      41.705  20.940  26.592  1.00  0.00     0.060 A 
ATOM     27  C   UNL A   1      41.991  21.949  25.657  1.00  0.00     0.016 A 
ATOM     28  C   UNL A   1      41.464  21.220  27.927  1.00  0.00     0.016 A 
ATOM     29  C   UNL A   1      41.954  23.275  26.055  1.00  0.00     0.010 A 
ATOM     30  C   UNL A   1      41.232  22.515  28.277  1.00  0.00     0.010 A 
ATOM     31  C   UNL A   1      41.578  23.527  27.372  1.00  0.00    -0.014 A 
BRANCH  31  32
ATOM     32  C   UNL A   1      41.921  24.740  28.079  1.00  0.00     0.031 A 
ATOM     33  C   UNL A   1      40.913  25.783  28.288  1.00  0.00     0.074 A 
ATOM     34  C   UNL A   1      43.138  24.623  28.669  1.00  0.00     0.049 A 
ATOM     35  N   UNL A   1      41.185  27.030  28.434  1.00  0.00    -0.248 NA
ATOM     36  C   UNL A   1      39.472  25.506  28.323  1.00  0.00     0.031 C 
ATOM     37  C   UNL A   1      43.767  25.391  29.723  1.00  0.00     0.029 A 
ATOM     38  N   UNL A   1      44.139  23.684  28.355  1.00  0.00    -0.354 N 
ATOM     39  C   UNL A   1      40.059  27.611  28.978  1.00  0.00     0.074 A 
ATOM     40  C   UNL A   1      38.979  26.689  28.714  1.00  0.00     0.031 C 
ATOM     41  C   UNL A   1      45.097  25.145  29.683  1.00  0.00     0.029 A 
ATOM     42  C   UNL A   1      45.357  24.325  28.502  1.00  0.00     0.049 A 
ATOM     43  H   UNL A   1      44.000  22.747  28.084  1.00  0.00     0.167 HD
ATOM     44  C   UNL A   1      40.214  28.673  29.821  1.00  0.00     0.031 A 
ATOM     45  C   UNL A   1      46.070  24.707  27.395  1.00  0.00     0.031 A 
ATOM     46  C   UNL A   1      41.641  28.948  30.010  1.00  0.00     0.049 A 
ATOM     47  C   UNL A   1      46.093  26.220  27.312  1.00  0.00     0.074 A 
ATOM     48  C   UNL A   1      42.514  28.543  31.006  1.00  0.00     0.029 A 
ATOM     49  N   UNL A   1      42.425  29.335  28.928  1.00  0.00    -0.354 N 
ATOM     50  N   UNL A   1      45.122  26.983  27.744  1.00  0.00    -0.248 NA
ATOM     51  C   UNL A   1      47.216  26.982  26.781  1.00  0.00     0.031 C 
ATOM     52  C   UNL A   1      43.830  28.588  30.474  1.00  0.00     0.029 A 
ATOM     53  C   UNL A   1      43.755  29.029  29.162  1.00  0.00     0.049 A 
ATOM     54  H   UNL A   1      42.083  29.764  28.111  1.00  0.00     0.167 HD
ATOM     55  C   UNL A   1      45.510  28.289  27.667  1.00  0.00     0.074 A 
ATOM     56  C   UNL A   1      46.813  28.242  27.021  1.00  0.00     0.031 C 
ATOM     57  C   UNL A   1      44.766  29.323  28.158  1.00  0.00     0.031 A 
BRANCH  44  58
ATOM     58  C   UNL A   1      39.149  29.203  30.754  1.00  0.00    -0.014 A 
ATOM     59  C   UNL A   1      38.856  28.488  31.934  1.00  0.00     0.009 A 
ATOM     60  C   UNL A   1      38.397  30.371  30.544  1.00  0.00     0.009 A 
ATOM     61  C   UNL A   1      37.835  28.872  32.813  1.00  0.00     0.001 A 
ATOM     62  C   UNL A   1      37.357  30.751  31.408  1.00  0.00     0.001 A 
ATOM     63  C   UNL A   1      37.072  29.998  32.541  1.00  0.00     0.000 A 
ENDBRANCH  44  58
BRANCH  45  64
ATOM     64  C   UNL A   1      45.955  23.801  26.201  1.00  0.00    -0.014 A 
ATOM     65  C   UNL A   1      46.091  22.406  26.391  1.00  0.00     0.009 A 
ATOM     66  C   UNL A   1      45.443  24.240  24.973  1.00  0.00     0.009 A 
ATOM     67  C   UNL A   1      45.624  21.489  25.440  1.00  0.00     0.001 A 
ATOM     68  C   UNL A   1      44.996  23.316  24.013  1.00  0.00     0.001 A 
ATOM     69  C   UNL A   1      45.059  21.945  24.257  1.00  0.00     0.000 A 
ENDBRANCH  45  64
BRANCH  57  70
ATOM     70  C   UNL A   1      44.998  30.757  27.790  1.00  0.00    -0.014 A 
ATOM     71  C   UNL A   1      45.989  31.545  28.387  1.00  0.00     0.009 A 
ATOM     72  C   UNL A   1      44.315  31.304  26.684  1.00  0.00     0.009 A 
ATOM     73  C   UNL A   1      46.234  32.848  27.950  1.00  0.00     0.001 A 
ATOM     74  C   UNL A   1      44.601  32.580  26.204  1.00  0.00     0.001 A 
ATOM     75  C   UNL A   1      45.548  33.361  26.854  1.00  0.00     0.000 A 
ENDBRANCH  57  70
ENDBRANCH  31  32
ENDBRANCH  24  26
ENDBRANCH  23  24
ENDBRANCH  22  23
ENDBRANCH   1  22
TORSDOF 15
ENDMDL
MODEL 3
REMARK VINA RESULT:     -11.2      1.573      2.686
REMARK SMILES Cc1ccccc1CC(=O)Oc1cccc(C(=O)OCCOC(=O)c2ccc(-c3c4nc(c(-c5ccccc5)c5ccc([nH]5)c(-c5ccccc5)c5nc(c(-c6ccccc6)c6ccc3[nH]6)C=C5)C=C4)cc2)c1
REMARK SMILES IDX 20 1 19 2 17 3 18 4 16 5 12 6 13 7 73 8 14 9 15 10 11 11
REMARK SMILES IDX 9 12 10 13 8 14 7 15 1 16 2 17 3 18 4 19 6 20 5 21 21 22
REMARK SMILES IDX 22 23 23 24 24 25 25 26 26 27 72 28 27 29 71 30 28 31 29 32
REMARK SMILES IDX 30 33 65 34 31 35 70 36 64 37 66 38 32 39 69 40 63 41 62 42
REMARK SMILES IDX 33 44 55 45 40 46 54 47 41 48 44 49 53 50 67 51 42 52 43 53
REMARK SMILES IDX 52 55 68 56 45 57 34 58 35 59 39 60 36 61 38 62 37 63 56 64
REMARK SMILES IDX 57 65 61 66 58 67 60 68 59 69 46 70 47 71 51 72 48 73 50 74
REMARK SMILES IDX 49 75
REMARK H PARENT 66 43 44 54
REMARK Flexibility Score: inf
ROOT
ATOM      1  C   UNL A   1      31.395  31.587  25.993  1.00  0.00     0.275 C 
ENDROOT
BRANCH   1   2
ATOM      2  O   UNL A   1      31.718  30.193  25.933  1.00  0.00    -0.458 OA
BRANCH   2   3
ATOM      3  C   UNL A   1      32.968  29.783  26.223  1.00  0.00     0.338 C 
ATOM      4  O   UNL A   1      33.866  30.450  26.706  1.00  0.00    -0.246 OA
BRANCH   3   5
ATOM      5  C   UNL A   1      33.097  28.365  25.820  1.00  0.00     0.063 A 
ATOM      6  C   UNL A   1      33.684  26.691  24.188  1.00  0.00     0.131 A 
ATOM      7  C   UNL A   1      33.404  25.685  25.115  1.00  0.00     0.047 A 
ATOM      8  C   UNL A   1      33.595  28.035  24.552  1.00  0.00     0.062 A 
ATOM      9  C   UNL A   1      32.922  26.019  26.381  1.00  0.00     0.005 A 
ATOM     10  C   UNL A   1      32.741  27.358  26.726  1.00  0.00     0.016 A 
BRANCH   6  11
ATOM     11  O   UNL A   1      34.129  26.386  22.885  1.00  0.00    -0.426 OA
BRANCH  11  12
ATOM     12  C   UNL A   1      33.521  25.310  22.227  1.00  0.00     0.315 C 
ATOM     13  O   UNL A   1      33.901  24.144  22.251  1.00  0.00    -0.251 OA
BRANCH  12  14
ATOM     14  C   UNL A   1      32.307  25.782  21.452  1.00  0.00     0.158 C 
BRANCH  14  15
ATOM     15  C   UNL A   1      31.163  26.287  22.307  1.00  0.00    -0.034 A 
ATOM     16  C   UNL A   1      30.684  23.983  23.367  1.00  0.00     0.044 C 
ATOM     17  C   UNL A   1      30.425  25.454  23.176  1.00  0.00    -0.047 A 
ATOM     18  C   UNL A   1      29.359  26.004  23.915  1.00  0.00     0.004 A 
ATOM     19  C   UNL A   1      29.064  27.364  23.859  1.00  0.00     0.000 A 
ATOM     20  C   UNL A   1      30.872  27.667  22.298  1.00  0.00     0.004 A 
ATOM     21  C   UNL A   1      29.837  28.199  23.067  1.00  0.00     0.000 A 
ENDBRANCH  14  15
ENDBRANCH  12  14
ENDBRANCH  11  12
ENDBRANCH   6  11
ENDBRANCH   3   5
ENDBRANCH   2   3
ENDBRANCH   1   2
BRANCH   1  22
ATOM     22  C   UNL A   1      31.533  32.400  27.306  1.00  0.00     0.275 C 
BRANCH  22  23
ATOM     23  O   UNL A   1      32.118  33.735  27.420  1.00  0.00    -0.458 OA
BRANCH  23  24
ATOM     24  C   UNL A   1      32.863  34.359  28.358  1.00  0.00     0.338 C 
ATOM     25  O   UNL A   1      32.532  35.408  28.893  1.00  0.00    -0.246 OA
BRANCH  24  26
ATOM     26  C   UNL A   1      34.106  33.705  28.741  1.00  0.00     0.060 A 
ATOM     27  C   UNL A   1      34.138  32.852  29.857  1.00  0.00     0.016 A 
ATOM     28  C   UNL A   1      35.208  33.888  27.922  1.00  0.00     0.016 A 
ATOM     29  C   UNL A   1      35.277  32.104  30.107  1.00  0.00     0.010 A 
ATOM     30  C   UNL A   1      36.247  33.017  28.044  1.00  0.00     0.010 A 
ATOM     31  C   UNL A   1      36.317  32.211  29.188  1.00  0.00    -0.014 A 
BRANCH  31  32
ATOM     32  C   UNL A   1      37.693  31.902  29.504  1.00  0.00     0.031 A 
ATOM     33  C   UNL A   1      38.291  30.646  29.043  1.00  0.00     0.074 A 
ATOM     34  C   UNL A   1      38.322  32.988  30.020  1.00  0.00     0.049 A 
ATOM     35  N   UNL A   1      39.264  30.051  29.636  1.00  0.00    -0.248 NA
ATOM     36  C   UNL A   1      37.813  29.919  27.862  1.00  0.00     0.031 C 
ATOM     37  C   UNL A   1      39.730  33.292  30.180  1.00  0.00     0.029 A 
ATOM     38  N   UNL A   1      37.714  34.131  30.573  1.00  0.00    -0.354 N 
ATOM     39  C   UNL A   1      39.782  29.154  28.724  1.00  0.00     0.074 A 
ATOM     40  C   UNL A   1      38.751  28.971  27.730  1.00  0.00     0.031 C 
ATOM     41  C   UNL A   1      39.842  34.291  31.085  1.00  0.00     0.029 A 
ATOM     42  C   UNL A   1      38.509  34.544  31.628  1.00  0.00     0.049 A 
ATOM     43  H   UNL A   1      36.880  34.557  30.267  1.00  0.00     0.167 HD
ATOM     44  C   UNL A   1      41.117  28.877  28.768  1.00  0.00     0.031 A 
ATOM     45  C   UNL A   1      38.109  34.319  32.920  1.00  0.00     0.031 A 
ATOM     46  C   UNL A   1      41.754  29.683  29.814  1.00  0.00     0.049 A 
ATOM     47  C   UNL A   1      39.029  33.299  33.559  1.00  0.00     0.074 A 
ATOM     48  C   UNL A   1      42.417  30.897  29.739  1.00  0.00     0.029 A 
ATOM     49  N   UNL A   1      41.391  29.510  31.145  1.00  0.00    -0.354 N 
ATOM     50  N   UNL A   1      39.617  32.339  32.895  1.00  0.00    -0.248 NA
ATOM     51  C   UNL A   1      39.386  33.309  34.973  1.00  0.00     0.031 C 
ATOM     52  C   UNL A   1      42.354  31.504  31.021  1.00  0.00     0.029 A 
ATOM     53  C   UNL A   1      41.665  30.656  31.872  1.00  0.00     0.049 A 
ATOM     54  H   UNL A   1      40.994  28.690  31.517  1.00  0.00     0.167 HD
ATOM     55  C   UNL A   1      40.491  31.692  33.720  1.00  0.00     0.074 A 
ATOM     56  C   UNL A   1      40.283  32.308  35.021  1.00  0.00     0.031 C 
ATOM     57  C   UNL A   1      41.348  30.721  33.291  1.00  0.00     0.031 A 
BRANCH  44  58
ATOM     58  C   UNL A   1      41.900  28.204  27.663  1.00  0.00    -0.014 A 
ATOM     59  C   UNL A   1      41.818  28.723  26.354  1.00  0.00     0.009 A 
ATOM     60  C   UNL A   1      42.718  27.073  27.824  1.00  0.00     0.009 A 
ATOM     61  C   UNL A   1      42.454  28.115  25.263  1.00  0.00     0.001 A 
ATOM     62  C   UNL A   1      43.341  26.446  26.732  1.00  0.00     0.001 A 
ATOM     63  C   UNL A   1      43.204  26.964  25.450  1.00  0.00     0.000 A 
ENDBRANCH  44  58
BRANCH  45  64
ATOM     64  C   UNL A   1      36.626  34.383  33.163  1.00  0.00    -0.014 A 
ATOM     65  C   UNL A   1      35.896  35.468  32.625  1.00  0.00     0.009 A 
ATOM     66  C   UNL A   1      35.897  33.288  33.645  1.00  0.00     0.009 A 
ATOM     67  C   UNL A   1      34.505  35.410  32.469  1.00  0.00     0.001 A 
ATOM     68  C   UNL A   1      34.499  33.242  33.505  1.00  0.00     0.001 A 
ATOM     69  C   UNL A   1      33.808  34.286  32.893  1.00  0.00     0.000 A 
ENDBRANCH  45  64
BRANCH  57  70
ATOM     70  C   UNL A   1      42.057  29.776  34.214  1.00  0.00    -0.014 A 
ATOM     71  C   UNL A   1      43.451  29.743  34.345  1.00  0.00     0.009 A 
ATOM     72  C   UNL A   1      41.304  29.000  35.119  1.00  0.00     0.009 A 
ATOM     73  C   UNL A   1      44.067  28.914  35.285  1.00  0.00     0.001 A 
ATOM     74  C   UNL A   1      41.912  28.220  36.099  1.00  0.00     0.001 A 
ATOM     75  C   UNL A   1      43.298  28.161  36.167  1.00  0.00     0.000 A 
ENDBRANCH  57  70
ENDBRANCH  31  32
ENDBRANCH  24  26
ENDBRANCH  23  24
ENDBRANCH  22  23
ENDBRANCH   1  22
TORSDOF 15
ENDMDL
