MODEL 1
REMARK VINA RESULT:     -11.2      0.000      0.000
REMARK SMILES Cc1cc(C(=O)N[C@@H]2C(=O)N3C(C(=O)OCCOC(=O)c4ccc(-c5c6nc(c(-c7ccccc7)c7ccc([nH]7)c(-c7ccccc7)c7nc(c(-c8ccccc8)c8ccc5[nH]8)C=C7)C=C6)cc4)=C(CSc4nnc(C)s4)CS[C@H]23)n(C)n1
REMARK SMILES IDX 16 1 15 2 13 3 14 4 12 5 8 6 9 7 80 8 10 9 11 10 79 11 78 12
REMARK SMILES IDX 69 13 7 14 5 15 6 16 4 18 1 19 2 20 3 21 83 22 81 23 82 24
REMARK SMILES IDX 70 25 71 26 72 27 73 28 77 29 74 30 75 31 76 32 17 33 18 34
REMARK SMILES IDX 19 35 20 36 21 37 22 38 68 39 23 40 67 41 24 42 25 43 26 44
REMARK SMILES IDX 61 45 27 46 66 47 60 48 62 49 28 50 65 51 59 52 58 53 29 55
REMARK SMILES IDX 51 56 36 57 50 58 37 59 40 60 49 61 63 62 38 63 39 64 48 66
REMARK SMILES IDX 64 67 41 68 30 69 31 70 35 71 32 72 34 73 33 74 52 75 53 76
REMARK SMILES IDX 57 77 54 78 56 79 55 80 42 81 43 82 47 83 44 84 46 85 45 86
REMARK H PARENT 7 17 62 54 40 65
REMARK Flexibility Score: inf
ROOT
ATOM      1  C   UNL A   1      36.868  22.289  23.515  1.00  0.00     0.275 C 
ENDROOT
BRANCH   1   2
ATOM      2  O   UNL A   1      35.805  23.101  24.055  1.00  0.00    -0.457 OA
BRANCH   2   3
ATOM      3  C   UNL A   1      34.725  23.284  23.266  1.00  0.00     0.355 C 
ATOM      4  O   UNL A   1      34.690  23.115  22.053  1.00  0.00    -0.244 OA
BRANCH   3   5
ATOM      5  C   UNL A   1      33.521  23.773  24.012  1.00  0.00     0.132 C 
ATOM      6  C   UNL A   1      32.897  27.116  24.184  1.00  0.00     0.206 C 
ATOM      7  C   UNL A   1      32.837  25.990  23.099  1.00  0.00     0.253 C 
ATOM      8  C   UNL A   1      32.890  25.883  25.151  1.00  0.00     0.181 C 
ATOM      9  O   UNL A   1      32.439  25.874  21.961  1.00  0.00    -0.272 OA
ATOM     10  N   UNL A   1      33.369  25.129  24.006  1.00  0.00    -0.289 N 
ATOM     11  S   UNL A   1      31.272  25.214  25.624  1.00  0.00    -0.129 SA
ATOM     12  C   UNL A   1      31.905  23.553  25.952  1.00  0.00     0.106 C 
ATOM     13  C   UNL A   1      32.878  22.999  24.919  1.00  0.00    -0.019 C 
BRANCH   6  14
ATOM     14  N   UNL A   1      31.816  28.122  24.190  1.00  0.00    -0.336 N 
ATOM     15  C   UNL A   1      31.681  29.260  24.954  1.00  0.00     0.270 C 
ATOM     16  O   UNL A   1      30.735  30.004  24.703  1.00  0.00    -0.268 OA
ATOM     17  H   UNL A   1      31.083  27.954  23.553  1.00  0.00     0.164 HD
BRANCH  15  18
ATOM     18  C   UNL A   1      32.599  29.475  26.046  1.00  0.00     0.126 A 
ATOM     19  C   UNL A   1      35.880  29.922  27.576  1.00  0.00     0.069 C 
ATOM     20  C   UNL A   1      34.449  29.733  27.242  1.00  0.00     0.060 A 
ATOM     21  C   UNL A   1      33.732  30.265  26.150  1.00  0.00     0.059 A 
ATOM     22  N   UNL A   1      33.687  28.907  27.959  1.00  0.00    -0.178 NA
ATOM     23  N   UNL A   1      32.525  28.849  27.270  1.00  0.00    -0.263 N 
ATOM     24  C   UNL A   1      31.437  28.097  27.850  1.00  0.00     0.174 C 
ENDBRANCH  15  18
ENDBRANCH   6  14
BRANCH  13  25
ATOM     25  C   UNL A   1      33.139  21.523  25.126  1.00  0.00     0.111 C 
BRANCH  25  26
ATOM     26  S   UNL A   1      32.308  20.370  24.011  1.00  0.00    -0.089 SA
BRANCH  26  27
ATOM     27  C   UNL A   1      32.849  18.785  24.491  1.00  0.00     0.174 A 
ATOM     28  N   UNL A   1      32.105  17.951  25.182  1.00  0.00    -0.132 NA
ATOM     29  S   UNL A   1      34.442  18.230  24.195  1.00  0.00    -0.091 S 
ATOM     30  N   UNL A   1      32.789  16.795  25.510  1.00  0.00    -0.143 NA
ATOM     31  C   UNL A   1      34.035  16.818  25.083  1.00  0.00     0.115 A 
ATOM     32  C   UNL A   1      35.043  15.764  25.362  1.00  0.00     0.081 C 
ENDBRANCH  26  27
ENDBRANCH  25  26
ENDBRANCH  13  25
ENDBRANCH   3   5
ENDBRANCH   2   3
ENDBRANCH   1   2
BRANCH   1  33
ATOM     33  C   UNL A   1      37.190  21.148  24.473  1.00  0.00     0.275 C 
BRANCH  33  34
ATOM     34  O   UNL A   1      37.555  21.695  25.753  1.00  0.00    -0.458 OA
BRANCH  34  35
ATOM     35  C   UNL A   1      38.847  21.502  26.102  1.00  0.00     0.338 C 
ATOM     36  O   UNL A   1      39.515  20.497  25.932  1.00  0.00    -0.246 OA
BRANCH  35  37
ATOM     37  C   UNL A   1      39.370  22.726  26.731  1.00  0.00     0.060 A 
ATOM     38  C   UNL A   1      38.852  23.964  26.360  1.00  0.00     0.016 A 
ATOM     39  C   UNL A   1      40.499  22.652  27.541  1.00  0.00     0.016 A 
ATOM     40  C   UNL A   1      39.560  25.124  26.663  1.00  0.00     0.010 A 
ATOM     41  C   UNL A   1      41.122  23.830  27.965  1.00  0.00     0.010 A 
ATOM     42  C   UNL A   1      40.695  25.082  27.486  1.00  0.00    -0.014 A 
BRANCH  42  43
ATOM     43  C   UNL A   1      41.436  26.334  27.822  1.00  0.00     0.031 A 
ATOM     44  C   UNL A   1      40.833  27.366  28.746  1.00  0.00     0.074 A 
ATOM     45  C   UNL A   1      42.663  26.556  27.307  1.00  0.00     0.049 A 
ATOM     46  N   UNL A   1      41.228  28.592  28.985  1.00  0.00    -0.248 NA
ATOM     47  C   UNL A   1      39.620  26.976  29.486  1.00  0.00     0.031 C 
ATOM     48  C   UNL A   1      43.402  25.635  26.439  1.00  0.00     0.029 A 
ATOM     49  N   UNL A   1      43.512  27.627  27.443  1.00  0.00    -0.354 N 
ATOM     50  C   UNL A   1      40.275  29.143  29.837  1.00  0.00     0.074 A 
ATOM     51  C   UNL A   1      39.284  28.114  30.076  1.00  0.00     0.031 C 
ATOM     52  C   UNL A   1      44.611  26.148  26.175  1.00  0.00     0.029 A 
ATOM     53  C   UNL A   1      44.685  27.488  26.740  1.00  0.00     0.049 A 
ATOM     54  H   UNL A   1      43.302  28.417  27.991  1.00  0.00     0.167 HD
ATOM     55  C   UNL A   1      40.227  30.391  30.363  1.00  0.00     0.031 A 
ATOM     56  C   UNL A   1      45.688  28.355  26.511  1.00  0.00     0.031 A 
ATOM     57  C   UNL A   1      41.241  31.396  30.161  1.00  0.00     0.049 A 
ATOM     58  C   UNL A   1      45.592  29.745  27.063  1.00  0.00     0.074 A 
ATOM     59  C   UNL A   1      41.294  32.684  30.670  1.00  0.00     0.029 A 
ATOM     60  N   UNL A   1      42.389  31.222  29.403  1.00  0.00    -0.354 N 
ATOM     61  N   UNL A   1      44.653  30.272  27.809  1.00  0.00    -0.248 NA
ATOM     62  C   UNL A   1      46.683  30.666  26.721  1.00  0.00     0.031 C 
ATOM     63  C   UNL A   1      42.445  33.305  30.174  1.00  0.00     0.029 A 
ATOM     64  C   UNL A   1      43.143  32.385  29.410  1.00  0.00     0.049 A 
ATOM     65  H   UNL A   1      42.632  30.393  28.929  1.00  0.00     0.167 HD
ATOM     66  C   UNL A   1      45.045  31.583  28.039  1.00  0.00     0.074 A 
ATOM     67  C   UNL A   1      46.319  31.762  27.372  1.00  0.00     0.031 C 
ATOM     68  C   UNL A   1      44.404  32.553  28.735  1.00  0.00     0.031 A 
BRANCH  55  69
ATOM     69  C   UNL A   1      39.009  30.770  31.165  1.00  0.00    -0.014 A 
ATOM     70  C   UNL A   1      38.954  30.607  32.558  1.00  0.00     0.009 A 
ATOM     71  C   UNL A   1      37.908  31.347  30.511  1.00  0.00     0.009 A 
ATOM     72  C   UNL A   1      37.808  30.977  33.270  1.00  0.00     0.001 A 
ATOM     73  C   UNL A   1      36.778  31.747  31.228  1.00  0.00     0.001 A 
ATOM     74  C   UNL A   1      36.725  31.551  32.605  1.00  0.00     0.000 A 
ENDBRANCH  55  69
BRANCH  56  75
ATOM     75  C   UNL A   1      46.837  27.944  25.660  1.00  0.00    -0.014 A 
ATOM     76  C   UNL A   1      46.742  27.984  24.262  1.00  0.00     0.009 A 
ATOM     77  C   UNL A   1      48.047  27.537  26.247  1.00  0.00     0.009 A 
ATOM     78  C   UNL A   1      47.833  27.616  23.470  1.00  0.00     0.001 A 
ATOM     79  C   UNL A   1      49.147  27.207  25.454  1.00  0.00     0.001 A 
ATOM     80  C   UNL A   1      49.035  27.240  24.066  1.00  0.00     0.000 A 
ENDBRANCH  56  75
BRANCH  68  81
ATOM     81  C   UNL A   1      45.094  33.883  28.838  1.00  0.00    -0.014 A 
ATOM     82  C   UNL A   1      44.855  34.905  27.907  1.00  0.00     0.009 A 
ATOM     83  C   UNL A   1      45.990  34.119  29.893  1.00  0.00     0.009 A 
ATOM     84  C   UNL A   1      45.530  36.124  28.008  1.00  0.00     0.001 A 
ATOM     85  C   UNL A   1      46.638  35.349  30.009  1.00  0.00     0.001 A 
ATOM     86  C   UNL A   1      46.417  36.345  29.060  1.00  0.00     0.000 A 
ENDBRANCH  68  81
ENDBRANCH  42  43
ENDBRANCH  35  37
ENDBRANCH  34  35
ENDBRANCH  33  34
ENDBRANCH   1  33
TORSDOF 16
ENDMDL
MODEL 2
REMARK VINA RESULT:     -11.1      1.103      5.748
REMARK SMILES Cc1cc(C(=O)N[C@@H]2C(=O)N3C(C(=O)OCCOC(=O)c4ccc(-c5c6nc(c(-c7ccccc7)c7ccc([nH]7)c(-c7ccccc7)c7nc(c(-c8ccccc8)c8ccc5[nH]8)C=C7)C=C6)cc4)=C(CSc4nnc(C)s4)CS[C@H]23)n(C)n1
REMARK SMILES IDX 16 1 15 2 13 3 14 4 12 5 8 6 9 7 80 8 10 9 11 10 79 11 78 12
REMARK SMILES IDX 69 13 7 14 5 15 6 16 4 18 1 19 2 20 3 21 83 22 81 23 82 24
REMARK SMILES IDX 70 25 71 26 72 27 73 28 77 29 74 30 75 31 76 32 17 33 18 34
REMARK SMILES IDX 19 35 20 36 21 37 22 38 68 39 23 40 67 41 24 42 25 43 26 44
REMARK SMILES IDX 61 45 27 46 66 47 60 48 62 49 28 50 65 51 59 52 58 53 29 55
REMARK SMILES IDX 51 56 36 57 50 58 37 59 40 60 49 61 63 62 38 63 39 64 48 66
REMARK SMILES IDX 64 67 41 68 30 69 31 70 35 71 32 72 34 73 33 74 52 75 53 76
REMARK SMILES IDX 57 77 54 78 56 79 55 80 42 81 43 82 47 83 44 84 46 85 45 86
REMARK H PARENT 7 17 62 54 40 65
REMARK Flexibility Score: inf
ROOT
ATOM      1  C   UNL A   1      35.827  21.631  24.468  1.00  0.00     0.275 C 
ENDROOT
BRANCH   1   2
ATOM      2  O   UNL A   1      35.562  22.949  24.990  1.00  0.00    -0.457 OA
BRANCH   2   3
ATOM      3  C   UNL A   1      34.653  23.033  25.984  1.00  0.00     0.355 C 
ATOM      4  O   UNL A   1      34.864  22.797  27.167  1.00  0.00    -0.244 OA
BRANCH   3   5
ATOM      5  C   UNL A   1      33.284  23.417  25.506  1.00  0.00     0.132 C 
ATOM      6  C   UNL A   1      32.221  26.631  25.871  1.00  0.00     0.206 C 
ATOM      7  C   UNL A   1      33.254  25.855  24.987  1.00  0.00     0.253 C 
ATOM      8  C   UNL A   1      31.649  25.188  26.085  1.00  0.00     0.181 C 
ATOM      9  O   UNL A   1      33.963  26.094  24.035  1.00  0.00    -0.272 OA
ATOM     10  N   UNL A   1      32.972  24.732  25.697  1.00  0.00    -0.289 N 
ATOM     11  S   UNL A   1      30.464  24.579  24.855  1.00  0.00    -0.129 SA
ATOM     12  C   UNL A   1      30.843  22.838  25.155  1.00  0.00     0.106 C 
ATOM     13  C   UNL A   1      32.322  22.493  25.277  1.00  0.00    -0.019 C 
BRANCH   6  14
ATOM     14  N   UNL A   1      31.431  27.699  25.226  1.00  0.00    -0.336 N 
ATOM     15  C   UNL A   1      31.685  29.051  25.143  1.00  0.00     0.270 C 
ATOM     16  O   UNL A   1      30.925  29.730  24.458  1.00  0.00    -0.268 OA
ATOM     17  H   UNL A   1      30.598  27.401  24.791  1.00  0.00     0.164 HD
BRANCH  15  18
ATOM     18  C   UNL A   1      32.769  29.601  25.920  1.00  0.00     0.126 A 
ATOM     19  C   UNL A   1      35.690  29.456  28.100  1.00  0.00     0.069 C 
ATOM     20  C   UNL A   1      34.523  29.814  27.261  1.00  0.00     0.060 A 
ATOM     21  C   UNL A   1      34.087  29.201  26.067  1.00  0.00     0.059 A 
ATOM     22  N   UNL A   1      33.675  30.768  27.648  1.00  0.00    -0.178 NA
ATOM     23  N   UNL A   1      32.664  30.693  26.752  1.00  0.00    -0.263 N 
ATOM     24  C   UNL A   1      31.613  31.679  26.842  1.00  0.00     0.174 C 
ENDBRANCH  15  18
ENDBRANCH   6  14
BRANCH  13  25
ATOM     25  C   UNL A   1      32.555  20.998  25.253  1.00  0.00     0.111 C 
BRANCH  25  26
ATOM     26  S   UNL A   1      32.458  20.169  23.651  1.00  0.00    -0.089 SA
BRANCH  26  27
ATOM     27  C   UNL A   1      32.809  18.493  23.970  1.00  0.00     0.174 A 
ATOM     28  N   UNL A   1      33.193  17.650  23.039  1.00  0.00    -0.132 NA
ATOM     29  S   UNL A   1      32.570  17.783  25.510  1.00  0.00    -0.091 S 
ATOM     30  N   UNL A   1      33.326  16.363  23.526  1.00  0.00    -0.143 NA
ATOM     31  C   UNL A   1      33.002  16.280  24.801  1.00  0.00     0.115 A 
ATOM     32  C   UNL A   1      32.954  15.016  25.579  1.00  0.00     0.081 C 
ENDBRANCH  26  27
ENDBRANCH  25  26
ENDBRANCH  13  25
ENDBRANCH   3   5
ENDBRANCH   2   3
ENDBRANCH   1   2
BRANCH   1  33
ATOM     33  C   UNL A   1      37.319  21.330  24.542  1.00  0.00     0.275 C 
BRANCH  33  34
ATOM     34  O   UNL A   1      37.714  21.238  25.923  1.00  0.00    -0.458 OA
BRANCH  34  35
ATOM     35  C   UNL A   1      39.050  21.188  26.126  1.00  0.00     0.338 C 
ATOM     36  O   UNL A   1      39.794  20.247  25.910  1.00  0.00    -0.246 OA
BRANCH  35  37
ATOM     37  C   UNL A   1      39.512  22.481  26.653  1.00  0.00     0.060 A 
ATOM     38  C   UNL A   1      38.849  23.650  26.284  1.00  0.00     0.016 A 
ATOM     39  C   UNL A   1      40.713  22.548  27.354  1.00  0.00     0.016 A 
ATOM     40  C   UNL A   1      39.471  24.881  26.472  1.00  0.00     0.010 A 
ATOM     41  C   UNL A   1      41.259  23.796  27.669  1.00  0.00     0.010 A 
ATOM     42  C   UNL A   1      40.675  24.980  27.184  1.00  0.00    -0.014 A 
BRANCH  42  43
ATOM     43  C   UNL A   1      41.324  26.308  27.398  1.00  0.00     0.031 A 
ATOM     44  C   UNL A   1      42.644  26.639  26.743  1.00  0.00     0.074 A 
ATOM     45  C   UNL A   1      40.731  27.235  28.178  1.00  0.00     0.049 A 
ATOM     46  N   UNL A   1      43.453  27.643  26.976  1.00  0.00    -0.248 NA
ATOM     47  C   UNL A   1      43.128  25.713  25.705  1.00  0.00     0.031 C 
ATOM     48  C   UNL A   1      39.432  27.088  28.840  1.00  0.00     0.029 A 
ATOM     49  N   UNL A   1      41.140  28.495  28.542  1.00  0.00    -0.354 N 
ATOM     50  C   UNL A   1      44.570  27.430  26.172  1.00  0.00     0.074 A 
ATOM     51  C   UNL A   1      44.332  26.201  25.444  1.00  0.00     0.031 C 
ATOM     52  C   UNL A   1      39.125  28.228  29.473  1.00  0.00     0.029 A 
ATOM     53  C   UNL A   1      40.256  29.139  29.375  1.00  0.00     0.049 A 
ATOM     54  H   UNL A   1      41.985  28.898  28.237  1.00  0.00     0.167 HD
ATOM     55  C   UNL A   1      45.690  28.185  26.060  1.00  0.00     0.031 A 
ATOM     56  C   UNL A   1      40.357  30.300  30.046  1.00  0.00     0.031 A 
ATOM     57  C   UNL A   1      45.901  29.433  26.751  1.00  0.00     0.049 A 
ATOM     58  C   UNL A   1      41.624  31.094  29.945  1.00  0.00     0.074 A 
ATOM     59  C   UNL A   1      46.994  30.282  26.685  1.00  0.00     0.029 A 
ATOM     60  N   UNL A   1      44.994  30.020  27.619  1.00  0.00    -0.354 N 
ATOM     61  N   UNL A   1      42.698  30.846  29.236  1.00  0.00    -0.248 NA
ATOM     62  C   UNL A   1      41.701  32.317  30.754  1.00  0.00     0.031 C 
ATOM     63  C   UNL A   1      46.770  31.353  27.556  1.00  0.00     0.029 A 
ATOM     64  C   UNL A   1      45.511  31.207  28.114  1.00  0.00     0.049 A 
ATOM     65  H   UNL A   1      44.111  29.649  27.849  1.00  0.00     0.167 HD
ATOM     66  C   UNL A   1      43.575  31.888  29.502  1.00  0.00     0.074 A 
ATOM     67  C   UNL A   1      42.897  32.782  30.419  1.00  0.00     0.031 C 
ATOM     68  C   UNL A   1      44.831  32.082  29.033  1.00  0.00     0.031 A 
BRANCH  55  69
ATOM     69  C   UNL A   1      46.810  27.657  25.200  1.00  0.00    -0.014 A 
ATOM     70  C   UNL A   1      47.720  26.697  25.670  1.00  0.00     0.009 A 
ATOM     71  C   UNL A   1      46.924  28.101  23.872  1.00  0.00     0.009 A 
ATOM     72  C   UNL A   1      48.742  26.225  24.839  1.00  0.00     0.001 A 
ATOM     73  C   UNL A   1      47.925  27.604  23.035  1.00  0.00     0.001 A 
ATOM     74  C   UNL A   1      48.840  26.674  23.523  1.00  0.00     0.000 A 
ENDBRANCH  55  69
BRANCH  56  75
ATOM     75  C   UNL A   1      39.243  30.740  30.928  1.00  0.00    -0.014 A 
ATOM     76  C   UNL A   1      39.217  30.378  32.282  1.00  0.00     0.009 A 
ATOM     77  C   UNL A   1      38.214  31.553  30.422  1.00  0.00     0.009 A 
ATOM     78  C   UNL A   1      38.177  30.814  33.109  1.00  0.00     0.001 A 
ATOM     79  C   UNL A   1      37.198  32.017  31.259  1.00  0.00     0.001 A 
ATOM     80  C   UNL A   1      37.177  31.640  32.600  1.00  0.00     0.000 A 
ENDBRANCH  56  75
BRANCH  68  81
ATOM     81  C   UNL A   1      45.536  33.332  29.479  1.00  0.00    -0.014 A 
ATOM     82  C   UNL A   1      45.467  34.517  28.730  1.00  0.00     0.009 A 
ATOM     83  C   UNL A   1      46.271  33.324  30.674  1.00  0.00     0.009 A 
ATOM     84  C   UNL A   1      46.153  35.658  29.151  1.00  0.00     0.001 A 
ATOM     85  C   UNL A   1      46.930  34.474  31.108  1.00  0.00     0.001 A 
ATOM     86  C   UNL A   1      46.881  35.636  30.340  1.00  0.00     0.000 A 
ENDBRANCH  68  81
ENDBRANCH  42  43
ENDBRANCH  35  37
ENDBRANCH  34  35
ENDBRANCH  33  34
ENDBRANCH   1  33
TORSDOF 16
ENDMDL
MODEL 3
REMARK VINA RESULT:     -10.8      1.434      6.006
REMARK SMILES Cc1cc(C(=O)N[C@@H]2C(=O)N3C(C(=O)OCCOC(=O)c4ccc(-c5c6nc(c(-c7ccccc7)c7ccc([nH]7)c(-c7ccccc7)c7nc(c(-c8ccccc8)c8ccc5[nH]8)C=C7)C=C6)cc4)=C(CSc4nnc(C)s4)CS[C@H]23)n(C)n1
REMARK SMILES IDX 16 1 15 2 13 3 14 4 12 5 8 6 9 7 80 8 10 9 11 10 79 11 78 12
REMARK SMILES IDX 69 13 7 14 5 15 6 16 4 18 1 19 2 20 3 21 83 22 81 23 82 24
REMARK SMILES IDX 70 25 71 26 72 27 73 28 77 29 74 30 75 31 76 32 17 33 18 34
REMARK SMILES IDX 19 35 20 36 21 37 22 38 68 39 23 40 67 41 24 42 25 43 26 44
REMARK SMILES IDX 61 45 27 46 66 47 60 48 62 49 28 50 65 51 59 52 58 53 29 55
REMARK SMILES IDX 51 56 36 57 50 58 37 59 40 60 49 61 63 62 38 63 39 64 48 66
REMARK SMILES IDX 64 67 41 68 30 69 31 70 35 71 32 72 34 73 33 74 52 75 53 76
REMARK SMILES IDX 57 77 54 78 56 79 55 80 42 81 43 82 47 83 44 84 46 85 45 86
REMARK H PARENT 7 17 62 54 40 65
REMARK Flexibility Score: inf
ROOT
ATOM      1  C   UNL A   1      35.401  20.655  25.182  1.00  0.00     0.275 C 
ENDROOT
BRANCH   1   2
ATOM      2  O   UNL A   1      35.155  21.543  26.293  1.00  0.00    -0.457 OA
BRANCH   2   3
ATOM      3  C   UNL A   1      33.921  22.082  26.372  1.00  0.00     0.355 C 
ATOM      4  O   UNL A   1      33.227  22.133  27.380  1.00  0.00    -0.244 OA
BRANCH   3   5
ATOM      5  C   UNL A   1      33.416  22.606  25.061  1.00  0.00     0.132 C 
ATOM      6  C   UNL A   1      33.999  25.852  24.215  1.00  0.00     0.206 C 
ATOM      7  C   UNL A   1      34.830  24.532  24.351  1.00  0.00     0.253 C 
ATOM      8  C   UNL A   1      32.805  24.838  24.173  1.00  0.00     0.181 C 
ATOM      9  O   UNL A   1      35.953  24.161  24.094  1.00  0.00    -0.272 OA
ATOM     10  N   UNL A   1      33.717  23.916  24.827  1.00  0.00    -0.289 N 
ATOM     11  S   UNL A   1      32.369  24.141  22.556  1.00  0.00    -0.129 SA
ATOM     12  C   UNL A   1      31.645  22.638  23.249  1.00  0.00     0.106 C 
ATOM     13  C   UNL A   1      32.439  21.975  24.367  1.00  0.00    -0.019 C 
BRANCH   6  14
ATOM     14  N   UNL A   1      34.309  26.744  23.079  1.00  0.00    -0.336 N 
ATOM     15  C   UNL A   1      33.610  27.831  22.602  1.00  0.00     0.270 C 
ATOM     16  O   UNL A   1      34.126  28.486  21.700  1.00  0.00    -0.268 OA
ATOM     17  H   UNL A   1      35.137  26.530  22.591  1.00  0.00     0.164 HD
BRANCH  15  18
ATOM     18  C   UNL A   1      32.291  28.092  23.126  1.00  0.00     0.126 A 
ATOM     19  C   UNL A   1      28.730  28.851  22.908  1.00  0.00     0.069 C 
ATOM     20  C   UNL A   1      30.135  28.582  23.295  1.00  0.00     0.060 A 
ATOM     21  C   UNL A   1      31.039  27.670  22.712  1.00  0.00     0.059 A 
ATOM     22  N   UNL A   1      30.728  29.302  24.247  1.00  0.00    -0.178 NA
ATOM     23  N   UNL A   1      32.021  28.909  24.200  1.00  0.00    -0.263 N 
ATOM     24  C   UNL A   1      32.921  29.447  25.193  1.00  0.00     0.174 C 
ENDBRANCH  15  18
ENDBRANCH   6  14
BRANCH  13  25
ATOM     25  C   UNL A   1      31.908  20.596  24.695  1.00  0.00     0.111 C 
BRANCH  25  26
ATOM     26  S   UNL A   1      32.104  19.313  23.438  1.00  0.00    -0.089 SA
BRANCH  26  27
ATOM     27  C   UNL A   1      32.897  17.988  24.244  1.00  0.00     0.174 A 
ATOM     28  N   UNL A   1      32.504  17.514  25.404  1.00  0.00    -0.132 NA
ATOM     29  S   UNL A   1      34.330  17.270  23.638  1.00  0.00    -0.091 S 
ATOM     30  N   UNL A   1      33.346  16.522  25.873  1.00  0.00    -0.143 NA
ATOM     31  C   UNL A   1      34.363  16.312  25.062  1.00  0.00     0.115 A 
ATOM     32  C   UNL A   1      35.483  15.377  25.338  1.00  0.00     0.081 C 
ENDBRANCH  26  27
ENDBRANCH  25  26
ENDBRANCH  13  25
ENDBRANCH   3   5
ENDBRANCH   2   3
ENDBRANCH   1   2
BRANCH   1  33
ATOM     33  C   UNL A   1      36.875  20.267  25.141  1.00  0.00     0.275 C 
BRANCH  33  34
ATOM     34  O   UNL A   1      37.679  21.450  25.299  1.00  0.00    -0.458 OA
BRANCH  34  35
ATOM     35  C   UNL A   1      38.879  21.242  25.885  1.00  0.00     0.338 C 
ATOM     36  O   UNL A   1      39.501  20.195  25.941  1.00  0.00    -0.246 OA
BRANCH  35  37
ATOM     37  C   UNL A   1      39.366  22.506  26.461  1.00  0.00     0.060 A 
ATOM     38  C   UNL A   1      38.678  23.689  26.203  1.00  0.00     0.016 A 
ATOM     39  C   UNL A   1      40.606  22.540  27.093  1.00  0.00     0.016 A 
ATOM     40  C   UNL A   1      39.304  24.912  26.428  1.00  0.00     0.010 A 
ATOM     41  C   UNL A   1      41.164  23.771  27.450  1.00  0.00     0.010 A 
ATOM     42  C   UNL A   1      40.548  24.977  27.072  1.00  0.00    -0.014 A 
BRANCH  42  43
ATOM     43  C   UNL A   1      41.203  26.295  27.327  1.00  0.00     0.031 A 
ATOM     44  C   UNL A   1      42.527  26.638  26.685  1.00  0.00     0.074 A 
ATOM     45  C   UNL A   1      40.612  27.202  28.133  1.00  0.00     0.049 A 
ATOM     46  N   UNL A   1      43.339  27.632  26.949  1.00  0.00    -0.248 NA
ATOM     47  C   UNL A   1      43.008  25.741  25.621  1.00  0.00     0.031 C 
ATOM     48  C   UNL A   1      39.311  27.041  28.787  1.00  0.00     0.029 A 
ATOM     49  N   UNL A   1      41.027  28.448  28.535  1.00  0.00    -0.354 N 
ATOM     50  C   UNL A   1      44.457  27.437  26.143  1.00  0.00     0.074 A 
ATOM     51  C   UNL A   1      44.216  26.231  25.378  1.00  0.00     0.031 C 
ATOM     52  C   UNL A   1      39.008  28.163  29.452  1.00  0.00     0.029 A 
ATOM     53  C   UNL A   1      40.144  29.071  29.384  1.00  0.00     0.049 A 
ATOM     54  H   UNL A   1      41.874  28.856  28.244  1.00  0.00     0.167 HD
ATOM     55  C   UNL A   1      45.582  28.189  26.055  1.00  0.00     0.031 A 
ATOM     56  C   UNL A   1      40.248  30.212  30.089  1.00  0.00     0.031 A 
ATOM     57  C   UNL A   1      45.797  29.415  26.783  1.00  0.00     0.049 A 
ATOM     58  C   UNL A   1      41.520  31.002  30.015  1.00  0.00     0.074 A 
ATOM     59  C   UNL A   1      46.894  30.260  26.746  1.00  0.00     0.029 A 
ATOM     60  N   UNL A   1      44.890  29.981  27.666  1.00  0.00    -0.354 N 
ATOM     61  N   UNL A   1      42.594  30.770  29.301  1.00  0.00    -0.248 NA
ATOM     62  C   UNL A   1      41.600  32.200  30.860  1.00  0.00     0.031 C 
ATOM     63  C   UNL A   1      46.673  31.306  27.648  1.00  0.00     0.029 A 
ATOM     64  C   UNL A   1      45.412  31.150  28.198  1.00  0.00     0.049 A 
ATOM     65  H   UNL A   1      44.005  29.607  27.883  1.00  0.00     0.167 HD
ATOM     66  C   UNL A   1      43.475  31.799  29.600  1.00  0.00     0.074 A 
ATOM     67  C   UNL A   1      42.799  32.669  30.542  1.00  0.00     0.031 C 
ATOM     68  C   UNL A   1      44.733  32.001  29.140  1.00  0.00     0.031 A 
BRANCH  55  69
ATOM     69  C   UNL A   1      46.701  27.681  25.183  1.00  0.00    -0.014 A 
ATOM     70  C   UNL A   1      46.846  28.086  23.847  1.00  0.00     0.009 A 
ATOM     71  C   UNL A   1      47.658  26.811  25.732  1.00  0.00     0.009 A 
ATOM     72  C   UNL A   1      47.903  27.598  23.071  1.00  0.00     0.001 A 
ATOM     73  C   UNL A   1      48.731  26.352  24.965  1.00  0.00     0.001 A 
ATOM     74  C   UNL A   1      48.846  26.737  23.632  1.00  0.00     0.000 A 
ENDBRANCH  55  69
BRANCH  56  75
ATOM     75  C   UNL A   1      39.134  30.631  30.981  1.00  0.00    -0.014 A 
ATOM     76  C   UNL A   1      38.025  31.317  30.467  1.00  0.00     0.009 A 
ATOM     77  C   UNL A   1      39.164  30.318  32.351  1.00  0.00     0.009 A 
ATOM     78  C   UNL A   1      36.973  31.689  31.309  1.00  0.00     0.001 A 
ATOM     79  C   UNL A   1      38.095  30.657  33.182  1.00  0.00     0.001 A 
ATOM     80  C   UNL A   1      37.004  31.349  32.661  1.00  0.00     0.000 A 
ENDBRANCH  56  75
BRANCH  68  81
ATOM     81  C   UNL A   1      45.443  33.233  29.625  1.00  0.00    -0.014 A 
ATOM     82  C   UNL A   1      45.334  34.455  28.943  1.00  0.00     0.009 A 
ATOM     83  C   UNL A   1      46.224  33.171  30.789  1.00  0.00     0.009 A 
ATOM     84  C   UNL A   1      46.025  35.580  29.397  1.00  0.00     0.001 A 
ATOM     85  C   UNL A   1      46.889  34.304  31.258  1.00  0.00     0.001 A 
ATOM     86  C   UNL A   1      46.798  35.505  30.555  1.00  0.00     0.000 A 
ENDBRANCH  68  81
ENDBRANCH  42  43
ENDBRANCH  35  37
ENDBRANCH  34  35
ENDBRANCH  33  34
ENDBRANCH   1  33
TORSDOF 16
ENDMDL
