MODEL 1
REMARK VINA RESULT:     -11.8      0.000      0.000
REMARK SMILES Cc1ccccc1C(=O)Nc1cc(C(=O)OCCOC(=O)c2ccc(-c3c4nc(c(-c5ccccc5)c5ccc([nH]5)c(-c5ccccc5)c5nc(c(-c6ccccc6)c6ccc3[nH]6)C=C5)C=C4)cc2)ccc1N1CC[NH+](CC(=O)Nc2ccc(F)cc2)CC1
REMARK SMILES IDX 17 1 16 2 14 3 15 4 13 5 11 6 12 7 72 8 71 9 70 10 10 11
REMARK SMILES IDX 8 12 9 13 7 15 1 16 2 17 3 18 4 19 6 20 5 21 73 22 74 23
REMARK SMILES IDX 89 24 75 25 88 26 76 27 77 29 78 30 79 31 80 32 81 34 82 35
REMARK SMILES IDX 87 36 83 37 86 38 84 39 85 40 18 41 19 42 20 43 21 44 22 45
REMARK SMILES IDX 23 46 69 47 24 48 68 49 25 50 26 51 27 52 62 53 28 54 67 55
REMARK SMILES IDX 61 56 63 57 29 58 66 59 60 60 59 61 30 63 52 64 37 65 51 66
REMARK SMILES IDX 38 67 41 68 50 69 64 70 39 71 40 72 49 74 65 75 42 76 31 77
REMARK SMILES IDX 32 78 36 79 33 80 35 81 34 82 53 83 54 84 58 85 55 86 57 87
REMARK SMILES IDX 56 88 43 89 44 90 48 91 45 92 47 93 46 94
REMARK H PARENT 10 14 76 28 80 33 63 62 41 73
REMARK Flexibility Score: inf
ROOT
ATOM      1  C   UNL A   1      51.794  25.908  36.265  1.00  0.00     0.275 C 
ENDROOT
BRANCH   1   2
ATOM      2  O   UNL A   1      50.807  25.034  36.765  1.00  0.00    -0.458 OA
BRANCH   2   3
ATOM      3  C   UNL A   1      51.391  24.007  37.350  1.00  0.00     0.338 C 
ATOM      4  O   UNL A   1      52.302  24.060  38.168  1.00  0.00    -0.246 OA
BRANCH   3   5
ATOM      5  C   UNL A   1      50.742  22.697  36.880  1.00  0.00     0.062 A 
ATOM      6  C   UNL A   1      48.567  21.777  38.669  1.00  0.00     0.065 A 
ATOM      7  C   UNL A   1      49.455  22.980  38.057  1.00  0.00     0.044 A 
ATOM      8  C   UNL A   1      48.930  20.046  38.400  1.00  0.00     0.061 A 
ATOM      9  C   UNL A   1      50.208  19.488  37.257  1.00  0.00     0.029 A 
ATOM     10  C   UNL A   1      51.219  20.783  36.379  1.00  0.00     0.018 A 
BRANCH   6  11
ATOM     11  N   UNL A   1      47.279  22.285  39.169  1.00  0.00    -0.320 N 
ATOM     12  C   UNL A   1      46.011  22.661  38.501  1.00  0.00     0.255 C 
ATOM     13  O   UNL A   1      45.110  23.091  39.232  1.00  0.00    -0.269 OA
ATOM     14  H   UNL A   1      47.256  22.400  40.147  1.00  0.00     0.170 HD
BRANCH  12  15
ATOM     15  C   UNL A   1      45.591  22.422  37.001  1.00  0.00     0.043 A 
ATOM     16  C   UNL A   1      46.289  24.637  36.560  1.00  0.00     0.045 C 
ATOM     17  C   UNL A   1      45.500  23.492  36.163  1.00  0.00    -0.038 A 
ATOM     18  C   UNL A   1      44.644  23.508  35.054  1.00  0.00     0.004 A 
ATOM     19  C   UNL A   1      44.523  22.354  34.335  1.00  0.00     0.000 A 
ATOM     20  C   UNL A   1      45.627  21.259  36.228  1.00  0.00     0.014 A 
ATOM     21  C   UNL A   1      45.160  21.248  34.869  1.00  0.00     0.001 A 
ENDBRANCH  12  15
ENDBRANCH   6  11
BRANCH   8  22
ATOM     22  N   UNL A   1      48.032  19.175  39.072  1.00  0.00    -0.359 N 
ATOM     23  C   UNL A   1      46.633  18.721  38.811  1.00  0.00     0.178 C 
ATOM     24  C   UNL A   1      48.252  19.193  40.501  1.00  0.00     0.178 C 
ATOM     25  C   UNL A   1      46.342  17.360  39.592  1.00  0.00     0.284 C 
ATOM     26  C   UNL A   1      48.037  17.738  41.106  1.00  0.00     0.284 C 
ATOM     27  N   UNL A   1      46.680  17.282  41.019  1.00  0.00    -0.324 N 
ATOM     28  H   UNL A   1      46.436  16.312  41.219  1.00  0.00     0.348 HD
BRANCH  27  29
ATOM     29  C   UNL A   1      45.905  17.882  42.136  1.00  0.00     0.364 C 
BRANCH  29  30
ATOM     30  C   UNL A   1      44.421  18.273  41.892  1.00  0.00     0.279 C 
ATOM     31  O   UNL A   1      44.151  19.488  41.943  1.00  0.00    -0.268 OA
ATOM     32  N   UNL A   1      43.338  17.455  41.576  1.00  0.00    -0.321 N 
ATOM     33  H   UNL A   1      42.594  18.027  41.281  1.00  0.00     0.170 HD
BRANCH  32  34
ATOM     34  C   UNL A   1      42.899  16.075  41.522  1.00  0.00     0.041 A 
ATOM     35  C   UNL A   1      43.064  15.306  42.674  1.00  0.00     0.029 A 
ATOM     36  C   UNL A   1      42.455  15.296  40.441  1.00  0.00     0.029 A 
ATOM     37  C   UNL A   1      42.629  13.957  42.734  1.00  0.00     0.041 A 
ATOM     38  C   UNL A   1      41.922  14.013  40.477  1.00  0.00     0.041 A 
ATOM     39  C   UNL A   1      42.002  13.346  41.654  1.00  0.00     0.123 A 
ATOM     40  F   UNL A   1      41.568  12.084  41.712  1.00  0.00    -0.207 F 
ENDBRANCH  32  34
ENDBRANCH  29  30
ENDBRANCH  27  29
ENDBRANCH   8  22
ENDBRANCH   3   5
ENDBRANCH   2   3
ENDBRANCH   1   2
BRANCH   1  41
ATOM     41  C   UNL A   1      51.486  26.846  35.015  1.00  0.00     0.275 C 
BRANCH  41  42
ATOM     42  O   UNL A   1      50.463  26.648  33.921  1.00  0.00    -0.458 OA
BRANCH  42  43
ATOM     43  C   UNL A   1      50.441  26.840  32.526  1.00  0.00     0.338 C 
ATOM     44  O   UNL A   1      51.458  26.782  31.846  1.00  0.00    -0.246 OA
BRANCH  43  45
ATOM     45  C   UNL A   1      49.367  27.756  32.089  1.00  0.00     0.060 A 
ATOM     46  C   UNL A   1      49.020  29.566  31.855  1.00  0.00     0.016 A 
ATOM     47  C   UNL A   1      48.333  26.617  31.266  1.00  0.00     0.016 A 
ATOM     48  C   UNL A   1      47.406  29.933  30.670  1.00  0.00     0.010 A 
ATOM     49  C   UNL A   1      47.181  27.022  30.227  1.00  0.00     0.010 A 
ATOM     50  C   UNL A   1      46.525  28.502  29.888  1.00  0.00    -0.014 A 
BRANCH  50  51
ATOM     51  C   UNL A   1      45.361  27.886  28.770  1.00  0.00     0.031 A 
ATOM     52  C   UNL A   1      43.884  27.768  29.234  1.00  0.00     0.074 A 
ATOM     53  C   UNL A   1      45.647  27.958  27.331  1.00  0.00     0.049 A 
ATOM     54  N   UNL A   1      42.969  28.496  28.656  1.00  0.00    -0.248 NA
ATOM     55  C   UNL A   1      43.302  27.097  30.444  1.00  0.00     0.031 C 
ATOM     56  C   UNL A   1      44.903  27.981  25.994  1.00  0.00     0.029 A 
ATOM     57  N   UNL A   1      46.949  27.967  26.704  1.00  0.00    -0.354 N 
ATOM     58  C   UNL A   1      41.769  28.391  29.371  1.00  0.00     0.074 A 
ATOM     59  C   UNL A   1      42.107  27.709  30.597  1.00  0.00     0.031 C 
ATOM     60  C   UNL A   1      45.646  27.446  24.979  1.00  0.00     0.029 A 
ATOM     61  C   UNL A   1      46.949  27.188  25.519  1.00  0.00     0.049 A 
ATOM     62  H   UNL A   1      47.732  28.451  27.053  1.00  0.00     0.167 HD
ATOM     63  C   UNL A   1      40.603  28.135  28.713  1.00  0.00     0.031 A 
ATOM     64  C   UNL A   1      47.598  25.996  25.503  1.00  0.00     0.031 A 
ATOM     65  C   UNL A   1      40.949  27.472  27.477  1.00  0.00     0.049 A 
ATOM     66  C   UNL A   1      46.493  25.012  25.906  1.00  0.00     0.074 A 
ATOM     67  C   UNL A   1      41.262  27.934  26.221  1.00  0.00     0.029 A 
ATOM     68  N   UNL A   1      41.533  26.221  27.608  1.00  0.00    -0.354 N 
ATOM     69  N   UNL A   1      45.410  25.339  26.582  1.00  0.00    -0.248 NA
ATOM     70  C   UNL A   1      46.414  23.684  25.329  1.00  0.00     0.031 C 
ATOM     71  C   UNL A   1      42.132  26.951  25.637  1.00  0.00     0.029 A 
ATOM     72  C   UNL A   1      42.367  25.913  26.545  1.00  0.00     0.049 A 
ATOM     73  H   UNL A   1      41.373  25.619  28.370  1.00  0.00     0.167 HD
ATOM     74  C   UNL A   1      44.409  24.466  26.275  1.00  0.00     0.074 A 
ATOM     75  C   UNL A   1      45.114  23.419  25.530  1.00  0.00     0.031 C 
ATOM     76  C   UNL A   1      43.064  24.606  26.535  1.00  0.00     0.031 A 
BRANCH  63  77
ATOM     77  C   UNL A   1      39.216  28.597  29.107  1.00  0.00    -0.014 A 
ATOM     78  C   UNL A   1      38.492  29.317  28.135  1.00  0.00     0.009 A 
ATOM     79  C   UNL A   1      38.619  28.517  30.384  1.00  0.00     0.009 A 
ATOM     80  C   UNL A   1      37.277  29.960  28.409  1.00  0.00     0.001 A 
ATOM     81  C   UNL A   1      37.385  29.155  30.661  1.00  0.00     0.001 A 
ATOM     82  C   UNL A   1      36.720  29.884  29.676  1.00  0.00     0.000 A 
ENDBRANCH  63  77
BRANCH  64  83
ATOM     83  C   UNL A   1      48.921  26.237  26.165  1.00  0.00    -0.014 A 
ATOM     84  C   UNL A   1      49.222  25.543  27.389  1.00  0.00     0.009 A 
ATOM     85  C   UNL A   1      49.950  26.541  25.291  1.00  0.00     0.009 A 
ATOM     86  C   UNL A   1      50.484  24.975  27.597  1.00  0.00     0.001 A 
ATOM     87  C   UNL A   1      51.197  25.997  25.528  1.00  0.00     0.001 A 
ATOM     88  C   UNL A   1      51.471  25.205  26.658  1.00  0.00     0.000 A 
ENDBRANCH  64  83
BRANCH  76  89
ATOM     89  C   UNL A   1      42.253  23.352  26.803  1.00  0.00    -0.014 A 
ATOM     90  C   UNL A   1      42.801  22.226  27.433  1.00  0.00     0.009 A 
ATOM     91  C   UNL A   1      40.868  23.294  26.548  1.00  0.00     0.009 A 
ATOM     92  C   UNL A   1      42.087  21.044  27.586  1.00  0.00     0.001 A 
ATOM     93  C   UNL A   1      40.107  22.163  26.843  1.00  0.00     0.001 A 
ATOM     94  C   UNL A   1      40.733  21.015  27.299  1.00  0.00     0.000 A 
ENDBRANCH  76  89
ENDBRANCH  50  51
ENDBRANCH  43  45
ENDBRANCH  42  43
ENDBRANCH  41  42
ENDBRANCH   1  41
TORSDOF 17
ENDMDL
MODEL 2
REMARK VINA RESULT:     -11.5      8.423     12.731
REMARK SMILES Cc1ccccc1C(=O)Nc1cc(C(=O)OCCOC(=O)c2ccc(-c3c4nc(c(-c5ccccc5)c5ccc([nH]5)c(-c5ccccc5)c5nc(c(-c6ccccc6)c6ccc3[nH]6)C=C5)C=C4)cc2)ccc1N1CC[NH+](CC(=O)Nc2ccc(F)cc2)CC1
REMARK SMILES IDX 17 1 16 2 14 3 15 4 13 5 11 6 12 7 72 8 71 9 70 10 10 11
REMARK SMILES IDX 8 12 9 13 7 15 1 16 2 17 3 18 4 19 6 20 5 21 73 22 74 23
REMARK SMILES IDX 89 24 75 25 88 26 76 27 77 29 78 30 79 31 80 32 81 34 82 35
REMARK SMILES IDX 87 36 83 37 86 38 84 39 85 40 18 41 19 42 20 43 21 44 22 45
REMARK SMILES IDX 23 46 69 47 24 48 68 49 25 50 26 51 27 52 62 53 28 54 67 55
REMARK SMILES IDX 61 56 63 57 29 58 66 59 60 60 59 61 30 63 52 64 37 65 51 66
REMARK SMILES IDX 38 67 41 68 50 69 64 70 39 71 40 72 49 74 65 75 42 76 31 77
REMARK SMILES IDX 32 78 36 79 33 80 35 81 34 82 53 83 54 84 58 85 55 86 57 87
REMARK SMILES IDX 56 88 43 89 44 90 48 91 45 92 47 93 46 94
REMARK H PARENT 10 14 76 28 80 33 63 62 41 73
REMARK Flexibility Score: inf
ROOT
ATOM      1  C   UNL A   1      46.731  31.842  28.603  1.00  0.00     0.275 C 
ENDROOT
BRANCH   1   2
ATOM      2  O   UNL A   1      47.164  31.496  27.306  1.00  0.00    -0.458 OA
BRANCH   2   3
ATOM      3  C   UNL A   1      46.244  30.752  26.724  1.00  0.00     0.338 C 
ATOM      4  O   UNL A   1      45.457  31.119  25.859  1.00  0.00    -0.246 OA
BRANCH   3   5
ATOM      5  C   UNL A   1      46.308  29.317  27.267  1.00  0.00     0.062 A 
ATOM      6  C   UNL A   1      46.265  27.268  25.127  1.00  0.00     0.065 A 
ATOM      7  C   UNL A   1      46.615  28.769  25.616  1.00  0.00     0.044 A 
ATOM      8  C   UNL A   1      45.342  26.098  26.115  1.00  0.00     0.061 A 
ATOM      9  C   UNL A   1      44.888  26.421  27.831  1.00  0.00     0.029 A 
ATOM     10  C   UNL A   1      45.355  28.069  28.561  1.00  0.00     0.018 A 
BRANCH   6  11
ATOM     11  N   UNL A   1      47.072  26.905  23.950  1.00  0.00    -0.320 N 
ATOM     12  C   UNL A   1      48.484  26.489  23.781  1.00  0.00     0.255 C 
ATOM     13  O   UNL A   1      48.861  26.281  22.621  1.00  0.00    -0.269 OA
ATOM     14  H   UNL A   1      46.572  26.948  23.103  1.00  0.00     0.170 HD
BRANCH  12  15
ATOM     15  C   UNL A   1      49.529  26.106  24.897  1.00  0.00     0.043 A 
ATOM     16  C   UNL A   1      50.845  27.920  24.142  1.00  0.00     0.045 C 
ATOM     17  C   UNL A   1      50.771  26.664  24.857  1.00  0.00    -0.038 A 
ATOM     18  C   UNL A   1      51.898  26.028  25.393  1.00  0.00     0.004 A 
ATOM     19  C   UNL A   1      51.741  25.349  26.566  1.00  0.00     0.000 A 
ATOM     20  C   UNL A   1      49.332  25.558  26.166  1.00  0.00     0.014 A 
ATOM     21  C   UNL A   1      50.440  25.249  27.028  1.00  0.00     0.001 A 
ENDBRANCH  12  15
ENDBRANCH   6  11
BRANCH   8  22
ATOM     22  N   UNL A   1      45.126  24.858  25.458  1.00  0.00    -0.359 N 
ATOM     23  C   UNL A   1      43.914  24.040  25.153  1.00  0.00     0.178 C 
ATOM     24  C   UNL A   1      46.252  23.967  25.633  1.00  0.00     0.178 C 
ATOM     25  C   UNL A   1      44.218  23.034  23.952  1.00  0.00     0.284 C 
ATOM     26  C   UNL A   1      46.492  23.122  24.308  1.00  0.00     0.284 C 
ATOM     27  N   UNL A   1      45.428  22.205  24.018  1.00  0.00    -0.324 N 
ATOM     28  H   UNL A   1      45.378  21.724  23.120  1.00  0.00     0.348 HD
BRANCH  27  29
ATOM     29  C   UNL A   1      45.612  20.988  24.849  1.00  0.00     0.364 C 
BRANCH  29  30
ATOM     30  C   UNL A   1      44.460  19.946  24.915  1.00  0.00     0.279 C 
ATOM     31  O   UNL A   1      44.644  18.875  24.306  1.00  0.00    -0.268 OA
ATOM     32  N   UNL A   1      43.249  20.018  25.601  1.00  0.00    -0.321 N 
ATOM     33  H   UNL A   1      42.845  19.120  25.611  1.00  0.00     0.170 HD
BRANCH  32  34
ATOM     34  C   UNL A   1      42.363  20.922  26.306  1.00  0.00     0.041 A 
ATOM     35  C   UNL A   1      41.183  21.292  25.662  1.00  0.00     0.029 A 
ATOM     36  C   UNL A   1      42.544  21.637  27.502  1.00  0.00     0.029 A 
ATOM     37  C   UNL A   1      40.231  22.140  26.285  1.00  0.00     0.041 A 
ATOM     38  C   UNL A   1      41.603  22.388  28.196  1.00  0.00     0.041 A 
ATOM     39  C   UNL A   1      40.423  22.625  27.574  1.00  0.00     0.123 A 
ATOM     40  F   UNL A   1      39.520  23.403  28.176  1.00  0.00    -0.207 F 
ENDBRANCH  32  34
ENDBRANCH  29  30
ENDBRANCH  27  29
ENDBRANCH   8  22
ENDBRANCH   3   5
ENDBRANCH   2   3
ENDBRANCH   1   2
BRANCH   1  41
ATOM     41  C   UNL A   1      47.788  32.191  29.742  1.00  0.00     0.275 C 
BRANCH  41  42
ATOM     42  O   UNL A   1      47.569  32.959  31.024  1.00  0.00    -0.458 OA
BRANCH  42  43
ATOM     43  C   UNL A   1      47.706  32.673  32.397  1.00  0.00     0.338 C 
ATOM     44  O   UNL A   1      48.426  31.771  32.804  1.00  0.00    -0.246 OA
BRANCH  43  45
ATOM     45  C   UNL A   1      46.492  32.995  33.174  1.00  0.00     0.060 A 
ATOM     46  C   UNL A   1      45.764  34.347  34.221  1.00  0.00     0.016 A 
ATOM     47  C   UNL A   1      45.404  31.800  32.519  1.00  0.00     0.016 A 
ATOM     48  C   UNL A   1      43.752  34.177  34.475  1.00  0.00     0.010 A 
ATOM     49  C   UNL A   1      43.806  31.852  32.655  1.00  0.00     0.010 A 
ATOM     50  C   UNL A   1      42.850  32.812  33.604  1.00  0.00    -0.014 A 
BRANCH  50  51
ATOM     51  C   UNL A   1      41.372  32.061  33.118  1.00  0.00     0.031 A 
ATOM     52  C   UNL A   1      41.253  31.544  31.659  1.00  0.00     0.074 A 
ATOM     53  C   UNL A   1      40.492  31.489  34.144  1.00  0.00     0.049 A 
ATOM     54  N   UNL A   1      41.121  30.264  31.439  1.00  0.00    -0.248 NA
ATOM     55  C   UNL A   1      41.497  32.254  30.359  1.00  0.00     0.031 C 
ATOM     56  C   UNL A   1      39.397  30.429  34.284  1.00  0.00     0.029 A 
ATOM     57  N   UNL A   1      40.380  31.907  35.524  1.00  0.00    -0.354 N 
ATOM     58  C   UNL A   1      41.253  30.010  30.068  1.00  0.00     0.074 A 
ATOM     59  C   UNL A   1      41.725  31.245  29.489  1.00  0.00     0.031 C 
ATOM     60  C   UNL A   1      38.512  30.726  35.282  1.00  0.00     0.029 A 
ATOM     61  C   UNL A   1      39.031  31.880  35.958  1.00  0.00     0.049 A 
ATOM     62  H   UNL A   1      41.142  32.174  36.088  1.00  0.00     0.167 HD
ATOM     63  C   UNL A   1      40.339  29.230  29.428  1.00  0.00     0.031 A 
ATOM     64  C   UNL A   1      38.372  33.049  36.162  1.00  0.00     0.031 A 
ATOM     65  C   UNL A   1      39.115  29.291  30.195  1.00  0.00     0.049 A 
ATOM     66  C   UNL A   1      37.716  33.302  34.800  1.00  0.00     0.074 A 
ATOM     67  C   UNL A   1      38.633  28.553  31.250  1.00  0.00     0.029 A 
ATOM     68  N   UNL A   1      38.502  30.533  30.253  1.00  0.00    -0.354 N 
ATOM     69  N   UNL A   1      38.141  32.798  33.659  1.00  0.00    -0.248 NA
ATOM     70  C   UNL A   1      36.397  33.896  34.693  1.00  0.00     0.031 C 
ATOM     71  C   UNL A   1      37.775  29.432  31.995  1.00  0.00     0.029 A 
ATOM     72  C   UNL A   1      37.759  30.703  31.410  1.00  0.00     0.049 A 
ATOM     73  H   UNL A   1      38.585  31.218  29.551  1.00  0.00     0.167 HD
ATOM     74  C   UNL A   1      37.093  32.698  32.794  1.00  0.00     0.074 A 
ATOM     75  C   UNL A   1      36.039  33.452  33.478  1.00  0.00     0.031 C 
ATOM     76  C   UNL A   1      37.039  31.980  31.620  1.00  0.00     0.031 A 
BRANCH  63  77
ATOM     77  C   UNL A   1      40.585  28.332  28.234  1.00  0.00    -0.014 A 
ATOM     78  C   UNL A   1      40.696  26.950  28.496  1.00  0.00     0.009 A 
ATOM     79  C   UNL A   1      40.862  28.730  26.908  1.00  0.00     0.009 A 
ATOM     80  C   UNL A   1      41.098  26.020  27.529  1.00  0.00     0.001 A 
ATOM     81  C   UNL A   1      41.257  27.790  25.925  1.00  0.00     0.001 A 
ATOM     82  C   UNL A   1      41.384  26.438  26.239  1.00  0.00     0.000 A 
ENDBRANCH  63  77
BRANCH  64  83
ATOM     83  C   UNL A   1      39.318  33.930  36.921  1.00  0.00    -0.014 A 
ATOM     84  C   UNL A   1      39.860  35.091  36.269  1.00  0.00     0.009 A 
ATOM     85  C   UNL A   1      39.094  33.965  38.287  1.00  0.00     0.009 A 
ATOM     86  C   UNL A   1      39.948  36.314  36.943  1.00  0.00     0.001 A 
ATOM     87  C   UNL A   1      39.213  35.175  38.942  1.00  0.00     0.001 A 
ATOM     88  C   UNL A   1      39.619  36.351  38.284  1.00  0.00     0.000 A 
ENDBRANCH  64  83
BRANCH  76  89
ATOM     89  C   UNL A   1      36.178  32.517  30.492  1.00  0.00    -0.014 A 
ATOM     90  C   UNL A   1      36.420  33.761  29.892  1.00  0.00     0.009 A 
ATOM     91  C   UNL A   1      35.162  31.741  29.898  1.00  0.00     0.009 A 
ATOM     92  C   UNL A   1      35.571  34.295  28.930  1.00  0.00     0.001 A 
ATOM     93  C   UNL A   1      34.404  32.209  28.825  1.00  0.00     0.001 A 
ATOM     94  C   UNL A   1      34.566  33.513  28.388  1.00  0.00     0.000 A 
ENDBRANCH  76  89
ENDBRANCH  50  51
ENDBRANCH  43  45
ENDBRANCH  42  43
ENDBRANCH  41  42
ENDBRANCH   1  41
TORSDOF 17
ENDMDL
MODEL 3
REMARK VINA RESULT:     -11.3     11.534     20.143
REMARK SMILES Cc1ccccc1C(=O)Nc1cc(C(=O)OCCOC(=O)c2ccc(-c3c4nc(c(-c5ccccc5)c5ccc([nH]5)c(-c5ccccc5)c5nc(c(-c6ccccc6)c6ccc3[nH]6)C=C5)C=C4)cc2)ccc1N1CC[NH+](CC(=O)Nc2ccc(F)cc2)CC1
REMARK SMILES IDX 17 1 16 2 14 3 15 4 13 5 11 6 12 7 72 8 71 9 70 10 10 11
REMARK SMILES IDX 8 12 9 13 7 15 1 16 2 17 3 18 4 19 6 20 5 21 73 22 74 23
REMARK SMILES IDX 89 24 75 25 88 26 76 27 77 29 78 30 79 31 80 32 81 34 82 35
REMARK SMILES IDX 87 36 83 37 86 38 84 39 85 40 18 41 19 42 20 43 21 44 22 45
REMARK SMILES IDX 23 46 69 47 24 48 68 49 25 50 26 51 27 52 62 53 28 54 67 55
REMARK SMILES IDX 61 56 63 57 29 58 66 59 60 60 59 61 30 63 52 64 37 65 51 66
REMARK SMILES IDX 38 67 41 68 50 69 64 70 39 71 40 72 49 74 65 75 42 76 31 77
REMARK SMILES IDX 32 78 36 79 33 80 35 81 34 82 53 83 54 84 58 85 55 86 57 87
REMARK SMILES IDX 56 88 43 89 44 90 48 91 45 92 47 93 46 94
REMARK H PARENT 10 14 76 28 80 33 63 62 41 73
REMARK Flexibility Score: inf
ROOT
ATOM      1  C   UNL A   1      46.181  38.658  31.711  1.00  0.00     0.275 C 
ENDROOT
BRANCH   1   2
ATOM      2  O   UNL A   1      45.543  39.915  31.747  1.00  0.00    -0.458 OA
BRANCH   2   3
ATOM      3  C   UNL A   1      44.385  39.833  31.121  1.00  0.00     0.338 C 
ATOM      4  O   UNL A   1      43.278  39.999  31.619  1.00  0.00    -0.246 OA
BRANCH   3   5
ATOM      5  C   UNL A   1      44.614  39.521  29.635  1.00  0.00     0.062 A 
ATOM      6  C   UNL A   1      44.619  41.945  27.931  1.00  0.00     0.065 A 
ATOM      7  C   UNL A   1      44.862  41.250  29.370  1.00  0.00     0.044 A 
ATOM      8  C   UNL A   1      43.872  41.103  26.541  1.00  0.00     0.061 A 
ATOM      9  C   UNL A   1      43.503  39.337  26.560  1.00  0.00     0.029 A 
ATOM     10  C   UNL A   1      43.865  38.388  28.120  1.00  0.00     0.018 A 
BRANCH   6  11
ATOM     11  N   UNL A   1      45.377  43.203  27.828  1.00  0.00    -0.320 N 
ATOM     12  C   UNL A   1      46.789  43.558  28.101  1.00  0.00     0.255 C 
ATOM     13  O   UNL A   1      47.101  44.744  27.936  1.00  0.00    -0.269 OA
ATOM     14  H   UNL A   1      44.835  43.963  27.515  1.00  0.00     0.170 HD
BRANCH  12  15
ATOM     15  C   UNL A   1      47.997  42.592  28.408  1.00  0.00     0.043 A 
ATOM     16  C   UNL A   1      47.613  43.009  30.704  1.00  0.00     0.045 C 
ATOM     17  C   UNL A   1      48.519  42.568  29.666  1.00  0.00    -0.038 A 
ATOM     18  C   UNL A   1      49.854  42.226  29.919  1.00  0.00     0.004 A 
ATOM     19  C   UNL A   1      50.396  41.213  29.181  1.00  0.00     0.000 A 
ATOM     20  C   UNL A   1      48.440  41.457  27.726  1.00  0.00     0.014 A 
ATOM     21  C   UNL A   1      49.598  40.727  28.160  1.00  0.00     0.001 A 
ENDBRANCH  12  15
ENDBRANCH   6  11
BRANCH   8  22
ATOM     22  N   UNL A   1      43.727  41.932  25.397  1.00  0.00    -0.359 N 
ATOM     23  C   UNL A   1      42.585  42.267  24.494  1.00  0.00     0.178 C 
ATOM     24  C   UNL A   1      44.954  41.991  24.632  1.00  0.00     0.178 C 
ATOM     25  C   UNL A   1      42.877  43.634  23.723  1.00  0.00     0.284 C 
ATOM     26  C   UNL A   1      45.153  43.449  24.032  1.00  0.00     0.284 C 
ATOM     27  N   UNL A   1      44.171  43.797  23.047  1.00  0.00    -0.324 N 
ATOM     28  H   UNL A   1      44.085  44.754  22.703  1.00  0.00     0.348 HD
BRANCH  27  29
ATOM     29  C   UNL A   1      44.563  43.189  21.749  1.00  0.00     0.364 C 
BRANCH  29  30
ATOM     30  C   UNL A   1      43.447  42.685  20.791  1.00  0.00     0.279 C 
ATOM     31  O   UNL A   1      43.009  41.538  21.002  1.00  0.00    -0.268 OA
ATOM     32  N   UNL A   1      42.824  43.356  19.741  1.00  0.00    -0.321 N 
ATOM     33  H   UNL A   1      42.025  42.845  19.477  1.00  0.00     0.170 HD
BRANCH  32  34
ATOM     34  C   UNL A   1      42.913  44.527  18.892  1.00  0.00     0.041 A 
ATOM     35  C   UNL A   1      44.146  45.175  18.825  1.00  0.00     0.029 A 
ATOM     36  C   UNL A   1      41.916  45.244  18.210  1.00  0.00     0.029 A 
ATOM     37  C   UNL A   1      44.347  46.305  17.990  1.00  0.00     0.041 A 
ATOM     38  C   UNL A   1      42.084  46.284  17.303  1.00  0.00     0.041 A 
ATOM     39  C   UNL A   1      43.328  46.807  17.187  1.00  0.00     0.123 A 
ATOM     40  F   UNL A   1      43.517  47.855  16.382  1.00  0.00    -0.207 F 
ENDBRANCH  32  34
ENDBRANCH  29  30
ENDBRANCH  27  29
ENDBRANCH   8  22
ENDBRANCH   3   5
ENDBRANCH   2   3
ENDBRANCH   1   2
BRANCH   1  41
ATOM     41  C   UNL A   1      45.855  37.554  32.812  1.00  0.00     0.275 C 
BRANCH  41  42
ATOM     42  O   UNL A   1      45.032  37.695  34.070  1.00  0.00    -0.458 OA
BRANCH  42  43
ATOM     43  C   UNL A   1      44.636  36.830  35.109  1.00  0.00     0.338 C 
ATOM     44  O   UNL A   1      44.878  37.072  36.284  1.00  0.00    -0.246 OA
BRANCH  43  45
ATOM     45  C   UNL A   1      44.585  35.414  34.689  1.00  0.00     0.060 A 
ATOM     46  C   UNL A   1      45.454  33.795  34.965  1.00  0.00     0.016 A 
ATOM     47  C   UNL A   1      42.977  35.369  34.016  1.00  0.00     0.016 A 
ATOM     48  C   UNL A   1      44.362  32.182  34.374  1.00  0.00     0.010 A 
ATOM     49  C   UNL A   1      42.147  34.026  33.732  1.00  0.00     0.010 A 
ATOM     50  C   UNL A   1      42.643  32.449  33.734  1.00  0.00    -0.014 A 
BRANCH  50  51
ATOM     51  C   UNL A   1      41.112  31.820  33.238  1.00  0.00     0.031 A 
ATOM     52  C   UNL A   1      40.977  31.261  31.796  1.00  0.00     0.074 A 
ATOM     53  C   UNL A   1      40.159  31.374  34.262  1.00  0.00     0.049 A 
ATOM     54  N   UNL A   1      40.730  29.992  31.620  1.00  0.00    -0.248 NA
ATOM     55  C   UNL A   1      41.316  31.895  30.478  1.00  0.00     0.031 C 
ATOM     56  C   UNL A   1      38.966  30.427  34.412  1.00  0.00     0.029 A 
ATOM     57  N   UNL A   1      40.057  31.853  35.622  1.00  0.00    -0.354 N 
ATOM     58  C   UNL A   1      40.867  29.674  30.263  1.00  0.00     0.074 A 
ATOM     59  C   UNL A   1      41.466  30.836  29.652  1.00  0.00     0.031 C 
ATOM     60  C   UNL A   1      38.091  30.844  35.375  1.00  0.00     0.029 A 
ATOM     61  C   UNL A   1      38.702  31.970  36.022  1.00  0.00     0.049 A 
ATOM     62  H   UNL A   1      40.828  32.070  36.195  1.00  0.00     0.167 HD
ATOM     63  C   UNL A   1      39.898  28.958  29.628  1.00  0.00     0.031 A 
ATOM     64  C   UNL A   1      38.152  33.202  36.166  1.00  0.00     0.031 A 
ATOM     65  C   UNL A   1      38.669  29.163  30.361  1.00  0.00     0.049 A 
ATOM     66  C   UNL A   1      37.553  33.463  34.779  1.00  0.00     0.074 A 
ATOM     67  C   UNL A   1      38.096  28.515  31.429  1.00  0.00     0.029 A 
ATOM     68  N   UNL A   1      38.174  30.459  30.358  1.00  0.00    -0.354 N 
ATOM     69  N   UNL A   1      37.954  32.877  33.669  1.00  0.00    -0.248 NA
ATOM     70  C   UNL A   1      36.298  34.173  34.617  1.00  0.00     0.031 C 
ATOM     71  C   UNL A   1      37.308  29.498  32.119  1.00  0.00     0.029 A 
ATOM     72  C   UNL A   1      37.426  30.741  31.489  1.00  0.00     0.049 A 
ATOM     73  H   UNL A   1      38.337  31.105  29.634  1.00  0.00     0.167 HD
ATOM     74  C   UNL A   1      36.920  32.842  32.782  1.00  0.00     0.074 A 
ATOM     75  C   UNL A   1      35.928  33.718  33.410  1.00  0.00     0.031 C 
ATOM     76  C   UNL A   1      36.825  32.088  31.633  1.00  0.00     0.031 A 
BRANCH  63  77
ATOM     77  C   UNL A   1      40.084  27.996  28.475  1.00  0.00    -0.014 A 
ATOM     78  C   UNL A   1      39.675  26.664  28.691  1.00  0.00     0.009 A 
ATOM     79  C   UNL A   1      40.755  28.241  27.257  1.00  0.00     0.009 A 
ATOM     80  C   UNL A   1      39.946  25.625  27.791  1.00  0.00     0.001 A 
ATOM     81  C   UNL A   1      41.020  27.196  26.338  1.00  0.00     0.001 A 
ATOM     82  C   UNL A   1      40.623  25.887  26.611  1.00  0.00     0.000 A 
ENDBRANCH  63  77
BRANCH  64  83
ATOM     83  C   UNL A   1      39.160  34.019  36.917  1.00  0.00    -0.014 A 
ATOM     84  C   UNL A   1      39.777  35.138  36.257  1.00  0.00     0.009 A 
ATOM     85  C   UNL A   1      38.946  34.075  38.283  1.00  0.00     0.009 A 
ATOM     86  C   UNL A   1      39.951  36.355  36.924  1.00  0.00     0.001 A 
ATOM     87  C   UNL A   1      39.151  35.277  38.932  1.00  0.00     0.001 A 
ATOM     88  C   UNL A   1      39.633  36.419  38.267  1.00  0.00     0.000 A 
ENDBRANCH  64  83
BRANCH  76  89
ATOM     89  C   UNL A   1      36.043  32.659  30.465  1.00  0.00    -0.014 A 
ATOM     90  C   UNL A   1      34.731  32.261  30.175  1.00  0.00     0.009 A 
ATOM     91  C   UNL A   1      36.547  33.716  29.680  1.00  0.00     0.009 A 
ATOM     92  C   UNL A   1      34.054  32.709  29.048  1.00  0.00     0.001 A 
ATOM     93  C   UNL A   1      35.810  34.282  28.640  1.00  0.00     0.001 A 
ATOM     94  C   UNL A   1      34.590  33.730  28.283  1.00  0.00     0.000 A 
ENDBRANCH  76  89
ENDBRANCH  50  51
ENDBRANCH  43  45
ENDBRANCH  42  43
ENDBRANCH  41  42
ENDBRANCH   1  41
TORSDOF 17
ENDMDL
