MODEL 1
REMARK VINA RESULT:     -10.3      0.000      0.000
REMARK SMILES C[C@@H](O)[C@@H](NC(=O)Nc1ccc(F)cc1F)C(=O)OCCOC(=O)c1ccc(-c2c3nc(c(-c4ccccc4)c4ccc([nH]4)c(-c4ccccc4)c4nc(c(-c5ccccc5)c5ccc2[nH]5)C=C4)C=C3)cc1
REMARK SMILES IDX 20 1 19 2 17 3 18 4 4 5 2 6 1 7 3 8 5 10 6 11 7 13 8 14 9 16
REMARK SMILES IDX 10 17 15 18 11 19 14 20 16 21 12 22 13 23 21 24 22 25 23 26
REMARK SMILES IDX 24 27 25 28 26 29 72 30 27 31 71 32 28 33 29 34 30 35 65 36
REMARK SMILES IDX 31 37 70 38 64 39 66 40 32 41 69 42 63 43 62 44 33 46 55 47
REMARK SMILES IDX 40 48 54 49 41 50 44 51 53 52 67 53 42 54 43 55 52 57 68 58
REMARK SMILES IDX 45 59 34 60 35 61 39 62 36 63 38 64 37 65 56 66 57 67 61 68
REMARK SMILES IDX 58 69 60 70 59 71 46 72 47 73 51 74 48 75 50 76 49 77
REMARK H PARENT 3 9 5 12 8 15 66 45 44 56
REMARK Flexibility Score: inf
ROOT
ATOM      1  C   UNL A   1      33.270  33.780  28.006  1.00  0.00     0.274 C 
ENDROOT
BRANCH   1   2
ATOM      2  O   UNL A   1      33.313  33.911  29.448  1.00  0.00    -0.460 OA
BRANCH   2   3
ATOM      3  C   UNL A   1      33.128  35.184  29.864  1.00  0.00     0.331 C 
ATOM      4  O   UNL A   1      32.493  35.993  29.198  1.00  0.00    -0.250 OA
BRANCH   3   5
ATOM      5  C   UNL A   1      33.735  35.586  31.196  1.00  0.00     0.222 C 
BRANCH   5   6
ATOM      6  C   UNL A   1      33.078  36.923  31.654  1.00  0.00     0.145 C 
ATOM      7  C   UNL A   1      33.601  37.435  32.995  1.00  0.00     0.041 C 
BRANCH   6   8
ATOM      8  O   UNL A   1      33.394  37.983  30.742  1.00  0.00    -0.391 OA
ATOM      9  H   UNL A   1      34.356  38.038  30.630  1.00  0.00     0.211 HD
ENDBRANCH   6   8
ENDBRANCH   5   6
BRANCH   5  10
ATOM     10  N   UNL A   1      33.762  34.525  32.219  1.00  0.00    -0.322 N 
ATOM     11  C   UNL A   1      34.681  33.622  32.632  1.00  0.00     0.320 C 
ATOM     12  H   UNL A   1      32.914  34.459  32.716  1.00  0.00     0.166 HD
ATOM     13  O   UNL A   1      34.471  33.087  33.723  1.00  0.00    -0.248 OA
ATOM     14  N   UNL A   1      35.553  33.057  31.773  1.00  0.00    -0.305 N 
ATOM     15  H   UNL A   1      35.419  32.088  31.660  1.00  0.00     0.171 HD
BRANCH  14  16
ATOM     16  C   UNL A   1      36.612  33.569  31.007  1.00  0.00     0.079 A 
ATOM     17  C   UNL A   1      36.745  33.384  29.629  1.00  0.00     0.032 A 
ATOM     18  C   UNL A   1      37.630  34.237  31.712  1.00  0.00     0.149 A 
ATOM     19  C   UNL A   1      37.946  33.761  29.006  1.00  0.00     0.041 A 
ATOM     20  C   UNL A   1      38.829  34.589  31.103  1.00  0.00     0.080 A 
ATOM     21  F   UNL A   1      37.503  34.424  33.036  1.00  0.00    -0.205 F 
ATOM     22  C   UNL A   1      38.984  34.320  29.753  1.00  0.00     0.126 A 
ATOM     23  F   UNL A   1      40.162  34.573  29.165  1.00  0.00    -0.207 F 
ENDBRANCH  14  16
ENDBRANCH   5  10
ENDBRANCH   3   5
ENDBRANCH   2   3
ENDBRANCH   1   2
BRANCH   1  24
ATOM     24  C   UNL A   1      33.532  32.361  27.442  1.00  0.00     0.275 C 
BRANCH  24  25
ATOM     25  O   UNL A   1      34.012  31.380  28.397  1.00  0.00    -0.458 OA
BRANCH  25  26
ATOM     26  C   UNL A   1      34.560  30.258  27.857  1.00  0.00     0.338 C 
ATOM     27  O   UNL A   1      34.061  29.599  26.955  1.00  0.00    -0.246 OA
BRANCH  26  28
ATOM     28  C   UNL A   1      35.959  30.029  28.330  1.00  0.00     0.060 A 
ATOM     29  C   UNL A   1      37.003  30.116  27.393  1.00  0.00     0.016 A 
ATOM     30  C   UNL A   1      36.258  29.675  29.645  1.00  0.00     0.016 A 
ATOM     31  C   UNL A   1      38.331  29.847  27.752  1.00  0.00     0.010 A 
ATOM     32  C   UNL A   1      37.585  29.368  29.998  1.00  0.00     0.010 A 
ATOM     33  C   UNL A   1      38.628  29.428  29.052  1.00  0.00    -0.014 A 
BRANCH  33  34
ATOM     34  C   UNL A   1      39.959  28.840  29.375  1.00  0.00     0.031 A 
ATOM     35  C   UNL A   1      40.945  29.692  30.134  1.00  0.00     0.074 A 
ATOM     36  C   UNL A   1      40.326  27.597  29.011  1.00  0.00     0.049 A 
ATOM     37  N   UNL A   1      42.213  29.480  30.384  1.00  0.00    -0.248 NA
ATOM     38  C   UNL A   1      40.423  30.954  30.681  1.00  0.00     0.031 C 
ATOM     39  C   UNL A   1      39.469  26.609  28.365  1.00  0.00     0.029 A 
ATOM     40  N   UNL A   1      41.543  26.960  29.124  1.00  0.00    -0.354 N 
ATOM     41  C   UNL A   1      42.646  30.593  31.091  1.00  0.00     0.074 A 
ATOM     42  C   UNL A   1      41.511  31.480  31.223  1.00  0.00     0.031 C 
ATOM     43  C   UNL A   1      40.191  25.502  28.110  1.00  0.00     0.029 A 
ATOM     44  C   UNL A   1      41.575  25.720  28.532  1.00  0.00     0.049 A 
ATOM     45  H   UNL A   1      42.316  27.358  29.586  1.00  0.00     0.167 HD
ATOM     46  C   UNL A   1      43.879  30.864  31.581  1.00  0.00     0.031 A 
ATOM     47  C   UNL A   1      42.605  24.875  28.316  1.00  0.00     0.031 A 
ATOM     48  C   UNL A   1      45.022  30.003  31.447  1.00  0.00     0.049 A 
ATOM     49  C   UNL A   1      44.000  25.251  28.761  1.00  0.00     0.074 A 
ATOM     50  C   UNL A   1      46.310  30.207  31.911  1.00  0.00     0.029 A 
ATOM     51  N   UNL A   1      45.018  28.781  30.798  1.00  0.00    -0.354 N 
ATOM     52  N   UNL A   1      44.403  26.311  29.419  1.00  0.00    -0.248 NA
ATOM     53  C   UNL A   1      45.084  24.312  28.425  1.00  0.00     0.031 C 
ATOM     54  C   UNL A   1      47.102  29.135  31.488  1.00  0.00     0.029 A 
ATOM     55  C   UNL A   1      46.290  28.232  30.823  1.00  0.00     0.049 A 
ATOM     56  H   UNL A   1      44.230  28.364  30.381  1.00  0.00     0.167 HD
ATOM     57  C   UNL A   1      45.771  26.144  29.610  1.00  0.00     0.074 A 
ATOM     58  C   UNL A   1      46.132  24.882  29.003  1.00  0.00     0.031 C 
ATOM     59  C   UNL A   1      46.646  26.965  30.240  1.00  0.00     0.031 A 
BRANCH  46  60
ATOM     60  C   UNL A   1      44.069  32.188  32.265  1.00  0.00    -0.014 A 
ATOM     61  C   UNL A   1      43.893  32.329  33.650  1.00  0.00     0.009 A 
ATOM     62  C   UNL A   1      44.454  33.306  31.509  1.00  0.00     0.009 A 
ATOM     63  C   UNL A   1      44.063  33.574  34.258  1.00  0.00     0.001 A 
ATOM     64  C   UNL A   1      44.654  34.542  32.123  1.00  0.00     0.001 A 
ATOM     65  C   UNL A   1      44.447  34.678  33.495  1.00  0.00     0.000 A 
ENDBRANCH  46  60
BRANCH  47  66
ATOM     66  C   UNL A   1      42.390  23.590  27.593  1.00  0.00    -0.014 A 
ATOM     67  C   UNL A   1      42.050  22.423  28.295  1.00  0.00     0.009 A 
ATOM     68  C   UNL A   1      42.589  23.510  26.206  1.00  0.00     0.009 A 
ATOM     69  C   UNL A   1      41.947  21.199  27.629  1.00  0.00     0.001 A 
ATOM     70  C   UNL A   1      42.453  22.291  25.538  1.00  0.00     0.001 A 
ATOM     71  C   UNL A   1      42.145  21.135  26.251  1.00  0.00     0.000 A 
ENDBRANCH  47  66
BRANCH  59  72
ATOM     72  C   UNL A   1      48.076  26.515  30.375  1.00  0.00    -0.014 A 
ATOM     73  C   UNL A   1      48.510  25.756  31.471  1.00  0.00     0.009 A 
ATOM     74  C   UNL A   1      48.981  26.781  29.334  1.00  0.00     0.009 A 
ATOM     75  C   UNL A   1      49.824  25.286  31.530  1.00  0.00     0.001 A 
ATOM     76  C   UNL A   1      50.286  26.286  29.381  1.00  0.00     0.001 A 
ATOM     77  C   UNL A   1      50.708  25.543  30.481  1.00  0.00     0.000 A 
ENDBRANCH  59  72
ENDBRANCH  33  34
ENDBRANCH  26  28
ENDBRANCH  25  26
ENDBRANCH  24  25
ENDBRANCH   1  24
TORSDOF 15
ENDMDL
MODEL 2
REMARK VINA RESULT:     -10.0      5.396      9.192
REMARK SMILES C[C@@H](O)[C@@H](NC(=O)Nc1ccc(F)cc1F)C(=O)OCCOC(=O)c1ccc(-c2c3nc(c(-c4ccccc4)c4ccc([nH]4)c(-c4ccccc4)c4nc(c(-c5ccccc5)c5ccc2[nH]5)C=C4)C=C3)cc1
REMARK SMILES IDX 20 1 19 2 17 3 18 4 4 5 2 6 1 7 3 8 5 10 6 11 7 13 8 14 9 16
REMARK SMILES IDX 10 17 15 18 11 19 14 20 16 21 12 22 13 23 21 24 22 25 23 26
REMARK SMILES IDX 24 27 25 28 26 29 72 30 27 31 71 32 28 33 29 34 30 35 65 36
REMARK SMILES IDX 31 37 70 38 64 39 66 40 32 41 69 42 63 43 62 44 33 46 55 47
REMARK SMILES IDX 40 48 54 49 41 50 44 51 53 52 67 53 42 54 43 55 52 57 68 58
REMARK SMILES IDX 45 59 34 60 35 61 39 62 36 63 38 64 37 65 56 66 57 67 61 68
REMARK SMILES IDX 58 69 60 70 59 71 46 72 47 73 51 74 48 75 50 76 49 77
REMARK H PARENT 3 9 5 12 8 15 66 45 44 56
REMARK Flexibility Score: inf
ROOT
ATOM      1  C   UNL A   1      34.875  21.279  25.352  1.00  0.00     0.274 C 
ENDROOT
BRANCH   1   2
ATOM      2  O   UNL A   1      33.962  21.241  24.228  1.00  0.00    -0.460 OA
BRANCH   2   3
ATOM      3  C   UNL A   1      32.667  21.137  24.608  1.00  0.00     0.331 C 
ATOM      4  O   UNL A   1      32.140  20.050  24.804  1.00  0.00    -0.250 OA
BRANCH   3   5
ATOM      5  C   UNL A   1      31.879  22.423  24.787  1.00  0.00     0.222 C 
BRANCH   5   6
ATOM      6  C   UNL A   1      31.177  22.762  23.438  1.00  0.00     0.145 C 
ATOM      7  C   UNL A   1      31.305  24.229  23.032  1.00  0.00     0.041 C 
BRANCH   6   8
ATOM      8  O   UNL A   1      31.793  22.056  22.353  1.00  0.00    -0.391 OA
ATOM      9  H   UNL A   1      32.751  22.213  22.367  1.00  0.00     0.211 HD
ENDBRANCH   6   8
ENDBRANCH   5   6
BRANCH   5  10
ATOM     10  N   UNL A   1      31.002  22.461  25.970  1.00  0.00    -0.322 N 
ATOM     11  C   UNL A   1      30.552  23.437  26.793  1.00  0.00     0.320 C 
ATOM     12  H   UNL A   1      30.665  21.570  26.220  1.00  0.00     0.166 HD
ATOM     13  O   UNL A   1      29.584  23.152  27.502  1.00  0.00    -0.248 OA
ATOM     14  N   UNL A   1      31.316  24.503  27.109  1.00  0.00    -0.305 N 
ATOM     15  H   UNL A   1      31.565  24.538  28.061  1.00  0.00     0.171 HD
BRANCH  14  16
ATOM     16  C   UNL A   1      31.826  25.572  26.357  1.00  0.00     0.079 A 
ATOM     17  C   UNL A   1      31.052  26.625  25.864  1.00  0.00     0.032 A 
ATOM     18  C   UNL A   1      33.193  25.511  26.026  1.00  0.00     0.149 A 
ATOM     19  C   UNL A   1      31.629  27.524  24.952  1.00  0.00     0.041 A 
ATOM     20  C   UNL A   1      33.760  26.384  25.106  1.00  0.00     0.080 A 
ATOM     21  F   UNL A   1      33.943  24.504  26.504  1.00  0.00    -0.205 F 
ATOM     22  C   UNL A   1      32.959  27.371  24.555  1.00  0.00     0.126 A 
ATOM     23  F   UNL A   1      33.462  28.170  23.604  1.00  0.00    -0.207 F 
ENDBRANCH  14  16
ENDBRANCH   5  10
ENDBRANCH   3   5
ENDBRANCH   2   3
ENDBRANCH   1   2
BRANCH   1  24
ATOM     24  C   UNL A   1      36.243  20.583  25.142  1.00  0.00     0.275 C 
BRANCH  24  25
ATOM     25  O   UNL A   1      37.379  21.465  24.951  1.00  0.00    -0.458 OA
BRANCH  25  26
ATOM     26  C   UNL A   1      38.516  21.104  25.605  1.00  0.00     0.338 C 
ATOM     27  O   UNL A   1      39.062  20.013  25.509  1.00  0.00    -0.246 OA
BRANCH  26  28
ATOM     28  C   UNL A   1      39.163  22.262  26.293  1.00  0.00     0.060 A 
ATOM     29  C   UNL A   1      38.651  23.549  26.056  1.00  0.00     0.016 A 
ATOM     30  C   UNL A   1      40.285  22.119  27.108  1.00  0.00     0.016 A 
ATOM     31  C   UNL A   1      39.250  24.687  26.614  1.00  0.00     0.010 A 
ATOM     32  C   UNL A   1      40.910  23.263  27.638  1.00  0.00     0.010 A 
ATOM     33  C   UNL A   1      40.413  24.557  27.377  1.00  0.00    -0.014 A 
BRANCH  33  34
ATOM     34  C   UNL A   1      41.238  25.751  27.716  1.00  0.00     0.031 A 
ATOM     35  C   UNL A   1      40.616  26.824  28.572  1.00  0.00     0.074 A 
ATOM     36  C   UNL A   1      42.502  25.922  27.283  1.00  0.00     0.049 A 
ATOM     37  N   UNL A   1      41.057  28.023  28.860  1.00  0.00    -0.248 NA
ATOM     38  C   UNL A   1      39.319  26.493  29.183  1.00  0.00     0.031 C 
ATOM     39  C   UNL A   1      43.288  24.947  26.535  1.00  0.00     0.029 A 
ATOM     40  N   UNL A   1      43.343  27.007  27.403  1.00  0.00    -0.354 N 
ATOM     41  C   UNL A   1      40.079  28.599  29.660  1.00  0.00     0.074 A 
ATOM     42  C   UNL A   1      39.021  27.623  29.805  1.00  0.00     0.031 C 
ATOM     43  C   UNL A   1      44.484  25.486  26.234  1.00  0.00     0.029 A 
ATOM     44  C   UNL A   1      44.532  26.862  26.728  1.00  0.00     0.049 A 
ATOM     45  H   UNL A   1      43.113  27.811  27.923  1.00  0.00     0.167 HD
ATOM     46  C   UNL A   1      40.053  29.832  30.219  1.00  0.00     0.031 A 
ATOM     47  C   UNL A   1      45.526  27.746  26.498  1.00  0.00     0.031 A 
ATOM     48  C   UNL A   1      41.088  30.819  30.074  1.00  0.00     0.049 A 
ATOM     49  C   UNL A   1      45.422  29.158  27.026  1.00  0.00     0.074 A 
ATOM     50  C   UNL A   1      41.136  32.097  30.605  1.00  0.00     0.029 A 
ATOM     51  N   UNL A   1      42.250  30.645  29.343  1.00  0.00    -0.354 N 
ATOM     52  N   UNL A   1      44.489  29.698  27.772  1.00  0.00    -0.248 NA
ATOM     53  C   UNL A   1      46.511  30.085  26.673  1.00  0.00     0.031 C 
ATOM     54  C   UNL A   1      42.300  32.719  30.143  1.00  0.00     0.029 A 
ATOM     55  C   UNL A   1      43.008  31.803  29.384  1.00  0.00     0.049 A 
ATOM     56  H   UNL A   1      42.499  29.821  28.866  1.00  0.00     0.167 HD
ATOM     57  C   UNL A   1      44.899  31.006  28.009  1.00  0.00     0.074 A 
ATOM     58  C   UNL A   1      46.165  31.182  27.332  1.00  0.00     0.031 C 
ATOM     59  C   UNL A   1      44.280  31.972  28.730  1.00  0.00     0.031 A 
BRANCH  46  60
ATOM     60  C   UNL A   1      38.826  30.205  31.001  1.00  0.00    -0.014 A 
ATOM     61  C   UNL A   1      37.714  30.795  30.381  1.00  0.00     0.009 A 
ATOM     62  C   UNL A   1      38.777  29.937  32.377  1.00  0.00     0.009 A 
ATOM     63  C   UNL A   1      36.591  31.144  31.134  1.00  0.00     0.001 A 
ATOM     64  C   UNL A   1      37.642  30.258  33.122  1.00  0.00     0.001 A 
ATOM     65  C   UNL A   1      36.555  30.871  32.502  1.00  0.00     0.000 A 
ENDBRANCH  46  60
BRANCH  47  66
ATOM     66  C   UNL A   1      46.709  27.356  25.680  1.00  0.00    -0.014 A 
ATOM     67  C   UNL A   1      47.805  26.708  26.271  1.00  0.00     0.009 A 
ATOM     68  C   UNL A   1      46.776  27.692  24.318  1.00  0.00     0.009 A 
ATOM     69  C   UNL A   1      48.954  26.433  25.524  1.00  0.00     0.001 A 
ATOM     70  C   UNL A   1      47.913  27.387  23.567  1.00  0.00     0.001 A 
ATOM     71  C   UNL A   1      49.006  26.770  24.173  1.00  0.00     0.000 A 
ENDBRANCH  47  66
BRANCH  59  72
ATOM     72  C   UNL A   1      44.975  33.297  28.894  1.00  0.00    -0.014 A 
ATOM     73  C   UNL A   1      44.734  34.368  28.022  1.00  0.00     0.009 A 
ATOM     74  C   UNL A   1      45.817  33.499  30.000  1.00  0.00     0.009 A 
ATOM     75  C   UNL A   1      45.334  35.610  28.246  1.00  0.00     0.001 A 
ATOM     76  C   UNL A   1      46.393  34.748  30.238  1.00  0.00     0.001 A 
ATOM     77  C   UNL A   1      46.155  35.802  29.358  1.00  0.00     0.000 A 
ENDBRANCH  59  72
ENDBRANCH  33  34
ENDBRANCH  26  28
ENDBRANCH  25  26
ENDBRANCH  24  25
ENDBRANCH   1  24
TORSDOF 15
ENDMDL
MODEL 3
REMARK VINA RESULT:      -9.9      1.028      6.129
REMARK SMILES C[C@@H](O)[C@@H](NC(=O)Nc1ccc(F)cc1F)C(=O)OCCOC(=O)c1ccc(-c2c3nc(c(-c4ccccc4)c4ccc([nH]4)c(-c4ccccc4)c4nc(c(-c5ccccc5)c5ccc2[nH]5)C=C4)C=C3)cc1
REMARK SMILES IDX 20 1 19 2 17 3 18 4 4 5 2 6 1 7 3 8 5 10 6 11 7 13 8 14 9 16
REMARK SMILES IDX 10 17 15 18 11 19 14 20 16 21 12 22 13 23 21 24 22 25 23 26
REMARK SMILES IDX 24 27 25 28 26 29 72 30 27 31 71 32 28 33 29 34 30 35 65 36
REMARK SMILES IDX 31 37 70 38 64 39 66 40 32 41 69 42 63 43 62 44 33 46 55 47
REMARK SMILES IDX 40 48 54 49 41 50 44 51 53 52 67 53 42 54 43 55 52 57 68 58
REMARK SMILES IDX 45 59 34 60 35 61 39 62 36 63 38 64 37 65 56 66 57 67 61 68
REMARK SMILES IDX 58 69 60 70 59 71 46 72 47 73 51 74 48 75 50 76 49 77
REMARK H PARENT 3 9 5 12 8 15 66 45 44 56
REMARK Flexibility Score: inf
ROOT
ATOM      1  C   UNL A   1      33.327  34.465  28.538  1.00  0.00     0.274 C 
ENDROOT
BRANCH   1   2
ATOM      2  O   UNL A   1      33.291  34.383  29.984  1.00  0.00    -0.460 OA
BRANCH   2   3
ATOM      3  C   UNL A   1      33.196  35.596  30.575  1.00  0.00     0.331 C 
ATOM      4  O   UNL A   1      32.506  36.489  30.101  1.00  0.00    -0.250 OA
BRANCH   3   5
ATOM      5  C   UNL A   1      33.978  35.819  31.857  1.00  0.00     0.222 C 
BRANCH   5   6
ATOM      6  C   UNL A   1      33.474  37.137  32.519  1.00  0.00     0.145 C 
ATOM      7  C   UNL A   1      33.732  37.205  34.023  1.00  0.00     0.041 C 
BRANCH   6   8
ATOM      8  O   UNL A   1      34.186  38.269  32.002  1.00  0.00    -0.391 OA
ATOM      9  H   UNL A   1      34.603  38.031  31.159  1.00  0.00     0.211 HD
ENDBRANCH   6   8
ENDBRANCH   5   6
BRANCH   5  10
ATOM     10  N   UNL A   1      34.045  34.656  32.761  1.00  0.00    -0.322 N 
ATOM     11  C   UNL A   1      34.943  33.667  32.977  1.00  0.00     0.320 C 
ATOM     12  H   UNL A   1      33.253  34.583  33.341  1.00  0.00     0.166 HD
ATOM     13  O   UNL A   1      34.816  33.033  34.027  1.00  0.00    -0.248 OA
ATOM     14  N   UNL A   1      35.680  33.150  31.974  1.00  0.00    -0.305 N 
ATOM     15  H   UNL A   1      35.473  32.206  31.782  1.00  0.00     0.171 HD
BRANCH  14  16
ATOM     16  C   UNL A   1      36.682  33.682  31.148  1.00  0.00     0.079 A 
ATOM     17  C   UNL A   1      36.746  33.487  29.767  1.00  0.00     0.032 A 
ATOM     18  C   UNL A   1      37.718  34.385  31.791  1.00  0.00     0.149 A 
ATOM     19  C   UNL A   1      37.902  33.890  29.076  1.00  0.00     0.041 A 
ATOM     20  C   UNL A   1      38.872  34.762  31.116  1.00  0.00     0.080 A 
ATOM     21  F   UNL A   1      37.656  34.581  33.119  1.00  0.00    -0.205 F 
ATOM     22  C   UNL A   1      38.963  34.484  29.762  1.00  0.00     0.126 A 
ATOM     23  F   UNL A   1      40.100  34.762  29.109  1.00  0.00    -0.207 F 
ENDBRANCH  14  16
ENDBRANCH   5  10
ENDBRANCH   3   5
ENDBRANCH   2   3
ENDBRANCH   1   2
BRANCH   1  24
ATOM     24  C   UNL A   1      33.550  33.128  27.785  1.00  0.00     0.275 C 
BRANCH  24  25
ATOM     25  O   UNL A   1      34.165  32.064  28.555  1.00  0.00    -0.458 OA
BRANCH  25  26
ATOM     26  C   UNL A   1      34.296  30.875  27.907  1.00  0.00     0.338 C 
ATOM     27  O   UNL A   1      33.518  30.447  27.064  1.00  0.00    -0.246 OA
BRANCH  26  28
ATOM     28  C   UNL A   1      35.618  30.231  28.171  1.00  0.00     0.060 A 
ATOM     29  C   UNL A   1      35.870  29.729  29.460  1.00  0.00     0.016 A 
ATOM     30  C   UNL A   1      36.626  30.164  27.210  1.00  0.00     0.016 A 
ATOM     31  C   UNL A   1      37.112  29.174  29.798  1.00  0.00     0.010 A 
ATOM     32  C   UNL A   1      37.885  29.642  27.558  1.00  0.00     0.010 A 
ATOM     33  C   UNL A   1      38.147  29.164  28.859  1.00  0.00    -0.014 A 
BRANCH  33  34
ATOM     34  C   UNL A   1      39.549  28.875  29.275  1.00  0.00     0.031 A 
ATOM     35  C   UNL A   1      40.164  27.571  28.837  1.00  0.00     0.074 A 
ATOM     36  C   UNL A   1      40.282  29.714  30.032  1.00  0.00     0.049 A 
ATOM     37  N   UNL A   1      41.290  27.013  29.206  1.00  0.00    -0.248 NA
ATOM     38  C   UNL A   1      39.400  26.793  27.850  1.00  0.00     0.031 C 
ATOM     39  C   UNL A   1      39.882  31.051  30.457  1.00  0.00     0.029 A 
ATOM     40  N   UNL A   1      41.528  29.543  30.596  1.00  0.00    -0.354 N 
ATOM     41  C   UNL A   1      41.355  25.809  28.520  1.00  0.00     0.074 A 
ATOM     42  C   UNL A   1      40.153  25.713  27.719  1.00  0.00     0.031 C 
ATOM     43  C   UNL A   1      40.848  31.569  31.239  1.00  0.00     0.029 A 
ATOM     44  C   UNL A   1      41.913  30.582  31.410  1.00  0.00     0.049 A 
ATOM     45  H   UNL A   1      42.088  28.750  30.431  1.00  0.00     0.167 HD
ATOM     46  C   UNL A   1      42.319  24.859  28.554  1.00  0.00     0.031 A 
ATOM     47  C   UNL A   1      42.979  30.708  32.229  1.00  0.00     0.031 A 
ATOM     48  C   UNL A   1      43.511  24.930  29.354  1.00  0.00     0.049 A 
ATOM     49  C   UNL A   1      43.981  29.583  32.348  1.00  0.00     0.074 A 
ATOM     50  C   UNL A   1      44.537  24.005  29.450  1.00  0.00     0.029 A 
ATOM     51  N   UNL A   1      43.835  25.978  30.198  1.00  0.00    -0.354 N 
ATOM     52  N   UNL A   1      44.028  28.443  31.703  1.00  0.00    -0.248 NA
ATOM     53  C   UNL A   1      45.076  29.764  33.316  1.00  0.00     0.031 C 
ATOM     54  C   UNL A   1      45.453  24.466  30.400  1.00  0.00     0.029 A 
ATOM     55  C   UNL A   1      45.031  25.709  30.842  1.00  0.00     0.049 A 
ATOM     56  H   UNL A   1      43.296  26.792  30.321  1.00  0.00     0.167 HD
ATOM     57  C   UNL A   1      45.173  27.795  32.156  1.00  0.00     0.074 A 
ATOM     58  C   UNL A   1      45.796  28.667  33.128  1.00  0.00     0.031 C 
ATOM     59  C   UNL A   1      45.665  26.587  31.791  1.00  0.00     0.031 A 
BRANCH  46  60
ATOM     60  C   UNL A   1      42.090  23.620  27.735  1.00  0.00    -0.014 A 
ATOM     61  C   UNL A   1      42.543  23.523  26.411  1.00  0.00     0.009 A 
ATOM     62  C   UNL A   1      41.431  22.524  28.313  1.00  0.00     0.009 A 
ATOM     63  C   UNL A   1      42.305  22.365  25.668  1.00  0.00     0.001 A 
ATOM     64  C   UNL A   1      41.222  21.357  27.580  1.00  0.00     0.001 A 
ATOM     65  C   UNL A   1      41.649  21.282  26.255  1.00  0.00     0.000 A 
ENDBRANCH  46  60
BRANCH  47  66
ATOM     66  C   UNL A   1      43.150  31.932  33.061  1.00  0.00    -0.014 A 
ATOM     67  C   UNL A   1      42.560  32.021  34.331  1.00  0.00     0.009 A 
ATOM     68  C   UNL A   1      43.849  33.042  32.561  1.00  0.00     0.009 A 
ATOM     69  C   UNL A   1      42.638  33.206  35.068  1.00  0.00     0.001 A 
ATOM     70  C   UNL A   1      43.952  34.215  33.314  1.00  0.00     0.001 A 
ATOM     71  C   UNL A   1      43.336  34.300  34.560  1.00  0.00     0.000 A 
ENDBRANCH  47  66
BRANCH  59  72
ATOM     72  C   UNL A   1      46.975  26.140  32.384  1.00  0.00    -0.014 A 
ATOM     73  C   UNL A   1      47.029  25.373  33.558  1.00  0.00     0.009 A 
ATOM     74  C   UNL A   1      48.169  26.417  31.699  1.00  0.00     0.009 A 
ATOM     75  C   UNL A   1      48.255  24.907  34.040  1.00  0.00     0.001 A 
ATOM     76  C   UNL A   1      49.389  25.926  32.167  1.00  0.00     0.001 A 
ATOM     77  C   UNL A   1      49.432  25.175  33.340  1.00  0.00     0.000 A 
ENDBRANCH  59  72
ENDBRANCH  33  34
ENDBRANCH  26  28
ENDBRANCH  25  26
ENDBRANCH  24  25
ENDBRANCH   1  24
TORSDOF 15
ENDMDL
