MODEL 1
REMARK VINA RESULT:     -10.8      0.000      0.000
REMARK SMILES O=C(OCCOC(=O)c1cncc(Oc2cc(F)ccc2F)n1)c1ccc(-c2c3nc(c(-c4ccccc4)c4ccc([nH]4)c(-c4ccccc4)c4nc(c(-c5ccccc5)c5ccc2[nH]5)C=C4)C=C3)cc1
REMARK SMILES IDX 4 1 3 2 2 3 1 4 24 5 25 6 71 7 26 8 70 9 27 10 28 11 29 12
REMARK SMILES IDX 64 13 30 14 69 15 63 16 65 17 31 18 68 19 62 20 61 21 32 23
REMARK SMILES IDX 54 24 39 25 53 26 40 27 43 28 52 29 66 30 41 31 42 32 51 34
REMARK SMILES IDX 67 35 44 36 33 37 34 38 38 39 35 40 37 41 36 42 55 43 56 44
REMARK SMILES IDX 60 45 57 46 59 47 58 48 45 49 46 50 50 51 47 52 49 53 48 54
REMARK SMILES IDX 5 55 6 56 7 57 8 58 9 59 10 60 23 61 11 62 13 63 12 64 14 65
REMARK SMILES IDX 15 66 16 67 21 68 17 69 20 70 22 71 18 72 19 73
REMARK H PARENT 65 22 43 33
REMARK Flexibility Score: inf
ROOT
ATOM      1  C   UNL A   1      41.142  20.849  26.801  1.00  0.00     0.275 C 
ENDROOT
BRANCH   1   2
ATOM      2  O   UNL A   1      39.933  21.533  27.159  1.00  0.00    -0.458 OA
BRANCH   2   3
ATOM      3  C   UNL A   1      39.355  22.608  26.581  1.00  0.00     0.338 C 
ATOM      4  O   UNL A   1      38.594  22.427  25.632  1.00  0.00    -0.246 OA
BRANCH   3   5
ATOM      5  C   UNL A   1      39.681  24.028  26.945  1.00  0.00     0.060 A 
ATOM      6  C   UNL A   1      40.368  24.969  26.173  1.00  0.00     0.016 A 
ATOM      7  C   UNL A   1      39.255  24.430  28.220  1.00  0.00     0.016 A 
ATOM      8  C   UNL A   1      40.587  26.273  26.637  1.00  0.00     0.010 A 
ATOM      9  C   UNL A   1      39.452  25.731  28.688  1.00  0.00     0.010 A 
ATOM     10  C   UNL A   1      40.140  26.657  27.900  1.00  0.00    -0.014 A 
BRANCH  10  11
ATOM     11  C   UNL A   1      40.542  27.956  28.481  1.00  0.00     0.031 A 
ATOM     12  C   UNL A   1      41.946  28.099  28.984  1.00  0.00     0.074 A 
ATOM     13  C   UNL A   1      39.671  28.975  28.584  1.00  0.00     0.049 A 
ATOM     14  N   UNL A   1      42.511  29.112  29.583  1.00  0.00    -0.248 NA
ATOM     15  C   UNL A   1      42.835  26.943  28.778  1.00  0.00     0.031 C 
ATOM     16  C   UNL A   1      38.302  28.964  28.080  1.00  0.00     0.029 A 
ATOM     17  N   UNL A   1      39.797  30.203  29.179  1.00  0.00    -0.354 N 
ATOM     18  C   UNL A   1      43.823  28.721  29.810  1.00  0.00     0.074 A 
ATOM     19  C   UNL A   1      43.951  27.357  29.352  1.00  0.00     0.031 C 
ATOM     20  C   UNL A   1      37.684  30.096  28.454  1.00  0.00     0.029 A 
ATOM     21  C   UNL A   1      38.621  30.913  29.218  1.00  0.00     0.049 A 
ATOM     22  H   UNL A   1      40.646  30.543  29.544  1.00  0.00     0.167 HD
ATOM     23  C   UNL A   1      44.838  29.446  30.333  1.00  0.00     0.031 A 
ATOM     24  C   UNL A   1      38.329  32.081  29.822  1.00  0.00     0.031 A 
ATOM     25  C   UNL A   1      44.685  30.788  30.820  1.00  0.00     0.049 A 
ATOM     26  C   UNL A   1      39.437  32.830  30.507  1.00  0.00     0.074 A 
ATOM     27  C   UNL A   1      45.641  31.631  31.352  1.00  0.00     0.029 A 
ATOM     28  N   UNL A   1      43.477  31.472  30.852  1.00  0.00    -0.354 N 
ATOM     29  N   UNL A   1      40.694  32.482  30.654  1.00  0.00    -0.248 NA
ATOM     30  C   UNL A   1      39.104  34.142  31.075  1.00  0.00     0.031 C 
ATOM     31  C   UNL A   1      45.000  32.804  31.762  1.00  0.00     0.029 A 
ATOM     32  C   UNL A   1      43.656  32.716  31.428  1.00  0.00     0.049 A 
ATOM     33  H   UNL A   1      42.621  31.124  30.515  1.00  0.00     0.167 HD
ATOM     34  C   UNL A   1      41.315  33.551  31.284  1.00  0.00     0.074 A 
ATOM     35  C   UNL A   1      40.290  34.554  31.505  1.00  0.00     0.031 C 
ATOM     36  C   UNL A   1      42.617  33.697  31.630  1.00  0.00     0.031 A 
BRANCH  23  37
ATOM     37  C   UNL A   1      46.172  28.762  30.426  1.00  0.00    -0.014 A 
ATOM     38  C   UNL A   1      47.070  28.768  29.343  1.00  0.00     0.009 A 
ATOM     39  C   UNL A   1      46.508  28.045  31.582  1.00  0.00     0.009 A 
ATOM     40  C   UNL A   1      48.245  28.016  29.394  1.00  0.00     0.001 A 
ATOM     41  C   UNL A   1      47.700  27.320  31.643  1.00  0.00     0.001 A 
ATOM     42  C   UNL A   1      48.558  27.291  30.544  1.00  0.00     0.000 A 
ENDBRANCH  23  37
BRANCH  24  43
ATOM     43  C   UNL A   1      36.935  32.596  29.793  1.00  0.00    -0.014 A 
ATOM     44  C   UNL A   1      36.025  32.284  30.814  1.00  0.00     0.009 A 
ATOM     45  C   UNL A   1      36.519  33.444  28.753  1.00  0.00     0.009 A 
ATOM     46  C   UNL A   1      34.725  32.798  30.785  1.00  0.00     0.001 A 
ATOM     47  C   UNL A   1      35.226  33.974  28.738  1.00  0.00     0.001 A 
ATOM     48  C   UNL A   1      34.328  33.646  29.752  1.00  0.00     0.000 A 
ENDBRANCH  24  43
BRANCH  36  49
ATOM     49  C   UNL A   1      43.028  35.006  32.238  1.00  0.00    -0.014 A 
ATOM     50  C   UNL A   1      43.559  36.041  31.457  1.00  0.00     0.009 A 
ATOM     51  C   UNL A   1      42.789  35.231  33.604  1.00  0.00     0.009 A 
ATOM     52  C   UNL A   1      43.852  37.277  32.034  1.00  0.00     0.001 A 
ATOM     53  C   UNL A   1      43.058  36.476  34.172  1.00  0.00     0.001 A 
ATOM     54  C   UNL A   1      43.592  37.496  33.387  1.00  0.00     0.000 A 
ENDBRANCH  36  49
ENDBRANCH  10  11
ENDBRANCH   3   5
ENDBRANCH   2   3
ENDBRANCH   1   2
BRANCH   1  55
ATOM     55  C   UNL A   1      40.919  19.435  26.259  1.00  0.00     0.275 C 
BRANCH  55  56
ATOM     56  O   UNL A   1      41.928  19.005  25.328  1.00  0.00    -0.457 OA
BRANCH  56  57
ATOM     57  C   UNL A   1      43.048  18.451  25.887  1.00  0.00     0.358 C 
ATOM     58  O   UNL A   1      43.078  17.515  26.652  1.00  0.00    -0.244 OA
BRANCH  57  59
ATOM     59  C   UNL A   1      44.243  19.165  25.369  1.00  0.00     0.170 A 
ATOM     60  C   UNL A   1      45.506  18.638  25.601  1.00  0.00     0.147 A 
ATOM     61  N   UNL A   1      44.046  20.330  24.685  1.00  0.00    -0.203 NA
ATOM     62  N   UNL A   1      46.636  19.250  25.173  1.00  0.00    -0.257 NA
ATOM     63  C   UNL A   1      45.180  20.951  24.276  1.00  0.00     0.238 A 
ATOM     64  C   UNL A   1      46.443  20.426  24.523  1.00  0.00     0.179 A 
BRANCH  63  65
ATOM     65  O   UNL A   1      45.146  22.203  23.663  1.00  0.00    -0.434 OA
BRANCH  65  66
ATOM     66  C   UNL A   1      45.173  23.295  24.491  1.00  0.00     0.168 A 
ATOM     67  C   UNL A   1      46.388  23.934  24.731  1.00  0.00     0.089 A 
ATOM     68  C   UNL A   1      43.994  23.837  24.998  1.00  0.00     0.166 A 
ATOM     69  C   UNL A   1      46.420  25.046  25.565  1.00  0.00     0.127 A 
ATOM     70  C   UNL A   1      44.026  24.974  25.805  1.00  0.00     0.046 A 
ATOM     71  F   UNL A   1      42.811  23.291  24.683  1.00  0.00    -0.203 F 
ATOM     72  F   UNL A   1      47.594  25.630  25.836  1.00  0.00    -0.207 F 
ATOM     73  C   UNL A   1      45.250  25.569  26.109  1.00  0.00     0.042 A 
ENDBRANCH  65  66
ENDBRANCH  63  65
ENDBRANCH  57  59
ENDBRANCH  56  57
ENDBRANCH  55  56
ENDBRANCH   1  55
TORSDOF 13
ENDMDL
MODEL 2
REMARK VINA RESULT:     -10.7      4.852     11.944
REMARK SMILES O=C(OCCOC(=O)c1cncc(Oc2cc(F)ccc2F)n1)c1ccc(-c2c3nc(c(-c4ccccc4)c4ccc([nH]4)c(-c4ccccc4)c4nc(c(-c5ccccc5)c5ccc2[nH]5)C=C4)C=C3)cc1
REMARK SMILES IDX 4 1 3 2 2 3 1 4 24 5 25 6 71 7 26 8 70 9 27 10 28 11 29 12
REMARK SMILES IDX 64 13 30 14 69 15 63 16 65 17 31 18 68 19 62 20 61 21 32 23
REMARK SMILES IDX 54 24 39 25 53 26 40 27 43 28 52 29 66 30 41 31 42 32 51 34
REMARK SMILES IDX 67 35 44 36 33 37 34 38 38 39 35 40 37 41 36 42 55 43 56 44
REMARK SMILES IDX 60 45 57 46 59 47 58 48 45 49 46 50 50 51 47 52 49 53 48 54
REMARK SMILES IDX 5 55 6 56 7 57 8 58 9 59 10 60 23 61 11 62 13 63 12 64 14 65
REMARK SMILES IDX 15 66 16 67 21 68 17 69 20 70 22 71 18 72 19 73
REMARK H PARENT 65 22 43 33
REMARK Flexibility Score: inf
ROOT
ATOM      1  C   UNL A   1      35.170  33.221  27.998  1.00  0.00     0.275 C 
ENDROOT
BRANCH   1   2
ATOM      2  O   UNL A   1      34.297  32.083  28.028  1.00  0.00    -0.458 OA
BRANCH   2   3
ATOM      3  C   UNL A   1      34.590  30.775  27.856  1.00  0.00     0.338 C 
ATOM      4  O   UNL A   1      33.717  30.031  27.413  1.00  0.00    -0.246 OA
BRANCH   3   5
ATOM      5  C   UNL A   1      35.881  30.145  28.291  1.00  0.00     0.060 A 
ATOM      6  C   UNL A   1      36.223  29.698  29.570  1.00  0.00     0.016 A 
ATOM      7  C   UNL A   1      36.852  30.017  27.285  1.00  0.00     0.016 A 
ATOM      8  C   UNL A   1      37.467  29.109  29.829  1.00  0.00     0.010 A 
ATOM      9  C   UNL A   1      38.089  29.416  27.525  1.00  0.00     0.010 A 
ATOM     10  C   UNL A   1      38.411  28.975  28.812  1.00  0.00    -0.014 A 
BRANCH  10  11
ATOM     11  C   UNL A   1      39.793  28.548  29.113  1.00  0.00     0.031 A 
ATOM     12  C   UNL A   1      40.724  29.552  29.722  1.00  0.00     0.074 A 
ATOM     13  C   UNL A   1      40.219  27.305  28.828  1.00  0.00     0.049 A 
ATOM     14  N   UNL A   1      41.990  29.433  30.021  1.00  0.00    -0.248 NA
ATOM     15  C   UNL A   1      40.146  30.868  30.044  1.00  0.00     0.031 C 
ATOM     16  C   UNL A   1      39.388  26.235  28.287  1.00  0.00     0.029 A 
ATOM     17  N   UNL A   1      41.466  26.744  28.919  1.00  0.00    -0.354 N 
ATOM     18  C   UNL A   1      42.353  30.650  30.577  1.00  0.00     0.074 A 
ATOM     19  C   UNL A   1      41.199  31.516  30.511  1.00  0.00     0.031 C 
ATOM     20  C   UNL A   1      40.158  25.169  28.018  1.00  0.00     0.029 A 
ATOM     21  C   UNL A   1      41.537  25.483  28.376  1.00  0.00     0.049 A 
ATOM     22  H   UNL A   1      42.236  27.198  29.332  1.00  0.00     0.167 HD
ATOM     23  C   UNL A   1      43.540  31.006  31.120  1.00  0.00     0.031 A 
ATOM     24  C   UNL A   1      42.600  24.683  28.171  1.00  0.00     0.031 A 
ATOM     25  C   UNL A   1      44.690  30.147  31.144  1.00  0.00     0.049 A 
ATOM     26  C   UNL A   1      43.944  25.134  28.670  1.00  0.00     0.074 A 
ATOM     27  C   UNL A   1      45.940  30.386  31.682  1.00  0.00     0.029 A 
ATOM     28  N   UNL A   1      44.728  28.880  30.576  1.00  0.00    -0.354 N 
ATOM     29  N   UNL A   1      44.263  26.261  29.262  1.00  0.00    -0.248 NA
ATOM     30  C   UNL A   1      45.064  24.197  28.512  1.00  0.00     0.031 C 
ATOM     31  C   UNL A   1      46.753  29.287  31.387  1.00  0.00     0.029 A 
ATOM     32  C   UNL A   1      45.992  28.338  30.719  1.00  0.00     0.049 A 
ATOM     33  H   UNL A   1      43.969  28.434  30.137  1.00  0.00     0.167 HD
ATOM     34  C   UNL A   1      45.606  26.152  29.593  1.00  0.00     0.074 A 
ATOM     35  C   UNL A   1      46.044  24.851  29.122  1.00  0.00     0.031 C 
ATOM     36  C   UNL A   1      46.398  27.037  30.245  1.00  0.00     0.031 A 
BRANCH  23  37
ATOM     37  C   UNL A   1      43.630  32.395  31.683  1.00  0.00    -0.014 A 
ATOM     38  C   UNL A   1      43.345  32.652  33.037  1.00  0.00     0.009 A 
ATOM     39  C   UNL A   1      43.935  33.471  30.839  1.00  0.00     0.009 A 
ATOM     40  C   UNL A   1      43.301  33.963  33.515  1.00  0.00     0.001 A 
ATOM     41  C   UNL A   1      43.921  34.780  31.328  1.00  0.00     0.001 A 
ATOM     42  C   UNL A   1      43.588  35.026  32.659  1.00  0.00     0.000 A 
ENDBRANCH  23  37
BRANCH  24  43
ATOM     43  C   UNL A   1      42.421  23.385  27.467  1.00  0.00    -0.014 A 
ATOM     44  C   UNL A   1      42.654  23.270  26.089  1.00  0.00     0.009 A 
ATOM     45  C   UNL A   1      42.050  22.238  28.189  1.00  0.00     0.009 A 
ATOM     46  C   UNL A   1      42.506  22.036  25.447  1.00  0.00     0.001 A 
ATOM     47  C   UNL A   1      41.923  21.003  27.549  1.00  0.00     0.001 A 
ATOM     48  C   UNL A   1      42.146  20.904  26.177  1.00  0.00     0.000 A 
ENDBRANCH  24  43
BRANCH  36  49
ATOM     49  C   UNL A   1      47.809  26.618  30.538  1.00  0.00    -0.014 A 
ATOM     50  C   UNL A   1      48.146  25.972  31.735  1.00  0.00     0.009 A 
ATOM     51  C   UNL A   1      48.794  26.793  29.552  1.00  0.00     0.009 A 
ATOM     52  C   UNL A   1      49.448  25.516  31.944  1.00  0.00     0.001 A 
ATOM     53  C   UNL A   1      50.087  26.313  29.752  1.00  0.00     0.001 A 
ATOM     54  C   UNL A   1      50.414  25.678  30.950  1.00  0.00     0.000 A 
ENDBRANCH  36  49
ENDBRANCH  10  11
ENDBRANCH   3   5
ENDBRANCH   2   3
ENDBRANCH   1   2
BRANCH   1  55
ATOM     55  C   UNL A   1      34.445  34.564  28.098  1.00  0.00     0.275 C 
BRANCH  55  56
ATOM     56  O   UNL A   1      33.334  34.557  29.012  1.00  0.00    -0.457 OA
BRANCH  56  57
ATOM     57  C   UNL A   1      32.897  35.789  29.418  1.00  0.00     0.358 C 
ATOM     58  O   UNL A   1      32.273  36.582  28.752  1.00  0.00    -0.244 OA
BRANCH  57  59
ATOM     59  C   UNL A   1      33.281  35.988  30.839  1.00  0.00     0.170 A 
ATOM     60  C   UNL A   1      33.275  37.268  31.375  1.00  0.00     0.147 A 
ATOM     61  N   UNL A   1      33.638  34.888  31.565  1.00  0.00    -0.203 NA
ATOM     62  N   UNL A   1      33.633  37.519  32.657  1.00  0.00    -0.257 NA
ATOM     63  C   UNL A   1      34.017  35.144  32.842  1.00  0.00     0.238 A 
ATOM     64  C   UNL A   1      34.021  36.430  33.370  1.00  0.00     0.179 A 
BRANCH  63  65
ATOM     65  O   UNL A   1      34.512  34.140  33.671  1.00  0.00    -0.434 OA
BRANCH  65  66
ATOM     66  C   UNL A   1      35.759  33.653  33.373  1.00  0.00     0.168 A 
ATOM     67  C   UNL A   1      36.871  34.206  34.004  1.00  0.00     0.089 A 
ATOM     68  C   UNL A   1      35.913  32.546  32.540  1.00  0.00     0.166 A 
ATOM     69  C   UNL A   1      38.137  33.711  33.709  1.00  0.00     0.127 A 
ATOM     70  C   UNL A   1      37.181  32.031  32.275  1.00  0.00     0.046 A 
ATOM     71  F   UNL A   1      34.837  31.942  32.015  1.00  0.00    -0.203 F 
ATOM     72  F   UNL A   1      39.211  34.275  34.277  1.00  0.00    -0.207 F 
ATOM     73  C   UNL A   1      38.303  32.632  32.846  1.00  0.00     0.042 A 
ENDBRANCH  65  66
ENDBRANCH  63  65
ENDBRANCH  57  59
ENDBRANCH  56  57
ENDBRANCH  55  56
ENDBRANCH   1  55
TORSDOF 13
ENDMDL
MODEL 3
REMARK VINA RESULT:     -10.4      3.172      7.405
REMARK SMILES O=C(OCCOC(=O)c1cncc(Oc2cc(F)ccc2F)n1)c1ccc(-c2c3nc(c(-c4ccccc4)c4ccc([nH]4)c(-c4ccccc4)c4nc(c(-c5ccccc5)c5ccc2[nH]5)C=C4)C=C3)cc1
REMARK SMILES IDX 4 1 3 2 2 3 1 4 24 5 25 6 71 7 26 8 70 9 27 10 28 11 29 12
REMARK SMILES IDX 64 13 30 14 69 15 63 16 65 17 31 18 68 19 62 20 61 21 32 23
REMARK SMILES IDX 54 24 39 25 53 26 40 27 43 28 52 29 66 30 41 31 42 32 51 34
REMARK SMILES IDX 67 35 44 36 33 37 34 38 38 39 35 40 37 41 36 42 55 43 56 44
REMARK SMILES IDX 60 45 57 46 59 47 58 48 45 49 46 50 50 51 47 52 49 53 48 54
REMARK SMILES IDX 5 55 6 56 7 57 8 58 9 59 10 60 23 61 11 62 13 63 12 64 14 65
REMARK SMILES IDX 15 66 16 67 21 68 17 69 20 70 22 71 18 72 19 73
REMARK H PARENT 65 22 43 33
REMARK Flexibility Score: inf
ROOT
ATOM      1  C   UNL A   1      46.426  24.360  25.048  1.00  0.00     0.275 C 
ENDROOT
BRANCH   1   2
ATOM      2  O   UNL A   1      45.238  25.092  24.719  1.00  0.00    -0.458 OA
BRANCH   2   3
ATOM      3  C   UNL A   1      43.999  24.999  25.253  1.00  0.00     0.338 C 
ATOM      4  O   UNL A   1      43.205  24.200  24.759  1.00  0.00    -0.246 OA
BRANCH   3   5
ATOM      5  C   UNL A   1      43.487  25.902  26.337  1.00  0.00     0.060 A 
ATOM      6  C   UNL A   1      43.928  27.191  26.651  1.00  0.00     0.016 A 
ATOM      7  C   UNL A   1      42.460  25.364  27.128  1.00  0.00     0.016 A 
ATOM      8  C   UNL A   1      43.341  27.930  27.686  1.00  0.00     0.010 A 
ATOM      9  C   UNL A   1      41.856  26.096  28.151  1.00  0.00     0.010 A 
ATOM     10  C   UNL A   1      42.310  27.383  28.448  1.00  0.00    -0.014 A 
BRANCH  10  11
ATOM     11  C   UNL A   1      41.826  28.066  29.666  1.00  0.00     0.031 A 
ATOM     12  C   UNL A   1      40.631  28.963  29.544  1.00  0.00     0.074 A 
ATOM     13  C   UNL A   1      42.450  27.916  30.848  1.00  0.00     0.049 A 
ATOM     14  N   UNL A   1      40.059  29.708  30.451  1.00  0.00    -0.248 NA
ATOM     15  C   UNL A   1      39.989  29.018  28.220  1.00  0.00     0.031 C 
ATOM     16  C   UNL A   1      43.584  27.031  31.092  1.00  0.00     0.029 A 
ATOM     17  N   UNL A   1      42.241  28.531  32.055  1.00  0.00    -0.354 N 
ATOM     18  C   UNL A   1      38.986  30.309  29.811  1.00  0.00     0.074 A 
ATOM     19  C   UNL A   1      39.025  29.899  28.426  1.00  0.00     0.031 C 
ATOM     20  C   UNL A   1      44.025  27.214  32.346  1.00  0.00     0.029 A 
ATOM     21  C   UNL A   1      43.197  28.226  32.994  1.00  0.00     0.049 A 
ATOM     22  H   UNL A   1      41.482  29.131  32.233  1.00  0.00     0.167 HD
ATOM     23  C   UNL A   1      38.034  31.113  30.339  1.00  0.00     0.031 A 
ATOM     24  C   UNL A   1      43.395  28.725  34.229  1.00  0.00     0.031 A 
ATOM     25  C   UNL A   1      38.031  31.543  31.708  1.00  0.00     0.049 A 
ATOM     26  C   UNL A   1      42.399  29.712  34.770  1.00  0.00     0.074 A 
ATOM     27  C   UNL A   1      37.112  32.340  32.364  1.00  0.00     0.029 A 
ATOM     28  N   UNL A   1      39.021  31.222  32.629  1.00  0.00    -0.354 N 
ATOM     29  N   UNL A   1      41.343  30.220  34.179  1.00  0.00    -0.248 NA
ATOM     30  C   UNL A   1      42.593  30.166  36.153  1.00  0.00     0.031 C 
ATOM     31  C   UNL A   1      37.578  32.550  33.666  1.00  0.00     0.029 A 
ATOM     32  C   UNL A   1      38.754  31.835  33.839  1.00  0.00     0.049 A 
ATOM     33  H   UNL A   1      39.796  30.645  32.447  1.00  0.00     0.167 HD
ATOM     34  C   UNL A   1      40.718  31.013  35.130  1.00  0.00     0.074 A 
ATOM     35  C   UNL A   1      41.523  30.929  36.334  1.00  0.00     0.031 C 
ATOM     36  C   UNL A   1      39.572  31.728  35.023  1.00  0.00     0.031 A 
BRANCH  23  37
ATOM     37  C   UNL A   1      36.964  31.590  29.400  1.00  0.00    -0.014 A 
ATOM     38  C   UNL A   1      37.008  32.880  28.840  1.00  0.00     0.009 A 
ATOM     39  C   UNL A   1      35.862  30.769  29.124  1.00  0.00     0.009 A 
ATOM     40  C   UNL A   1      35.940  33.358  28.078  1.00  0.00     0.001 A 
ATOM     41  C   UNL A   1      34.810  31.238  28.335  1.00  0.00     0.001 A 
ATOM     42  C   UNL A   1      34.841  32.536  27.828  1.00  0.00     0.000 A 
ENDBRANCH  23  37
BRANCH  24  43
ATOM     43  C   UNL A   1      44.577  28.291  35.019  1.00  0.00    -0.014 A 
ATOM     44  C   UNL A   1      45.780  29.010  34.979  1.00  0.00     0.009 A 
ATOM     45  C   UNL A   1      44.490  27.165  35.854  1.00  0.00     0.009 A 
ATOM     46  C   UNL A   1      46.874  28.603  35.749  1.00  0.00     0.001 A 
ATOM     47  C   UNL A   1      45.578  26.772  36.638  1.00  0.00     0.001 A 
ATOM     48  C   UNL A   1      46.771  27.489  36.581  1.00  0.00     0.000 A 
ENDBRANCH  24  43
BRANCH  36  49
ATOM     49  C   UNL A   1      39.084  32.440  36.251  1.00  0.00    -0.014 A 
ATOM     50  C   UNL A   1      39.479  33.753  36.541  1.00  0.00     0.009 A 
ATOM     51  C   UNL A   1      38.138  31.810  37.078  1.00  0.00     0.009 A 
ATOM     52  C   UNL A   1      38.942  34.420  37.642  1.00  0.00     0.001 A 
ATOM     53  C   UNL A   1      37.584  32.488  38.162  1.00  0.00     0.001 A 
ATOM     54  C   UNL A   1      37.990  33.792  38.445  1.00  0.00     0.000 A 
ENDBRANCH  36  49
ENDBRANCH  10  11
ENDBRANCH   3   5
ENDBRANCH   2   3
ENDBRANCH   1   2
BRANCH   1  55
ATOM     55  C   UNL A   1      46.612  23.078  24.233  1.00  0.00     0.275 C 
BRANCH  55  56
ATOM     56  O   UNL A   1      45.926  21.938  24.779  1.00  0.00    -0.457 OA
BRANCH  56  57
ATOM     57  C   UNL A   1      44.791  21.559  24.115  1.00  0.00     0.358 C 
ATOM     58  O   UNL A   1      44.396  22.002  23.061  1.00  0.00    -0.244 OA
BRANCH  57  59
ATOM     59  C   UNL A   1      44.129  20.473  24.883  1.00  0.00     0.170 A 
ATOM     60  C   UNL A   1      44.526  19.158  24.686  1.00  0.00     0.147 A 
ATOM     61  N   UNL A   1      43.136  20.820  25.754  1.00  0.00    -0.203 NA
ATOM     62  N   UNL A   1      43.949  18.121  25.339  1.00  0.00    -0.257 NA
ATOM     63  C   UNL A   1      42.546  19.778  26.391  1.00  0.00     0.238 A 
ATOM     64  C   UNL A   1      42.940  18.461  26.181  1.00  0.00     0.179 A 
BRANCH  63  65
ATOM     65  O   UNL A   1      41.446  19.963  27.227  1.00  0.00    -0.434 OA
BRANCH  65  66
ATOM     66  C   UNL A   1      40.574  20.965  26.886  1.00  0.00     0.168 A 
ATOM     67  C   UNL A   1      39.585  20.709  25.939  1.00  0.00     0.089 A 
ATOM     68  C   UNL A   1      40.596  22.188  27.553  1.00  0.00     0.166 A 
ATOM     69  C   UNL A   1      38.695  21.720  25.595  1.00  0.00     0.127 A 
ATOM     70  C   UNL A   1      39.679  23.187  27.230  1.00  0.00     0.046 A 
ATOM     71  F   UNL A   1      41.477  22.402  28.541  1.00  0.00    -0.203 F 
ATOM     72  F   UNL A   1      37.775  21.491  24.648  1.00  0.00    -0.207 F 
ATOM     73  C   UNL A   1      38.735  22.959  26.228  1.00  0.00     0.042 A 
ENDBRANCH  65  66
ENDBRANCH  63  65
ENDBRANCH  57  59
ENDBRANCH  56  57
ENDBRANCH  55  56
ENDBRANCH   1  55
TORSDOF 13
ENDMDL
