MODEL 1
REMARK VINA RESULT:     -12.2      0.000      0.000
REMARK SMILES CC1=C([C@H](NC(=O)[C@@H]2[C@H](C)c3cc(F)ccc3N2C)C(=O)OCCOC(=O)c2ccc(-c3c4nc(c(-c5ccccc5)c5ccc([nH]5)c(-c5ccccc5)c5nc(c(-c6ccccc6)c6ccc3[nH]6)C=C5)C=C4)cc2)[C@@H](C)N=N1
REMARK SMILES IDX 23 1 22 2 20 3 21 4 4 5 3 6 1 7 2 8 79 9 76 10 78 11 77 12
REMARK SMILES IDX 5 13 6 14 7 16 8 17 9 18 18 19 11 20 10 21 17 22 19 23 12 24
REMARK SMILES IDX 16 25 13 26 15 27 14 28 24 29 25 30 26 31 27 32 28 33 29 34
REMARK SMILES IDX 75 35 30 36 74 37 31 38 32 39 33 40 68 41 34 42 73 43 67 44
REMARK SMILES IDX 69 45 35 46 72 47 66 48 65 49 36 51 58 52 43 53 57 54 44 55
REMARK SMILES IDX 47 56 56 57 70 58 45 59 46 60 55 62 71 63 48 64 37 65 38 66
REMARK SMILES IDX 42 67 39 68 41 69 40 70 59 71 60 72 64 73 61 74 63 75 62 76
REMARK SMILES IDX 49 77 50 78 54 79 51 80 53 81 52 82
REMARK H PARENT 5 15 69 50 47 61
REMARK Flexibility Score: inf
ROOT
ATOM      1  C   UNL A   1      32.610  30.209  26.449  1.00  0.00     0.274 C 
ENDROOT
BRANCH   1   2
ATOM      2  O   UNL A   1      32.810  28.822  26.806  1.00  0.00    -0.460 OA
BRANCH   2   3
ATOM      3  C   UNL A   1      31.726  28.056  27.037  1.00  0.00     0.333 C 
ATOM      4  O   UNL A   1      30.972  28.248  27.981  1.00  0.00    -0.249 OA
BRANCH   3   5
ATOM      5  C   UNL A   1      31.535  26.893  26.010  1.00  0.00     0.223 C 
BRANCH   5   6
ATOM      6  C   UNL A   1      31.190  27.365  24.635  1.00  0.00     0.012 C 
ATOM      7  C   UNL A   1      28.852  26.346  24.311  1.00  0.00     0.069 C 
ATOM      8  C   UNL A   1      30.063  27.142  23.940  1.00  0.00     0.064 C 
ATOM      9  N   UNL A   1      30.104  27.706  22.693  1.00  0.00    -0.160 NA
ATOM     10  C   UNL A   1      32.074  28.150  23.714  1.00  0.00     0.156 C 
ATOM     11  N   UNL A   1      31.212  28.273  22.502  1.00  0.00    -0.181 NA
ATOM     12  C   UNL A   1      33.407  27.541  23.271  1.00  0.00     0.040 C 
ENDBRANCH   5   6
BRANCH   5  13
ATOM     13  N   UNL A   1      30.947  25.564  26.217  1.00  0.00    -0.337 N 
ATOM     14  C   UNL A   1      31.466  24.357  26.576  1.00  0.00     0.244 C 
ATOM     15  H   UNL A   1      29.974  25.539  26.064  1.00  0.00     0.164 HD
ATOM     16  O   UNL A   1      30.702  23.551  27.109  1.00  0.00    -0.273 OA
BRANCH  14  17
ATOM     17  C   UNL A   1      32.899  24.046  26.201  1.00  0.00     0.178 C 
ATOM     18  C   UNL A   1      33.194  24.243  24.688  1.00  0.00     0.050 C 
ATOM     19  N   UNL A   1      33.389  22.711  26.593  1.00  0.00    -0.362 N 
ATOM     20  C   UNL A   1      34.353  23.302  24.554  1.00  0.00    -0.016 A 
ATOM     21  C   UNL A   1      32.095  23.982  23.662  1.00  0.00     0.015 C 
ATOM     22  C   UNL A   1      34.413  22.454  25.675  1.00  0.00     0.041 A 
ATOM     23  C   UNL A   1      33.548  22.401  27.999  1.00  0.00     0.144 C 
ATOM     24  C   UNL A   1      35.290  23.252  23.536  1.00  0.00     0.045 A 
ATOM     25  C   UNL A   1      35.438  21.531  25.781  1.00  0.00     0.029 A 
ATOM     26  C   UNL A   1      36.319  22.330  23.664  1.00  0.00     0.123 A 
ATOM     27  C   UNL A   1      36.402  21.477  24.769  1.00  0.00     0.041 A 
ATOM     28  F   UNL A   1      37.261  22.267  22.714  1.00  0.00    -0.207 F 
ENDBRANCH  14  17
ENDBRANCH   5  13
ENDBRANCH   3   5
ENDBRANCH   2   3
ENDBRANCH   1   2
BRANCH   1  29
ATOM     29  C   UNL A   1      32.976  31.107  27.635  1.00  0.00     0.275 C 
BRANCH  29  30
ATOM     30  O   UNL A   1      34.243  31.738  27.386  1.00  0.00    -0.458 OA
BRANCH  30  31
ATOM     31  C   UNL A   1      35.001  32.019  28.471  1.00  0.00     0.338 C 
ATOM     32  O   UNL A   1      34.589  32.416  29.564  1.00  0.00    -0.246 OA
BRANCH  31  33
ATOM     33  C   UNL A   1      36.334  31.394  28.283  1.00  0.00     0.060 A 
ATOM     34  C   UNL A   1      36.443  30.127  27.701  1.00  0.00     0.016 A 
ATOM     35  C   UNL A   1      37.415  31.927  29.000  1.00  0.00     0.016 A 
ATOM     36  C   UNL A   1      37.529  29.322  28.025  1.00  0.00     0.010 A 
ATOM     37  C   UNL A   1      38.509  31.116  29.310  1.00  0.00     0.010 A 
ATOM     38  C   UNL A   1      38.526  29.782  28.901  1.00  0.00    -0.014 A 
BRANCH  38  39
ATOM     39  C   UNL A   1      39.729  28.957  29.034  1.00  0.00     0.031 A 
ATOM     40  C   UNL A   1      40.046  28.788  30.455  1.00  0.00     0.074 A 
ATOM     41  C   UNL A   1      40.566  28.404  28.134  1.00  0.00     0.049 A 
ATOM     42  N   UNL A   1      40.924  29.482  31.093  1.00  0.00    -0.248 NA
ATOM     43  C   UNL A   1      39.170  27.959  31.286  1.00  0.00     0.031 C 
ATOM     44  C   UNL A   1      40.418  28.285  26.698  1.00  0.00     0.029 A 
ATOM     45  N   UNL A   1      41.763  27.773  28.357  1.00  0.00    -0.354 N 
ATOM     46  C   UNL A   1      40.835  29.061  32.401  1.00  0.00     0.074 A 
ATOM     47  C   UNL A   1      39.631  28.270  32.497  1.00  0.00     0.031 C 
ATOM     48  C   UNL A   1      41.353  27.447  26.191  1.00  0.00     0.029 A 
ATOM     49  C   UNL A   1      42.282  27.108  27.250  1.00  0.00     0.049 A 
ATOM     50  H   UNL A   1      42.218  27.789  29.229  1.00  0.00     0.167 HD
ATOM     51  C   UNL A   1      41.893  29.196  33.236  1.00  0.00     0.031 A 
ATOM     52  C   UNL A   1      43.418  26.369  27.191  1.00  0.00     0.031 A 
ATOM     53  C   UNL A   1      42.867  30.134  32.730  1.00  0.00     0.049 A 
ATOM     54  C   UNL A   1      44.323  26.873  28.241  1.00  0.00     0.074 A 
ATOM     55  C   UNL A   1      42.842  31.476  32.403  1.00  0.00     0.029 A 
ATOM     56  N   UNL A   1      43.977  29.612  32.112  1.00  0.00    -0.354 N 
ATOM     57  N   UNL A   1      44.912  28.031  28.185  1.00  0.00    -0.248 NA
ATOM     58  C   UNL A   1      44.298  26.245  29.549  1.00  0.00     0.031 C 
ATOM     59  C   UNL A   1      43.702  31.610  31.273  1.00  0.00     0.029 A 
ATOM     60  C   UNL A   1      44.248  30.357  30.991  1.00  0.00     0.049 A 
ATOM     61  H   UNL A   1      44.492  28.832  32.422  1.00  0.00     0.167 HD
ATOM     62  C   UNL A   1      44.903  28.483  29.493  1.00  0.00     0.074 A 
ATOM     63  C   UNL A   1      44.646  27.292  30.298  1.00  0.00     0.031 C 
ATOM     64  C   UNL A   1      44.822  29.816  29.773  1.00  0.00     0.031 A 
BRANCH  51  65
ATOM     65  C   UNL A   1      42.201  28.166  34.282  1.00  0.00    -0.014 A 
ATOM     66  C   UNL A   1      41.736  28.250  35.611  1.00  0.00     0.009 A 
ATOM     67  C   UNL A   1      42.764  26.947  33.884  1.00  0.00     0.009 A 
ATOM     68  C   UNL A   1      41.837  27.187  36.506  1.00  0.00     0.001 A 
ATOM     69  C   UNL A   1      42.825  25.860  34.764  1.00  0.00     0.001 A 
ATOM     70  C   UNL A   1      42.365  25.982  36.073  1.00  0.00     0.000 A 
ENDBRANCH  51  65
BRANCH  52  71
ATOM     71  C   UNL A   1      43.651  25.062  26.530  1.00  0.00    -0.014 A 
ATOM     72  C   UNL A   1      44.621  24.941  25.521  1.00  0.00     0.009 A 
ATOM     73  C   UNL A   1      42.703  24.029  26.651  1.00  0.00     0.009 A 
ATOM     74  C   UNL A   1      44.597  23.871  24.618  1.00  0.00     0.001 A 
ATOM     75  C   UNL A   1      42.675  22.961  25.743  1.00  0.00     0.001 A 
ATOM     76  C   UNL A   1      43.609  22.896  24.712  1.00  0.00     0.000 A 
ENDBRANCH  52  71
BRANCH  64  77
ATOM     77  C   UNL A   1      45.102  30.800  28.654  1.00  0.00    -0.014 A 
ATOM     78  C   UNL A   1      46.367  31.411  28.614  1.00  0.00     0.009 A 
ATOM     79  C   UNL A   1      44.134  31.233  27.730  1.00  0.00     0.009 A 
ATOM     80  C   UNL A   1      46.654  32.422  27.693  1.00  0.00     0.001 A 
ATOM     81  C   UNL A   1      44.431  32.225  26.787  1.00  0.00     0.001 A 
ATOM     82  C   UNL A   1      45.688  32.825  26.775  1.00  0.00     0.000 A 
ENDBRANCH  64  77
ENDBRANCH  38  39
ENDBRANCH  31  33
ENDBRANCH  30  31
ENDBRANCH  29  30
ENDBRANCH   1  29
TORSDOF 14
ENDMDL
MODEL 2
REMARK VINA RESULT:     -12.1      3.060      7.893
REMARK SMILES CC1=C([C@H](NC(=O)[C@@H]2[C@H](C)c3cc(F)ccc3N2C)C(=O)OCCOC(=O)c2ccc(-c3c4nc(c(-c5ccccc5)c5ccc([nH]5)c(-c5ccccc5)c5nc(c(-c6ccccc6)c6ccc3[nH]6)C=C5)C=C4)cc2)[C@@H](C)N=N1
REMARK SMILES IDX 23 1 22 2 20 3 21 4 4 5 3 6 1 7 2 8 79 9 76 10 78 11 77 12
REMARK SMILES IDX 5 13 6 14 7 16 8 17 9 18 18 19 11 20 10 21 17 22 19 23 12 24
REMARK SMILES IDX 16 25 13 26 15 27 14 28 24 29 25 30 26 31 27 32 28 33 29 34
REMARK SMILES IDX 75 35 30 36 74 37 31 38 32 39 33 40 68 41 34 42 73 43 67 44
REMARK SMILES IDX 69 45 35 46 72 47 66 48 65 49 36 51 58 52 43 53 57 54 44 55
REMARK SMILES IDX 47 56 56 57 70 58 45 59 46 60 55 62 71 63 48 64 37 65 38 66
REMARK SMILES IDX 42 67 39 68 41 69 40 70 59 71 60 72 64 73 61 74 63 75 62 76
REMARK SMILES IDX 49 77 50 78 54 79 51 80 53 81 52 82
REMARK H PARENT 5 15 69 50 47 61
REMARK Flexibility Score: inf
ROOT
ATOM      1  C   UNL A   1      37.348  22.455  25.373  1.00  0.00     0.274 C 
ENDROOT
BRANCH   1   2
ATOM      2  O   UNL A   1      36.593  21.815  24.317  1.00  0.00    -0.460 OA
BRANCH   2   3
ATOM      3  C   UNL A   1      36.102  22.582  23.325  1.00  0.00     0.333 C 
ATOM      4  O   UNL A   1      36.783  22.951  22.378  1.00  0.00    -0.249 OA
BRANCH   3   5
ATOM      5  C   UNL A   1      34.599  22.975  23.506  1.00  0.00     0.223 C 
BRANCH   5   6
ATOM      6  C   UNL A   1      33.816  21.980  24.299  1.00  0.00     0.012 C 
ATOM      7  C   UNL A   1      32.188  21.073  22.528  1.00  0.00     0.069 C 
ATOM      8  C   UNL A   1      32.821  21.183  23.879  1.00  0.00     0.064 C 
ATOM      9  N   UNL A   1      32.311  20.414  24.892  1.00  0.00    -0.160 NA
ATOM     10  C   UNL A   1      33.948  21.708  25.767  1.00  0.00     0.156 C 
ATOM     11  N   UNL A   1      32.893  20.675  25.978  1.00  0.00    -0.181 NA
ATOM     12  C   UNL A   1      33.682  22.845  26.757  1.00  0.00     0.040 C 
ENDBRANCH   5   6
BRANCH   5  13
ATOM     13  N   UNL A   1      33.697  23.642  22.558  1.00  0.00    -0.337 N 
ATOM     14  C   UNL A   1      33.325  24.939  22.376  1.00  0.00     0.244 C 
ATOM     15  H   UNL A   1      33.272  23.022  21.922  1.00  0.00     0.164 HD
ATOM     16  O   UNL A   1      32.934  25.261  21.253  1.00  0.00    -0.273 OA
BRANCH  14  17
ATOM     17  C   UNL A   1      33.309  25.862  23.576  1.00  0.00     0.178 C 
ATOM     18  C   UNL A   1      32.316  25.412  24.683  1.00  0.00     0.050 C 
ATOM     19  N   UNL A   1      33.057  27.286  23.286  1.00  0.00    -0.362 N 
ATOM     20  C   UNL A   1      32.068  26.743  25.326  1.00  0.00    -0.016 A 
ATOM     21  C   UNL A   1      31.028  24.690  24.297  1.00  0.00     0.015 C 
ATOM     22  C   UNL A   1      32.516  27.774  24.480  1.00  0.00     0.041 A 
ATOM     23  C   UNL A   1      34.047  28.044  22.547  1.00  0.00     0.144 C 
ATOM     24  C   UNL A   1      31.532  26.992  26.578  1.00  0.00     0.045 A 
ATOM     25  C   UNL A   1      32.425  29.089  24.897  1.00  0.00     0.029 A 
ATOM     26  C   UNL A   1      31.460  28.315  26.987  1.00  0.00     0.123 A 
ATOM     27  C   UNL A   1      31.900  29.359  26.166  1.00  0.00     0.041 A 
ATOM     28  F   UNL A   1      30.972  28.598  28.202  1.00  0.00    -0.207 F 
ENDBRANCH  14  17
ENDBRANCH   5  13
ENDBRANCH   3   5
ENDBRANCH   2   3
ENDBRANCH   1   2
BRANCH   1  29
ATOM     29  C   UNL A   1      38.572  21.604  25.723  1.00  0.00     0.275 C 
BRANCH  29  30
ATOM     30  O   UNL A   1      39.267  22.196  26.833  1.00  0.00    -0.458 OA
BRANCH  30  31
ATOM     31  C   UNL A   1      40.563  22.524  26.628  1.00  0.00     0.338 C 
ATOM     32  O   UNL A   1      41.390  21.864  25.994  1.00  0.00    -0.246 OA
BRANCH  31  33
ATOM     33  C   UNL A   1      40.730  23.969  26.923  1.00  0.00     0.060 A 
ATOM     34  C   UNL A   1      41.706  24.396  27.829  1.00  0.00     0.016 A 
ATOM     35  C   UNL A   1      39.689  24.836  26.560  1.00  0.00     0.016 A 
ATOM     36  C   UNL A   1      41.514  25.584  28.525  1.00  0.00     0.010 A 
ATOM     37  C   UNL A   1      39.510  26.035  27.255  1.00  0.00     0.010 A 
ATOM     38  C   UNL A   1      40.369  26.367  28.304  1.00  0.00    -0.014 A 
BRANCH  38  39
ATOM     39  C   UNL A   1      40.339  27.693  28.926  1.00  0.00     0.031 A 
ATOM     40  C   UNL A   1      41.441  28.502  28.396  1.00  0.00     0.074 A 
ATOM     41  C   UNL A   1      39.554  28.244  29.873  1.00  0.00     0.049 A 
ATOM     42  N   UNL A   1      42.568  28.676  28.992  1.00  0.00    -0.248 NA
ATOM     43  C   UNL A   1      41.384  28.957  27.004  1.00  0.00     0.031 C 
ATOM     44  C   UNL A   1      38.326  27.740  30.451  1.00  0.00     0.029 A 
ATOM     45  N   UNL A   1      39.701  29.451  30.506  1.00  0.00    -0.354 N 
ATOM     46  C   UNL A   1      43.329  29.418  28.115  1.00  0.00     0.074 A 
ATOM     47  C   UNL A   1      42.630  29.404  26.853  1.00  0.00     0.031 C 
ATOM     48  C   UNL A   1      37.715  28.701  31.184  1.00  0.00     0.029 A 
ATOM     49  C   UNL A   1      38.606  29.841  31.270  1.00  0.00     0.049 A 
ATOM     50  H   UNL A   1      40.516  29.997  30.427  1.00  0.00     0.167 HD
ATOM     51  C   UNL A   1      44.346  30.186  28.574  1.00  0.00     0.031 A 
ATOM     52  C   UNL A   1      38.455  30.997  31.965  1.00  0.00     0.031 A 
ATOM     53  C   UNL A   1      44.744  29.817  29.911  1.00  0.00     0.049 A 
ATOM     54  C   UNL A   1      39.806  31.479  32.311  1.00  0.00     0.074 A 
ATOM     55  C   UNL A   1      45.235  28.665  30.494  1.00  0.00     0.029 A 
ATOM     56  N   UNL A   1      44.272  30.594  30.942  1.00  0.00    -0.354 N 
ATOM     57  N   UNL A   1      40.573  30.895  33.184  1.00  0.00    -0.248 NA
ATOM     58  C   UNL A   1      40.467  32.412  31.418  1.00  0.00     0.031 C 
ATOM     59  C   UNL A   1      44.664  28.624  31.800  1.00  0.00     0.029 A 
ATOM     60  C   UNL A   1      43.889  29.771  31.972  1.00  0.00     0.049 A 
ATOM     61  H   UNL A   1      44.217  31.576  30.941  1.00  0.00     0.167 HD
ATOM     62  C   UNL A   1      41.846  31.015  32.653  1.00  0.00     0.074 A 
ATOM     63  C   UNL A   1      41.736  32.071  31.651  1.00  0.00     0.031 C 
ATOM     64  C   UNL A   1      42.792  30.056  32.878  1.00  0.00     0.031 A 
BRANCH  51  65
ATOM     65  C   UNL A   1      44.668  31.512  27.949  1.00  0.00    -0.014 A 
ATOM     66  C   UNL A   1      45.503  31.652  26.821  1.00  0.00     0.009 A 
ATOM     67  C   UNL A   1      43.931  32.637  28.336  1.00  0.00     0.009 A 
ATOM     68  C   UNL A   1      45.614  32.851  26.120  1.00  0.00     0.001 A 
ATOM     69  C   UNL A   1      44.001  33.830  27.608  1.00  0.00     0.001 A 
ATOM     70  C   UNL A   1      44.843  33.936  26.503  1.00  0.00     0.000 A 
ENDBRANCH  51  65
BRANCH  52  71
ATOM     71  C   UNL A   1      37.269  31.880  32.066  1.00  0.00    -0.014 A 
ATOM     72  C   UNL A   1      36.808  32.310  33.321  1.00  0.00     0.009 A 
ATOM     73  C   UNL A   1      36.400  32.026  30.967  1.00  0.00     0.009 A 
ATOM     74  C   UNL A   1      35.504  32.790  33.489  1.00  0.00     0.001 A 
ATOM     75  C   UNL A   1      35.092  32.502  31.137  1.00  0.00     0.001 A 
ATOM     76  C   UNL A   1      34.637  32.862  32.402  1.00  0.00     0.000 A 
ENDBRANCH  52  71
BRANCH  64  77
ATOM     77  C   UNL A   1      42.548  29.058  33.992  1.00  0.00    -0.014 A 
ATOM     78  C   UNL A   1      43.077  29.344  35.262  1.00  0.00     0.009 A 
ATOM     79  C   UNL A   1      41.933  27.807  33.803  1.00  0.00     0.009 A 
ATOM     80  C   UNL A   1      43.005  28.415  36.303  1.00  0.00     0.001 A 
ATOM     81  C   UNL A   1      41.834  26.887  34.854  1.00  0.00     0.001 A 
ATOM     82  C   UNL A   1      42.378  27.188  36.101  1.00  0.00     0.000 A 
ENDBRANCH  64  77
ENDBRANCH  38  39
ENDBRANCH  31  33
ENDBRANCH  30  31
ENDBRANCH  29  30
ENDBRANCH   1  29
TORSDOF 14
ENDMDL
MODEL 3
REMARK VINA RESULT:     -12.0      3.183      7.880
REMARK SMILES CC1=C([C@H](NC(=O)[C@@H]2[C@H](C)c3cc(F)ccc3N2C)C(=O)OCCOC(=O)c2ccc(-c3c4nc(c(-c5ccccc5)c5ccc([nH]5)c(-c5ccccc5)c5nc(c(-c6ccccc6)c6ccc3[nH]6)C=C5)C=C4)cc2)[C@@H](C)N=N1
REMARK SMILES IDX 23 1 22 2 20 3 21 4 4 5 3 6 1 7 2 8 79 9 76 10 78 11 77 12
REMARK SMILES IDX 5 13 6 14 7 16 8 17 9 18 18 19 11 20 10 21 17 22 19 23 12 24
REMARK SMILES IDX 16 25 13 26 15 27 14 28 24 29 25 30 26 31 27 32 28 33 29 34
REMARK SMILES IDX 75 35 30 36 74 37 31 38 32 39 33 40 68 41 34 42 73 43 67 44
REMARK SMILES IDX 69 45 35 46 72 47 66 48 65 49 36 51 58 52 43 53 57 54 44 55
REMARK SMILES IDX 47 56 56 57 70 58 45 59 46 60 55 62 71 63 48 64 37 65 38 66
REMARK SMILES IDX 42 67 39 68 41 69 40 70 59 71 60 72 64 73 61 74 63 75 62 76
REMARK SMILES IDX 49 77 50 78 54 79 51 80 53 81 52 82
REMARK H PARENT 5 15 69 50 47 61
REMARK Flexibility Score: inf
ROOT
ATOM      1  C   UNL A   1      36.860  21.787  25.786  1.00  0.00     0.274 C 
ENDROOT
BRANCH   1   2
ATOM      2  O   UNL A   1      35.970  20.727  25.365  1.00  0.00    -0.460 OA
BRANCH   2   3
ATOM      3  C   UNL A   1      34.877  21.054  24.649  1.00  0.00     0.333 C 
ATOM      4  O   UNL A   1      34.894  21.906  23.773  1.00  0.00    -0.249 OA
BRANCH   3   5
ATOM      5  C   UNL A   1      33.588  20.267  25.057  1.00  0.00     0.223 C 
BRANCH   5   6
ATOM      6  C   UNL A   1      33.210  19.201  24.081  1.00  0.00     0.012 C 
ATOM      7  C   UNL A   1      35.008  17.422  24.537  1.00  0.00     0.069 C 
ATOM      8  C   UNL A   1      33.802  18.012  23.881  1.00  0.00     0.064 C 
ATOM      9  N   UNL A   1      33.201  17.297  22.878  1.00  0.00    -0.160 NA
ATOM     10  C   UNL A   1      32.108  19.269  23.068  1.00  0.00     0.156 C 
ATOM     11  N   UNL A   1      32.253  17.957  22.374  1.00  0.00    -0.181 NA
ATOM     12  C   UNL A   1      32.153  20.363  21.998  1.00  0.00     0.040 C 
ENDBRANCH   5   6
BRANCH   5  13
ATOM     13  N   UNL A   1      32.372  20.762  25.714  1.00  0.00    -0.337 N 
ATOM     14  C   UNL A   1      31.592  21.863  25.531  1.00  0.00     0.244 C 
ATOM     15  H   UNL A   1      32.054  20.175  26.439  1.00  0.00     0.164 HD
ATOM     16  O   UNL A   1      30.418  21.789  25.897  1.00  0.00    -0.273 OA
BRANCH  14  17
ATOM     17  C   UNL A   1      32.237  23.126  25.003  1.00  0.00     0.178 C 
ATOM     18  C   UNL A   1      33.089  23.872  26.067  1.00  0.00     0.050 C 
ATOM     19  N   UNL A   1      31.322  24.102  24.382  1.00  0.00    -0.362 N 
ATOM     20  C   UNL A   1      33.017  25.255  25.493  1.00  0.00    -0.016 A 
ATOM     21  C   UNL A   1      32.682  23.818  27.537  1.00  0.00     0.015 C 
ATOM     22  C   UNL A   1      31.990  25.322  24.534  1.00  0.00     0.041 A 
ATOM     23  C   UNL A   1      30.658  23.760  23.140  1.00  0.00     0.144 C 
ATOM     24  C   UNL A   1      33.836  26.334  25.778  1.00  0.00     0.045 A 
ATOM     25  C   UNL A   1      31.775  26.500  23.842  1.00  0.00     0.029 A 
ATOM     26  C   UNL A   1      33.617  27.504  25.066  1.00  0.00     0.123 A 
ATOM     27  C   UNL A   1      32.603  27.596  24.106  1.00  0.00     0.041 A 
ATOM     28  F   UNL A   1      34.404  28.564  25.293  1.00  0.00    -0.207 F 
ENDBRANCH  14  17
ENDBRANCH   5  13
ENDBRANCH   3   5
ENDBRANCH   2   3
ENDBRANCH   1   2
BRANCH   1  29
ATOM     29  C   UNL A   1      38.315  21.346  25.599  1.00  0.00     0.275 C 
BRANCH  29  30
ATOM     30  O   UNL A   1      39.170  22.501  25.600  1.00  0.00    -0.458 OA
BRANCH  30  31
ATOM     31  C   UNL A   1      40.261  22.443  26.398  1.00  0.00     0.338 C 
ATOM     32  O   UNL A   1      41.315  21.853  26.148  1.00  0.00    -0.246 OA
BRANCH  31  33
ATOM     33  C   UNL A   1      40.152  23.519  27.414  1.00  0.00     0.060 A 
ATOM     34  C   UNL A   1      38.987  24.286  27.507  1.00  0.00     0.016 A 
ATOM     35  C   UNL A   1      41.334  23.970  28.020  1.00  0.00     0.016 A 
ATOM     36  C   UNL A   1      39.064  25.583  28.001  1.00  0.00     0.010 A 
ATOM     37  C   UNL A   1      41.400  25.270  28.528  1.00  0.00     0.010 A 
ATOM     38  C   UNL A   1      40.291  26.113  28.435  1.00  0.00    -0.014 A 
BRANCH  38  39
ATOM     39  C   UNL A   1      40.253  27.405  29.123  1.00  0.00     0.031 A 
ATOM     40  C   UNL A   1      41.176  28.333  28.460  1.00  0.00     0.074 A 
ATOM     41  C   UNL A   1      39.598  27.844  30.215  1.00  0.00     0.049 A 
ATOM     42  N   UNL A   1      42.369  28.589  28.869  1.00  0.00    -0.248 NA
ATOM     43  C   UNL A   1      40.844  28.833  27.124  1.00  0.00     0.031 C 
ATOM     44  C   UNL A   1      38.534  27.206  30.962  1.00  0.00     0.029 A 
ATOM     45  N   UNL A   1      39.747  29.035  30.878  1.00  0.00    -0.354 N 
ATOM     46  C   UNL A   1      42.903  29.431  27.918  1.00  0.00     0.074 A 
ATOM     47  C   UNL A   1      42.003  29.399  26.790  1.00  0.00     0.031 C 
ATOM     48  C   UNL A   1      37.977  28.079  31.835  1.00  0.00     0.029 A 
ATOM     49  C   UNL A   1      38.768  29.293  31.833  1.00  0.00     0.049 A 
ATOM     50  H   UNL A   1      40.486  29.658  30.693  1.00  0.00     0.167 HD
ATOM     51  C   UNL A   1      43.914  30.273  28.241  1.00  0.00     0.031 A 
ATOM     52  C   UNL A   1      38.639  30.402  32.603  1.00  0.00     0.031 A 
ATOM     53  C   UNL A   1      44.564  29.892  29.473  1.00  0.00     0.049 A 
ATOM     54  C   UNL A   1      39.983  30.994  32.745  1.00  0.00     0.074 A 
ATOM     55  C   UNL A   1      45.244  28.770  29.904  1.00  0.00     0.029 A 
ATOM     56  N   UNL A   1      44.210  30.582  30.607  1.00  0.00    -0.354 N 
ATOM     57  N   UNL A   1      40.935  30.453  33.446  1.00  0.00    -0.248 NA
ATOM     58  C   UNL A   1      40.400  32.018  31.805  1.00  0.00     0.031 C 
ATOM     59  C   UNL A   1      44.910  28.626  31.282  1.00  0.00     0.029 A 
ATOM     60  C   UNL A   1      44.080  29.689  31.642  1.00  0.00     0.049 A 
ATOM     61  H   UNL A   1      44.071  31.554  30.667  1.00  0.00     0.167 HD
ATOM     62  C   UNL A   1      42.084  30.711  32.718  1.00  0.00     0.074 A 
ATOM     63  C   UNL A   1      41.715  31.789  31.805  1.00  0.00     0.031 C 
ATOM     64  C   UNL A   1      43.133  29.837  32.731  1.00  0.00     0.031 A 
BRANCH  51  65
ATOM     65  C   UNL A   1      44.010  31.645  27.643  1.00  0.00    -0.014 A 
ATOM     66  C   UNL A   1      43.750  32.826  28.370  1.00  0.00     0.009 A 
ATOM     67  C   UNL A   1      44.613  31.794  26.388  1.00  0.00     0.009 A 
ATOM     68  C   UNL A   1      44.057  34.090  27.873  1.00  0.00     0.001 A 
ATOM     69  C   UNL A   1      44.967  33.059  25.904  1.00  0.00     0.001 A 
ATOM     70  C   UNL A   1      44.687  34.204  26.645  1.00  0.00     0.000 A 
ENDBRANCH  51  65
BRANCH  52  71
ATOM     71  C   UNL A   1      37.417  31.167  32.946  1.00  0.00    -0.014 A 
ATOM     72  C   UNL A   1      36.383  31.311  32.006  1.00  0.00     0.009 A 
ATOM     73  C   UNL A   1      37.410  32.026  34.061  1.00  0.00     0.009 A 
ATOM     74  C   UNL A   1      35.426  32.326  32.132  1.00  0.00     0.001 A 
ATOM     75  C   UNL A   1      36.455  33.046  34.184  1.00  0.00     0.001 A 
ATOM     76  C   UNL A   1      35.478  33.210  33.207  1.00  0.00     0.000 A 
ENDBRANCH  52  71
BRANCH  64  77
ATOM     77  C   UNL A   1      43.168  28.779  33.816  1.00  0.00    -0.014 A 
ATOM     78  C   UNL A   1      43.919  29.045  34.973  1.00  0.00     0.009 A 
ATOM     79  C   UNL A   1      42.601  27.498  33.682  1.00  0.00     0.009 A 
ATOM     80  C   UNL A   1      44.105  28.070  35.957  1.00  0.00     0.001 A 
ATOM     81  C   UNL A   1      42.762  26.530  34.681  1.00  0.00     0.001 A 
ATOM     82  C   UNL A   1      43.522  26.814  35.814  1.00  0.00     0.000 A 
ENDBRANCH  64  77
ENDBRANCH  38  39
ENDBRANCH  31  33
ENDBRANCH  30  31
ENDBRANCH  29  30
ENDBRANCH   1  29
TORSDOF 14
ENDMDL
