MODEL 1
REMARK VINA RESULT:     -12.1      0.000      0.000
REMARK SMILES Cc1cc(C)n(-c2nc(C)c(C)c(Oc3cccc(C(=O)OCCOC(=O)c4ccc(-c5c6nc(c(-c7ccccc7)c7ccc([nH]7)c(-c7ccccc7)c7nc(c(-c8ccccc8)c8ccc5[nH]8)C=C7)C=C6)cc4)c3)n2)n1
REMARK SMILES IDX 23 1 22 2 20 3 21 4 19 5 15 6 16 7 76 8 17 9 18 10 14 11
REMARK SMILES IDX 13 12 7 13 8 14 77 15 9 16 10 17 11 18 12 19 6 20 1 21 2 22
REMARK SMILES IDX 3 23 78 24 4 25 5 26 24 27 25 28 26 29 27 30 28 31 29 32
REMARK SMILES IDX 75 33 30 34 74 35 31 36 32 37 33 38 68 39 34 40 73 41 67 42
REMARK SMILES IDX 69 43 35 44 72 45 66 46 65 47 36 49 58 50 43 51 57 52 44 53
REMARK SMILES IDX 47 54 56 55 70 56 45 57 46 58 55 60 71 61 48 62 37 63 38 64
REMARK SMILES IDX 42 65 39 66 41 67 40 68 59 69 60 70 64 71 61 72 63 73 62 74
REMARK SMILES IDX 49 75 50 76 54 77 51 78 53 79 52 80
REMARK H PARENT 69 48 47 59
REMARK Flexibility Score: inf
ROOT
ATOM      1  C   UNL A   1      42.042  20.070  26.690  1.00  0.00     0.275 C 
ENDROOT
BRANCH   1   2
ATOM      2  O   UNL A   1      41.190  20.979  25.974  1.00  0.00    -0.458 OA
BRANCH   2   3
ATOM      3  C   UNL A   1      39.911  20.563  25.789  1.00  0.00     0.338 C 
ATOM      4  O   UNL A   1      39.535  19.399  25.732  1.00  0.00    -0.246 OA
BRANCH   3   5
ATOM      5  C   UNL A   1      38.975  21.716  25.784  1.00  0.00     0.063 A 
ATOM      6  C   UNL A   1      36.973  22.839  25.032  1.00  0.00     0.130 A 
ATOM      7  C   UNL A   1      37.235  23.901  25.899  1.00  0.00     0.047 A 
ATOM      8  C   UNL A   1      37.874  21.775  24.926  1.00  0.00     0.062 A 
ATOM      9  C   UNL A   1      38.360  23.869  26.721  1.00  0.00     0.005 A 
ATOM     10  C   UNL A   1      39.218  22.768  26.679  1.00  0.00     0.016 A 
BRANCH   6  11
ATOM     11  O   UNL A   1      35.825  22.938  24.279  1.00  0.00    -0.439 OA
BRANCH  11  12
ATOM     12  C   UNL A   1      34.766  22.080  24.572  1.00  0.00     0.227 A 
ATOM     13  C   UNL A   1      33.861  19.983  24.562  1.00  0.00     0.254 A 
ATOM     14  N   UNL A   1      32.637  20.456  24.882  1.00  0.00    -0.216 NA
ATOM     15  N   UNL A   1      34.951  20.753  24.449  1.00  0.00    -0.175 NA
ATOM     16  C   UNL A   1      32.527  21.773  25.167  1.00  0.00     0.050 A 
ATOM     17  C   UNL A   1      31.210  22.169  25.768  1.00  0.00     0.067 C 
ATOM     18  C   UNL A   1      33.575  22.663  24.977  1.00  0.00     0.033 A 
ATOM     19  C   UNL A   1      33.441  24.133  25.220  1.00  0.00     0.052 C 
BRANCH  13  20
ATOM     20  N   UNL A   1      33.993  18.577  24.304  1.00  0.00    -0.203 N 
ATOM     21  C   UNL A   1      35.336  15.425  25.260  1.00  0.00     0.069 C 
ATOM     22  C   UNL A   1      34.621  16.558  24.624  1.00  0.00     0.060 A 
ATOM     23  C   UNL A   1      33.575  16.495  23.682  1.00  0.00     0.049 A 
ATOM     24  N   UNL A   1      34.947  17.819  24.920  1.00  0.00    -0.170 NA
ATOM     25  C   UNL A   1      33.208  17.803  23.457  1.00  0.00     0.045 A 
ATOM     26  C   UNL A   1      32.251  18.378  22.480  1.00  0.00     0.067 C 
ENDBRANCH  13  20
ENDBRANCH  11  12
ENDBRANCH   6  11
ENDBRANCH   3   5
ENDBRANCH   2   3
ENDBRANCH   1   2
BRANCH   1  27
ATOM     27  C   UNL A   1      43.051  19.405  25.761  1.00  0.00     0.275 C 
BRANCH  27  28
ATOM     28  O   UNL A   1      43.536  20.297  24.756  1.00  0.00    -0.458 OA
BRANCH  28  29
ATOM     29  C   UNL A   1      44.778  20.782  24.979  1.00  0.00     0.338 C 
ATOM     30  O   UNL A   1      45.815  20.147  25.082  1.00  0.00    -0.246 OA
BRANCH  29  31
ATOM     31  C   UNL A   1      44.690  22.204  25.331  1.00  0.00     0.060 A 
ATOM     32  C   UNL A   1      45.439  22.643  26.426  1.00  0.00     0.016 A 
ATOM     33  C   UNL A   1      43.695  23.008  24.755  1.00  0.00     0.016 A 
ATOM     34  C   UNL A   1      45.094  23.838  27.027  1.00  0.00     0.010 A 
ATOM     35  C   UNL A   1      43.347  24.198  25.361  1.00  0.00     0.010 A 
ATOM     36  C   UNL A   1      44.011  24.572  26.526  1.00  0.00    -0.014 A 
BRANCH  36  37
ATOM     37  C   UNL A   1      43.679  25.819  27.190  1.00  0.00     0.031 A 
ATOM     38  C   UNL A   1      44.618  26.920  26.877  1.00  0.00     0.074 A 
ATOM     39  C   UNL A   1      42.578  26.008  27.941  1.00  0.00     0.049 A 
ATOM     40  N   UNL A   1      45.430  27.515  27.685  1.00  0.00    -0.248 NA
ATOM     41  C   UNL A   1      44.765  27.310  25.466  1.00  0.00     0.031 C 
ATOM     42  C   UNL A   1      41.428  25.116  28.110  1.00  0.00     0.029 A 
ATOM     43  N   UNL A   1      42.220  27.115  28.646  1.00  0.00    -0.354 N 
ATOM     44  C   UNL A   1      46.075  28.481  26.923  1.00  0.00     0.074 A 
ATOM     45  C   UNL A   1      45.741  28.214  25.548  1.00  0.00     0.031 C 
ATOM     46  C   UNL A   1      40.414  25.806  28.682  1.00  0.00     0.029 A 
ATOM     47  C   UNL A   1      40.892  27.129  29.047  1.00  0.00     0.049 A 
ATOM     48  H   UNL A   1      42.849  27.844  28.855  1.00  0.00     0.167 HD
ATOM     49  C   UNL A   1      46.636  29.578  27.499  1.00  0.00     0.031 A 
ATOM     50  C   UNL A   1      40.230  28.180  29.589  1.00  0.00     0.031 A 
ATOM     51  C   UNL A   1      46.860  29.390  28.908  1.00  0.00     0.049 A 
ATOM     52  C   UNL A   1      41.243  29.109  30.136  1.00  0.00     0.074 A 
ATOM     53  C   UNL A   1      47.616  28.526  29.674  1.00  0.00     0.029 A 
ATOM     54  N   UNL A   1      45.944  29.957  29.760  1.00  0.00    -0.354 N 
ATOM     55  N   UNL A   1      41.988  28.840  31.169  1.00  0.00    -0.248 NA
ATOM     56  C   UNL A   1      41.705  30.208  29.303  1.00  0.00     0.031 C 
ATOM     57  C   UNL A   1      46.838  28.288  30.843  1.00  0.00     0.029 A 
ATOM     58  C   UNL A   1      45.670  29.050  30.748  1.00  0.00     0.049 A 
ATOM     59  H   UNL A   1      45.553  30.856  29.675  1.00  0.00     0.167 HD
ATOM     60  C   UNL A   1      43.211  29.426  30.882  1.00  0.00     0.074 A 
ATOM     61  C   UNL A   1      42.938  30.358  29.793  1.00  0.00     0.031 C 
ATOM     62  C   UNL A   1      44.371  28.892  31.364  1.00  0.00     0.031 A 
BRANCH  49  63
ATOM     63  C   UNL A   1      46.549  30.951  26.879  1.00  0.00    -0.014 A 
ATOM     64  C   UNL A   1      47.691  31.770  26.893  1.00  0.00     0.009 A 
ATOM     65  C   UNL A   1      45.327  31.575  26.560  1.00  0.00     0.009 A 
ATOM     66  C   UNL A   1      47.598  33.151  26.683  1.00  0.00     0.001 A 
ATOM     67  C   UNL A   1      45.237  32.945  26.306  1.00  0.00     0.001 A 
ATOM     68  C   UNL A   1      46.370  33.738  26.399  1.00  0.00     0.000 A 
ENDBRANCH  49  63
BRANCH  50  69
ATOM     69  C   UNL A   1      38.813  28.574  29.442  1.00  0.00    -0.014 A 
ATOM     70  C   UNL A   1      38.006  28.764  30.577  1.00  0.00     0.009 A 
ATOM     71  C   UNL A   1      38.331  29.050  28.210  1.00  0.00     0.009 A 
ATOM     72  C   UNL A   1      36.790  29.455  30.491  1.00  0.00     0.001 A 
ATOM     73  C   UNL A   1      37.113  29.734  28.123  1.00  0.00     0.001 A 
ATOM     74  C   UNL A   1      36.352  29.954  29.267  1.00  0.00     0.000 A 
ENDBRANCH  50  69
BRANCH  62  75
ATOM     75  C   UNL A   1      44.274  27.841  32.440  1.00  0.00    -0.014 A 
ATOM     76  C   UNL A   1      44.181  26.466  32.158  1.00  0.00     0.009 A 
ATOM     77  C   UNL A   1      44.463  28.239  33.772  1.00  0.00     0.009 A 
ATOM     78  C   UNL A   1      44.268  25.520  33.186  1.00  0.00     0.001 A 
ATOM     79  C   UNL A   1      44.571  27.293  34.793  1.00  0.00     0.001 A 
ATOM     80  C   UNL A   1      44.473  25.935  34.500  1.00  0.00     0.000 A 
ENDBRANCH  62  75
ENDBRANCH  36  37
ENDBRANCH  29  31
ENDBRANCH  28  29
ENDBRANCH  27  28
ENDBRANCH   1  27
TORSDOF 14
ENDMDL
MODEL 2
REMARK VINA RESULT:     -11.9      3.076      8.152
REMARK SMILES Cc1cc(C)n(-c2nc(C)c(C)c(Oc3cccc(C(=O)OCCOC(=O)c4ccc(-c5c6nc(c(-c7ccccc7)c7ccc([nH]7)c(-c7ccccc7)c7nc(c(-c8ccccc8)c8ccc5[nH]8)C=C7)C=C6)cc4)c3)n2)n1
REMARK SMILES IDX 23 1 22 2 20 3 21 4 19 5 15 6 16 7 76 8 17 9 18 10 14 11
REMARK SMILES IDX 13 12 7 13 8 14 77 15 9 16 10 17 11 18 12 19 6 20 1 21 2 22
REMARK SMILES IDX 3 23 78 24 4 25 5 26 24 27 25 28 26 29 27 30 28 31 29 32
REMARK SMILES IDX 75 33 30 34 74 35 31 36 32 37 33 38 68 39 34 40 73 41 67 42
REMARK SMILES IDX 69 43 35 44 72 45 66 46 65 47 36 49 58 50 43 51 57 52 44 53
REMARK SMILES IDX 47 54 56 55 70 56 45 57 46 58 55 60 71 61 48 62 37 63 38 64
REMARK SMILES IDX 42 65 39 66 41 67 40 68 59 69 60 70 64 71 61 72 63 73 62 74
REMARK SMILES IDX 49 75 50 76 54 77 51 78 53 79 52 80
REMARK H PARENT 69 48 47 59
REMARK Flexibility Score: inf
ROOT
ATOM      1  C   UNL A   1      32.240  30.133  26.359  1.00  0.00     0.275 C 
ENDROOT
BRANCH   1   2
ATOM      2  O   UNL A   1      33.087  29.550  25.354  1.00  0.00    -0.458 OA
BRANCH   2   3
ATOM      3  C   UNL A   1      33.370  28.231  25.517  1.00  0.00     0.338 C 
ATOM      4  O   UNL A   1      33.740  27.699  26.556  1.00  0.00    -0.246 OA
BRANCH   3   5
ATOM      5  C   UNL A   1      33.053  27.467  24.284  1.00  0.00     0.063 A 
ATOM      6  C   UNL A   1      33.384  25.604  22.782  1.00  0.00     0.130 A 
ATOM      7  C   UNL A   1      32.335  26.056  21.981  1.00  0.00     0.047 A 
ATOM      8  C   UNL A   1      33.788  26.342  23.899  1.00  0.00     0.062 A 
ATOM      9  C   UNL A   1      31.632  27.206  22.335  1.00  0.00     0.005 A 
ATOM     10  C   UNL A   1      31.977  27.899  23.496  1.00  0.00     0.016 A 
BRANCH   6  11
ATOM     11  O   UNL A   1      34.004  24.445  22.376  1.00  0.00    -0.439 OA
BRANCH  11  12
ATOM     12  C   UNL A   1      34.383  23.522  23.350  1.00  0.00     0.227 A 
ATOM     13  C   UNL A   1      35.951  22.708  24.797  1.00  0.00     0.254 A 
ATOM     14  N   UNL A   1      35.228  21.592  25.031  1.00  0.00    -0.216 NA
ATOM     15  N   UNL A   1      35.541  23.710  24.008  1.00  0.00    -0.175 NA
ATOM     16  C   UNL A   1      33.992  21.518  24.487  1.00  0.00     0.050 A 
ATOM     17  C   UNL A   1      33.153  20.385  25.004  1.00  0.00     0.067 C 
ATOM     18  C   UNL A   1      33.526  22.455  23.576  1.00  0.00     0.033 A 
ATOM     19  C   UNL A   1      32.189  22.343  22.912  1.00  0.00     0.052 C 
BRANCH  13  20
ATOM     20  N   UNL A   1      37.244  22.813  25.411  1.00  0.00    -0.203 N 
ATOM     21  C   UNL A   1      39.486  24.640  27.481  1.00  0.00     0.069 C 
ATOM     22  C   UNL A   1      38.800  23.650  26.617  1.00  0.00     0.060 A 
ATOM     23  C   UNL A   1      39.171  22.312  26.378  1.00  0.00     0.049 A 
ATOM     24  N   UNL A   1      37.694  23.986  25.947  1.00  0.00    -0.170 NA
ATOM     25  C   UNL A   1      38.181  21.798  25.570  1.00  0.00     0.045 A 
ATOM     26  C   UNL A   1      38.083  20.484  24.889  1.00  0.00     0.067 C 
ENDBRANCH  13  20
ENDBRANCH  11  12
ENDBRANCH   6  11
ENDBRANCH   3   5
ENDBRANCH   2   3
ENDBRANCH   1   2
BRANCH   1  27
ATOM     27  C   UNL A   1      33.024  31.068  27.272  1.00  0.00     0.275 C 
BRANCH  27  28
ATOM     28  O   UNL A   1      34.434  30.977  27.063  1.00  0.00    -0.458 OA
BRANCH  28  29
ATOM     29  C   UNL A   1      35.180  31.758  27.878  1.00  0.00     0.338 C 
ATOM     30  O   UNL A   1      35.109  32.967  28.015  1.00  0.00    -0.246 OA
BRANCH  29  31
ATOM     31  C   UNL A   1      36.290  30.969  28.427  1.00  0.00     0.060 A 
ATOM     32  C   UNL A   1      37.366  31.669  28.977  1.00  0.00     0.016 A 
ATOM     33  C   UNL A   1      36.370  29.593  28.161  1.00  0.00     0.016 A 
ATOM     34  C   UNL A   1      38.571  31.014  29.135  1.00  0.00     0.010 A 
ATOM     35  C   UNL A   1      37.577  28.942  28.313  1.00  0.00     0.010 A 
ATOM     36  C   UNL A   1      38.681  29.673  28.742  1.00  0.00    -0.014 A 
BRANCH  36  37
ATOM     37  C   UNL A   1      39.966  29.023  28.919  1.00  0.00     0.031 A 
ATOM     38  C   UNL A   1      40.313  28.786  30.339  1.00  0.00     0.074 A 
ATOM     39  C   UNL A   1      40.738  28.583  27.909  1.00  0.00     0.049 A 
ATOM     40  N   UNL A   1      41.275  29.320  31.014  1.00  0.00    -0.248 NA
ATOM     41  C   UNL A   1      39.395  27.956  31.136  1.00  0.00     0.031 C 
ATOM     42  C   UNL A   1      40.408  28.491  26.486  1.00  0.00     0.029 A 
ATOM     43  N   UNL A   1      41.977  28.022  27.979  1.00  0.00    -0.354 N 
ATOM     44  C   UNL A   1      41.194  28.764  32.285  1.00  0.00     0.074 A 
ATOM     45  C   UNL A   1      39.943  28.053  32.346  1.00  0.00     0.031 C 
ATOM     46  C   UNL A   1      41.326  27.711  25.868  1.00  0.00     0.029 A 
ATOM     47  C   UNL A   1      42.375  27.376  26.817  1.00  0.00     0.049 A 
ATOM     48  H   UNL A   1      42.541  28.070  28.784  1.00  0.00     0.167 HD
ATOM     49  C   UNL A   1      42.277  28.721  33.107  1.00  0.00     0.031 A 
ATOM     50  C   UNL A   1      43.463  26.581  26.676  1.00  0.00     0.031 A 
ATOM     51  C   UNL A   1      43.293  29.658  32.708  1.00  0.00     0.049 A 
ATOM     52  C   UNL A   1      44.400  26.911  27.772  1.00  0.00     0.074 A 
ATOM     53  C   UNL A   1      43.367  31.030  32.582  1.00  0.00     0.029 A 
ATOM     54  N   UNL A   1      44.360  29.150  32.008  1.00  0.00    -0.354 N 
ATOM     55  N   UNL A   1      45.039  28.041  27.862  1.00  0.00    -0.248 NA
ATOM     56  C   UNL A   1      44.349  26.124  28.993  1.00  0.00     0.031 C 
ATOM     57  C   UNL A   1      44.210  31.255  31.455  1.00  0.00     0.029 A 
ATOM     58  C   UNL A   1      44.639  30.012  30.982  1.00  0.00     0.049 A 
ATOM     59  H   UNL A   1      44.839  28.314  32.208  1.00  0.00     0.167 HD
ATOM     60  C   UNL A   1      45.090  28.308  29.220  1.00  0.00     0.074 A 
ATOM     61  C   UNL A   1      44.771  27.040  29.868  1.00  0.00     0.031 C 
ATOM     62  C   UNL A   1      45.108  29.594  29.680  1.00  0.00     0.031 A 
BRANCH  49  63
ATOM     63  C   UNL A   1      42.586  27.527  33.976  1.00  0.00    -0.014 A 
ATOM     64  C   UNL A   1      43.445  26.534  33.474  1.00  0.00     0.009 A 
ATOM     65  C   UNL A   1      41.839  27.196  35.124  1.00  0.00     0.009 A 
ATOM     66  C   UNL A   1      43.488  25.255  34.042  1.00  0.00     0.001 A 
ATOM     67  C   UNL A   1      41.913  25.935  35.719  1.00  0.00     0.001 A 
ATOM     68  C   UNL A   1      42.715  24.954  35.158  1.00  0.00     0.000 A 
ENDBRANCH  49  63
BRANCH  50  69
ATOM     69  C   UNL A   1      43.646  25.382  25.830  1.00  0.00    -0.014 A 
ATOM     70  C   UNL A   1      44.892  25.115  25.237  1.00  0.00     0.009 A 
ATOM     71  C   UNL A   1      42.693  24.349  25.845  1.00  0.00     0.009 A 
ATOM     72  C   UNL A   1      45.190  23.843  24.729  1.00  0.00     0.001 A 
ATOM     73  C   UNL A   1      42.989  23.081  25.331  1.00  0.00     0.001 A 
ATOM     74  C   UNL A   1      44.245  22.823  24.791  1.00  0.00     0.000 A 
ENDBRANCH  50  69
BRANCH  62  75
ATOM     75  C   UNL A   1      45.365  30.697  28.684  1.00  0.00    -0.014 A 
ATOM     76  C   UNL A   1      46.657  31.149  28.361  1.00  0.00     0.009 A 
ATOM     77  C   UNL A   1      44.283  31.165  27.923  1.00  0.00     0.009 A 
ATOM     78  C   UNL A   1      46.855  32.050  27.308  1.00  0.00     0.001 A 
ATOM     79  C   UNL A   1      44.484  32.047  26.860  1.00  0.00     0.001 A 
ATOM     80  C   UNL A   1      45.769  32.490  26.554  1.00  0.00     0.000 A 
ENDBRANCH  62  75
ENDBRANCH  36  37
ENDBRANCH  29  31
ENDBRANCH  28  29
ENDBRANCH  27  28
ENDBRANCH   1  27
TORSDOF 14
ENDMDL
MODEL 3
REMARK VINA RESULT:     -11.8      4.225      8.873
REMARK SMILES Cc1cc(C)n(-c2nc(C)c(C)c(Oc3cccc(C(=O)OCCOC(=O)c4ccc(-c5c6nc(c(-c7ccccc7)c7ccc([nH]7)c(-c7ccccc7)c7nc(c(-c8ccccc8)c8ccc5[nH]8)C=C7)C=C6)cc4)c3)n2)n1
REMARK SMILES IDX 23 1 22 2 20 3 21 4 19 5 15 6 16 7 76 8 17 9 18 10 14 11
REMARK SMILES IDX 13 12 7 13 8 14 77 15 9 16 10 17 11 18 12 19 6 20 1 21 2 22
REMARK SMILES IDX 3 23 78 24 4 25 5 26 24 27 25 28 26 29 27 30 28 31 29 32
REMARK SMILES IDX 75 33 30 34 74 35 31 36 32 37 33 38 68 39 34 40 73 41 67 42
REMARK SMILES IDX 69 43 35 44 72 45 66 46 65 47 36 49 58 50 43 51 57 52 44 53
REMARK SMILES IDX 47 54 56 55 70 56 45 57 46 58 55 60 71 61 48 62 37 63 38 64
REMARK SMILES IDX 42 65 39 66 41 67 40 68 59 69 60 70 64 71 61 72 63 73 62 74
REMARK SMILES IDX 49 75 50 76 54 77 51 78 53 79 52 80
REMARK H PARENT 69 48 47 59
REMARK Flexibility Score: inf
ROOT
ATOM      1  C   UNL A   1      34.410  34.276  30.175  1.00  0.00     0.275 C 
ENDROOT
BRANCH   1   2
ATOM      2  O   UNL A   1      35.492  33.752  29.388  1.00  0.00    -0.458 OA
BRANCH   2   3
ATOM      3  C   UNL A   1      35.184  33.433  28.104  1.00  0.00     0.338 C 
ATOM      4  O   UNL A   1      35.091  34.221  27.171  1.00  0.00    -0.246 OA
BRANCH   3   5
ATOM      5  C   UNL A   1      35.090  31.961  27.933  1.00  0.00     0.063 A 
ATOM      6  C   UNL A   1      33.834  29.929  27.570  1.00  0.00     0.130 A 
ATOM      7  C   UNL A   1      35.020  29.194  27.546  1.00  0.00     0.047 A 
ATOM      8  C   UNL A   1      33.861  31.304  27.827  1.00  0.00     0.062 A 
ATOM      9  C   UNL A   1      36.246  29.840  27.701  1.00  0.00     0.005 A 
ATOM     10  C   UNL A   1      36.281  31.224  27.873  1.00  0.00     0.016 A 
BRANCH   6  11
ATOM     11  O   UNL A   1      32.673  29.217  27.378  1.00  0.00    -0.439 OA
BRANCH  11  12
ATOM     12  C   UNL A   1      32.641  28.265  26.360  1.00  0.00     0.227 A 
ATOM     13  C   UNL A   1      33.288  26.239  25.528  1.00  0.00     0.254 A 
ATOM     14  N   UNL A   1      32.812  26.535  24.300  1.00  0.00    -0.216 NA
ATOM     15  N   UNL A   1      33.177  27.053  26.587  1.00  0.00    -0.175 NA
ATOM     16  C   UNL A   1      32.127  27.692  24.153  1.00  0.00     0.050 A 
ATOM     17  C   UNL A   1      31.405  27.824  22.844  1.00  0.00     0.067 C 
ATOM     18  C   UNL A   1      32.050  28.641  25.163  1.00  0.00     0.033 A 
ATOM     19  C   UNL A   1      31.357  29.955  24.986  1.00  0.00     0.052 C 
BRANCH  13  20
ATOM     20  N   UNL A   1      33.976  24.991  25.700  1.00  0.00    -0.203 N 
ATOM     21  C   UNL A   1      37.026  23.164  25.602  1.00  0.00     0.069 C 
ATOM     22  C   UNL A   1      35.629  23.635  25.760  1.00  0.00     0.060 A 
ATOM     23  C   UNL A   1      34.576  22.994  26.442  1.00  0.00     0.049 A 
ATOM     24  N   UNL A   1      35.239  24.793  25.219  1.00  0.00    -0.170 NA
ATOM     25  C   UNL A   1      33.509  23.861  26.362  1.00  0.00     0.045 A 
ATOM     26  C   UNL A   1      32.097  23.688  26.782  1.00  0.00     0.067 C 
ENDBRANCH  13  20
ENDBRANCH  11  12
ENDBRANCH   6  11
ENDBRANCH   3   5
ENDBRANCH   2   3
ENDBRANCH   1   2
BRANCH   1  27
ATOM     27  C   UNL A   1      34.330  33.594  31.535  1.00  0.00     0.275 C 
BRANCH  27  28
ATOM     28  O   UNL A   1      34.795  32.244  31.496  1.00  0.00    -0.458 OA
BRANCH  28  29
ATOM     29  C   UNL A   1      35.788  31.960  32.368  1.00  0.00     0.338 C 
ATOM     30  O   UNL A   1      35.930  32.398  33.498  1.00  0.00    -0.246 OA
BRANCH  29  31
ATOM     31  C   UNL A   1      36.844  31.210  31.678  1.00  0.00     0.060 A 
ATOM     32  C   UNL A   1      36.633  29.845  31.470  1.00  0.00     0.016 A 
ATOM     33  C   UNL A   1      38.106  31.793  31.485  1.00  0.00     0.016 A 
ATOM     34  C   UNL A   1      37.721  29.040  31.200  1.00  0.00     0.010 A 
ATOM     35  C   UNL A   1      39.194  30.987  31.222  1.00  0.00     0.010 A 
ATOM     36  C   UNL A   1      39.000  29.610  31.140  1.00  0.00    -0.014 A 
BRANCH  36  37
ATOM     37  C   UNL A   1      40.118  28.729  30.858  1.00  0.00     0.031 A 
ATOM     38  C   UNL A   1      40.990  28.493  32.032  1.00  0.00     0.074 A 
ATOM     39  C   UNL A   1      40.310  28.099  29.684  1.00  0.00     0.049 A 
ATOM     40  N   UNL A   1      42.218  28.858  32.185  1.00  0.00    -0.248 NA
ATOM     41  C   UNL A   1      40.375  27.897  33.229  1.00  0.00     0.031 C 
ATOM     42  C   UNL A   1      39.399  28.009  28.541  1.00  0.00     0.029 A 
ATOM     43  N   UNL A   1      41.355  27.310  29.314  1.00  0.00    -0.354 N 
ATOM     44  C   UNL A   1      42.595  28.387  33.437  1.00  0.00     0.074 A 
ATOM     45  C   UNL A   1      41.391  27.940  34.089  1.00  0.00     0.031 C 
ATOM     46  C   UNL A   1      39.832  27.037  27.705  1.00  0.00     0.029 A 
ATOM     47  C   UNL A   1      41.116  26.546  28.180  1.00  0.00     0.049 A 
ATOM     48  H   UNL A   1      42.206  27.283  29.807  1.00  0.00     0.167 HD
ATOM     49  C   UNL A   1      43.901  28.170  33.747  1.00  0.00     0.031 A 
ATOM     50  C   UNL A   1      41.900  25.547  27.708  1.00  0.00     0.031 A 
ATOM     51  C   UNL A   1      44.789  28.869  32.856  1.00  0.00     0.049 A 
ATOM     52  C   UNL A   1      43.252  25.736  28.278  1.00  0.00     0.074 A 
ATOM     53  C   UNL A   1      45.019  30.193  32.542  1.00  0.00     0.029 A 
ATOM     54  N   UNL A   1      45.363  28.130  31.851  1.00  0.00    -0.354 N 
ATOM     55  N   UNL A   1      44.041  26.721  27.959  1.00  0.00    -0.248 NA
ATOM     56  C   UNL A   1      43.598  25.031  29.502  1.00  0.00     0.031 C 
ATOM     57  C   UNL A   1      45.332  30.196  31.151  1.00  0.00     0.029 A 
ATOM     58  C   UNL A   1      45.316  28.873  30.702  1.00  0.00     0.049 A 
ATOM     59  H   UNL A   1      45.742  27.226  31.941  1.00  0.00     0.167 HD
ATOM     60  C   UNL A   1      44.703  27.035  29.136  1.00  0.00     0.074 A 
ATOM     61  C   UNL A   1      44.490  25.885  30.009  1.00  0.00     0.031 C 
ATOM     62  C   UNL A   1      45.118  28.311  29.385  1.00  0.00     0.031 A 
BRANCH  49  63
ATOM     63  C   UNL A   1      44.354  26.979  34.555  1.00  0.00    -0.014 A 
ATOM     64  C   UNL A   1      44.144  25.691  34.032  1.00  0.00     0.009 A 
ATOM     65  C   UNL A   1      44.695  27.060  35.920  1.00  0.00     0.009 A 
ATOM     66  C   UNL A   1      44.190  24.557  34.852  1.00  0.00     0.001 A 
ATOM     67  C   UNL A   1      44.786  25.927  36.730  1.00  0.00     0.001 A 
ATOM     68  C   UNL A   1      44.502  24.677  36.201  1.00  0.00     0.000 A 
ENDBRANCH  49  63
BRANCH  50  69
ATOM     69  C   UNL A   1      41.515  24.298  27.016  1.00  0.00    -0.014 A 
ATOM     70  C   UNL A   1      42.366  23.727  26.055  1.00  0.00     0.009 A 
ATOM     71  C   UNL A   1      40.459  23.510  27.507  1.00  0.00     0.009 A 
ATOM     72  C   UNL A   1      42.200  22.398  25.643  1.00  0.00     0.001 A 
ATOM     73  C   UNL A   1      40.289  22.185  27.091  1.00  0.00     0.001 A 
ATOM     74  C   UNL A   1      41.172  21.623  26.173  1.00  0.00     0.000 A 
ENDBRANCH  50  69
BRANCH  62  75
ATOM     75  C   UNL A   1      45.102  29.296  28.242  1.00  0.00    -0.014 A 
ATOM     76  C   UNL A   1      43.983  30.090  27.935  1.00  0.00     0.009 A 
ATOM     77  C   UNL A   1      46.310  29.555  27.576  1.00  0.00     0.009 A 
ATOM     78  C   UNL A   1      44.073  31.110  26.980  1.00  0.00     0.001 A 
ATOM     79  C   UNL A   1      46.404  30.586  26.640  1.00  0.00     0.001 A 
ATOM     80  C   UNL A   1      45.286  31.363  26.342  1.00  0.00     0.000 A 
ENDBRANCH  62  75
ENDBRANCH  36  37
ENDBRANCH  29  31
ENDBRANCH  28  29
ENDBRANCH  27  28
ENDBRANCH   1  27
TORSDOF 14
ENDMDL
