MODEL 1
REMARK VINA RESULT:     -12.0      0.000      0.000
REMARK SMILES COC(=O)C1=C(C)N(c2cccc(OC)c2)C(=O)/C1=C\c1ccc(C(=O)OCCOC(=O)c2ccc(-c3c4nc(c(-c5ccccc5)c5ccc([nH]5)c(-c5ccccc5)c5nc(c(-c6ccccc6)c6ccc3[nH]6)C=C5)C=C4)cc2)cc1
REMARK SMILES IDX 28 1 27 2 25 3 26 4 24 5 21 6 22 7 82 8 23 9 81 10 20 11
REMARK SMILES IDX 5 12 6 13 19 14 7 15 8 16 17 17 18 18 3 19 4 20 2 21 1 22
REMARK SMILES IDX 9 23 10 24 16 25 11 26 13 27 12 28 14 29 15 30 29 31 30 32
REMARK SMILES IDX 31 33 32 34 33 35 34 36 80 37 35 38 79 39 36 40 37 41 38 42
REMARK SMILES IDX 73 43 39 44 78 45 72 46 74 47 40 48 77 49 71 50 70 51 41 53
REMARK SMILES IDX 63 54 48 55 62 56 49 57 52 58 61 59 75 60 50 61 51 62 60 64
REMARK SMILES IDX 76 65 53 66 42 67 43 68 47 69 44 70 46 71 45 72 64 73 65 74
REMARK SMILES IDX 69 75 66 76 68 77 67 78 54 79 55 80 59 81 56 82 58 83 57 84
REMARK H PARENT 74 52 52 63
REMARK Flexibility Score: inf
ROOT
ATOM      1  C   UNL A   1      35.429  20.450  24.929  1.00  0.00     0.275 C 
ENDROOT
BRANCH   1   2
ATOM      2  O   UNL A   1      34.061  20.543  25.381  1.00  0.00    -0.458 OA
BRANCH   2   3
ATOM      3  C   UNL A   1      33.122  20.591  24.404  1.00  0.00     0.338 C 
ATOM      4  O   UNL A   1      32.684  19.641  23.776  1.00  0.00    -0.246 OA
BRANCH   3   5
ATOM      5  C   UNL A   1      32.606  21.969  24.227  1.00  0.00     0.060 A 
ATOM      6  C   UNL A   1      31.417  24.475  23.843  1.00  0.00    -0.025 A 
ATOM      7  C   UNL A   1      31.025  23.683  24.919  1.00  0.00     0.009 A 
ATOM      8  C   UNL A   1      32.428  24.030  22.981  1.00  0.00     0.009 A 
ATOM      9  C   UNL A   1      31.597  22.426  25.085  1.00  0.00     0.016 A 
ATOM     10  C   UNL A   1      33.034  22.784  23.177  1.00  0.00     0.016 A 
BRANCH   6  11
ATOM     11  C   UNL A   1      30.692  25.717  23.581  1.00  0.00     0.023 C 
ATOM     12  C   UNL A   1      30.369  28.188  23.911  1.00  0.00     0.092 C 
ATOM     13  C   UNL A   1      31.025  29.122  24.636  1.00  0.00     0.039 C 
ATOM     14  C   UNL A   1      31.015  26.903  24.124  1.00  0.00     0.057 C 
ATOM     15  C   UNL A   1      30.727  30.588  24.638  1.00  0.00     0.066 C 
ATOM     16  N   UNL A   1      32.102  28.545  25.313  1.00  0.00    -0.280 N 
ATOM     17  C   UNL A   1      32.172  27.158  25.052  1.00  0.00     0.263 C 
ATOM     18  O   UNL A   1      32.961  26.337  25.475  1.00  0.00    -0.268 OA
BRANCH  12  19
ATOM     19  C   UNL A   1      29.220  28.390  23.004  1.00  0.00     0.340 C 
ATOM     20  O   UNL A   1      28.092  27.980  23.233  1.00  0.00    -0.246 OA
BRANCH  19  21
ATOM     21  O   UNL A   1      29.604  29.036  21.875  1.00  0.00    -0.465 OA
ATOM     22  C   UNL A   1      28.803  30.174  21.554  1.00  0.00     0.282 C 
ENDBRANCH  19  21
ENDBRANCH  12  19
BRANCH  16  23
ATOM     23  C   UNL A   1      33.094  29.174  26.114  1.00  0.00     0.053 A 
ATOM     24  C   UNL A   1      34.305  28.546  26.420  1.00  0.00     0.027 A 
ATOM     25  C   UNL A   1      32.847  30.459  26.631  1.00  0.00     0.073 A 
ATOM     26  C   UNL A   1      35.231  29.167  27.260  1.00  0.00     0.006 A 
ATOM     27  C   UNL A   1      33.755  31.073  27.493  1.00  0.00     0.120 A 
ATOM     28  C   UNL A   1      34.948  30.420  27.804  1.00  0.00     0.046 A 
BRANCH  27  29
ATOM     29  O   UNL A   1      33.583  32.287  28.102  1.00  0.00    -0.497 OA
ATOM     30  C   UNL A   1      34.740  32.882  28.677  1.00  0.00     0.278 C 
ENDBRANCH  27  29
ENDBRANCH  16  23
ENDBRANCH   6  11
ENDBRANCH   3   5
ENDBRANCH   2   3
ENDBRANCH   1   2
BRANCH   1  31
ATOM     31  C   UNL A   1      36.357  21.375  25.721  1.00  0.00     0.275 C 
BRANCH  31  32
ATOM     32  O   UNL A   1      37.586  21.618  25.008  1.00  0.00    -0.458 OA
BRANCH  32  33
ATOM     33  C   UNL A   1      38.705  21.325  25.703  1.00  0.00     0.338 C 
ATOM     34  O   UNL A   1      39.357  20.293  25.663  1.00  0.00    -0.246 OA
BRANCH  33  35
ATOM     35  C   UNL A   1      39.152  22.473  26.504  1.00  0.00     0.060 A 
ATOM     36  C   UNL A   1      38.623  23.714  26.181  1.00  0.00     0.016 A 
ATOM     37  C   UNL A   1      40.269  22.390  27.328  1.00  0.00     0.016 A 
ATOM     38  C   UNL A   1      39.316  24.876  26.503  1.00  0.00     0.010 A 
ATOM     39  C   UNL A   1      40.872  23.570  27.790  1.00  0.00     0.010 A 
ATOM     40  C   UNL A   1      40.452  24.830  27.321  1.00  0.00    -0.014 A 
BRANCH  40  41
ATOM     41  C   UNL A   1      41.209  26.083  27.626  1.00  0.00     0.031 A 
ATOM     42  C   UNL A   1      40.638  27.119  28.570  1.00  0.00     0.074 A 
ATOM     43  C   UNL A   1      42.434  26.292  27.095  1.00  0.00     0.049 A 
ATOM     44  N   UNL A   1      41.076  28.324  28.843  1.00  0.00    -0.248 NA
ATOM     45  C   UNL A   1      39.402  26.764  29.288  1.00  0.00     0.031 C 
ATOM     46  C   UNL A   1      43.148  25.371  26.207  1.00  0.00     0.029 A 
ATOM     47  N   UNL A   1      43.308  27.345  27.238  1.00  0.00    -0.354 N 
ATOM     48  C   UNL A   1      40.141  28.888  29.706  1.00  0.00     0.074 A 
ATOM     49  C   UNL A   1      39.102  27.900  29.900  1.00  0.00     0.031 C 
ATOM     50  C   UNL A   1      44.363  25.866  25.935  1.00  0.00     0.029 A 
ATOM     51  C   UNL A   1      44.476  27.190  26.530  1.00  0.00     0.049 A 
ATOM     52  H   UNL A   1      43.114  28.135  27.794  1.00  0.00     0.167 HD
ATOM     53  C   UNL A   1      40.144  30.114  30.286  1.00  0.00     0.031 A 
ATOM     54  C   UNL A   1      45.509  28.031  26.332  1.00  0.00     0.031 A 
ATOM     55  C   UNL A   1      41.200  31.082  30.133  1.00  0.00     0.049 A 
ATOM     56  C   UNL A   1      45.462  29.401  26.942  1.00  0.00     0.074 A 
ATOM     57  C   UNL A   1      41.304  32.341  30.699  1.00  0.00     0.029 A 
ATOM     58  N   UNL A   1      42.341  30.894  29.369  1.00  0.00    -0.354 N 
ATOM     59  N   UNL A   1      44.554  29.928  27.724  1.00  0.00    -0.248 NA
ATOM     60  C   UNL A   1      46.585  30.297  26.631  1.00  0.00     0.031 C 
ATOM     61  C   UNL A   1      42.478  32.939  30.230  1.00  0.00     0.029 A 
ATOM     62  C   UNL A   1      43.140  32.024  29.429  1.00  0.00     0.049 A 
ATOM     63  H   UNL A   1      42.551  30.079  28.859  1.00  0.00     0.167 HD
ATOM     64  C   UNL A   1      45.003  31.209  28.015  1.00  0.00     0.074 A 
ATOM     65  C   UNL A   1      46.280  31.367  27.349  1.00  0.00     0.031 C 
ATOM     66  C   UNL A   1      44.409  32.170  28.762  1.00  0.00     0.031 A 
BRANCH  53  67
ATOM     67  C   UNL A   1      38.945  30.503  31.112  1.00  0.00    -0.014 A 
ATOM     68  C   UNL A   1      37.799  31.074  30.536  1.00  0.00     0.009 A 
ATOM     69  C   UNL A   1      38.948  30.247  32.494  1.00  0.00     0.009 A 
ATOM     70  C   UNL A   1      36.701  31.414  31.331  1.00  0.00     0.001 A 
ATOM     71  C   UNL A   1      37.837  30.557  33.280  1.00  0.00     0.001 A 
ATOM     72  C   UNL A   1      36.718  31.150  32.700  1.00  0.00     0.000 A 
ENDBRANCH  53  67
BRANCH  54  73
ATOM     73  C   UNL A   1      46.648  27.625  25.462  1.00  0.00    -0.014 A 
ATOM     74  C   UNL A   1      47.742  26.926  25.992  1.00  0.00     0.009 A 
ATOM     75  C   UNL A   1      46.654  27.954  24.096  1.00  0.00     0.009 A 
ATOM     76  C   UNL A   1      48.829  26.590  25.180  1.00  0.00     0.001 A 
ATOM     77  C   UNL A   1      47.722  27.581  23.278  1.00  0.00     0.001 A 
ATOM     78  C   UNL A   1      48.814  26.910  23.823  1.00  0.00     0.000 A 
ENDBRANCH  54  73
BRANCH  66  79
ATOM     79  C   UNL A   1      45.161  33.461  28.937  1.00  0.00    -0.014 A 
ATOM     80  C   UNL A   1      44.970  34.544  28.063  1.00  0.00     0.009 A 
ATOM     81  C   UNL A   1      46.066  33.597  30.000  1.00  0.00     0.009 A 
ATOM     82  C   UNL A   1      45.708  35.719  28.226  1.00  0.00     0.001 A 
ATOM     83  C   UNL A   1      46.775  34.784  30.181  1.00  0.00     0.001 A 
ATOM     84  C   UNL A   1      46.605  35.839  29.286  1.00  0.00     0.000 A 
ENDBRANCH  66  79
ENDBRANCH  40  41
ENDBRANCH  33  35
ENDBRANCH  32  33
ENDBRANCH  31  32
ENDBRANCH   1  31
TORSDOF 16
ENDMDL
MODEL 2
REMARK VINA RESULT:     -11.9      0.604      5.699
REMARK SMILES COC(=O)C1=C(C)N(c2cccc(OC)c2)C(=O)/C1=C\c1ccc(C(=O)OCCOC(=O)c2ccc(-c3c4nc(c(-c5ccccc5)c5ccc([nH]5)c(-c5ccccc5)c5nc(c(-c6ccccc6)c6ccc3[nH]6)C=C5)C=C4)cc2)cc1
REMARK SMILES IDX 28 1 27 2 25 3 26 4 24 5 21 6 22 7 82 8 23 9 81 10 20 11
REMARK SMILES IDX 5 12 6 13 19 14 7 15 8 16 17 17 18 18 3 19 4 20 2 21 1 22
REMARK SMILES IDX 9 23 10 24 16 25 11 26 13 27 12 28 14 29 15 30 29 31 30 32
REMARK SMILES IDX 31 33 32 34 33 35 34 36 80 37 35 38 79 39 36 40 37 41 38 42
REMARK SMILES IDX 73 43 39 44 78 45 72 46 74 47 40 48 77 49 71 50 70 51 41 53
REMARK SMILES IDX 63 54 48 55 62 56 49 57 52 58 61 59 75 60 50 61 51 62 60 64
REMARK SMILES IDX 76 65 53 66 42 67 43 68 47 69 44 70 46 71 45 72 64 73 65 74
REMARK SMILES IDX 69 75 66 76 68 77 67 78 54 79 55 80 59 81 56 82 58 83 57 84
REMARK H PARENT 74 52 52 63
REMARK Flexibility Score: inf
ROOT
ATOM      1  C   UNL A   1      36.313  19.598  24.860  1.00  0.00     0.275 C 
ENDROOT
BRANCH   1   2
ATOM      2  O   UNL A   1      35.459  20.699  25.235  1.00  0.00    -0.458 OA
BRANCH   2   3
ATOM      3  C   UNL A   1      34.156  20.576  24.882  1.00  0.00     0.338 C 
ATOM      4  O   UNL A   1      33.525  19.534  24.800  1.00  0.00    -0.246 OA
BRANCH   3   5
ATOM      5  C   UNL A   1      33.531  21.904  24.675  1.00  0.00     0.060 A 
ATOM      6  C   UNL A   1      32.150  24.297  24.216  1.00  0.00    -0.025 A 
ATOM      7  C   UNL A   1      31.745  23.453  25.247  1.00  0.00     0.009 A 
ATOM      8  C   UNL A   1      33.266  23.961  23.438  1.00  0.00     0.009 A 
ATOM      9  C   UNL A   1      32.415  22.251  25.449  1.00  0.00     0.016 A 
ATOM     10  C   UNL A   1      33.966  22.772  23.673  1.00  0.00     0.016 A 
BRANCH   6  11
ATOM     11  C   UNL A   1      31.337  25.471  23.905  1.00  0.00     0.023 C 
ATOM     12  C   UNL A   1      30.821  27.919  24.155  1.00  0.00     0.092 C 
ATOM     13  C   UNL A   1      31.391  28.921  24.862  1.00  0.00     0.039 C 
ATOM     14  C   UNL A   1      31.560  26.693  24.417  1.00  0.00     0.057 C 
ATOM     15  C   UNL A   1      30.983  30.359  24.815  1.00  0.00     0.066 C 
ATOM     16  N   UNL A   1      32.497  28.448  25.573  1.00  0.00    -0.280 N 
ATOM     17  C   UNL A   1      32.677  27.063  25.355  1.00  0.00     0.263 C 
ATOM     18  O   UNL A   1      33.519  26.318  25.814  1.00  0.00    -0.268 OA
BRANCH  12  19
ATOM     19  C   UNL A   1      29.676  28.006  23.225  1.00  0.00     0.340 C 
ATOM     20  O   UNL A   1      28.549  27.621  23.496  1.00  0.00    -0.246 OA
BRANCH  19  21
ATOM     21  O   UNL A   1      30.064  28.514  22.029  1.00  0.00    -0.465 OA
ATOM     22  C   UNL A   1      29.465  29.770  21.708  1.00  0.00     0.282 C 
ENDBRANCH  19  21
ENDBRANCH  12  19
BRANCH  16  23
ATOM     23  C   UNL A   1      33.424  29.174  26.369  1.00  0.00     0.053 A 
ATOM     24  C   UNL A   1      34.639  28.618  26.782  1.00  0.00     0.027 A 
ATOM     25  C   UNL A   1      33.107  30.484  26.771  1.00  0.00     0.073 A 
ATOM     26  C   UNL A   1      35.498  29.337  27.615  1.00  0.00     0.006 A 
ATOM     27  C   UNL A   1      33.947  31.197  27.626  1.00  0.00     0.120 A 
ATOM     28  C   UNL A   1      35.144  30.616  28.044  1.00  0.00     0.046 A 
BRANCH  27  29
ATOM     29  O   UNL A   1      33.702  32.446  28.128  1.00  0.00    -0.497 OA
ATOM     30  C   UNL A   1      34.812  33.334  28.201  1.00  0.00     0.278 C 
ENDBRANCH  27  29
ENDBRANCH  16  23
ENDBRANCH   6  11
ENDBRANCH   3   5
ENDBRANCH   2   3
ENDBRANCH   1   2
BRANCH   1  31
ATOM     31  C   UNL A   1      37.777  20.027  24.732  1.00  0.00     0.275 C 
BRANCH  31  32
ATOM     32  O   UNL A   1      38.076  21.134  25.605  1.00  0.00    -0.458 OA
BRANCH  32  33
ATOM     33  C   UNL A   1      39.317  21.112  26.136  1.00  0.00     0.338 C 
ATOM     34  O   UNL A   1      40.156  20.232  26.027  1.00  0.00    -0.246 OA
BRANCH  33  35
ATOM     35  C   UNL A   1      39.623  22.370  26.832  1.00  0.00     0.060 A 
ATOM     36  C   UNL A   1      38.987  23.515  26.378  1.00  0.00     0.016 A 
ATOM     37  C   UNL A   1      40.714  22.476  27.687  1.00  0.00     0.016 A 
ATOM     38  C   UNL A   1      39.552  24.765  26.602  1.00  0.00     0.010 A 
ATOM     39  C   UNL A   1      41.184  23.749  28.046  1.00  0.00     0.010 A 
ATOM     40  C   UNL A   1      40.659  24.910  27.448  1.00  0.00    -0.014 A 
BRANCH  40  41
ATOM     41  C   UNL A   1      41.280  26.256  27.648  1.00  0.00     0.031 A 
ATOM     42  C   UNL A   1      42.596  26.605  26.986  1.00  0.00     0.074 A 
ATOM     43  C   UNL A   1      40.657  27.197  28.391  1.00  0.00     0.049 A 
ATOM     44  N   UNL A   1      43.357  27.660  27.155  1.00  0.00    -0.248 NA
ATOM     45  C   UNL A   1      43.140  25.634  26.021  1.00  0.00     0.031 C 
ATOM     46  C   UNL A   1      39.361  27.039  29.056  1.00  0.00     0.029 A 
ATOM     47  N   UNL A   1      41.024  28.486  28.701  1.00  0.00    -0.354 N 
ATOM     48  C   UNL A   1      44.489  27.448  26.375  1.00  0.00     0.074 A 
ATOM     49  C   UNL A   1      44.325  26.157  25.743  1.00  0.00     0.031 C 
ATOM     50  C   UNL A   1      39.015  28.195  29.639  1.00  0.00     0.029 A 
ATOM     51  C   UNL A   1      40.111  29.142  29.493  1.00  0.00     0.049 A 
ATOM     52  H   UNL A   1      41.861  28.899  28.386  1.00  0.00     0.167 HD
ATOM     53  C   UNL A   1      45.566  28.251  26.197  1.00  0.00     0.031 A 
ATOM     54  C   UNL A   1      40.160  30.351  30.084  1.00  0.00     0.031 A 
ATOM     55  C   UNL A   1      45.711  29.558  26.786  1.00  0.00     0.049 A 
ATOM     56  C   UNL A   1      41.386  31.198  29.914  1.00  0.00     0.074 A 
ATOM     57  C   UNL A   1      46.756  30.456  26.647  1.00  0.00     0.029 A 
ATOM     58  N   UNL A   1      44.779  30.158  27.618  1.00  0.00    -0.354 N 
ATOM     59  N   UNL A   1      42.460  30.965  29.202  1.00  0.00    -0.248 NA
ATOM     60  C   UNL A   1      41.409  32.475  30.641  1.00  0.00     0.031 C 
ATOM     61  C   UNL A   1      46.483  31.574  27.441  1.00  0.00     0.029 A 
ATOM     62  C   UNL A   1      45.236  31.403  28.018  1.00  0.00     0.049 A 
ATOM     63  H   UNL A   1      43.919  29.759  27.885  1.00  0.00     0.167 HD
ATOM     64  C   UNL A   1      43.278  32.073  29.379  1.00  0.00     0.074 A 
ATOM     65  C   UNL A   1      42.561  32.990  30.241  1.00  0.00     0.031 C 
ATOM     66  C   UNL A   1      44.514  32.308  28.877  1.00  0.00     0.031 A 
BRANCH  53  67
ATOM     67  C   UNL A   1      46.704  27.726  25.359  1.00  0.00    -0.014 A 
ATOM     68  C   UNL A   1      47.675  26.858  25.884  1.00  0.00     0.009 A 
ATOM     69  C   UNL A   1      46.777  28.074  23.999  1.00  0.00     0.009 A 
ATOM     70  C   UNL A   1      48.711  26.382  25.077  1.00  0.00     0.001 A 
ATOM     71  C   UNL A   1      47.794  27.571  23.187  1.00  0.00     0.001 A 
ATOM     72  C   UNL A   1      48.767  26.733  23.728  1.00  0.00     0.000 A 
ENDBRANCH  53  67
BRANCH  54  73
ATOM     73  C   UNL A   1      39.035  30.807  30.949  1.00  0.00    -0.014 A 
ATOM     74  C   UNL A   1      39.038  30.546  32.327  1.00  0.00     0.009 A 
ATOM     75  C   UNL A   1      37.942  31.491  30.393  1.00  0.00     0.009 A 
ATOM     76  C   UNL A   1      37.958  30.936  33.124  1.00  0.00     0.001 A 
ATOM     77  C   UNL A   1      36.883  31.916  31.198  1.00  0.00     0.001 A 
ATOM     78  C   UNL A   1      36.887  31.627  32.561  1.00  0.00     0.000 A 
ENDBRANCH  54  73
BRANCH  66  79
ATOM     79  C   UNL A   1      45.146  33.630  29.210  1.00  0.00    -0.014 A 
ATOM     80  C   UNL A   1      45.974  33.785  30.334  1.00  0.00     0.009 A 
ATOM     81  C   UNL A   1      44.918  34.737  28.378  1.00  0.00     0.009 A 
ATOM     82  C   UNL A   1      46.520  35.033  30.642  1.00  0.00     0.001 A 
ATOM     83  C   UNL A   1      45.493  35.974  28.669  1.00  0.00     0.001 A 
ATOM     84  C   UNL A   1      46.282  36.124  29.807  1.00  0.00     0.000 A 
ENDBRANCH  66  79
ENDBRANCH  40  41
ENDBRANCH  33  35
ENDBRANCH  32  33
ENDBRANCH  31  32
ENDBRANCH   1  31
TORSDOF 16
ENDMDL
MODEL 3
REMARK VINA RESULT:     -11.5      5.150     10.446
REMARK SMILES COC(=O)C1=C(C)N(c2cccc(OC)c2)C(=O)/C1=C\c1ccc(C(=O)OCCOC(=O)c2ccc(-c3c4nc(c(-c5ccccc5)c5ccc([nH]5)c(-c5ccccc5)c5nc(c(-c6ccccc6)c6ccc3[nH]6)C=C5)C=C4)cc2)cc1
REMARK SMILES IDX 28 1 27 2 25 3 26 4 24 5 21 6 22 7 82 8 23 9 81 10 20 11
REMARK SMILES IDX 5 12 6 13 19 14 7 15 8 16 17 17 18 18 3 19 4 20 2 21 1 22
REMARK SMILES IDX 9 23 10 24 16 25 11 26 13 27 12 28 14 29 15 30 29 31 30 32
REMARK SMILES IDX 31 33 32 34 33 35 34 36 80 37 35 38 79 39 36 40 37 41 38 42
REMARK SMILES IDX 73 43 39 44 78 45 72 46 74 47 40 48 77 49 71 50 70 51 41 53
REMARK SMILES IDX 63 54 48 55 62 56 49 57 52 58 61 59 75 60 50 61 51 62 60 64
REMARK SMILES IDX 76 65 53 66 42 67 43 68 47 69 44 70 46 71 45 72 64 73 65 74
REMARK SMILES IDX 69 75 66 76 68 77 67 78 54 79 55 80 59 81 56 82 58 83 57 84
REMARK H PARENT 74 52 52 63
REMARK Flexibility Score: inf
ROOT
ATOM      1  C   UNL A   1      37.056  30.610  28.356  1.00  0.00     0.275 C 
ENDROOT
BRANCH   1   2
ATOM      2  O   UNL A   1      37.711  29.375  27.997  1.00  0.00    -0.458 OA
BRANCH   2   3
ATOM      3  C   UNL A   1      39.012  29.272  28.367  1.00  0.00     0.338 C 
ATOM      4  O   UNL A   1      39.698  30.160  28.847  1.00  0.00    -0.246 OA
BRANCH   3   5
ATOM      5  C   UNL A   1      39.509  27.886  28.195  1.00  0.00     0.060 A 
ATOM      6  C   UNL A   1      40.312  25.255  27.670  1.00  0.00    -0.025 A 
ATOM      7  C   UNL A   1      40.690  26.278  26.804  1.00  0.00     0.009 A 
ATOM      8  C   UNL A   1      39.564  25.553  28.817  1.00  0.00     0.009 A 
ATOM      9  C   UNL A   1      40.260  27.577  27.053  1.00  0.00     0.016 A 
ATOM     10  C   UNL A   1      39.171  26.869  29.089  1.00  0.00     0.016 A 
BRANCH   6  11
ATOM     11  C   UNL A   1      40.624  23.874  27.309  1.00  0.00     0.023 C 
ATOM     12  C   UNL A   1      39.983  21.666  26.292  1.00  0.00     0.092 C 
ATOM     13  C   UNL A   1      38.854  21.206  25.707  1.00  0.00     0.039 C 
ATOM     14  C   UNL A   1      39.758  23.042  26.705  1.00  0.00     0.057 C 
ATOM     15  C   UNL A   1      38.689  19.860  25.075  1.00  0.00     0.066 C 
ATOM     16  N   UNL A   1      37.879  22.206  25.676  1.00  0.00    -0.280 N 
ATOM     17  C   UNL A   1      38.357  23.390  26.280  1.00  0.00     0.263 C 
ATOM     18  O   UNL A   1      37.788  24.451  26.444  1.00  0.00    -0.268 OA
BRANCH  12  19
ATOM     19  C   UNL A   1      41.266  20.954  26.465  1.00  0.00     0.340 C 
ATOM     20  O   UNL A   1      41.492  20.168  27.373  1.00  0.00    -0.246 OA
BRANCH  19  21
ATOM     21  O   UNL A   1      42.161  21.337  25.521  1.00  0.00    -0.465 OA
ATOM     22  C   UNL A   1      43.491  21.508  26.014  1.00  0.00     0.282 C 
ENDBRANCH  19  21
ENDBRANCH  12  19
BRANCH  16  23
ATOM     23  C   UNL A   1      36.587  22.175  25.083  1.00  0.00     0.053 A 
ATOM     24  C   UNL A   1      36.299  22.869  23.903  1.00  0.00     0.027 A 
ATOM     25  C   UNL A   1      35.562  21.442  25.706  1.00  0.00     0.073 A 
ATOM     26  C   UNL A   1      35.004  22.867  23.382  1.00  0.00     0.006 A 
ATOM     27  C   UNL A   1      34.260  21.459  25.206  1.00  0.00     0.120 A 
ATOM     28  C   UNL A   1      33.988  22.175  24.041  1.00  0.00     0.046 A 
BRANCH  27  29
ATOM     29  O   UNL A   1      33.179  20.838  25.770  1.00  0.00    -0.497 OA
ATOM     30  C   UNL A   1      32.927  19.498  25.360  1.00  0.00     0.278 C 
ENDBRANCH  27  29
ENDBRANCH  16  23
ENDBRANCH   6  11
ENDBRANCH   3   5
ENDBRANCH   2   3
ENDBRANCH   1   2
BRANCH   1  31
ATOM     31  C   UNL A   1      36.036  30.411  29.479  1.00  0.00     0.275 C 
BRANCH  31  32
ATOM     32  O   UNL A   1      36.540  29.520  30.493  1.00  0.00    -0.458 OA
BRANCH  32  33
ATOM     33  C   UNL A   1      36.787  30.107  31.684  1.00  0.00     0.338 C 
ATOM     34  O   UNL A   1      36.100  30.936  32.259  1.00  0.00    -0.246 OA
BRANCH  33  35
ATOM     35  C   UNL A   1      37.996  29.555  32.311  1.00  0.00     0.060 A 
ATOM     36  C   UNL A   1      39.010  30.447  32.624  1.00  0.00     0.016 A 
ATOM     37  C   UNL A   1      38.252  28.188  32.309  1.00  0.00     0.016 A 
ATOM     38  C   UNL A   1      40.323  30.005  32.734  1.00  0.00     0.010 A 
ATOM     39  C   UNL A   1      39.550  27.732  32.585  1.00  0.00     0.010 A 
ATOM     40  C   UNL A   1      40.621  28.636  32.724  1.00  0.00    -0.014 A 
BRANCH  40  41
ATOM     41  C   UNL A   1      42.042  28.176  32.804  1.00  0.00     0.031 A 
ATOM     42  C   UNL A   1      42.856  27.962  31.545  1.00  0.00     0.074 A 
ATOM     43  C   UNL A   1      42.635  27.983  34.002  1.00  0.00     0.049 A 
ATOM     44  N   UNL A   1      44.047  27.433  31.407  1.00  0.00    -0.248 NA
ATOM     45  C   UNL A   1      42.245  28.380  30.272  1.00  0.00     0.031 C 
ATOM     46  C   UNL A   1      42.008  28.192  35.309  1.00  0.00     0.029 A 
ATOM     47  N   UNL A   1      43.912  27.580  34.319  1.00  0.00    -0.354 N 
ATOM     48  C   UNL A   1      44.296  27.395  30.038  1.00  0.00     0.074 A 
ATOM     49  C   UNL A   1      43.126  27.940  29.386  1.00  0.00     0.031 C 
ATOM     50  C   UNL A   1      42.909  27.977  36.277  1.00  0.00     0.029 A 
ATOM     51  C   UNL A   1      44.146  27.502  35.671  1.00  0.00     0.049 A 
ATOM     52  H   UNL A   1      44.594  27.367  33.640  1.00  0.00     0.167 HD
ATOM     53  C   UNL A   1      45.395  26.949  29.382  1.00  0.00     0.031 A 
ATOM     54  C   UNL A   1      45.210  27.053  36.361  1.00  0.00     0.031 A 
ATOM     55  C   UNL A   1      46.581  26.450  30.031  1.00  0.00     0.049 A 
ATOM     56  C   UNL A   1      46.394  26.516  35.611  1.00  0.00     0.074 A 
ATOM     57  C   UNL A   1      47.755  25.997  29.451  1.00  0.00     0.029 A 
ATOM     58  N   UNL A   1      46.750  26.349  31.402  1.00  0.00    -0.354 N 
ATOM     59  N   UNL A   1      46.595  26.456  34.318  1.00  0.00    -0.248 NA
ATOM     60  C   UNL A   1      47.495  25.975  36.420  1.00  0.00     0.031 C 
ATOM     61  C   UNL A   1      48.610  25.567  30.470  1.00  0.00     0.029 A 
ATOM     62  C   UNL A   1      47.998  25.818  31.687  1.00  0.00     0.049 A 
ATOM     63  H   UNL A   1      46.082  26.615  32.075  1.00  0.00     0.167 HD
ATOM     64  C   UNL A   1      47.852  25.889  34.158  1.00  0.00     0.074 A 
ATOM     65  C   UNL A   1      48.378  25.652  35.487  1.00  0.00     0.031 C 
ATOM     66  C   UNL A   1      48.510  25.586  33.013  1.00  0.00     0.031 A 
BRANCH  53  67
ATOM     67  C   UNL A   1      45.358  26.939  27.875  1.00  0.00    -0.014 A 
ATOM     68  C   UNL A   1      44.861  25.845  27.151  1.00  0.00     0.009 A 
ATOM     69  C   UNL A   1      45.790  28.075  27.168  1.00  0.00     0.009 A 
ATOM     70  C   UNL A   1      44.832  25.873  25.754  1.00  0.00     0.001 A 
ATOM     71  C   UNL A   1      45.730  28.113  25.774  1.00  0.00     0.001 A 
ATOM     72  C   UNL A   1      45.260  27.008  25.067  1.00  0.00     0.000 A 
ENDBRANCH  53  67
BRANCH  54  73
ATOM     73  C   UNL A   1      45.182  27.029  37.851  1.00  0.00    -0.014 A 
ATOM     74  C   UNL A   1      44.633  25.939  38.541  1.00  0.00     0.009 A 
ATOM     75  C   UNL A   1      45.689  28.111  38.590  1.00  0.00     0.009 A 
ATOM     76  C   UNL A   1      44.567  25.945  39.937  1.00  0.00     0.001 A 
ATOM     77  C   UNL A   1      45.660  28.096  39.986  1.00  0.00     0.001 A 
ATOM     78  C   UNL A   1      45.088  27.019  40.658  1.00  0.00     0.000 A 
ENDBRANCH  54  73
BRANCH  66  79
ATOM     79  C   UNL A   1      49.892  25.011  33.152  1.00  0.00    -0.014 A 
ATOM     80  C   UNL A   1      51.028  25.835  33.208  1.00  0.00     0.009 A 
ATOM     81  C   UNL A   1      50.057  23.620  33.240  1.00  0.00     0.009 A 
ATOM     82  C   UNL A   1      52.303  25.273  33.300  1.00  0.00     0.001 A 
ATOM     83  C   UNL A   1      51.330  23.064  33.368  1.00  0.00     0.001 A 
ATOM     84  C   UNL A   1      52.452  23.890  33.385  1.00  0.00     0.000 A 
ENDBRANCH  66  79
ENDBRANCH  40  41
ENDBRANCH  33  35
ENDBRANCH  32  33
ENDBRANCH  31  32
ENDBRANCH   1  31
TORSDOF 16
ENDMDL
