MODEL 1
REMARK VINA RESULT:     -11.3      0.000      0.000
REMARK SMILES O=C(OCCOC(=O)[C@H](Cc1ccccn1)[C@H]1CCS(=O)(=O)C1)c1ccc(-c2c3nc(c(-c4ccccc4)c4ccc([nH]4)c(-c4ccccc4)c4nc(c(-c5ccccc5)c5ccc2[nH]5)C=C4)C=C3)cc1
REMARK SMILES IDX 4 1 3 2 2 3 1 4 24 5 25 6 71 7 26 8 70 9 27 10 28 11 29 12
REMARK SMILES IDX 64 13 30 14 69 15 63 16 65 17 31 18 68 19 62 20 61 21 32 23
REMARK SMILES IDX 54 24 39 25 53 26 40 27 43 28 52 29 66 30 41 31 42 32 51 34
REMARK SMILES IDX 67 35 44 36 33 37 34 38 38 39 35 40 37 41 36 42 55 43 56 44
REMARK SMILES IDX 60 45 57 46 59 47 58 48 45 49 46 50 50 51 47 52 49 53 48 54
REMARK SMILES IDX 5 55 6 56 7 57 8 58 9 59 10 60 11 61 12 62 16 63 13 64 15 65
REMARK SMILES IDX 14 66 17 67 18 68 23 69 19 70 20 71 21 72 22 73
REMARK H PARENT 65 22 43 33
REMARK Flexibility Score: inf
ROOT
ATOM      1  C   UNL A   1      31.480  32.234  27.075  1.00  0.00     0.275 C 
ENDROOT
BRANCH   1   2
ATOM      2  O   UNL A   1      32.213  33.477  27.066  1.00  0.00    -0.458 OA
BRANCH   2   3
ATOM      3  C   UNL A   1      32.916  34.089  28.048  1.00  0.00     0.338 C 
ATOM      4  O   UNL A   1      32.500  35.162  28.482  1.00  0.00    -0.246 OA
BRANCH   3   5
ATOM      5  C   UNL A   1      34.198  33.560  28.623  1.00  0.00     0.060 A 
ATOM      6  C   UNL A   1      35.483  33.871  28.170  1.00  0.00     0.016 A 
ATOM      7  C   UNL A   1      34.088  32.679  29.717  1.00  0.00     0.016 A 
ATOM      8  C   UNL A   1      36.621  33.388  28.828  1.00  0.00     0.010 A 
ATOM      9  C   UNL A   1      35.221  32.194  30.383  1.00  0.00     0.010 A 
ATOM     10  C   UNL A   1      36.501  32.540  29.932  1.00  0.00    -0.014 A 
BRANCH  10  11
ATOM     11  C   UNL A   1      37.708  31.850  30.447  1.00  0.00     0.031 A 
ATOM     12  C   UNL A   1      38.170  32.193  31.826  1.00  0.00     0.074 A 
ATOM     13  C   UNL A   1      38.326  30.864  29.771  1.00  0.00     0.049 A 
ATOM     14  N   UNL A   1      39.097  31.615  32.539  1.00  0.00    -0.248 NA
ATOM     15  C   UNL A   1      37.458  33.283  32.511  1.00  0.00     0.031 C 
ATOM     16  C   UNL A   1      37.876  30.338  28.495  1.00  0.00     0.029 A 
ATOM     17  N   UNL A   1      39.445  30.120  30.049  1.00  0.00    -0.354 N 
ATOM     18  C   UNL A   1      39.040  32.232  33.776  1.00  0.00     0.074 A 
ATOM     19  C   UNL A   1      38.046  33.279  33.695  1.00  0.00     0.031 C 
ATOM     20  C   UNL A   1      38.742  29.415  28.052  1.00  0.00     0.029 A 
ATOM     21  C   UNL A   1      39.792  29.249  29.041  1.00  0.00     0.049 A 
ATOM     22  H   UNL A   1      39.950  30.200  30.890  1.00  0.00     0.167 HD
ATOM     23  C   UNL A   1      39.731  31.923  34.894  1.00  0.00     0.031 A 
ATOM     24  C   UNL A   1      40.821  28.388  28.928  1.00  0.00     0.031 A 
ATOM     25  C   UNL A   1      40.759  30.924  34.949  1.00  0.00     0.049 A 
ATOM     26  C   UNL A   1      41.708  28.202  30.122  1.00  0.00     0.074 A 
ATOM     27  C   UNL A   1      41.552  30.564  36.023  1.00  0.00     0.029 A 
ATOM     28  N   UNL A   1      41.160  30.144  33.873  1.00  0.00    -0.354 N 
ATOM     29  N   UNL A   1      41.610  28.760  31.303  1.00  0.00    -0.248 NA
ATOM     30  C   UNL A   1      42.802  27.231  29.996  1.00  0.00     0.031 C 
ATOM     31  C   UNL A   1      42.480  29.618  35.577  1.00  0.00     0.029 A 
ATOM     32  C   UNL A   1      42.219  29.334  34.245  1.00  0.00     0.049 A 
ATOM     33  H   UNL A   1      40.750  30.164  32.977  1.00  0.00     0.167 HD
ATOM     34  C   UNL A   1      42.594  28.170  32.080  1.00  0.00     0.074 A 
ATOM     35  C   UNL A   1      43.274  27.210  31.234  1.00  0.00     0.031 C 
ATOM     36  C   UNL A   1      42.891  28.394  33.383  1.00  0.00     0.031 A 
BRANCH  23  37
ATOM     37  C   UNL A   1      39.409  32.733  36.112  1.00  0.00    -0.014 A 
ATOM     38  C   UNL A   1      38.338  32.388  36.954  1.00  0.00     0.009 A 
ATOM     39  C   UNL A   1      40.150  33.891  36.388  1.00  0.00     0.009 A 
ATOM     40  C   UNL A   1      37.988  33.214  38.023  1.00  0.00     0.001 A 
ATOM     41  C   UNL A   1      39.815  34.699  37.474  1.00  0.00     0.001 A 
ATOM     42  C   UNL A   1      38.727  34.367  38.282  1.00  0.00     0.000 A 
ENDBRANCH  23  37
BRANCH  24  43
ATOM     43  C   UNL A   1      41.040  27.618  27.670  1.00  0.00    -0.014 A 
ATOM     44  C   UNL A   1      40.471  26.349  27.480  1.00  0.00     0.009 A 
ATOM     45  C   UNL A   1      41.844  28.151  26.649  1.00  0.00     0.009 A 
ATOM     46  C   UNL A   1      40.731  25.618  26.314  1.00  0.00     0.001 A 
ATOM     47  C   UNL A   1      42.080  27.432  25.474  1.00  0.00     0.001 A 
ATOM     48  C   UNL A   1      41.534  26.160  25.314  1.00  0.00     0.000 A 
ENDBRANCH  24  43
BRANCH  36  49
ATOM     49  C   UNL A   1      43.986  27.558  33.980  1.00  0.00    -0.014 A 
ATOM     50  C   UNL A   1      45.293  28.051  34.111  1.00  0.00     0.009 A 
ATOM     51  C   UNL A   1      43.690  26.269  34.449  1.00  0.00     0.009 A 
ATOM     52  C   UNL A   1      46.292  27.252  34.670  1.00  0.00     0.001 A 
ATOM     53  C   UNL A   1      44.681  25.488  35.040  1.00  0.00     0.001 A 
ATOM     54  C   UNL A   1      45.983  25.976  35.141  1.00  0.00     0.000 A 
ENDBRANCH  36  49
ENDBRANCH  10  11
ENDBRANCH   3   5
ENDBRANCH   2   3
ENDBRANCH   1   2
BRANCH   1  55
ATOM     55  C   UNL A   1      32.331  31.000  26.778  1.00  0.00     0.274 C 
BRANCH  55  56
ATOM     56  O   UNL A   1      31.709  30.164  25.790  1.00  0.00    -0.462 OA
BRANCH  56  57
ATOM     57  C   UNL A   1      32.498  29.295  25.093  1.00  0.00     0.309 C 
ATOM     58  O   UNL A   1      33.643  29.001  25.394  1.00  0.00    -0.252 OA
BRANCH  57  59
ATOM     59  C   UNL A   1      31.763  28.822  23.842  1.00  0.00     0.109 C 
BRANCH  59  60
ATOM     60  C   UNL A   1      30.236  29.036  23.968  1.00  0.00     0.071 C 
BRANCH  60  61
ATOM     61  C   UNL A   1      29.545  30.123  23.182  1.00  0.00     0.041 A 
ATOM     62  C   UNL A   1      29.151  31.346  23.707  1.00  0.00     0.024 A 
ATOM     63  N   UNL A   1      29.213  29.755  21.915  1.00  0.00    -0.261 NA
ATOM     64  C   UNL A   1      28.395  32.209  22.908  1.00  0.00     0.003 A 
ATOM     65  C   UNL A   1      28.461  30.595  21.172  1.00  0.00     0.111 A 
ATOM     66  C   UNL A   1      28.029  31.824  21.623  1.00  0.00     0.020 A 
ENDBRANCH  60  61
ENDBRANCH  59  60
BRANCH  59  67
ATOM     67  C   UNL A   1      32.157  27.354  23.447  1.00  0.00     0.020 C 
ATOM     68  C   UNL A   1      31.000  26.428  23.001  1.00  0.00     0.021 C 
ATOM     69  C   UNL A   1      33.232  27.210  22.363  1.00  0.00     0.141 C 
ATOM     70  C   UNL A   1      31.580  25.121  22.479  1.00  0.00     0.137 C 
ATOM     71  S   UNL A   1      33.148  25.537  21.756  1.00  0.00     0.150 S 
ATOM     72  O   UNL A   1      34.177  24.754  22.400  1.00  0.00    -0.229 OA
ATOM     73  O   UNL A   1      32.993  25.581  20.315  1.00  0.00    -0.229 OA
ENDBRANCH  59  67
ENDBRANCH  57  59
ENDBRANCH  56  57
ENDBRANCH  55  56
ENDBRANCH   1  55
TORSDOF 14
ENDMDL
MODEL 2
REMARK VINA RESULT:     -11.3      5.411     10.360
REMARK SMILES O=C(OCCOC(=O)[C@H](Cc1ccccn1)[C@H]1CCS(=O)(=O)C1)c1ccc(-c2c3nc(c(-c4ccccc4)c4ccc([nH]4)c(-c4ccccc4)c4nc(c(-c5ccccc5)c5ccc2[nH]5)C=C4)C=C3)cc1
REMARK SMILES IDX 4 1 3 2 2 3 1 4 24 5 25 6 71 7 26 8 70 9 27 10 28 11 29 12
REMARK SMILES IDX 64 13 30 14 69 15 63 16 65 17 31 18 68 19 62 20 61 21 32 23
REMARK SMILES IDX 54 24 39 25 53 26 40 27 43 28 52 29 66 30 41 31 42 32 51 34
REMARK SMILES IDX 67 35 44 36 33 37 34 38 38 39 35 40 37 41 36 42 55 43 56 44
REMARK SMILES IDX 60 45 57 46 59 47 58 48 45 49 46 50 50 51 47 52 49 53 48 54
REMARK SMILES IDX 5 55 6 56 7 57 8 58 9 59 10 60 11 61 12 62 16 63 13 64 15 65
REMARK SMILES IDX 14 66 17 67 18 68 23 69 19 70 20 71 21 72 22 73
REMARK H PARENT 65 22 43 33
REMARK Flexibility Score: inf
ROOT
ATOM      1  C   UNL A   1      38.331  19.870  24.864  1.00  0.00     0.275 C 
ENDROOT
BRANCH   1   2
ATOM      2  O   UNL A   1      39.301  19.326  25.785  1.00  0.00    -0.458 OA
BRANCH   2   3
ATOM      3  C   UNL A   1      40.603  19.642  25.976  1.00  0.00     0.338 C 
ATOM      4  O   UNL A   1      41.457  18.813  25.665  1.00  0.00    -0.246 OA
BRANCH   3   5
ATOM      5  C   UNL A   1      41.079  20.932  26.579  1.00  0.00     0.060 A 
ATOM      6  C   UNL A   1      41.021  21.267  27.935  1.00  0.00     0.016 A 
ATOM      7  C   UNL A   1      41.635  21.879  25.696  1.00  0.00     0.016 A 
ATOM      8  C   UNL A   1      41.568  22.465  28.409  1.00  0.00     0.010 A 
ATOM      9  C   UNL A   1      42.186  23.079  26.164  1.00  0.00     0.010 A 
ATOM     10  C   UNL A   1      42.145  23.385  27.529  1.00  0.00    -0.014 A 
BRANCH  10  11
ATOM     11  C   UNL A   1      42.484  24.742  28.022  1.00  0.00     0.031 A 
ATOM     12  C   UNL A   1      43.928  25.066  28.228  1.00  0.00     0.074 A 
ATOM     13  C   UNL A   1      41.562  25.708  28.184  1.00  0.00     0.049 A 
ATOM     14  N   UNL A   1      44.470  26.221  28.501  1.00  0.00    -0.248 NA
ATOM     15  C   UNL A   1      44.887  23.966  28.043  1.00  0.00     0.031 C 
ATOM     16  C   UNL A   1      40.154  25.558  27.866  1.00  0.00     0.029 A 
ATOM     17  N   UNL A   1      41.654  27.000  28.636  1.00  0.00    -0.354 N 
ATOM     18  C   UNL A   1      45.835  25.998  28.463  1.00  0.00     0.074 A 
ATOM     19  C   UNL A   1      46.040  24.588  28.219  1.00  0.00     0.031 C 
ATOM     20  C   UNL A   1      39.489  26.674  28.203  1.00  0.00     0.029 A 
ATOM     21  C   UNL A   1      40.439  27.642  28.721  1.00  0.00     0.049 A 
ATOM     22  H   UNL A   1      42.507  27.427  28.877  1.00  0.00     0.167 HD
ATOM     23  C   UNL A   1      46.830  26.904  28.581  1.00  0.00     0.031 A 
ATOM     24  C   UNL A   1      40.117  28.881  29.140  1.00  0.00     0.031 A 
ATOM     25  C   UNL A   1      46.619  28.290  28.884  1.00  0.00     0.049 A 
ATOM     26  C   UNL A   1      41.240  29.820  29.461  1.00  0.00     0.074 A 
ATOM     27  C   UNL A   1      47.564  29.283  29.069  1.00  0.00     0.029 A 
ATOM     28  N   UNL A   1      45.375  28.876  29.076  1.00  0.00    -0.354 N 
ATOM     29  N   UNL A   1      42.530  29.608  29.373  1.00  0.00    -0.248 NA
ATOM     30  C   UNL A   1      40.874  31.180  29.878  1.00  0.00     0.031 C 
ATOM     31  C   UNL A   1      46.893  30.451  29.445  1.00  0.00     0.029 A 
ATOM     32  C   UNL A   1      45.529  30.207  29.422  1.00  0.00     0.049 A 
ATOM     33  H   UNL A   1      44.511  28.412  28.980  1.00  0.00     0.167 HD
ATOM     34  C   UNL A   1      43.132  30.819  29.670  1.00  0.00     0.074 A 
ATOM     35  C   UNL A   1      42.064  31.762  29.938  1.00  0.00     0.031 C 
ATOM     36  C   UNL A   1      44.452  31.125  29.698  1.00  0.00     0.031 A 
BRANCH  23  37
ATOM     37  C   UNL A   1      48.223  26.373  28.432  1.00  0.00    -0.014 A 
ATOM     38  C   UNL A   1      48.866  26.355  27.182  1.00  0.00     0.009 A 
ATOM     39  C   UNL A   1      48.878  25.831  29.546  1.00  0.00     0.009 A 
ATOM     40  C   UNL A   1      50.120  25.760  27.044  1.00  0.00     0.001 A 
ATOM     41  C   UNL A   1      50.145  25.263  29.409  1.00  0.00     0.001 A 
ATOM     42  C   UNL A   1      50.759  25.216  28.158  1.00  0.00     0.000 A 
ENDBRANCH  23  37
BRANCH  24  43
ATOM     43  C   UNL A   1      38.693  29.311  29.235  1.00  0.00    -0.014 A 
ATOM     44  C   UNL A   1      37.944  29.114  30.405  1.00  0.00     0.009 A 
ATOM     45  C   UNL A   1      38.065  29.914  28.131  1.00  0.00     0.009 A 
ATOM     46  C   UNL A   1      36.593  29.477  30.457  1.00  0.00     0.001 A 
ATOM     47  C   UNL A   1      36.723  30.300  28.194  1.00  0.00     0.001 A 
ATOM     48  C   UNL A   1      35.985  30.069  29.353  1.00  0.00     0.000 A 
ENDBRANCH  24  43
BRANCH  36  49
ATOM     49  C   UNL A   1      44.810  32.550  30.003  1.00  0.00    -0.014 A 
ATOM     50  C   UNL A   1      45.057  32.977  31.316  1.00  0.00     0.009 A 
ATOM     51  C   UNL A   1      44.934  33.469  28.950  1.00  0.00     0.009 A 
ATOM     52  C   UNL A   1      45.389  34.309  31.572  1.00  0.00     0.001 A 
ATOM     53  C   UNL A   1      45.301  34.790  29.204  1.00  0.00     0.001 A 
ATOM     54  C   UNL A   1      45.518  35.211  30.515  1.00  0.00     0.000 A 
ENDBRANCH  36  49
ENDBRANCH  10  11
ENDBRANCH   3   5
ENDBRANCH   2   3
ENDBRANCH   1   2
BRANCH   1  55
ATOM     55  C   UNL A   1      37.677  21.168  25.335  1.00  0.00     0.274 C 
BRANCH  55  56
ATOM     56  O   UNL A   1      36.285  20.973  25.628  1.00  0.00    -0.462 OA
BRANCH  56  57
ATOM     57  C   UNL A   1      35.367  21.587  24.826  1.00  0.00     0.309 C 
ATOM     58  O   UNL A   1      35.635  22.399  23.956  1.00  0.00    -0.252 OA
BRANCH  57  59
ATOM     59  C   UNL A   1      33.958  21.172  25.244  1.00  0.00     0.109 C 
BRANCH  59  60
ATOM     60  C   UNL A   1      33.396  20.068  24.319  1.00  0.00     0.071 C 
BRANCH  60  61
ATOM     61  C   UNL A   1      33.537  18.610  24.688  1.00  0.00     0.041 A 
ATOM     62  C   UNL A   1      34.583  17.793  24.284  1.00  0.00     0.024 A 
ATOM     63  N   UNL A   1      32.464  18.111  25.360  1.00  0.00    -0.261 NA
ATOM     64  C   UNL A   1      34.522  16.427  24.578  1.00  0.00     0.003 A 
ATOM     65  C   UNL A   1      32.417  16.785  25.610  1.00  0.00     0.111 A 
ATOM     66  C   UNL A   1      33.414  15.908  25.240  1.00  0.00     0.020 A 
ENDBRANCH  60  61
ENDBRANCH  59  60
BRANCH  59  67
ATOM     67  C   UNL A   1      33.001  22.407  25.395  1.00  0.00     0.020 C 
ATOM     68  C   UNL A   1      31.728  22.402  24.515  1.00  0.00     0.021 C 
ATOM     69  C   UNL A   1      32.510  22.715  26.815  1.00  0.00     0.141 C 
ATOM     70  C   UNL A   1      30.833  23.563  24.925  1.00  0.00     0.137 C 
ATOM     71  S   UNL A   1      31.104  23.798  26.665  1.00  0.00     0.150 S 
ATOM     72  O   UNL A   1      31.536  25.158  26.887  1.00  0.00    -0.229 OA
ATOM     73  O   UNL A   1      29.993  23.207  27.387  1.00  0.00    -0.229 OA
ENDBRANCH  59  67
ENDBRANCH  57  59
ENDBRANCH  56  57
ENDBRANCH  55  56
ENDBRANCH   1  55
TORSDOF 14
ENDMDL
MODEL 3
REMARK VINA RESULT:     -11.0      1.681      3.142
REMARK SMILES O=C(OCCOC(=O)[C@H](Cc1ccccn1)[C@H]1CCS(=O)(=O)C1)c1ccc(-c2c3nc(c(-c4ccccc4)c4ccc([nH]4)c(-c4ccccc4)c4nc(c(-c5ccccc5)c5ccc2[nH]5)C=C4)C=C3)cc1
REMARK SMILES IDX 4 1 3 2 2 3 1 4 24 5 25 6 71 7 26 8 70 9 27 10 28 11 29 12
REMARK SMILES IDX 64 13 30 14 69 15 63 16 65 17 31 18 68 19 62 20 61 21 32 23
REMARK SMILES IDX 54 24 39 25 53 26 40 27 43 28 52 29 66 30 41 31 42 32 51 34
REMARK SMILES IDX 67 35 44 36 33 37 34 38 38 39 35 40 37 41 36 42 55 43 56 44
REMARK SMILES IDX 60 45 57 46 59 47 58 48 45 49 46 50 50 51 47 52 49 53 48 54
REMARK SMILES IDX 5 55 6 56 7 57 8 58 9 59 10 60 11 61 12 62 16 63 13 64 15 65
REMARK SMILES IDX 14 66 17 67 18 68 23 69 19 70 20 71 21 72 22 73
REMARK H PARENT 65 22 43 33
REMARK Flexibility Score: inf
ROOT
ATOM      1  C   UNL A   1      31.528  32.119  26.878  1.00  0.00     0.275 C 
ENDROOT
BRANCH   1   2
ATOM      2  O   UNL A   1      32.342  33.310  26.940  1.00  0.00    -0.458 OA
BRANCH   2   3
ATOM      3  C   UNL A   1      32.990  33.877  27.985  1.00  0.00     0.338 C 
ATOM      4  O   UNL A   1      32.526  34.908  28.469  1.00  0.00    -0.246 OA
BRANCH   3   5
ATOM      5  C   UNL A   1      34.265  33.349  28.575  1.00  0.00     0.060 A 
ATOM      6  C   UNL A   1      35.556  33.678  28.152  1.00  0.00     0.016 A 
ATOM      7  C   UNL A   1      34.141  32.448  29.651  1.00  0.00     0.016 A 
ATOM      8  C   UNL A   1      36.684  33.194  28.824  1.00  0.00     0.010 A 
ATOM      9  C   UNL A   1      35.266  31.961  30.330  1.00  0.00     0.010 A 
ATOM     10  C   UNL A   1      36.551  32.325  29.910  1.00  0.00    -0.014 A 
BRANCH  10  11
ATOM     11  C   UNL A   1      37.754  31.636  30.437  1.00  0.00     0.031 A 
ATOM     12  C   UNL A   1      38.161  31.925  31.844  1.00  0.00     0.074 A 
ATOM     13  C   UNL A   1      38.415  30.694  29.740  1.00  0.00     0.049 A 
ATOM     14  N   UNL A   1      39.075  31.334  32.564  1.00  0.00    -0.248 NA
ATOM     15  C   UNL A   1      37.403  32.969  32.552  1.00  0.00     0.031 C 
ATOM     16  C   UNL A   1      38.020  30.217  28.427  1.00  0.00     0.029 A 
ATOM     17  N   UNL A   1      39.539  29.960  30.023  1.00  0.00    -0.354 N 
ATOM     18  C   UNL A   1      38.963  31.894  33.824  1.00  0.00     0.074 A 
ATOM     19  C   UNL A   1      37.950  32.923  33.754  1.00  0.00     0.031 C 
ATOM     20  C   UNL A   1      38.920  29.332  27.973  1.00  0.00     0.029 A 
ATOM     21  C   UNL A   1      39.939  29.142  28.990  1.00  0.00     0.049 A 
ATOM     22  H   UNL A   1      40.014  30.012  30.884  1.00  0.00     0.167 HD
ATOM     23  C   UNL A   1      39.621  31.548  34.951  1.00  0.00     0.031 A 
ATOM     24  C   UNL A   1      40.990  28.308  28.875  1.00  0.00     0.031 A 
ATOM     25  C   UNL A   1      40.668  30.567  34.997  1.00  0.00     0.049 A 
ATOM     26  C   UNL A   1      41.838  28.085  30.090  1.00  0.00     0.074 A 
ATOM     27  C   UNL A   1      41.430  30.175  36.082  1.00  0.00     0.029 A 
ATOM     28  N   UNL A   1      41.121  29.844  33.902  1.00  0.00    -0.354 N 
ATOM     29  N   UNL A   1      41.688  28.587  31.291  1.00  0.00    -0.248 NA
ATOM     30  C   UNL A   1      42.956  27.142  29.960  1.00  0.00     0.031 C 
ATOM     31  C   UNL A   1      42.393  29.268  35.627  1.00  0.00     0.029 A 
ATOM     32  C   UNL A   1      42.184  29.039  34.275  1.00  0.00     0.049 A 
ATOM     33  H   UNL A   1      40.742  29.897  32.994  1.00  0.00     0.167 HD
ATOM     34  C   UNL A   1      42.657  27.982  32.076  1.00  0.00     0.074 A 
ATOM     35  C   UNL A   1      43.386  27.074  31.212  1.00  0.00     0.031 C 
ATOM     36  C   UNL A   1      42.905  28.152  33.397  1.00  0.00     0.031 A 
BRANCH  23  37
ATOM     37  C   UNL A   1      39.240  32.295  36.192  1.00  0.00    -0.014 A 
ATOM     38  C   UNL A   1      38.160  31.881  36.989  1.00  0.00     0.009 A 
ATOM     39  C   UNL A   1      39.935  33.463  36.535  1.00  0.00     0.009 A 
ATOM     40  C   UNL A   1      37.754  32.651  38.080  1.00  0.00     0.001 A 
ATOM     41  C   UNL A   1      39.545  34.214  37.644  1.00  0.00     0.001 A 
ATOM     42  C   UNL A   1      38.448  33.815  38.407  1.00  0.00     0.000 A 
ENDBRANCH  23  37
BRANCH  24  43
ATOM     43  C   UNL A   1      41.267  27.599  27.593  1.00  0.00    -0.014 A 
ATOM     44  C   UNL A   1      42.064  28.178  26.593  1.00  0.00     0.009 A 
ATOM     45  C   UNL A   1      40.714  26.330  27.356  1.00  0.00     0.009 A 
ATOM     46  C   UNL A   1      42.269  27.520  25.375  1.00  0.00     0.001 A 
ATOM     47  C   UNL A   1      40.943  25.662  26.151  1.00  0.00     0.001 A 
ATOM     48  C   UNL A   1      41.709  26.264  25.155  1.00  0.00     0.000 A 
ENDBRANCH  24  43
BRANCH  36  49
ATOM     49  C   UNL A   1      43.996  27.312  33.994  1.00  0.00    -0.014 A 
ATOM     50  C   UNL A   1      43.736  26.032  34.506  1.00  0.00     0.009 A 
ATOM     51  C   UNL A   1      45.311  27.801  34.008  1.00  0.00     0.009 A 
ATOM     52  C   UNL A   1      44.769  25.272  35.055  1.00  0.00     0.001 A 
ATOM     53  C   UNL A   1      46.347  27.024  34.524  1.00  0.00     0.001 A 
ATOM     54  C   UNL A   1      46.074  25.765  35.056  1.00  0.00     0.000 A 
ENDBRANCH  36  49
ENDBRANCH  10  11
ENDBRANCH   3   5
ENDBRANCH   2   3
ENDBRANCH   1   2
BRANCH   1  55
ATOM     55  C   UNL A   1      32.322  30.815  26.848  1.00  0.00     0.274 C 
BRANCH  55  56
ATOM     56  O   UNL A   1      31.576  29.766  26.210  1.00  0.00    -0.462 OA
BRANCH  56  57
ATOM     57  C   UNL A   1      31.931  29.404  24.943  1.00  0.00     0.309 C 
ATOM     58  O   UNL A   1      32.996  29.675  24.414  1.00  0.00    -0.252 OA
BRANCH  57  59
ATOM     59  C   UNL A   1      30.762  28.692  24.266  1.00  0.00     0.109 C 
BRANCH  59  60
ATOM     60  C   UNL A   1      31.217  27.377  23.589  1.00  0.00     0.071 C 
BRANCH  60  61
ATOM     61  C   UNL A   1      30.998  26.047  24.269  1.00  0.00     0.041 A 
ATOM     62  C   UNL A   1      30.860  25.876  25.639  1.00  0.00     0.024 A 
ATOM     63  N   UNL A   1      31.075  24.983  23.425  1.00  0.00    -0.261 NA
ATOM     64  C   UNL A   1      30.802  24.577  26.153  1.00  0.00     0.003 A 
ATOM     65  C   UNL A   1      31.042  23.739  23.948  1.00  0.00     0.111 A 
ATOM     66  C   UNL A   1      30.910  23.486  25.297  1.00  0.00     0.020 A 
ENDBRANCH  60  61
ENDBRANCH  59  60
BRANCH  59  67
ATOM     67  C   UNL A   1      29.968  29.647  23.305  1.00  0.00     0.020 C 
ATOM     68  C   UNL A   1      28.802  29.009  22.512  1.00  0.00     0.021 C 
ATOM     69  C   UNL A   1      29.381  30.913  23.941  1.00  0.00     0.141 C 
ATOM     70  C   UNL A   1      28.033  30.106  21.788  1.00  0.00     0.137 C 
ATOM     71  S   UNL A   1      28.155  31.549  22.816  1.00  0.00     0.150 S 
ATOM     72  O   UNL A   1      28.740  32.620  22.044  1.00  0.00    -0.229 OA
ATOM     73  O   UNL A   1      26.908  31.704  23.540  1.00  0.00    -0.229 OA
ENDBRANCH  59  67
ENDBRANCH  57  59
ENDBRANCH  56  57
ENDBRANCH  55  56
ENDBRANCH   1  55
TORSDOF 14
ENDMDL
