MODEL 1
REMARK VINA RESULT:      -9.2      0.000      0.000
REMARK SMILES Cc1ccc2c(=O)c3cccc(CC(=O)OCCOC(=O)c4ccc(-c5c6nc(c(-c7ccccc7)c7ccc([nH]7)c(-c7ccccc7)c7nc(c(-c8ccccc8)c8ccc5[nH]8)C=C7)C=C6)cc4)c3oc2c1C
REMARK SMILES IDX 18 1 17 2 16 3 14 4 15 5 13 6 12 7 1 8 2 9 3 10 73 11 4 12
REMARK SMILES IDX 72 13 74 14 5 15 71 16 6 17 70 18 7 19 8 20 9 21 11 22 10 23
REMARK SMILES IDX 19 24 20 25 21 26 22 27 23 28 69 29 24 30 68 31 25 32 26 33
REMARK SMILES IDX 27 34 62 35 28 36 67 37 61 38 63 39 29 40 66 41 60 42 59 43
REMARK SMILES IDX 30 45 52 46 37 47 51 48 38 49 41 50 50 51 64 52 39 53 40 54
REMARK SMILES IDX 49 56 65 57 42 58 31 59 32 60 36 61 33 62 35 63 34 64 53 65
REMARK SMILES IDX 54 66 58 67 55 68 57 69 56 70 43 71 44 72 48 73 45 74 47 75
REMARK SMILES IDX 46 76
REMARK H PARENT 63 44 41 55
REMARK Flexibility Score: inf
ROOT
ATOM      1  C   UNL A   1      33.311  36.294  30.970  1.00  0.00     0.275 C 
ENDROOT
BRANCH   1   2
ATOM      2  C   UNL A   1      34.022  36.454  32.318  1.00  0.00     0.274 C 
BRANCH   2   3
ATOM      3  O   UNL A   1      35.055  35.465  32.512  1.00  0.00    -0.462 OA
BRANCH   3   4
ATOM      4  C   UNL A   1      35.115  34.902  33.746  1.00  0.00     0.310 C 
ATOM      5  O   UNL A   1      34.563  35.365  34.741  1.00  0.00    -0.252 OA
BRANCH   4   6
ATOM      6  C   UNL A   1      35.826  33.570  33.799  1.00  0.00     0.162 C 
BRANCH   6   7
ATOM      7  C   UNL A   1      37.163  33.497  34.492  1.00  0.00     0.007 A 
ATOM      8  C   UNL A   1      38.558  27.122  31.191  1.00  0.00     0.045 C 
ATOM      9  C   UNL A   1      38.903  28.156  32.233  1.00  0.00    -0.044 A 
ATOM     10  C   UNL A   1      40.132  28.070  32.897  1.00  0.00     0.005 A 
ATOM     11  C   UNL A   1      38.010  29.206  32.556  1.00  0.00    -0.005 A 
ATOM     12  C   UNL A   1      40.491  29.028  33.841  1.00  0.00     0.016 A 
ATOM     13  C   UNL A   1      38.408  30.217  33.456  1.00  0.00     0.141 A 
ATOM     14  C   UNL A   1      36.654  29.232  31.910  1.00  0.00     0.049 C 
ATOM     15  C   UNL A   1      39.636  30.102  34.101  1.00  0.00     0.066 A 
ATOM     16  O   UNL A   1      37.559  31.287  33.656  1.00  0.00    -0.455 OA
ATOM     17  C   UNL A   1      40.030  31.136  35.065  1.00  0.00     0.200 A 
ATOM     18  C   UNL A   1      37.985  32.353  34.421  1.00  0.00     0.142 A 
ATOM     19  O   UNL A   1      41.036  31.021  35.752  1.00  0.00    -0.288 OA
ATOM     20  C   UNL A   1      39.169  32.320  35.156  1.00  0.00     0.066 A 
ATOM     21  C   UNL A   1      39.544  33.394  35.970  1.00  0.00     0.016 A 
ATOM     22  C   UNL A   1      37.561  34.582  35.295  1.00  0.00     0.008 A 
ATOM     23  C   UNL A   1      38.740  34.527  36.036  1.00  0.00     0.001 A 
ENDBRANCH   6   7
ENDBRANCH   4   6
ENDBRANCH   3   4
ENDBRANCH   2   3
ENDBRANCH   1   2
BRANCH   1  24
ATOM     24  O   UNL A   1      32.986  34.913  30.685  1.00  0.00    -0.458 OA
BRANCH  24  25
ATOM     25  C   UNL A   1      33.336  34.519  29.460  1.00  0.00     0.338 C 
ATOM     26  O   UNL A   1      32.741  34.763  28.409  1.00  0.00    -0.246 OA
BRANCH  25  27
ATOM     27  C   UNL A   1      34.594  33.768  29.452  1.00  0.00     0.060 A 
ATOM     28  C   UNL A   1      35.672  34.219  28.681  1.00  0.00     0.016 A 
ATOM     29  C   UNL A   1      34.792  32.772  30.421  1.00  0.00     0.016 A 
ATOM     30  C   UNL A   1      36.942  33.682  28.892  1.00  0.00     0.010 A 
ATOM     31  C   UNL A   1      36.067  32.281  30.666  1.00  0.00     0.010 A 
ATOM     32  C   UNL A   1      37.152  32.723  29.898  1.00  0.00    -0.014 A 
BRANCH  32  33
ATOM     33  C   UNL A   1      38.486  32.114  30.100  1.00  0.00     0.031 A 
ATOM     34  C   UNL A   1      39.477  32.820  30.974  1.00  0.00     0.074 A 
ATOM     35  C   UNL A   1      38.822  30.958  29.499  1.00  0.00     0.049 A 
ATOM     36  N   UNL A   1      40.631  32.393  31.418  1.00  0.00    -0.248 NA
ATOM     37  C   UNL A   1      39.128  34.184  31.405  1.00  0.00     0.031 C 
ATOM     38  C   UNL A   1      37.977  30.208  28.572  1.00  0.00     0.029 A 
ATOM     39  N   UNL A   1      39.973  30.213  29.577  1.00  0.00    -0.354 N 
ATOM     40  C   UNL A   1      41.118  33.414  32.218  1.00  0.00     0.074 A 
ATOM     41  C   UNL A   1      40.184  34.514  32.133  1.00  0.00     0.031 C 
ATOM     42  C   UNL A   1      38.633  29.105  28.172  1.00  0.00     0.029 A 
ATOM     43  C   UNL A   1      39.936  29.061  28.830  1.00  0.00     0.049 A 
ATOM     44  H   UNL A   1      40.751  30.479  30.118  1.00  0.00     0.167 HD
ATOM     45  C   UNL A   1      42.226  33.421  32.994  1.00  0.00     0.031 A 
ATOM     46  C   UNL A   1      40.837  28.067  28.716  1.00  0.00     0.031 A 
ATOM     47  C   UNL A   1      43.177  32.349  33.046  1.00  0.00     0.049 A 
ATOM     48  C   UNL A   1      42.095  28.118  29.539  1.00  0.00     0.074 A 
ATOM     49  C   UNL A   1      44.312  32.239  33.829  1.00  0.00     0.029 A 
ATOM     50  N   UNL A   1      43.112  31.208  32.263  1.00  0.00    -0.354 N 
ATOM     51  N   UNL A   1      42.477  29.026  30.404  1.00  0.00    -0.248 NA
ATOM     52  C   UNL A   1      43.031  26.992  29.395  1.00  0.00     0.031 C 
ATOM     53  C   UNL A   1      44.957  31.046  33.487  1.00  0.00     0.029 A 
ATOM     54  C   UNL A   1      44.202  30.398  32.522  1.00  0.00     0.049 A 
ATOM     55  H   UNL A   1      42.396  31.004  31.619  1.00  0.00     0.167 HD
ATOM     56  C   UNL A   1      43.676  28.567  30.932  1.00  0.00     0.074 A 
ATOM     57  C   UNL A   1      43.962  27.300  30.290  1.00  0.00     0.031 C 
ATOM     58  C   UNL A   1      44.463  29.139  31.875  1.00  0.00     0.031 A 
BRANCH  45  59
ATOM     59  C   UNL A   1      42.433  34.624  33.861  1.00  0.00    -0.014 A 
ATOM     60  C   UNL A   1      42.791  35.855  33.296  1.00  0.00     0.009 A 
ATOM     61  C   UNL A   1      42.267  34.529  35.253  1.00  0.00     0.009 A 
ATOM     62  C   UNL A   1      42.967  36.976  34.111  1.00  0.00     0.001 A 
ATOM     63  C   UNL A   1      42.425  35.654  36.061  1.00  0.00     0.001 A 
ATOM     64  C   UNL A   1      42.776  36.876  35.490  1.00  0.00     0.000 A 
ENDBRANCH  45  59
BRANCH  46  65
ATOM     65  C   UNL A   1      40.550  26.901  27.844  1.00  0.00    -0.014 A 
ATOM     66  C   UNL A   1      39.785  25.823  28.316  1.00  0.00     0.009 A 
ATOM     67  C   UNL A   1      41.049  26.857  26.533  1.00  0.00     0.009 A 
ATOM     68  C   UNL A   1      39.525  24.725  27.491  1.00  0.00     0.001 A 
ATOM     69  C   UNL A   1      40.774  25.765  25.706  1.00  0.00     0.001 A 
ATOM     70  C   UNL A   1      40.016  24.699  26.186  1.00  0.00     0.000 A 
ENDBRANCH  46  65
BRANCH  58  71
ATOM     71  C   UNL A   1      45.701  28.403  32.293  1.00  0.00    -0.014 A 
ATOM     72  C   UNL A   1      45.649  27.523  33.385  1.00  0.00     0.009 A 
ATOM     73  C   UNL A   1      46.934  28.660  31.677  1.00  0.00     0.009 A 
ATOM     74  C   UNL A   1      46.813  26.925  33.865  1.00  0.00     0.001 A 
ATOM     75  C   UNL A   1      48.095  28.044  32.147  1.00  0.00     0.001 A 
ATOM     76  C   UNL A   1      48.036  27.184  33.245  1.00  0.00     0.000 A 
ENDBRANCH  58  71
ENDBRANCH  32  33
ENDBRANCH  25  27
ENDBRANCH  24  25
ENDBRANCH   1  24
TORSDOF 12
ENDMDL
MODEL 2
REMARK VINA RESULT:      -8.6      5.731     11.024
REMARK SMILES Cc1ccc2c(=O)c3cccc(CC(=O)OCCOC(=O)c4ccc(-c5c6nc(c(-c7ccccc7)c7ccc([nH]7)c(-c7ccccc7)c7nc(c(-c8ccccc8)c8ccc5[nH]8)C=C7)C=C6)cc4)c3oc2c1C
REMARK SMILES IDX 18 1 17 2 16 3 14 4 15 5 13 6 12 7 1 8 2 9 3 10 73 11 4 12
REMARK SMILES IDX 72 13 74 14 5 15 71 16 6 17 70 18 7 19 8 20 9 21 11 22 10 23
REMARK SMILES IDX 19 24 20 25 21 26 22 27 23 28 69 29 24 30 68 31 25 32 26 33
REMARK SMILES IDX 27 34 62 35 28 36 67 37 61 38 63 39 29 40 66 41 60 42 59 43
REMARK SMILES IDX 30 45 52 46 37 47 51 48 38 49 41 50 50 51 64 52 39 53 40 54
REMARK SMILES IDX 49 56 65 57 42 58 31 59 32 60 36 61 33 62 35 63 34 64 53 65
REMARK SMILES IDX 54 66 58 67 55 68 57 69 56 70 43 71 44 72 48 73 45 74 47 75
REMARK SMILES IDX 46 76
REMARK H PARENT 63 44 41 55
REMARK Flexibility Score: inf
ROOT
ATOM      1  C   UNL A   1      38.819  20.024  25.060  1.00  0.00     0.275 C 
ENDROOT
BRANCH   1   2
ATOM      2  C   UNL A   1      38.145  21.393  25.213  1.00  0.00     0.274 C 
BRANCH   2   3
ATOM      3  O   UNL A   1      36.995  21.535  24.353  1.00  0.00    -0.462 OA
BRANCH   3   4
ATOM      4  C   UNL A   1      36.632  22.807  24.053  1.00  0.00     0.310 C 
ATOM      5  O   UNL A   1      36.575  23.256  22.911  1.00  0.00    -0.252 OA
BRANCH   4   6
ATOM      6  C   UNL A   1      36.175  23.629  25.236  1.00  0.00     0.162 C 
BRANCH   6   7
ATOM      7  C   UNL A   1      34.931  23.200  25.970  1.00  0.00     0.007 A 
ATOM      8  C   UNL A   1      31.053  28.293  22.433  1.00  0.00     0.045 C 
ATOM      9  C   UNL A   1      31.165  27.267  23.533  1.00  0.00    -0.044 A 
ATOM     10  C   UNL A   1      30.014  26.891  24.233  1.00  0.00     0.005 A 
ATOM     11  C   UNL A   1      32.409  26.681  23.872  1.00  0.00    -0.005 A 
ATOM     12  C   UNL A   1      30.081  25.923  25.231  1.00  0.00     0.016 A 
ATOM     13  C   UNL A   1      32.461  25.646  24.830  1.00  0.00     0.141 A 
ATOM     14  C   UNL A   1      33.653  27.163  23.182  1.00  0.00     0.049 C 
ATOM     15  C   UNL A   1      31.298  25.297  25.511  1.00  0.00     0.066 A 
ATOM     16  O   UNL A   1      33.671  25.018  25.049  1.00  0.00    -0.455 OA
ATOM     17  C   UNL A   1      31.365  24.246  26.533  1.00  0.00     0.200 A 
ATOM     18  C   UNL A   1      33.717  23.914  25.876  1.00  0.00     0.142 A 
ATOM     19  O   UNL A   1      30.406  23.987  27.248  1.00  0.00    -0.288 OA
ATOM     20  C   UNL A   1      32.629  23.511  26.649  1.00  0.00     0.066 A 
ATOM     21  C   UNL A   1      32.727  22.424  27.522  1.00  0.00     0.016 A 
ATOM     22  C   UNL A   1      35.011  22.093  26.835  1.00  0.00     0.008 A 
ATOM     23  C   UNL A   1      33.919  21.713  27.613  1.00  0.00     0.001 A 
ENDBRANCH   6   7
ENDBRANCH   4   6
ENDBRANCH   3   4
ENDBRANCH   2   3
ENDBRANCH   1   2
BRANCH   1  24
ATOM     24  O   UNL A   1      39.571  19.652  26.238  1.00  0.00    -0.458 OA
BRANCH  24  25
ATOM     25  C   UNL A   1      40.894  19.710  26.073  1.00  0.00     0.338 C 
ATOM     26  O   UNL A   1      41.603  18.879  25.503  1.00  0.00    -0.246 OA
BRANCH  25  27
ATOM     27  C   UNL A   1      41.471  20.944  26.612  1.00  0.00     0.060 A 
ATOM     28  C   UNL A   1      41.951  21.930  25.741  1.00  0.00     0.016 A 
ATOM     29  C   UNL A   1      41.285  21.240  27.971  1.00  0.00     0.016 A 
ATOM     30  C   UNL A   1      42.228  23.206  26.231  1.00  0.00     0.010 A 
ATOM     31  C   UNL A   1      41.509  22.526  28.443  1.00  0.00     0.010 A 
ATOM     32  C   UNL A   1      41.992  23.518  27.580  1.00  0.00    -0.014 A 
BRANCH  32  33
ATOM     33  C   UNL A   1      42.325  24.856  28.120  1.00  0.00     0.031 A 
ATOM     34  C   UNL A   1      43.756  25.174  28.429  1.00  0.00     0.074 A 
ATOM     35  C   UNL A   1      41.366  25.771  28.352  1.00  0.00     0.049 A 
ATOM     36  N   UNL A   1      44.290  26.324  28.750  1.00  0.00    -0.248 NA
ATOM     37  C   UNL A   1      44.712  24.055  28.373  1.00  0.00     0.031 C 
ATOM     38  C   UNL A   1      39.933  25.564  28.160  1.00  0.00     0.029 A 
ATOM     39  N   UNL A   1      41.457  27.063  28.807  1.00  0.00    -0.354 N 
ATOM     40  C   UNL A   1      45.647  26.075  28.883  1.00  0.00     0.074 A 
ATOM     41  C   UNL A   1      45.847  24.656  28.696  1.00  0.00     0.031 C 
ATOM     42  C   UNL A   1      39.277  26.691  28.486  1.00  0.00     0.029 A 
ATOM     43  C   UNL A   1      40.246  27.705  28.891  1.00  0.00     0.049 A 
ATOM     44  H   UNL A   1      42.311  27.490  29.049  1.00  0.00     0.167 HD
ATOM     45  C   UNL A   1      46.648  26.958  29.098  1.00  0.00     0.031 A 
ATOM     46  C   UNL A   1      39.956  28.977  29.226  1.00  0.00     0.031 A 
ATOM     47  C   UNL A   1      46.449  28.359  29.327  1.00  0.00     0.049 A 
ATOM     48  C   UNL A   1      41.078  29.933  29.523  1.00  0.00     0.074 A 
ATOM     49  C   UNL A   1      47.398  29.347  29.517  1.00  0.00     0.029 A 
ATOM     50  N   UNL A   1      45.207  28.966  29.421  1.00  0.00    -0.354 N 
ATOM     51  N   UNL A   1      42.370  29.718  29.505  1.00  0.00    -0.248 NA
ATOM     52  C   UNL A   1      40.703  31.316  29.856  1.00  0.00     0.031 C 
ATOM     53  C   UNL A   1      46.726  30.548  29.766  1.00  0.00     0.029 A 
ATOM     54  C   UNL A   1      45.362  30.313  29.694  1.00  0.00     0.049 A 
ATOM     55  H   UNL A   1      44.343  28.508  29.310  1.00  0.00     0.167 HD
ATOM     56  C   UNL A   1      42.964  30.940  29.788  1.00  0.00     0.074 A 
ATOM     57  C   UNL A   1      41.890  31.895  29.977  1.00  0.00     0.031 C 
ATOM     58  C   UNL A   1      44.281  31.246  29.872  1.00  0.00     0.031 A 
BRANCH  45  59
ATOM     59  C   UNL A   1      48.044  26.415  29.063  1.00  0.00    -0.014 A 
ATOM     60  C   UNL A   1      48.756  26.361  27.858  1.00  0.00     0.009 A 
ATOM     61  C   UNL A   1      48.654  25.957  30.243  1.00  0.00     0.009 A 
ATOM     62  C   UNL A   1      50.063  25.868  27.837  1.00  0.00     0.001 A 
ATOM     63  C   UNL A   1      49.965  25.483  30.222  1.00  0.00     0.001 A 
ATOM     64  C   UNL A   1      50.668  25.438  29.019  1.00  0.00     0.000 A 
ENDBRANCH  45  59
BRANCH  46  65
ATOM     65  C   UNL A   1      38.545  29.441  29.224  1.00  0.00    -0.014 A 
ATOM     66  C   UNL A   1      37.979  30.011  28.074  1.00  0.00     0.009 A 
ATOM     67  C   UNL A   1      37.759  29.322  30.380  1.00  0.00     0.009 A 
ATOM     68  C   UNL A   1      36.653  30.454  28.082  1.00  0.00     0.001 A 
ATOM     69  C   UNL A   1      36.430  29.750  30.380  1.00  0.00     0.001 A 
ATOM     70  C   UNL A   1      35.879  30.318  29.233  1.00  0.00     0.000 A 
ENDBRANCH  46  65
BRANCH  58  71
ATOM     71  C   UNL A   1      44.651  32.671  30.160  1.00  0.00    -0.014 A 
ATOM     72  C   UNL A   1      44.867  33.076  31.486  1.00  0.00     0.009 A 
ATOM     73  C   UNL A   1      44.680  33.628  29.136  1.00  0.00     0.009 A 
ATOM     74  C   UNL A   1      45.090  34.420  31.786  1.00  0.00     0.001 A 
ATOM     75  C   UNL A   1      44.923  34.969  29.437  1.00  0.00     0.001 A 
ATOM     76  C   UNL A   1      45.119  35.365  30.760  1.00  0.00     0.000 A 
ENDBRANCH  58  71
ENDBRANCH  32  33
ENDBRANCH  25  27
ENDBRANCH  24  25
ENDBRANCH   1  24
TORSDOF 12
ENDMDL
MODEL 3
REMARK VINA RESULT:      -8.6      4.541      7.546
REMARK SMILES Cc1ccc2c(=O)c3cccc(CC(=O)OCCOC(=O)c4ccc(-c5c6nc(c(-c7ccccc7)c7ccc([nH]7)c(-c7ccccc7)c7nc(c(-c8ccccc8)c8ccc5[nH]8)C=C7)C=C6)cc4)c3oc2c1C
REMARK SMILES IDX 18 1 17 2 16 3 14 4 15 5 13 6 12 7 1 8 2 9 3 10 73 11 4 12
REMARK SMILES IDX 72 13 74 14 5 15 71 16 6 17 70 18 7 19 8 20 9 21 11 22 10 23
REMARK SMILES IDX 19 24 20 25 21 26 22 27 23 28 69 29 24 30 68 31 25 32 26 33
REMARK SMILES IDX 27 34 62 35 28 36 67 37 61 38 63 39 29 40 66 41 60 42 59 43
REMARK SMILES IDX 30 45 52 46 37 47 51 48 38 49 41 50 50 51 64 52 39 53 40 54
REMARK SMILES IDX 49 56 65 57 42 58 31 59 32 60 36 61 33 62 35 63 34 64 53 65
REMARK SMILES IDX 54 66 58 67 55 68 57 69 56 70 43 71 44 72 48 73 45 74 47 75
REMARK SMILES IDX 46 76
REMARK H PARENT 63 44 41 55
REMARK Flexibility Score: inf
ROOT
ATOM      1  C   UNL A   1      32.320  30.498  26.678  1.00  0.00     0.275 C 
ENDROOT
BRANCH   1   2
ATOM      2  C   UNL A   1      32.318  29.696  25.371  1.00  0.00     0.274 C 
BRANCH   2   3
ATOM      3  O   UNL A   1      33.622  29.166  25.054  1.00  0.00    -0.462 OA
BRANCH   3   4
ATOM      4  C   UNL A   1      33.666  27.846  24.740  1.00  0.00     0.310 C 
ATOM      5  O   UNL A   1      33.810  27.414  23.599  1.00  0.00    -0.252 OA
BRANCH   4   6
ATOM      6  C   UNL A   1      33.644  26.913  25.929  1.00  0.00     0.162 C 
BRANCH   6   7
ATOM      7  C   UNL A   1      32.643  25.785  25.937  1.00  0.00     0.007 A 
ATOM      8  C   UNL A   1      38.056  20.939  25.107  1.00  0.00     0.045 C 
ATOM      9  C   UNL A   1      36.584  21.263  25.114  1.00  0.00    -0.044 A 
ATOM     10  C   UNL A   1      35.656  20.215  25.092  1.00  0.00     0.005 A 
ATOM     11  C   UNL A   1      36.122  22.601  25.139  1.00  0.00    -0.005 A 
ATOM     12  C   UNL A   1      34.291  20.483  25.130  1.00  0.00     0.016 A 
ATOM     13  C   UNL A   1      34.741  22.867  25.255  1.00  0.00     0.141 A 
ATOM     14  C   UNL A   1      37.124  23.718  25.063  1.00  0.00     0.049 C 
ATOM     15  C   UNL A   1      33.844  21.803  25.228  1.00  0.00     0.066 A 
ATOM     16  O   UNL A   1      34.337  24.180  25.396  1.00  0.00    -0.455 OA
ATOM     17  C   UNL A   1      32.406  22.087  25.311  1.00  0.00     0.200 A 
ATOM     18  C   UNL A   1      33.009  24.453  25.651  1.00  0.00     0.142 A 
ATOM     19  O   UNL A   1      31.570  21.205  25.165  1.00  0.00    -0.288 OA
ATOM     20  C   UNL A   1      32.019  23.474  25.591  1.00  0.00     0.066 A 
ATOM     21  C   UNL A   1      30.673  23.794  25.795  1.00  0.00     0.016 A 
ATOM     22  C   UNL A   1      31.289  26.093  26.164  1.00  0.00     0.008 A 
ATOM     23  C   UNL A   1      30.309  25.105  26.084  1.00  0.00     0.001 A 
ENDBRANCH   6   7
ENDBRANCH   4   6
ENDBRANCH   3   4
ENDBRANCH   2   3
ENDBRANCH   1   2
BRANCH   1  24
ATOM     24  O   UNL A   1      33.273  29.979  27.635  1.00  0.00    -0.458 OA
BRANCH  24  25
ATOM     25  C   UNL A   1      34.267  30.824  27.916  1.00  0.00     0.338 C 
ATOM     26  O   UNL A   1      34.185  32.048  28.025  1.00  0.00    -0.246 OA
BRANCH  25  27
ATOM     27  C   UNL A   1      35.538  30.134  28.150  1.00  0.00     0.060 A 
ATOM     28  C   UNL A   1      36.539  30.163  27.171  1.00  0.00     0.016 A 
ATOM     29  C   UNL A   1      35.839  29.694  29.448  1.00  0.00     0.016 A 
ATOM     30  C   UNL A   1      37.835  29.764  27.500  1.00  0.00     0.010 A 
ATOM     31  C   UNL A   1      37.142  29.352  29.785  1.00  0.00     0.010 A 
ATOM     32  C   UNL A   1      38.149  29.374  28.812  1.00  0.00    -0.014 A 
BRANCH  32  33
ATOM     33  C   UNL A   1      39.510  28.906  29.160  1.00  0.00     0.031 A 
ATOM     34  C   UNL A   1      40.391  29.796  29.984  1.00  0.00     0.074 A 
ATOM     35  C   UNL A   1      39.967  27.715  28.733  1.00  0.00     0.049 A 
ATOM     36  N   UNL A   1      41.543  29.524  30.538  1.00  0.00    -0.248 NA
ATOM     37  C   UNL A   1      39.916  31.170  30.214  1.00  0.00     0.031 C 
ATOM     38  C   UNL A   1      39.239  26.787  27.871  1.00  0.00     0.029 A 
ATOM     39  N   UNL A   1      41.163  27.082  28.967  1.00  0.00    -0.354 N 
ATOM     40  C   UNL A   1      41.904  30.674  31.222  1.00  0.00     0.074 A 
ATOM     41  C   UNL A   1      40.897  31.674  30.945  1.00  0.00     0.031 C 
ATOM     42  C   UNL A   1      39.998  25.699  27.653  1.00  0.00     0.029 A 
ATOM     43  C   UNL A   1      41.258  25.845  28.376  1.00  0.00     0.049 A 
ATOM     44  H   UNL A   1      41.885  27.477  29.508  1.00  0.00     0.167 HD
ATOM     45  C   UNL A   1      42.958  30.869  32.045  1.00  0.00     0.031 A 
ATOM     46  C   UNL A   1      42.236  24.922  28.440  1.00  0.00     0.031 A 
ATOM     47  C   UNL A   1      43.981  29.894  32.286  1.00  0.00     0.049 A 
ATOM     48  C   UNL A   1      43.434  25.179  29.312  1.00  0.00     0.074 A 
ATOM     49  C   UNL A   1      45.072  29.977  33.132  1.00  0.00     0.029 A 
ATOM     50  N   UNL A   1      44.049  28.662  31.656  1.00  0.00    -0.354 N 
ATOM     51  N   UNL A   1      43.693  26.217  30.069  1.00  0.00    -0.248 NA
ATOM     52  C   UNL A   1      44.458  24.125  29.365  1.00  0.00     0.031 C 
ATOM     53  C   UNL A   1      45.823  28.807  32.984  1.00  0.00     0.029 A 
ATOM     54  C   UNL A   1      45.179  27.983  32.074  1.00  0.00     0.049 A 
ATOM     55  H   UNL A   1      43.391  28.320  31.008  1.00  0.00     0.167 HD
ATOM     56  C   UNL A   1      44.889  25.928  30.713  1.00  0.00     0.074 A 
ATOM     57  C   UNL A   1      45.307  24.618  30.257  1.00  0.00     0.031 C 
ATOM     58  C   UNL A   1      45.573  26.678  31.612  1.00  0.00     0.031 A 
BRANCH  45  59
ATOM     59  C   UNL A   1      43.022  32.186  32.757  1.00  0.00    -0.014 A 
ATOM     60  C   UNL A   1      43.710  33.267  32.191  1.00  0.00     0.009 A 
ATOM     61  C   UNL A   1      42.389  32.348  34.000  1.00  0.00     0.009 A 
ATOM     62  C   UNL A   1      43.752  34.496  32.855  1.00  0.00     0.001 A 
ATOM     63  C   UNL A   1      42.416  33.581  34.650  1.00  0.00     0.001 A 
ATOM     64  C   UNL A   1      43.098  34.653  34.078  1.00  0.00     0.000 A 
ENDBRANCH  45  59
BRANCH  46  65
ATOM     65  C   UNL A   1      42.090  23.635  27.714  1.00  0.00    -0.014 A 
ATOM     66  C   UNL A   1      42.570  23.492  26.403  1.00  0.00     0.009 A 
ATOM     67  C   UNL A   1      41.459  22.543  28.329  1.00  0.00     0.009 A 
ATOM     68  C   UNL A   1      42.421  22.280  25.723  1.00  0.00     0.001 A 
ATOM     69  C   UNL A   1      41.326  21.329  27.653  1.00  0.00     0.001 A 
ATOM     70  C   UNL A   1      41.804  21.198  26.350  1.00  0.00     0.000 A 
ENDBRANCH  46  65
BRANCH  58  71
ATOM     71  C   UNL A   1      46.834  26.104  32.185  1.00  0.00    -0.014 A 
ATOM     72  C   UNL A   1      48.046  26.269  31.498  1.00  0.00     0.009 A 
ATOM     73  C   UNL A   1      46.803  25.313  33.342  1.00  0.00     0.009 A 
ATOM     74  C   UNL A   1      49.205  25.639  31.949  1.00  0.00     0.001 A 
ATOM     75  C   UNL A   1      47.970  24.699  33.803  1.00  0.00     0.001 A 
ATOM     76  C   UNL A   1      49.166  24.856  33.103  1.00  0.00     0.000 A 
ENDBRANCH  58  71
ENDBRANCH  32  33
ENDBRANCH  25  27
ENDBRANCH  24  25
ENDBRANCH   1  24
TORSDOF 12
ENDMDL
