MODEL 1
REMARK VINA RESULT:     -12.8      0.000      0.000
REMARK SMILES Cc1ccc(S(=O)(=O)n2cc(C(=O)C(=O)N[C@@H](Cc3c[nH]c4ccccc34)C(=O)NCC(=O)OCCOC(=O)c3ccc(-c4c5nc(c(-c6ccccc6)c6ccc([nH]6)c(-c6ccccc6)c6nc(c(-c7ccccc7)c7ccc4[nH]7)C=C6)C=C5)cc3)c3ccccc32)cc1
REMARK SMILES IDX 32 1 33 2 31 3 30 4 28 5 29 6 17 8 16 9 14 10 15 11 12 13
REMARK SMILES IDX 13 14 11 15 9 16 10 17 93 18 88 19 92 20 89 21 91 22 90 23
REMARK SMILES IDX 6 24 7 25 8 26 5 27 1 28 2 29 3 30 95 31 4 32 94 33 18 34
REMARK SMILES IDX 19 35 20 36 27 37 21 38 22 39 26 40 23 42 25 43 24 44 34 45
REMARK SMILES IDX 35 46 36 47 37 48 38 49 39 50 40 51 41 52 87 53 42 54 86 55
REMARK SMILES IDX 43 56 44 57 45 58 80 59 46 60 85 61 79 62 81 63 47 64 84 65
REMARK SMILES IDX 78 66 77 67 48 69 70 70 55 71 69 72 56 73 59 74 68 75 82 76
REMARK SMILES IDX 57 77 58 78 67 80 83 81 60 82 49 83 50 84 54 85 51 86 53 87
REMARK SMILES IDX 52 88 71 89 72 90 76 91 73 92 75 93 74 94 61 95 62 96 66 97
REMARK SMILES IDX 63 98 65 99 64 100
REMARK H PARENT 30 7 16 12 21 41 81 68 59 79
REMARK Flexibility Score: inf
ROOT
ATOM      1  C   UNL A   1      32.272  28.784  26.984  1.00  0.00     0.325 C 
ATOM      2  O   UNL A   1      31.198  28.221  26.840  1.00  0.00    -0.250 OA
ENDROOT
BRANCH   1   3
ATOM      3  C   UNL A   1      33.631  28.207  26.535  1.00  0.00     0.238 C 
BRANCH   3   4
ATOM      4  N   UNL A   1      33.869  28.320  25.094  1.00  0.00    -0.343 N 
ATOM      5  C   UNL A   1      33.531  27.530  24.031  1.00  0.00     0.243 C 
ATOM      6  O   UNL A   1      33.962  27.891  22.928  1.00  0.00    -0.273 OA
ATOM      7  H   UNL A   1      34.373  29.126  24.842  1.00  0.00     0.164 HD
BRANCH   5   8
ATOM      8  C   UNL A   1      32.774  26.167  24.157  1.00  0.00     0.176 C 
BRANCH   8   9
ATOM      9  N   UNL A   1      32.256  25.828  25.479  1.00  0.00    -0.337 N 
ATOM     10  C   UNL A   1      31.708  24.691  26.021  1.00  0.00     0.293 C 
ATOM     11  O   UNL A   1      31.216  24.696  27.144  1.00  0.00    -0.265 OA
ATOM     12  H   UNL A   1      32.312  26.574  26.119  1.00  0.00     0.164 HD
BRANCH  10  13
ATOM     13  C   UNL A   1      31.816  23.384  25.265  1.00  0.00     0.252 C 
ATOM     14  O   UNL A   1      30.811  23.072  24.625  1.00  0.00    -0.283 OA
BRANCH  13  15
ATOM     15  C   UNL A   1      32.980  22.503  25.376  1.00  0.00     0.054 A 
ATOM     16  N   UNL A   1      34.979  21.533  25.794  1.00  0.00    -0.240 N 
ATOM     17  C   UNL A   1      34.202  22.667  26.037  1.00  0.00     0.117 A 
ATOM     18  C   UNL A   1      34.142  20.565  25.216  1.00  0.00     0.065 A 
ATOM     19  C   UNL A   1      33.062  21.262  24.682  1.00  0.00     0.012 A 
ATOM     20  C   UNL A   1      34.371  19.215  24.893  1.00  0.00     0.028 A 
ATOM     21  C   UNL A   1      32.295  20.655  23.665  1.00  0.00     0.011 A 
ATOM     22  C   UNL A   1      33.632  18.655  23.850  1.00  0.00     0.002 A 
ATOM     23  C   UNL A   1      32.634  19.380  23.214  1.00  0.00     0.001 A 
BRANCH  16  24
ATOM     24  S   UNL A   1      36.561  21.557  25.047  1.00  0.00     0.268 S 
ATOM     25  O   UNL A   1      36.320  22.223  23.779  1.00  0.00    -0.201 OA
ATOM     26  O   UNL A   1      36.968  20.161  25.102  1.00  0.00    -0.201 OA
BRANCH  24  27
ATOM     27  C   UNL A   1      37.958  22.362  25.747  1.00  0.00     0.088 A 
ATOM     28  C   UNL A   1      41.633  23.396  27.769  1.00  0.00     0.044 C 
ATOM     29  C   UNL A   1      40.365  23.082  27.028  1.00  0.00    -0.051 A 
ATOM     30  C   UNL A   1      40.183  21.775  26.595  1.00  0.00     0.005 A 
ATOM     31  C   UNL A   1      39.337  24.025  26.803  1.00  0.00     0.005 A 
ATOM     32  C   UNL A   1      39.005  21.431  25.957  1.00  0.00     0.022 A 
ATOM     33  C   UNL A   1      38.121  23.673  26.163  1.00  0.00     0.022 A 
ENDBRANCH  24  27
ENDBRANCH  16  24
ENDBRANCH  13  15
ENDBRANCH  10  13
ENDBRANCH   8   9
BRANCH   8  34
ATOM     34  C   UNL A   1      31.624  26.070  23.096  1.00  0.00     0.072 C 
BRANCH  34  35
ATOM     35  C   UNL A   1      30.234  26.558  23.494  1.00  0.00    -0.020 A 
ATOM     36  C   UNL A   1      29.128  25.699  23.616  1.00  0.00     0.087 A 
ATOM     37  C   UNL A   1      29.758  27.901  23.732  1.00  0.00     0.003 A 
ATOM     38  N   UNL A   1      27.886  26.310  23.766  1.00  0.00    -0.361 N 
ATOM     39  C   UNL A   1      27.992  27.671  23.633  1.00  0.00     0.046 A 
ATOM     40  C   UNL A   1      30.420  29.618  23.811  1.00  0.00     0.010 A 
ATOM     41  H   UNL A   1      27.045  25.829  23.942  1.00  0.00     0.166 HD
ATOM     42  C   UNL A   1      26.907  29.088  23.204  1.00  0.00     0.026 A 
ATOM     43  C   UNL A   1      29.323  31.081  23.649  1.00  0.00     0.001 A 
ATOM     44  C   UNL A   1      27.604  30.800  23.157  1.00  0.00     0.002 A 
ENDBRANCH  34  35
ENDBRANCH   8  34
ENDBRANCH   5   8
ENDBRANCH   3   4
ENDBRANCH   1   3
BRANCH   1  45
ATOM     45  O   UNL A   1      32.445  30.006  27.560  1.00  0.00    -0.461 OA
BRANCH  45  46
ATOM     46  C   UNL A   1      33.626  30.841  27.375  1.00  0.00     0.274 C 
BRANCH  46  47
ATOM     47  C   UNL A   1      33.620  32.338  27.779  1.00  0.00     0.275 C 
BRANCH  47  48
ATOM     48  O   UNL A   1      33.731  32.589  29.196  1.00  0.00    -0.458 OA
BRANCH  48  49
ATOM     49  C   UNL A   1      34.198  33.818  29.549  1.00  0.00     0.338 C 
ATOM     50  O   UNL A   1      33.551  34.849  29.538  1.00  0.00    -0.246 OA
BRANCH  49  51
ATOM     51  C   UNL A   1      35.647  33.727  29.812  1.00  0.00     0.060 A 
ATOM     52  C   UNL A   1      36.616  33.972  28.878  1.00  0.00     0.016 A 
ATOM     53  C   UNL A   1      36.077  33.519  31.094  1.00  0.00     0.016 A 
ATOM     54  C   UNL A   1      37.957  33.679  29.246  1.00  0.00     0.010 A 
ATOM     55  C   UNL A   1      37.411  33.669  31.443  1.00  0.00     0.010 A 
ATOM     56  C   UNL A   1      38.484  33.116  30.604  1.00  0.00    -0.014 A 
BRANCH  56  57
ATOM     57  C   UNL A   1      39.996  31.702  31.116  1.00  0.00     0.031 A 
ATOM     58  C   UNL A   1      40.286  30.120  30.475  1.00  0.00     0.074 A 
ATOM     59  C   UNL A   1      41.243  31.705  31.908  1.00  0.00     0.049 A 
ATOM     60  N   UNL A   1      41.072  29.825  29.460  1.00  0.00    -0.248 NA
ATOM     61  C   UNL A   1      39.605  28.927  31.025  1.00  0.00     0.031 C 
ATOM     62  C   UNL A   1      42.498  30.946  31.723  1.00  0.00     0.029 A 
ATOM     63  N   UNL A   1      41.674  32.576  32.952  1.00  0.00    -0.354 N 
ATOM     64  C   UNL A   1      40.985  28.457  29.229  1.00  0.00     0.074 A 
ATOM     65  C   UNL A   1      39.938  27.996  30.131  1.00  0.00     0.031 C 
ATOM     66  C   UNL A   1      43.365  31.206  32.720  1.00  0.00     0.029 A 
ATOM     67  C   UNL A   1      42.688  32.026  33.692  1.00  0.00     0.049 A 
ATOM     68  H   UNL A   1      41.289  33.466  33.121  1.00  0.00     0.167 HD
ATOM     69  C   UNL A   1      42.103  27.679  29.153  1.00  0.00     0.031 A 
ATOM     70  C   UNL A   1      42.497  31.831  35.023  1.00  0.00     0.031 A 
ATOM     71  C   UNL A   1      42.988  27.711  30.300  1.00  0.00     0.049 A 
ATOM     72  C   UNL A   1      42.615  30.367  35.292  1.00  0.00     0.074 A 
ATOM     73  C   UNL A   1      44.295  28.122  30.491  1.00  0.00     0.029 A 
ATOM     74  N   UNL A   1      42.505  27.355  31.555  1.00  0.00    -0.354 N 
ATOM     75  N   UNL A   1      42.418  29.475  34.359  1.00  0.00    -0.248 NA
ATOM     76  C   UNL A   1      43.045  29.775  36.552  1.00  0.00     0.031 C 
ATOM     77  C   UNL A   1      44.564  28.081  31.886  1.00  0.00     0.029 A 
ATOM     78  C   UNL A   1      43.431  27.615  32.536  1.00  0.00     0.049 A 
ATOM     79  H   UNL A   1      41.614  26.968  31.718  1.00  0.00     0.167 HD
ATOM     80  C   UNL A   1      42.909  28.287  34.786  1.00  0.00     0.074 A 
ATOM     81  C   UNL A   1      43.175  28.482  36.200  1.00  0.00     0.031 C 
ATOM     82  C   UNL A   1      43.169  27.266  33.927  1.00  0.00     0.031 A 
BRANCH  69  83
ATOM     83  C   UNL A   1      42.400  27.071  27.805  1.00  0.00    -0.014 A 
ATOM     84  C   UNL A   1      41.472  27.136  26.752  1.00  0.00     0.009 A 
ATOM     85  C   UNL A   1      43.633  26.441  27.525  1.00  0.00     0.009 A 
ATOM     86  C   UNL A   1      41.751  26.588  25.492  1.00  0.00     0.001 A 
ATOM     87  C   UNL A   1      43.919  25.902  26.263  1.00  0.00     0.001 A 
ATOM     88  C   UNL A   1      42.975  25.973  25.246  1.00  0.00     0.000 A 
ENDBRANCH  69  83
BRANCH  70  89
ATOM     89  C   UNL A   1      41.596  32.840  35.672  1.00  0.00    -0.014 A 
ATOM     90  C   UNL A   1      40.409  32.360  36.286  1.00  0.00     0.009 A 
ATOM     91  C   UNL A   1      41.996  34.147  35.980  1.00  0.00     0.009 A 
ATOM     92  C   UNL A   1      39.717  33.109  37.245  1.00  0.00     0.001 A 
ATOM     93  C   UNL A   1      41.278  34.912  36.922  1.00  0.00     0.001 A 
ATOM     94  C   UNL A   1      40.162  34.382  37.575  1.00  0.00     0.000 A 
ENDBRANCH  70  89
BRANCH  82  95
ATOM     95  C   UNL A   1      43.326  25.849  34.363  1.00  0.00    -0.014 A 
ATOM     96  C   UNL A   1      42.319  25.166  35.059  1.00  0.00     0.009 A 
ATOM     97  C   UNL A   1      44.426  25.102  33.901  1.00  0.00     0.009 A 
ATOM     98  C   UNL A   1      42.433  23.802  35.330  1.00  0.00     0.001 A 
ATOM     99  C   UNL A   1      44.524  23.733  34.137  1.00  0.00     0.001 A 
ATOM    100  C   UNL A   1      43.532  23.085  34.863  1.00  0.00     0.000 A 
ENDBRANCH  82  95
ENDBRANCH  56  57
ENDBRANCH  49  51
ENDBRANCH  48  49
ENDBRANCH  47  48
ENDBRANCH  46  47
ENDBRANCH  45  46
ENDBRANCH   1  45
TORSDOF 20
ENDMDL
MODEL 2
REMARK VINA RESULT:     -12.1      3.403      5.761
REMARK SMILES Cc1ccc(S(=O)(=O)n2cc(C(=O)C(=O)N[C@@H](Cc3c[nH]c4ccccc34)C(=O)NCC(=O)OCCOC(=O)c3ccc(-c4c5nc(c(-c6ccccc6)c6ccc([nH]6)c(-c6ccccc6)c6nc(c(-c7ccccc7)c7ccc4[nH]7)C=C6)C=C5)cc3)c3ccccc32)cc1
REMARK SMILES IDX 32 1 33 2 31 3 30 4 28 5 29 6 17 8 16 9 14 10 15 11 12 13
REMARK SMILES IDX 13 14 11 15 9 16 10 17 93 18 88 19 92 20 89 21 91 22 90 23
REMARK SMILES IDX 6 24 7 25 8 26 5 27 1 28 2 29 3 30 95 31 4 32 94 33 18 34
REMARK SMILES IDX 19 35 20 36 27 37 21 38 22 39 26 40 23 42 25 43 24 44 34 45
REMARK SMILES IDX 35 46 36 47 37 48 38 49 39 50 40 51 41 52 87 53 42 54 86 55
REMARK SMILES IDX 43 56 44 57 45 58 80 59 46 60 85 61 79 62 81 63 47 64 84 65
REMARK SMILES IDX 78 66 77 67 48 69 70 70 55 71 69 72 56 73 59 74 68 75 82 76
REMARK SMILES IDX 57 77 58 78 67 80 83 81 60 82 49 83 50 84 54 85 51 86 53 87
REMARK SMILES IDX 52 88 71 89 72 90 76 91 73 92 75 93 74 94 61 95 62 96 66 97
REMARK SMILES IDX 63 98 65 99 64 100
REMARK H PARENT 30 7 16 12 21 41 81 68 59 79
REMARK Flexibility Score: inf
ROOT
ATOM      1  C   UNL A   1      32.254  30.012  26.854  1.00  0.00     0.325 C 
ATOM      2  O   UNL A   1      31.646  30.586  25.964  1.00  0.00    -0.250 OA
ENDROOT
BRANCH   1   3
ATOM      3  C   UNL A   1      32.023  28.543  27.267  1.00  0.00     0.238 C 
BRANCH   3   4
ATOM      4  N   UNL A   1      33.103  27.642  26.857  1.00  0.00    -0.343 N 
ATOM      5  C   UNL A   1      33.112  26.414  26.258  1.00  0.00     0.243 C 
ATOM      6  O   UNL A   1      34.224  25.887  26.115  1.00  0.00    -0.273 OA
ATOM      7  H   UNL A   1      34.002  27.993  27.052  1.00  0.00     0.164 HD
BRANCH   5   8
ATOM      8  C   UNL A   1      31.823  25.609  25.888  1.00  0.00     0.176 C 
BRANCH   8   9
ATOM      9  N   UNL A   1      31.364  24.627  26.865  1.00  0.00    -0.337 N 
ATOM     10  C   UNL A   1      31.081  23.284  26.799  1.00  0.00     0.293 C 
ATOM     11  O   UNL A   1      30.572  22.695  27.746  1.00  0.00    -0.265 OA
ATOM     12  H   UNL A   1      31.228  25.008  27.762  1.00  0.00     0.164 HD
BRANCH  10  13
ATOM     13  C   UNL A   1      31.510  22.495  25.581  1.00  0.00     0.252 C 
ATOM     14  O   UNL A   1      30.702  22.500  24.650  1.00  0.00    -0.283 OA
BRANCH  13  15
ATOM     15  C   UNL A   1      32.736  21.695  25.550  1.00  0.00     0.054 A 
ATOM     16  N   UNL A   1      34.810  20.829  25.794  1.00  0.00    -0.240 N 
ATOM     17  C   UNL A   1      33.964  21.863  26.199  1.00  0.00     0.117 A 
ATOM     18  C   UNL A   1      34.024  19.884  25.115  1.00  0.00     0.065 A 
ATOM     19  C   UNL A   1      32.881  20.561  24.701  1.00  0.00     0.012 A 
ATOM     20  C   UNL A   1      34.336  18.606  24.616  1.00  0.00     0.028 A 
ATOM     21  C   UNL A   1      32.127  20.034  23.631  1.00  0.00     0.011 A 
ATOM     22  C   UNL A   1      33.605  18.130  23.526  1.00  0.00     0.002 A 
ATOM     23  C   UNL A   1      32.539  18.855  23.012  1.00  0.00     0.001 A 
BRANCH  16  24
ATOM     24  S   UNL A   1      36.362  21.064  25.021  1.00  0.00     0.268 S 
ATOM     25  O   UNL A   1      36.014  21.705  23.765  1.00  0.00    -0.201 OA
ATOM     26  O   UNL A   1      36.946  19.731  25.052  1.00  0.00    -0.201 OA
BRANCH  24  27
ATOM     27  C   UNL A   1      37.656  22.035  25.706  1.00  0.00     0.088 A 
ATOM     28  C   UNL A   1      40.327  25.193  26.955  1.00  0.00     0.044 C 
ATOM     29  C   UNL A   1      39.412  24.064  26.571  1.00  0.00    -0.051 A 
ATOM     30  C   UNL A   1      38.101  24.385  26.246  1.00  0.00     0.005 A 
ATOM     31  C   UNL A   1      39.831  22.719  26.470  1.00  0.00     0.005 A 
ATOM     32  C   UNL A   1      37.241  23.383  25.834  1.00  0.00     0.022 A 
ATOM     33  C   UNL A   1      38.957  21.690  26.032  1.00  0.00     0.022 A 
ENDBRANCH  24  27
ENDBRANCH  16  24
ENDBRANCH  13  15
ENDBRANCH  10  13
ENDBRANCH   8   9
BRANCH   8  34
ATOM     34  C   UNL A   1      30.648  26.582  25.520  1.00  0.00     0.072 C 
BRANCH  34  35
ATOM     35  C   UNL A   1      30.714  27.316  24.184  1.00  0.00    -0.020 A 
ATOM     36  C   UNL A   1      31.920  27.552  23.501  1.00  0.00     0.087 A 
ATOM     37  C   UNL A   1      29.664  27.954  23.426  1.00  0.00     0.003 A 
ATOM     38  N   UNL A   1      31.853  28.422  22.415  1.00  0.00    -0.361 N 
ATOM     39  C   UNL A   1      30.605  28.983  22.314  1.00  0.00     0.046 A 
ATOM     40  C   UNL A   1      27.836  28.174  23.495  1.00  0.00     0.010 A 
ATOM     41  H   UNL A   1      32.602  28.610  21.804  1.00  0.00     0.166 HD
ATOM     42  C   UNL A   1      29.838  30.480  21.581  1.00  0.00     0.026 A 
ATOM     43  C   UNL A   1      26.991  29.509  22.560  1.00  0.00     0.001 A 
ATOM     44  C   UNL A   1      28.020  30.767  21.763  1.00  0.00     0.002 A 
ENDBRANCH  34  35
ENDBRANCH   8  34
ENDBRANCH   5   8
ENDBRANCH   3   4
ENDBRANCH   1   3
BRANCH   1  45
ATOM     45  O   UNL A   1      33.227  30.572  27.624  1.00  0.00    -0.461 OA
BRANCH  45  46
ATOM     46  C   UNL A   1      34.650  30.533  27.305  1.00  0.00     0.274 C 
BRANCH  46  47
ATOM     47  C   UNL A   1      35.724  30.719  28.408  1.00  0.00     0.275 C 
BRANCH  47  48
ATOM     48  O   UNL A   1      36.374  29.504  28.838  1.00  0.00    -0.458 OA
BRANCH  48  49
ATOM     49  C   UNL A   1      36.731  29.452  30.151  1.00  0.00     0.338 C 
ATOM     50  O   UNL A   1      36.069  29.877  31.080  1.00  0.00    -0.246 OA
BRANCH  49  51
ATOM     51  C   UNL A   1      38.105  28.927  30.258  1.00  0.00     0.060 A 
ATOM     52  C   UNL A   1      39.096  29.507  31.001  1.00  0.00     0.016 A 
ATOM     53  C   UNL A   1      38.398  27.713  29.697  1.00  0.00     0.016 A 
ATOM     54  C   UNL A   1      40.405  28.972  30.864  1.00  0.00     0.010 A 
ATOM     55  C   UNL A   1      39.589  27.059  29.971  1.00  0.00     0.010 A 
ATOM     56  C   UNL A   1      40.871  27.779  29.971  1.00  0.00    -0.014 A 
BRANCH  56  57
ATOM     57  C   UNL A   1      42.612  27.423  28.791  1.00  0.00     0.031 A 
ATOM     58  C   UNL A   1      43.481  25.949  28.530  1.00  0.00     0.074 A 
ATOM     59  C   UNL A   1      43.392  28.165  27.780  1.00  0.00     0.049 A 
ATOM     60  N   UNL A   1      43.270  25.084  27.560  1.00  0.00    -0.248 NA
ATOM     61  C   UNL A   1      44.555  25.512  29.451  1.00  0.00     0.031 C 
ATOM     62  C   UNL A   1      44.151  27.678  26.608  1.00  0.00     0.029 A 
ATOM     63  N   UNL A   1      43.477  29.565  27.521  1.00  0.00    -0.354 N 
ATOM     64  C   UNL A   1      44.140  24.013  27.738  1.00  0.00     0.074 A 
ATOM     65  C   UNL A   1      44.789  24.274  29.016  1.00  0.00     0.031 C 
ATOM     66  C   UNL A   1      44.772  28.697  25.984  1.00  0.00     0.029 A 
ATOM     67  C   UNL A   1      44.587  29.883  26.782  1.00  0.00     0.049 A 
ATOM     68  H   UNL A   1      42.817  30.224  27.836  1.00  0.00     0.167 HD
ATOM     69  C   UNL A   1      44.947  23.581  26.726  1.00  0.00     0.031 A 
ATOM     70  C   UNL A   1      45.502  30.737  27.309  1.00  0.00     0.031 A 
ATOM     71  C   UNL A   1      45.836  24.568  26.146  1.00  0.00     0.049 A 
ATOM     72  C   UNL A   1      46.799  30.005  27.420  1.00  0.00     0.074 A 
ATOM     73  C   UNL A   1      45.955  25.128  24.888  1.00  0.00     0.029 A 
ATOM     74  N   UNL A   1      46.757  25.227  26.954  1.00  0.00    -0.354 N 
ATOM     75  N   UNL A   1      46.854  28.702  27.483  1.00  0.00    -0.248 NA
ATOM     76  C   UNL A   1      48.119  30.620  27.375  1.00  0.00     0.031 C 
ATOM     77  C   UNL A   1      46.904  26.183  24.969  1.00  0.00     0.029 A 
ATOM     78  C   UNL A   1      47.383  26.241  26.269  1.00  0.00     0.049 A 
ATOM     79  H   UNL A   1      46.936  24.996  27.895  1.00  0.00     0.167 HD
ATOM     80  C   UNL A   1      48.128  28.310  27.242  1.00  0.00     0.074 A 
ATOM     81  C   UNL A   1      48.909  29.533  27.306  1.00  0.00     0.031 C 
ATOM     82  C   UNL A   1      48.434  27.032  26.896  1.00  0.00     0.031 A 
BRANCH  69  83
ATOM     83  C   UNL A   1      44.651  22.207  26.182  1.00  0.00    -0.014 A 
ATOM     84  C   UNL A   1      43.369  21.642  26.275  1.00  0.00     0.009 A 
ATOM     85  C   UNL A   1      45.636  21.437  25.522  1.00  0.00     0.009 A 
ATOM     86  C   UNL A   1      43.085  20.371  25.753  1.00  0.00     0.001 A 
ATOM     87  C   UNL A   1      45.353  20.171  24.990  1.00  0.00     0.001 A 
ATOM     88  C   UNL A   1      44.076  19.637  25.109  1.00  0.00     0.000 A 
ENDBRANCH  69  83
BRANCH  70  89
ATOM     89  C   UNL A   1      44.923  31.776  28.223  1.00  0.00    -0.014 A 
ATOM     90  C   UNL A   1      43.989  32.690  27.668  1.00  0.00     0.009 A 
ATOM     91  C   UNL A   1      45.002  31.706  29.620  1.00  0.00     0.009 A 
ATOM     92  C   UNL A   1      43.099  33.416  28.468  1.00  0.00     0.001 A 
ATOM     93  C   UNL A   1      44.127  32.464  30.424  1.00  0.00     0.001 A 
ATOM     94  C   UNL A   1      43.158  33.291  29.850  1.00  0.00     0.000 A 
ENDBRANCH  70  89
BRANCH  82  95
ATOM     95  C   UNL A   1      49.807  26.461  27.006  1.00  0.00    -0.014 A 
ATOM     96  C   UNL A   1      50.593  26.182  25.879  1.00  0.00     0.009 A 
ATOM     97  C   UNL A   1      50.421  26.377  28.270  1.00  0.00     0.009 A 
ATOM     98  C   UNL A   1      51.923  25.784  26.013  1.00  0.00     0.001 A 
ATOM     99  C   UNL A   1      51.759  26.017  28.405  1.00  0.00     0.001 A 
ATOM    100  C   UNL A   1      52.508  25.709  27.275  1.00  0.00     0.000 A 
ENDBRANCH  82  95
ENDBRANCH  56  57
ENDBRANCH  49  51
ENDBRANCH  48  49
ENDBRANCH  47  48
ENDBRANCH  46  47
ENDBRANCH  45  46
ENDBRANCH   1  45
TORSDOF 20
ENDMDL
MODEL 3
REMARK VINA RESULT:     -11.6      2.898      7.355
REMARK SMILES Cc1ccc(S(=O)(=O)n2cc(C(=O)C(=O)N[C@@H](Cc3c[nH]c4ccccc34)C(=O)NCC(=O)OCCOC(=O)c3ccc(-c4c5nc(c(-c6ccccc6)c6ccc([nH]6)c(-c6ccccc6)c6nc(c(-c7ccccc7)c7ccc4[nH]7)C=C6)C=C5)cc3)c3ccccc32)cc1
REMARK SMILES IDX 32 1 33 2 31 3 30 4 28 5 29 6 17 8 16 9 14 10 15 11 12 13
REMARK SMILES IDX 13 14 11 15 9 16 10 17 93 18 88 19 92 20 89 21 91 22 90 23
REMARK SMILES IDX 6 24 7 25 8 26 5 27 1 28 2 29 3 30 95 31 4 32 94 33 18 34
REMARK SMILES IDX 19 35 20 36 27 37 21 38 22 39 26 40 23 42 25 43 24 44 34 45
REMARK SMILES IDX 35 46 36 47 37 48 38 49 39 50 40 51 41 52 87 53 42 54 86 55
REMARK SMILES IDX 43 56 44 57 45 58 80 59 46 60 85 61 79 62 81 63 47 64 84 65
REMARK SMILES IDX 78 66 77 67 48 69 70 70 55 71 69 72 56 73 59 74 68 75 82 76
REMARK SMILES IDX 57 77 58 78 67 80 83 81 60 82 49 83 50 84 54 85 51 86 53 87
REMARK SMILES IDX 52 88 71 89 72 90 76 91 73 92 75 93 74 94 61 95 62 96 66 97
REMARK SMILES IDX 63 98 65 99 64 100
REMARK H PARENT 30 7 16 12 21 41 81 68 59 79
REMARK Flexibility Score: inf
ROOT
ATOM      1  C   UNL A   1      33.201  35.842  30.624  1.00  0.00     0.325 C 
ATOM      2  O   UNL A   1      32.843  36.807  29.966  1.00  0.00    -0.250 OA
ENDROOT
BRANCH   1   3
ATOM      3  C   UNL A   1      33.315  34.403  30.078  1.00  0.00     0.238 C 
BRANCH   3   4
ATOM      4  N   UNL A   1      34.095  34.304  28.843  1.00  0.00    -0.343 N 
ATOM      5  C   UNL A   1      34.843  33.301  28.293  1.00  0.00     0.243 C 
ATOM      6  O   UNL A   1      35.443  33.581  27.247  1.00  0.00    -0.273 OA
ATOM      7  H   UNL A   1      34.075  35.124  28.299  1.00  0.00     0.164 HD
BRANCH   5   8
ATOM      8  C   UNL A   1      35.082  31.912  28.973  1.00  0.00     0.176 C 
BRANCH   8   9
ATOM      9  N   UNL A   1      35.496  30.820  28.097  1.00  0.00    -0.337 N 
ATOM     10  C   UNL A   1      34.813  29.860  27.390  1.00  0.00     0.293 C 
ATOM     11  O   UNL A   1      35.404  28.950  26.820  1.00  0.00    -0.265 OA
ATOM     12  H   UNL A   1      36.472  30.758  27.991  1.00  0.00     0.164 HD
BRANCH  10  13
ATOM     13  C   UNL A   1      33.316  29.994  27.215  1.00  0.00     0.252 C 
ATOM     14  O   UNL A   1      32.831  31.026  27.682  1.00  0.00    -0.283 OA
BRANCH  13  15
ATOM     15  C   UNL A   1      32.490  28.931  26.640  1.00  0.00     0.054 A 
ATOM     16  N   UNL A   1      31.194  27.125  26.228  1.00  0.00    -0.240 N 
ATOM     17  C   UNL A   1      31.797  27.874  27.240  1.00  0.00     0.117 A 
ATOM     18  C   UNL A   1      31.289  27.868  25.040  1.00  0.00     0.065 A 
ATOM     19  C   UNL A   1      32.332  28.768  25.234  1.00  0.00     0.012 A 
ATOM     20  C   UNL A   1      30.743  27.648  23.762  1.00  0.00     0.028 A 
ATOM     21  C   UNL A   1      32.967  29.328  24.105  1.00  0.00     0.011 A 
ATOM     22  C   UNL A   1      31.418  28.173  22.660  1.00  0.00     0.002 A 
ATOM     23  C   UNL A   1      32.542  28.969  22.826  1.00  0.00     0.001 A 
BRANCH  16  24
ATOM     24  S   UNL A   1      31.475  25.420  25.955  1.00  0.00     0.268 S 
ATOM     25  O   UNL A   1      30.499  25.081  24.934  1.00  0.00    -0.201 OA
ATOM     26  O   UNL A   1      31.393  24.857  27.295  1.00  0.00    -0.201 OA
BRANCH  24  27
ATOM     27  C   UNL A   1      33.002  24.762  25.387  1.00  0.00     0.088 A 
ATOM     28  C   UNL A   1      36.220  22.954  23.141  1.00  0.00     0.044 C 
ATOM     29  C   UNL A   1      35.142  23.617  23.951  1.00  0.00    -0.051 A 
ATOM     30  C   UNL A   1      34.066  24.160  23.261  1.00  0.00     0.005 A 
ATOM     31  C   UNL A   1      35.141  23.663  25.363  1.00  0.00     0.005 A 
ATOM     32  C   UNL A   1      33.025  24.730  23.971  1.00  0.00     0.022 A 
ATOM     33  C   UNL A   1      34.069  24.233  26.096  1.00  0.00     0.022 A 
ENDBRANCH  24  27
ENDBRANCH  16  24
ENDBRANCH  13  15
ENDBRANCH  10  13
ENDBRANCH   8   9
BRANCH   8  34
ATOM     34  C   UNL A   1      36.089  32.045  30.168  1.00  0.00     0.072 C 
BRANCH  34  35
ATOM     35  C   UNL A   1      36.523  30.772  30.888  1.00  0.00    -0.020 A 
ATOM     36  C   UNL A   1      36.292  30.552  32.257  1.00  0.00     0.087 A 
ATOM     37  C   UNL A   1      37.275  29.641  30.397  1.00  0.00     0.003 A 
ATOM     38  N   UNL A   1      36.935  29.454  32.823  1.00  0.00    -0.361 N 
ATOM     39  C   UNL A   1      37.788  28.869  31.921  1.00  0.00     0.046 A 
ATOM     40  C   UNL A   1      37.994  29.030  28.815  1.00  0.00     0.010 A 
ATOM     41  H   UNL A   1      36.797  29.141  33.746  1.00  0.00     0.166 HD
ATOM     42  C   UNL A   1      39.279  27.800  31.949  1.00  0.00     0.026 A 
ATOM     43  C   UNL A   1      39.316  27.758  28.786  1.00  0.00     0.001 A 
ATOM     44  C   UNL A   1      40.079  27.293  30.361  1.00  0.00     0.002 A 
ENDBRANCH  34  35
ENDBRANCH   8  34
ENDBRANCH   5   8
ENDBRANCH   3   4
ENDBRANCH   1   3
BRANCH   1  45
ATOM     45  O   UNL A   1      33.556  35.878  31.938  1.00  0.00    -0.461 OA
BRANCH  45  46
ATOM     46  C   UNL A   1      34.832  35.401  32.458  1.00  0.00     0.274 C 
BRANCH  46  47
ATOM     47  C   UNL A   1      34.926  34.714  33.845  1.00  0.00     0.275 C 
BRANCH  47  48
ATOM     48  O   UNL A   1      35.953  33.706  33.959  1.00  0.00    -0.458 OA
BRANCH  48  49
ATOM     49  C   UNL A   1      36.489  33.540  35.199  1.00  0.00     0.338 C 
ATOM     50  O   UNL A   1      35.938  33.814  36.249  1.00  0.00    -0.246 OA
BRANCH  49  51
ATOM     51  C   UNL A   1      37.894  33.108  35.064  1.00  0.00     0.060 A 
ATOM     52  C   UNL A   1      38.962  33.961  35.027  1.00  0.00     0.016 A 
ATOM     53  C   UNL A   1      38.184  31.771  35.113  1.00  0.00     0.016 A 
ATOM     54  C   UNL A   1      40.230  33.396  34.726  1.00  0.00     0.010 A 
ATOM     55  C   UNL A   1      39.489  31.320  35.239  1.00  0.00     0.010 A 
ATOM     56  C   UNL A   1      40.577  31.901  34.439  1.00  0.00    -0.014 A 
BRANCH  56  57
ATOM     57  C   UNL A   1      41.897  30.939  33.067  1.00  0.00     0.031 A 
ATOM     58  C   UNL A   1      42.078  31.181  31.362  1.00  0.00     0.074 A 
ATOM     59  C   UNL A   1      43.072  30.049  33.154  1.00  0.00     0.049 A 
ATOM     60  N   UNL A   1      42.908  32.022  30.780  1.00  0.00    -0.248 NA
ATOM     61  C   UNL A   1      41.241  30.449  30.385  1.00  0.00     0.031 C 
ATOM     62  C   UNL A   1      44.256  29.935  32.277  1.00  0.00     0.029 A 
ATOM     63  N   UNL A   1      43.504  29.187  34.206  1.00  0.00    -0.354 N 
ATOM     64  C   UNL A   1      42.704  31.950  29.406  1.00  0.00     0.074 A 
ATOM     65  C   UNL A   1      41.549  31.076  29.249  1.00  0.00     0.031 C 
ATOM     66  C   UNL A   1      45.064  28.941  32.690  1.00  0.00     0.029 A 
ATOM     67  C   UNL A   1      44.398  28.247  33.764  1.00  0.00     0.049 A 
ATOM     68  H   UNL A   1      43.197  29.260  35.138  1.00  0.00     0.167 HD
ATOM     69  C   UNL A   1      43.743  31.740  28.547  1.00  0.00     0.031 A 
ATOM     70  C   UNL A   1      44.084  26.932  33.897  1.00  0.00     0.031 A 
ATOM     71  C   UNL A   1      44.534  30.547  28.773  1.00  0.00     0.049 A 
ATOM     72  C   UNL A   1      44.036  26.333  32.529  1.00  0.00     0.074 A 
ATOM     73  C   UNL A   1      45.856  30.323  29.113  1.00  0.00     0.029 A 
ATOM     74  N   UNL A   1      43.920  29.298  28.755  1.00  0.00    -0.354 N 
ATOM     75  N   UNL A   1      43.824  27.059  31.465  1.00  0.00    -0.248 NA
ATOM     76  C   UNL A   1      44.304  24.937  32.213  1.00  0.00     0.031 C 
ATOM     77  C   UNL A   1      46.009  28.934  29.373  1.00  0.00     0.029 A 
ATOM     78  C   UNL A   1      44.788  28.312  29.161  1.00  0.00     0.049 A 
ATOM     79  H   UNL A   1      42.986  29.142  28.487  1.00  0.00     0.167 HD
ATOM     80  C   UNL A   1      44.160  26.332  30.372  1.00  0.00     0.074 A 
ATOM     81  C   UNL A   1      44.333  24.978  30.867  1.00  0.00     0.031 C 
ATOM     82  C   UNL A   1      44.385  26.912  29.163  1.00  0.00     0.031 A 
BRANCH  69  83
ATOM     83  C   UNL A   1      44.082  32.882  27.623  1.00  0.00    -0.014 A 
ATOM     84  C   UNL A   1      44.044  34.215  28.062  1.00  0.00     0.009 A 
ATOM     85  C   UNL A   1      44.488  32.666  26.287  1.00  0.00     0.009 A 
ATOM     86  C   UNL A   1      44.378  35.280  27.212  1.00  0.00     0.001 A 
ATOM     87  C   UNL A   1      44.831  33.728  25.437  1.00  0.00     0.001 A 
ATOM     88  C   UNL A   1      44.773  35.036  25.900  1.00  0.00     0.000 A 
ENDBRANCH  69  83
BRANCH  70  89
ATOM     89  C   UNL A   1      43.240  26.616  35.096  1.00  0.00    -0.014 A 
ATOM     90  C   UNL A   1      41.928  26.125  34.863  1.00  0.00     0.009 A 
ATOM     91  C   UNL A   1      43.758  26.477  36.390  1.00  0.00     0.009 A 
ATOM     92  C   UNL A   1      41.212  25.430  35.845  1.00  0.00     0.001 A 
ATOM     93  C   UNL A   1      43.021  25.806  37.387  1.00  0.00     0.001 A 
ATOM     94  C   UNL A   1      41.767  25.257  37.106  1.00  0.00     0.000 A 
ENDBRANCH  70  89
BRANCH  82  95
ATOM     95  C   UNL A   1      44.365  26.157  27.877  1.00  0.00    -0.014 A 
ATOM     96  C   UNL A   1      43.279  25.358  27.497  1.00  0.00     0.009 A 
ATOM     97  C   UNL A   1      45.370  26.399  26.920  1.00  0.00     0.009 A 
ATOM     98  C   UNL A   1      43.225  24.779  26.229  1.00  0.00     0.001 A 
ATOM     99  C   UNL A   1      45.299  25.853  25.641  1.00  0.00     0.001 A 
ATOM    100  C   UNL A   1      44.231  25.032  25.299  1.00  0.00     0.000 A 
ENDBRANCH  82  95
ENDBRANCH  56  57
ENDBRANCH  49  51
ENDBRANCH  48  49
ENDBRANCH  47  48
ENDBRANCH  46  47
ENDBRANCH  45  46
ENDBRANCH   1  45
TORSDOF 20
ENDMDL
