MODEL 1
REMARK VINA RESULT:      -9.9      0.000      0.000
REMARK SMILES CCCc1cc2c(cc1Cl)C=C(C(=O)OCCOC(=O)c1ccc(-c3c4nc(c(-c5ccccc5)c5ccc([nH]5)c(-c5ccccc5)c5nc(c(-c6ccccc6)c6ccc3[nH]6)C=C5)C=C4)cc1)[C@@H](C(F)(F)F)O2
REMARK SMILES IDX 16 1 15 2 13 3 14 4 12 5 4 6 5 7 9 8 6 9 8 10 10 11 7 12
REMARK SMILES IDX 74 13 11 14 69 15 3 16 2 17 1 18 70 19 71 20 72 21 73 22
REMARK SMILES IDX 17 23 18 24 19 25 20 26 21 27 22 28 68 29 23 30 67 31 24 32
REMARK SMILES IDX 25 33 26 34 61 35 27 36 66 37 60 38 62 39 28 40 65 41 59 42
REMARK SMILES IDX 58 43 29 45 51 46 36 47 50 48 37 49 40 50 49 51 63 52 38 53
REMARK SMILES IDX 39 54 48 56 64 57 41 58 30 59 31 60 35 61 32 62 34 63 33 64
REMARK SMILES IDX 52 65 53 66 57 67 54 68 56 69 55 70 42 71 43 72 47 73 44 74
REMARK SMILES IDX 46 75 45 76
REMARK H PARENT 62 44 40 55
REMARK Flexibility Score: inf
ROOT
ATOM      1  C   UNL A   1      32.865  34.528  28.076  1.00  0.00     0.275 C 
ENDROOT
BRANCH   1   2
ATOM      2  O   UNL A   1      32.651  34.672  29.498  1.00  0.00    -0.459 OA
BRANCH   2   3
ATOM      3  C   UNL A   1      33.287  35.714  30.078  1.00  0.00     0.338 C 
ATOM      4  O   UNL A   1      33.096  36.901  29.860  1.00  0.00    -0.246 OA
BRANCH   3   5
ATOM      5  C   UNL A   1      34.261  35.237  31.077  1.00  0.00     0.087 C 
ATOM      6  C   UNL A   1      37.011  32.346  34.140  1.00  0.00    -0.026 A 
ATOM      7  C   UNL A   1      36.663  33.713  34.122  1.00  0.00     0.052 A 
ATOM      8  C   UNL A   1      36.577  31.527  33.087  1.00  0.00     0.045 A 
ATOM      9  C   UNL A   1      35.894  34.246  33.088  1.00  0.00     0.128 A 
ATOM     10  C   UNL A   1      35.806  32.059  32.055  1.00  0.00     0.032 A 
ATOM     11  Cl  UNL A   1      36.953  29.842  33.010  1.00  0.00    -0.084 Cl
ATOM     12  C   UNL A   1      35.461  33.416  32.062  1.00  0.00     0.019 A 
ATOM     13  O   UNL A   1      35.628  35.585  33.142  1.00  0.00    -0.475 OA
ATOM     14  C   UNL A   1      34.618  33.951  31.016  1.00  0.00     0.027 C 
ATOM     15  C   UNL A   1      34.694  36.161  32.181  1.00  0.00     0.316 C 
BRANCH   6  16
ATOM     16  C   UNL A   1      37.866  31.828  35.272  1.00  0.00     0.037 C 
BRANCH  16  17
ATOM     17  C   UNL A   1      38.486  32.940  36.124  1.00  0.00     0.001 C 
ATOM     18  C   UNL A   1      37.995  32.938  37.566  1.00  0.00     0.004 C 
ENDBRANCH  16  17
ENDBRANCH   6  16
BRANCH  15  19
ATOM     19  C   UNL A   1      33.486  36.720  32.950  1.00  0.00     0.430 C 
ATOM     20  F   UNL A   1      33.779  36.909  34.259  1.00  0.00    -0.167 F 
ATOM     21  F   UNL A   1      33.100  37.924  32.463  1.00  0.00    -0.167 F 
ATOM     22  F   UNL A   1      32.416  35.896  32.887  1.00  0.00    -0.167 F 
ENDBRANCH  15  19
ENDBRANCH   3   5
ENDBRANCH   2   3
ENDBRANCH   1   2
BRANCH   1  23
ATOM     23  C   UNL A   1      32.973  33.057  27.673  1.00  0.00     0.275 C 
BRANCH  23  24
ATOM     24  O   UNL A   1      34.315  32.581  27.876  1.00  0.00    -0.458 OA
BRANCH  24  25
ATOM     25  C   UNL A   1      34.486  31.247  27.747  1.00  0.00     0.338 C 
ATOM     26  O   UNL A   1      33.800  30.464  27.114  1.00  0.00    -0.246 OA
BRANCH  25  27
ATOM     27  C   UNL A   1      35.713  30.837  28.446  1.00  0.00     0.060 A 
ATOM     28  C   UNL A   1      35.741  29.690  29.232  1.00  0.00     0.016 A 
ATOM     29  C   UNL A   1      36.892  31.521  28.172  1.00  0.00     0.016 A 
ATOM     30  C   UNL A   1      36.967  29.243  29.741  1.00  0.00     0.010 A 
ATOM     31  C   UNL A   1      38.121  30.988  28.546  1.00  0.00     0.010 A 
ATOM     32  C   UNL A   1      38.180  29.855  29.364  1.00  0.00    -0.014 A 
BRANCH  32  33
ATOM     33  C   UNL A   1      39.500  29.321  29.811  1.00  0.00     0.031 A 
ATOM     34  C   UNL A   1      40.258  29.968  30.948  1.00  0.00     0.074 A 
ATOM     35  C   UNL A   1      40.050  28.272  29.165  1.00  0.00     0.049 A 
ATOM     36  N   UNL A   1      41.417  29.632  31.461  1.00  0.00    -0.248 NA
ATOM     37  C   UNL A   1      39.667  31.168  31.567  1.00  0.00     0.031 C 
ATOM     38  C   UNL A   1      39.480  27.605  27.993  1.00  0.00     0.029 A 
ATOM     39  N   UNL A   1      41.204  27.566  29.414  1.00  0.00    -0.354 N 
ATOM     40  C   UNL A   1      41.700  30.592  32.428  1.00  0.00     0.074 A 
ATOM     41  C   UNL A   1      40.630  31.559  32.389  1.00  0.00     0.031 C 
ATOM     42  C   UNL A   1      40.233  26.540  27.680  1.00  0.00     0.029 A 
ATOM     43  C   UNL A   1      41.370  26.475  28.593  1.00  0.00     0.049 A 
ATOM     44  H   UNL A   1      41.849  27.818  30.114  1.00  0.00     0.167 HD
ATOM     45  C   UNL A   1      42.733  30.644  33.301  1.00  0.00     0.031 A 
ATOM     46  C   UNL A   1      42.318  25.517  28.581  1.00  0.00     0.031 A 
ATOM     47  C   UNL A   1      43.763  29.646  33.392  1.00  0.00     0.049 A 
ATOM     48  C   UNL A   1      43.427  25.563  29.593  1.00  0.00     0.074 A 
ATOM     49  C   UNL A   1      44.795  29.561  34.310  1.00  0.00     0.029 A 
ATOM     50  N   UNL A   1      43.884  28.556  32.546  1.00  0.00    -0.354 N 
ATOM     51  N   UNL A   1      43.627  26.434  30.552  1.00  0.00    -0.248 NA
ATOM     52  C   UNL A   1      44.436  24.495  29.528  1.00  0.00     0.031 C 
ATOM     53  C   UNL A   1      45.566  28.441  33.994  1.00  0.00     0.029 A 
ATOM     54  C   UNL A   1      44.983  27.801  32.912  1.00  0.00     0.049 A 
ATOM     55  H   UNL A   1      43.278  28.349  31.797  1.00  0.00     0.167 HD
ATOM     56  C   UNL A   1      44.776  26.015  31.210  1.00  0.00     0.074 A 
ATOM     57  C   UNL A   1      45.216  24.799  30.557  1.00  0.00     0.031 C 
ATOM     58  C   UNL A   1      45.410  26.592  32.257  1.00  0.00     0.031 A 
BRANCH  45  59
ATOM     59  C   UNL A   1      42.787  31.793  34.271  1.00  0.00    -0.014 A 
ATOM     60  C   UNL A   1      42.133  31.698  35.511  1.00  0.00     0.009 A 
ATOM     61  C   UNL A   1      43.398  33.006  33.919  1.00  0.00     0.009 A 
ATOM     62  C   UNL A   1      42.085  32.796  36.372  1.00  0.00     0.001 A 
ATOM     63  C   UNL A   1      43.375  34.093  34.796  1.00  0.00     0.001 A 
ATOM     64  C   UNL A   1      42.710  33.990  36.017  1.00  0.00     0.000 A 
ENDBRANCH  45  59
BRANCH  46  65
ATOM     65  C   UNL A   1      42.214  24.397  27.606  1.00  0.00    -0.014 A 
ATOM     66  C   UNL A   1      41.510  23.226  27.925  1.00  0.00     0.009 A 
ATOM     67  C   UNL A   1      42.867  24.479  26.367  1.00  0.00     0.009 A 
ATOM     68  C   UNL A   1      41.482  22.150  27.033  1.00  0.00     0.001 A 
ATOM     69  C   UNL A   1      42.814  23.413  25.465  1.00  0.00     0.001 A 
ATOM     70  C   UNL A   1      42.129  22.247  25.803  1.00  0.00     0.000 A 
ENDBRANCH  46  65
BRANCH  58  71
ATOM     71  C   UNL A   1      46.652  25.933  32.783  1.00  0.00    -0.014 A 
ATOM     72  C   UNL A   1      46.560  25.022  33.849  1.00  0.00     0.009 A 
ATOM     73  C   UNL A   1      47.918  26.312  32.314  1.00  0.00     0.009 A 
ATOM     74  C   UNL A   1      47.715  24.520  34.448  1.00  0.00     0.001 A 
ATOM     75  C   UNL A   1      49.070  25.788  32.901  1.00  0.00     0.001 A 
ATOM     76  C   UNL A   1      48.969  24.902  33.974  1.00  0.00     0.000 A 
ENDBRANCH  58  71
ENDBRANCH  32  33
ENDBRANCH  25  27
ENDBRANCH  24  25
ENDBRANCH  23  24
ENDBRANCH   1  23
TORSDOF 14
ENDMDL
MODEL 2
REMARK VINA RESULT:      -9.9      5.963     10.541
REMARK SMILES CCCc1cc2c(cc1Cl)C=C(C(=O)OCCOC(=O)c1ccc(-c3c4nc(c(-c5ccccc5)c5ccc([nH]5)c(-c5ccccc5)c5nc(c(-c6ccccc6)c6ccc3[nH]6)C=C5)C=C4)cc1)[C@@H](C(F)(F)F)O2
REMARK SMILES IDX 16 1 15 2 13 3 14 4 12 5 4 6 5 7 9 8 6 9 8 10 10 11 7 12
REMARK SMILES IDX 74 13 11 14 69 15 3 16 2 17 1 18 70 19 71 20 72 21 73 22
REMARK SMILES IDX 17 23 18 24 19 25 20 26 21 27 22 28 68 29 23 30 67 31 24 32
REMARK SMILES IDX 25 33 26 34 61 35 27 36 66 37 60 38 62 39 28 40 65 41 59 42
REMARK SMILES IDX 58 43 29 45 51 46 36 47 50 48 37 49 40 50 49 51 63 52 38 53
REMARK SMILES IDX 39 54 48 56 64 57 41 58 30 59 31 60 35 61 32 62 34 63 33 64
REMARK SMILES IDX 52 65 53 66 57 67 54 68 56 69 55 70 42 71 43 72 47 73 44 74
REMARK SMILES IDX 46 75 45 76
REMARK H PARENT 62 44 40 55
REMARK Flexibility Score: inf
ROOT
ATOM      1  C   UNL A   1      35.787  20.268  24.998  1.00  0.00     0.275 C 
ENDROOT
BRANCH   1   2
ATOM      2  O   UNL A   1      35.053  21.317  24.329  1.00  0.00    -0.459 OA
BRANCH   2   3
ATOM      3  C   UNL A   1      33.712  21.287  24.502  1.00  0.00     0.338 C 
ATOM      4  O   UNL A   1      32.974  20.326  24.344  1.00  0.00    -0.246 OA
BRANCH   3   5
ATOM      5  C   UNL A   1      33.218  22.600  24.959  1.00  0.00     0.087 C 
ATOM      6  C   UNL A   1      32.552  27.541  25.626  1.00  0.00    -0.026 A 
ATOM      7  C   UNL A   1      32.246  26.392  26.386  1.00  0.00     0.052 A 
ATOM      8  C   UNL A   1      33.139  27.375  24.363  1.00  0.00     0.045 A 
ATOM      9  C   UNL A   1      32.528  25.114  25.904  1.00  0.00     0.128 A 
ATOM     10  C   UNL A   1      33.423  26.098  23.882  1.00  0.00     0.032 A 
ATOM     11  Cl  UNL A   1      33.548  28.714  23.350  1.00  0.00    -0.084 Cl
ATOM     12  C   UNL A   1      33.124  24.972  24.657  1.00  0.00     0.019 A 
ATOM     13  O   UNL A   1      32.173  24.062  26.698  1.00  0.00    -0.475 OA
ATOM     14  C   UNL A   1      33.468  23.653  24.175  1.00  0.00     0.027 C 
ATOM     15  C   UNL A   1      32.594  22.717  26.321  1.00  0.00     0.316 C 
BRANCH   6  16
ATOM     16  C   UNL A   1      32.202  28.898  26.187  1.00  0.00     0.037 C 
BRANCH  16  17
ATOM     17  C   UNL A   1      33.428  29.766  26.493  1.00  0.00     0.001 C 
ATOM     18  C   UNL A   1      34.470  29.054  27.346  1.00  0.00     0.004 C 
ENDBRANCH  16  17
ENDBRANCH   6  16
BRANCH  15  19
ATOM     19  C   UNL A   1      33.527  22.172  27.415  1.00  0.00     0.430 C 
ATOM     20  F   UNL A   1      34.788  22.645  27.268  1.00  0.00    -0.167 F 
ATOM     21  F   UNL A   1      33.117  22.544  28.651  1.00  0.00    -0.167 F 
ATOM     22  F   UNL A   1      33.595  20.822  27.400  1.00  0.00    -0.167 F 
ENDBRANCH  15  19
ENDBRANCH   3   5
ENDBRANCH   2   3
ENDBRANCH   1   2
BRANCH   1  23
ATOM     23  C   UNL A   1      37.289  20.387  24.742  1.00  0.00     0.275 C 
BRANCH  23  24
ATOM     24  O   UNL A   1      37.835  21.494  25.482  1.00  0.00    -0.458 OA
BRANCH  24  25
ATOM     25  C   UNL A   1      39.019  21.261  26.090  1.00  0.00     0.338 C 
ATOM     26  O   UNL A   1      39.652  20.221  26.120  1.00  0.00    -0.246 OA
BRANCH  25  27
ATOM     27  C   UNL A   1      39.519  22.508  26.688  1.00  0.00     0.060 A 
ATOM     28  C   UNL A   1      40.636  22.508  27.517  1.00  0.00     0.016 A 
ATOM     29  C   UNL A   1      38.961  23.712  26.275  1.00  0.00     0.016 A 
ATOM     30  C   UNL A   1      41.180  23.731  27.927  1.00  0.00     0.010 A 
ATOM     31  C   UNL A   1      39.595  24.918  26.555  1.00  0.00     0.010 A 
ATOM     32  C   UNL A   1      40.699  24.953  27.412  1.00  0.00    -0.014 A 
BRANCH  32  33
ATOM     33  C   UNL A   1      41.341  26.256  27.756  1.00  0.00     0.031 A 
ATOM     34  C   UNL A   1      42.688  26.636  27.184  1.00  0.00     0.074 A 
ATOM     35  C   UNL A   1      40.736  27.091  28.627  1.00  0.00     0.049 A 
ATOM     36  N   UNL A   1      43.388  27.727  27.380  1.00  0.00    -0.248 NA
ATOM     37  C   UNL A   1      43.359  25.657  26.310  1.00  0.00     0.031 C 
ATOM     38  C   UNL A   1      39.481  26.817  29.331  1.00  0.00     0.029 A 
ATOM     39  N   UNL A   1      41.082  28.351  29.054  1.00  0.00    -0.354 N 
ATOM     40  C   UNL A   1      44.581  27.547  26.688  1.00  0.00     0.074 A 
ATOM     41  C   UNL A   1      44.544  26.221  26.120  1.00  0.00     0.031 C 
ATOM     42  C   UNL A   1      39.120  27.903  30.029  1.00  0.00     0.029 A 
ATOM     43  C   UNL A   1      40.140  28.935  29.868  1.00  0.00     0.049 A 
ATOM     44  H   UNL A   1      41.925  28.793  28.802  1.00  0.00     0.167 HD
ATOM     45  C   UNL A   1      45.599  28.419  26.502  1.00  0.00     0.031 A 
ATOM     46  C   UNL A   1      40.087  30.166  30.413  1.00  0.00     0.031 A 
ATOM     47  C   UNL A   1      45.610  29.765  27.006  1.00  0.00     0.049 A 
ATOM     48  C   UNL A   1      41.202  31.138  30.151  1.00  0.00     0.074 A 
ATOM     49  C   UNL A   1      46.553  30.755  26.785  1.00  0.00     0.029 A 
ATOM     50  N   UNL A   1      44.630  30.313  27.816  1.00  0.00    -0.354 N 
ATOM     51  N   UNL A   1      42.279  30.974  29.424  1.00  0.00    -0.248 NA
ATOM     52  C   UNL A   1      41.094  32.464  30.777  1.00  0.00     0.031 C 
ATOM     53  C   UNL A   1      46.164  31.890  27.497  1.00  0.00     0.029 A 
ATOM     54  C   UNL A   1      44.953  31.624  28.117  1.00  0.00     0.049 A 
ATOM     55  H   UNL A   1      43.825  29.841  28.130  1.00  0.00     0.167 HD
ATOM     56  C   UNL A   1      42.972  32.175  29.494  1.00  0.00     0.074 A 
ATOM     57  C   UNL A   1      42.182  33.069  30.316  1.00  0.00     0.031 C 
ATOM     58  C   UNL A   1      44.158  32.503  28.933  1.00  0.00     0.031 A 
BRANCH  45  59
ATOM     59  C   UNL A   1      46.777  27.972  25.679  1.00  0.00    -0.014 A 
ATOM     60  C   UNL A   1      46.715  28.025  24.276  1.00  0.00     0.009 A 
ATOM     61  C   UNL A   1      47.908  27.404  26.286  1.00  0.00     0.009 A 
ATOM     62  C   UNL A   1      47.757  27.513  23.502  1.00  0.00     0.001 A 
ATOM     63  C   UNL A   1      48.963  26.921  25.509  1.00  0.00     0.001 A 
ATOM     64  C   UNL A   1      48.882  26.966  24.117  1.00  0.00     0.000 A 
ENDBRANCH  45  59
BRANCH  46  65
ATOM     65  C   UNL A   1      38.896  30.562  31.213  1.00  0.00    -0.014 A 
ATOM     66  C   UNL A   1      38.884  30.420  32.609  1.00  0.00     0.009 A 
ATOM     67  C   UNL A   1      37.743  31.040  30.571  1.00  0.00     0.009 A 
ATOM     68  C   UNL A   1      37.735  30.725  33.343  1.00  0.00     0.001 A 
ATOM     69  C   UNL A   1      36.605  31.370  31.310  1.00  0.00     0.001 A 
ATOM     70  C   UNL A   1      36.599  31.205  32.694  1.00  0.00     0.000 A 
ENDBRANCH  46  65
BRANCH  58  71
ATOM     71  C   UNL A   1      44.697  33.884  29.173  1.00  0.00    -0.014 A 
ATOM     72  C   UNL A   1      45.474  34.141  30.315  1.00  0.00     0.009 A 
ATOM     73  C   UNL A   1      44.326  34.952  28.343  1.00  0.00     0.009 A 
ATOM     74  C   UNL A   1      45.851  35.446  30.632  1.00  0.00     0.001 A 
ATOM     75  C   UNL A   1      44.727  36.253  28.650  1.00  0.00     0.001 A 
ATOM     76  C   UNL A   1      45.478  36.501  29.800  1.00  0.00     0.000 A 
ENDBRANCH  58  71
ENDBRANCH  32  33
ENDBRANCH  25  27
ENDBRANCH  24  25
ENDBRANCH  23  24
ENDBRANCH   1  23
TORSDOF 14
ENDMDL
MODEL 3
REMARK VINA RESULT:      -9.8      6.575     12.187
REMARK SMILES CCCc1cc2c(cc1Cl)C=C(C(=O)OCCOC(=O)c1ccc(-c3c4nc(c(-c5ccccc5)c5ccc([nH]5)c(-c5ccccc5)c5nc(c(-c6ccccc6)c6ccc3[nH]6)C=C5)C=C4)cc1)[C@@H](C(F)(F)F)O2
REMARK SMILES IDX 16 1 15 2 13 3 14 4 12 5 4 6 5 7 9 8 6 9 8 10 10 11 7 12
REMARK SMILES IDX 74 13 11 14 69 15 3 16 2 17 1 18 70 19 71 20 72 21 73 22
REMARK SMILES IDX 17 23 18 24 19 25 20 26 21 27 22 28 68 29 23 30 67 31 24 32
REMARK SMILES IDX 25 33 26 34 61 35 27 36 66 37 60 38 62 39 28 40 65 41 59 42
REMARK SMILES IDX 58 43 29 45 51 46 36 47 50 48 37 49 40 50 49 51 63 52 38 53
REMARK SMILES IDX 39 54 48 56 64 57 41 58 30 59 31 60 35 61 32 62 34 63 33 64
REMARK SMILES IDX 52 65 53 66 57 67 54 68 56 69 55 70 42 71 43 72 47 73 44 74
REMARK SMILES IDX 46 75 45 76
REMARK H PARENT 62 44 40 55
REMARK Flexibility Score: inf
ROOT
ATOM      1  C   UNL A   1      40.962  19.213  26.140  1.00  0.00     0.275 C 
ENDROOT
BRANCH   1   2
ATOM      2  O   UNL A   1      42.058  19.427  25.223  1.00  0.00    -0.459 OA
BRANCH   2   3
ATOM      3  C   UNL A   1      43.294  19.271  25.751  1.00  0.00     0.338 C 
ATOM      4  O   UNL A   1      43.791  18.231  26.155  1.00  0.00    -0.246 OA
BRANCH   3   5
ATOM      5  C   UNL A   1      44.023  20.553  25.751  1.00  0.00     0.087 C 
ATOM      6  C   UNL A   1      45.299  25.382  25.151  1.00  0.00    -0.026 A 
ATOM      7  C   UNL A   1      46.023  24.181  25.306  1.00  0.00     0.052 A 
ATOM      8  C   UNL A   1      43.898  25.333  25.203  1.00  0.00     0.045 A 
ATOM      9  C   UNL A   1      45.369  22.965  25.497  1.00  0.00     0.128 A 
ATOM     10  C   UNL A   1      43.243  24.117  25.391  1.00  0.00     0.032 A 
ATOM     11  Cl  UNL A   1      42.917  26.745  25.030  1.00  0.00    -0.084 Cl
ATOM     12  C   UNL A   1      43.981  22.936  25.530  1.00  0.00     0.019 A 
ATOM     13  O   UNL A   1      46.154  21.859  25.663  1.00  0.00    -0.475 OA
ATOM     14  C   UNL A   1      43.295  21.671  25.673  1.00  0.00     0.027 C 
ATOM     15  C   UNL A   1      45.526  20.544  25.699  1.00  0.00     0.316 C 
BRANCH   6  16
ATOM     16  C   UNL A   1      46.061  26.673  24.972  1.00  0.00     0.037 C 
BRANCH  16  17
ATOM     17  C   UNL A   1      47.204  26.850  25.977  1.00  0.00     0.001 C 
ATOM     18  C   UNL A   1      48.547  27.133  25.316  1.00  0.00     0.004 C 
ENDBRANCH  16  17
ENDBRANCH   6  16
BRANCH  15  19
ATOM     19  C   UNL A   1      46.040  19.724  24.504  1.00  0.00     0.430 C 
ATOM     20  F   UNL A   1      47.157  20.275  23.972  1.00  0.00    -0.167 F 
ATOM     21  F   UNL A   1      46.369  18.462  24.872  1.00  0.00    -0.167 F 
ATOM     22  F   UNL A   1      45.121  19.631  23.517  1.00  0.00    -0.167 F 
ENDBRANCH  15  19
ENDBRANCH   3   5
ENDBRANCH   2   3
ENDBRANCH   1   2
BRANCH   1  23
ATOM     23  C   UNL A   1      39.835  20.220  25.908  1.00  0.00     0.275 C 
BRANCH  23  24
ATOM     24  O   UNL A   1      40.078  21.422  26.662  1.00  0.00    -0.458 OA
BRANCH  24  25
ATOM     25  C   UNL A   1      39.207  22.432  26.444  1.00  0.00     0.338 C 
ATOM     26  O   UNL A   1      38.060  22.356  26.042  1.00  0.00    -0.246 OA
BRANCH  25  27
ATOM     27  C   UNL A   1      39.822  23.707  26.843  1.00  0.00     0.060 A 
ATOM     28  C   UNL A   1      39.577  24.875  26.129  1.00  0.00     0.016 A 
ATOM     29  C   UNL A   1      40.516  23.761  28.046  1.00  0.00     0.016 A 
ATOM     30  C   UNL A   1      40.042  26.094  26.637  1.00  0.00     0.010 A 
ATOM     31  C   UNL A   1      40.836  24.986  28.623  1.00  0.00     0.010 A 
ATOM     32  C   UNL A   1      40.633  26.174  27.915  1.00  0.00    -0.014 A 
BRANCH  32  33
ATOM     33  C   UNL A   1      41.032  27.482  28.514  1.00  0.00     0.031 A 
ATOM     34  C   UNL A   1      42.485  27.806  28.780  1.00  0.00     0.074 A 
ATOM     35  C   UNL A   1      40.083  28.373  28.867  1.00  0.00     0.049 A 
ATOM     36  N   UNL A   1      43.004  28.894  29.296  1.00  0.00    -0.248 NA
ATOM     37  C   UNL A   1      43.484  26.770  28.466  1.00  0.00     0.031 C 
ATOM     38  C   UNL A   1      38.637  28.160  28.758  1.00  0.00     0.029 A 
ATOM     39  N   UNL A   1      40.187  29.648  29.371  1.00  0.00    -0.354 N 
ATOM     40  C   UNL A   1      44.371  28.655  29.396  1.00  0.00     0.074 A 
ATOM     41  C   UNL A   1      44.597  27.301  28.951  1.00  0.00     0.031 C 
ATOM     42  C   UNL A   1      37.998  29.290  29.095  1.00  0.00     0.029 A 
ATOM     43  C   UNL A   1      38.979  30.292  29.497  1.00  0.00     0.049 A 
ATOM     44  H   UNL A   1      41.047  30.061  29.617  1.00  0.00     0.167 HD
ATOM     45  C   UNL A   1      45.358  29.497  29.781  1.00  0.00     0.031 A 
ATOM     46  C   UNL A   1      38.686  31.552  29.876  1.00  0.00     0.031 A 
ATOM     47  C   UNL A   1      45.146  30.868  30.158  1.00  0.00     0.049 A 
ATOM     48  C   UNL A   1      39.800  32.488  30.248  1.00  0.00     0.074 A 
ATOM     49  C   UNL A   1      46.095  31.828  30.467  1.00  0.00     0.029 A 
ATOM     50  N   UNL A   1      43.907  31.477  30.261  1.00  0.00    -0.354 N 
ATOM     51  N   UNL A   1      41.092  32.266  30.254  1.00  0.00    -0.248 NA
ATOM     52  C   UNL A   1      39.422  33.848  30.660  1.00  0.00     0.031 C 
ATOM     53  C   UNL A   1      45.427  33.007  30.800  1.00  0.00     0.029 A 
ATOM     54  C   UNL A   1      44.066  32.796  30.645  1.00  0.00     0.049 A 
ATOM     55  H   UNL A   1      43.043  31.038  30.087  1.00  0.00     0.167 HD
ATOM     56  C   UNL A   1      41.680  33.457  30.658  1.00  0.00     0.074 A 
ATOM     57  C   UNL A   1      40.608  34.407  30.866  1.00  0.00     0.031 C 
ATOM     58  C   UNL A   1      42.992  33.733  30.846  1.00  0.00     0.031 A 
BRANCH  45  59
ATOM     59  C   UNL A   1      46.773  28.985  29.774  1.00  0.00    -0.014 A 
ATOM     60  C   UNL A   1      47.315  28.400  30.930  1.00  0.00     0.009 A 
ATOM     61  C   UNL A   1      47.602  29.174  28.657  1.00  0.00     0.009 A 
ATOM     62  C   UNL A   1      48.658  28.020  30.968  1.00  0.00     0.001 A 
ATOM     63  C   UNL A   1      48.937  28.764  28.688  1.00  0.00     0.001 A 
ATOM     64  C   UNL A   1      49.466  28.198  29.847  1.00  0.00     0.000 A 
ENDBRANCH  45  59
BRANCH  46  65
ATOM     65  C   UNL A   1      37.271  32.012  29.858  1.00  0.00    -0.014 A 
ATOM     66  C   UNL A   1      36.749  32.699  28.751  1.00  0.00     0.009 A 
ATOM     67  C   UNL A   1      36.450  31.808  30.978  1.00  0.00     0.009 A 
ATOM     68  C   UNL A   1      35.442  33.192  28.775  1.00  0.00     0.001 A 
ATOM     69  C   UNL A   1      35.134  32.278  30.987  1.00  0.00     0.001 A 
ATOM     70  C   UNL A   1      34.635  32.977  29.890  1.00  0.00     0.000 A 
ENDBRANCH  46  65
BRANCH  58  71
ATOM     71  C   UNL A   1      43.367  35.115  31.297  1.00  0.00    -0.014 A 
ATOM     72  C   UNL A   1      43.668  36.102  30.344  1.00  0.00     0.009 A 
ATOM     73  C   UNL A   1      43.549  35.399  32.658  1.00  0.00     0.009 A 
ATOM     74  C   UNL A   1      44.165  37.342  30.746  1.00  0.00     0.001 A 
ATOM     75  C   UNL A   1      44.023  36.649  33.057  1.00  0.00     0.001 A 
ATOM     76  C   UNL A   1      44.342  37.615  32.102  1.00  0.00     0.000 A 
ENDBRANCH  58  71
ENDBRANCH  32  33
ENDBRANCH  25  27
ENDBRANCH  24  25
ENDBRANCH  23  24
ENDBRANCH   1  23
TORSDOF 14
ENDMDL
