MODEL 1
REMARK VINA RESULT:     -10.8      0.000      0.000
REMARK SMILES Cc1cc(S(=O)(=O)N[C@@H](CO)C(=O)OCCOC(=O)c2ccc(-c3c4nc(c(-c5ccccc5)c5ccc([nH]5)c(-c5ccccc5)c5nc(c(-c6ccccc6)c6ccc3[nH]6)C=C5)C=C4)cc2)ccc1OC(C)C
REMARK SMILES IDX 14 1 12 2 13 3 9 4 8 5 5 7 6 8 7 9 4 10 1 11 2 12 3 13 70 14
REMARK SMILES IDX 69 15 68 16 71 17 72 18 73 19 74 20 10 21 11 22 15 24 16 25
REMARK SMILES IDX 17 26 18 27 19 28 20 29 21 30 67 31 22 32 66 33 23 34 24 35
REMARK SMILES IDX 25 36 60 37 26 38 65 39 59 40 61 41 27 42 64 43 58 44 57 45
REMARK SMILES IDX 28 47 50 48 35 49 49 50 36 51 39 52 48 53 62 54 37 55 38 56
REMARK SMILES IDX 47 58 63 59 40 60 29 61 30 62 34 63 31 64 33 65 32 66 51 67
REMARK SMILES IDX 52 68 56 69 53 70 55 71 54 72 41 73 42 74 46 75 43 76 45 77
REMARK SMILES IDX 44 78
REMARK H PARENT 8 6 11 23 61 46 39 57
REMARK Flexibility Score: inf
ROOT
ATOM      1  O   UNL A   1      33.010  28.538  25.345  1.00  0.00    -0.461 OA
ENDROOT
BRANCH   1   2
ATOM      2  C   UNL A   1      32.745  28.737  24.011  1.00  0.00     0.326 C 
ATOM      3  O   UNL A   1      33.522  29.284  23.245  1.00  0.00    -0.250 OA
BRANCH   2   4
ATOM      4  C   UNL A   1      31.385  28.116  23.667  1.00  0.00     0.205 C 
BRANCH   4   5
ATOM      5  N   UNL A   1      30.997  27.331  24.851  1.00  0.00    -0.194 NA
ATOM      6  H   UNL A   1      31.742  27.487  25.529  1.00  0.00     0.142 HD
BRANCH   5   7
ATOM      7  S   UNL A   1      30.706  25.712  24.903  1.00  0.00     0.241 S 
ATOM      8  O   UNL A   1      30.185  25.335  23.614  1.00  0.00    -0.207 OA
ATOM      9  O   UNL A   1      29.949  25.497  26.122  1.00  0.00    -0.207 OA
BRANCH   7  10
ATOM     10  C   UNL A   1      32.269  24.914  25.133  1.00  0.00     0.083 A 
ATOM     11  C   UNL A   1      33.479  22.541  27.786  1.00  0.00     0.048 C 
ATOM     12  C   UNL A   1      33.603  23.426  26.579  1.00  0.00    -0.008 A 
ATOM     13  C   UNL A   1      32.377  24.038  26.216  1.00  0.00     0.029 A 
ATOM     14  C   UNL A   1      34.730  23.679  25.783  1.00  0.00     0.122 A 
ATOM     15  C   UNL A   1      34.587  24.539  24.668  1.00  0.00     0.048 A 
ATOM     16  C   UNL A   1      33.379  25.171  24.346  1.00  0.00     0.025 A 
BRANCH  14  17
ATOM     17  O   UNL A   1      36.013  23.227  25.857  1.00  0.00    -0.491 OA
BRANCH  17  18
ATOM     18  C   UNL A   1      36.460  21.876  25.809  1.00  0.00     0.167 C 
ATOM     19  C   UNL A   1      35.555  20.930  25.018  1.00  0.00     0.052 C 
ATOM     20  C   UNL A   1      37.966  21.777  25.572  1.00  0.00     0.052 C 
ENDBRANCH  17  18
ENDBRANCH  14  17
ENDBRANCH   7  10
ENDBRANCH   5   7
ENDBRANCH   4   5
BRANCH   4  21
ATOM     21  C   UNL A   1      30.392  29.162  23.161  1.00  0.00     0.188 C 
BRANCH  21  22
ATOM     22  O   UNL A   1      30.842  29.845  21.999  1.00  0.00    -0.394 OA
ATOM     23  H   UNL A   1      31.050  29.199  21.305  1.00  0.00     0.210 HD
ENDBRANCH  21  22
ENDBRANCH   4  21
ENDBRANCH   2   4
ENDBRANCH   1   2
BRANCH   1  24
ATOM     24  C   UNL A   1      33.278  29.741  26.070  1.00  0.00     0.274 C 
BRANCH  24  25
ATOM     25  C   UNL A   1      34.285  29.496  27.200  1.00  0.00     0.275 C 
BRANCH  25  26
ATOM     26  O   UNL A   1      35.181  30.589  27.568  1.00  0.00    -0.458 OA
BRANCH  26  27
ATOM     27  C   UNL A   1      35.939  30.772  28.678  1.00  0.00     0.338 C 
ATOM     28  O   UNL A   1      35.554  31.457  29.619  1.00  0.00    -0.246 OA
BRANCH  27  29
ATOM     29  C   UNL A   1      37.207  30.034  28.785  1.00  0.00     0.060 A 
ATOM     30  C   UNL A   1      37.430  29.214  29.903  1.00  0.00     0.016 A 
ATOM     31  C   UNL A   1      38.126  30.077  27.747  1.00  0.00     0.016 A 
ATOM     32  C   UNL A   1      38.492  28.307  29.903  1.00  0.00     0.010 A 
ATOM     33  C   UNL A   1      39.117  29.121  27.702  1.00  0.00     0.010 A 
ATOM     34  C   UNL A   1      39.311  28.231  28.774  1.00  0.00    -0.014 A 
BRANCH  34  35
ATOM     35  C   UNL A   1      40.546  27.450  28.719  1.00  0.00     0.031 A 
ATOM     36  C   UNL A   1      40.627  26.001  28.442  1.00  0.00     0.074 A 
ATOM     37  C   UNL A   1      41.657  28.165  28.991  1.00  0.00     0.049 A 
ATOM     38  N   UNL A   1      41.583  25.243  28.866  1.00  0.00    -0.248 NA
ATOM     39  C   UNL A   1      39.628  25.266  27.677  1.00  0.00     0.031 C 
ATOM     40  C   UNL A   1      43.059  27.794  28.912  1.00  0.00     0.029 A 
ATOM     41  N   UNL A   1      41.659  29.391  29.660  1.00  0.00    -0.354 N 
ATOM     42  C   UNL A   1      41.468  24.023  28.233  1.00  0.00     0.074 A 
ATOM     43  C   UNL A   1      40.187  24.055  27.572  1.00  0.00     0.031 C 
ATOM     44  C   UNL A   1      43.750  28.605  29.738  1.00  0.00     0.029 A 
ATOM     45  C   UNL A   1      42.780  29.399  30.489  1.00  0.00     0.049 A 
ATOM     46  H   UNL A   1      40.995  30.113  29.565  1.00  0.00     0.167 HD
ATOM     47  C   UNL A   1      42.524  23.163  28.219  1.00  0.00     0.031 A 
ATOM     48  C   UNL A   1      42.578  29.357  31.840  1.00  0.00     0.031 A 
ATOM     49  C   UNL A   1      43.648  23.685  28.982  1.00  0.00     0.049 A 
ATOM     50  C   UNL A   1      43.134  28.106  32.483  1.00  0.00     0.074 A 
ATOM     51  C   UNL A   1      44.796  24.378  28.637  1.00  0.00     0.029 A 
ATOM     52  N   UNL A   1      43.508  23.816  30.351  1.00  0.00    -0.354 N 
ATOM     53  N   UNL A   1      43.488  27.039  31.823  1.00  0.00    -0.248 NA
ATOM     54  C   UNL A   1      43.262  27.936  33.930  1.00  0.00     0.031 C 
ATOM     55  C   UNL A   1      45.315  24.977  29.819  1.00  0.00     0.029 A 
ATOM     56  C   UNL A   1      44.499  24.619  30.876  1.00  0.00     0.049 A 
ATOM     57  H   UNL A   1      42.795  23.392  30.881  1.00  0.00     0.167 HD
ATOM     58  C   UNL A   1      43.949  26.100  32.697  1.00  0.00     0.074 A 
ATOM     59  C   UNL A   1      43.745  26.685  34.009  1.00  0.00     0.031 C 
ATOM     60  C   UNL A   1      44.477  24.912  32.294  1.00  0.00     0.031 A 
BRANCH  47  61
ATOM     61  C   UNL A   1      42.625  21.957  27.322  1.00  0.00    -0.014 A 
ATOM     62  C   UNL A   1      41.827  20.829  27.592  1.00  0.00     0.009 A 
ATOM     63  C   UNL A   1      43.488  21.860  26.218  1.00  0.00     0.009 A 
ATOM     64  C   UNL A   1      41.938  19.643  26.855  1.00  0.00     0.001 A 
ATOM     65  C   UNL A   1      43.623  20.664  25.492  1.00  0.00     0.001 A 
ATOM     66  C   UNL A   1      42.855  19.552  25.817  1.00  0.00     0.000 A 
ENDBRANCH  47  61
BRANCH  48  67
ATOM     67  C   UNL A   1      41.342  30.066  32.312  1.00  0.00    -0.014 A 
ATOM     68  C   UNL A   1      40.225  29.299  32.715  1.00  0.00     0.009 A 
ATOM     69  C   UNL A   1      41.342  31.433  32.621  1.00  0.00     0.009 A 
ATOM     70  C   UNL A   1      39.198  29.857  33.485  1.00  0.00     0.001 A 
ATOM     71  C   UNL A   1      40.296  31.997  33.369  1.00  0.00     0.001 A 
ATOM     72  C   UNL A   1      39.244  31.204  33.826  1.00  0.00     0.000 A 
ENDBRANCH  48  67
BRANCH  60  73
ATOM     73  C   UNL A   1      45.044  23.919  33.250  1.00  0.00    -0.014 A 
ATOM     74  C   UNL A   1      44.274  22.868  33.764  1.00  0.00     0.009 A 
ATOM     75  C   UNL A   1      46.345  24.093  33.759  1.00  0.00     0.009 A 
ATOM     76  C   UNL A   1      44.808  21.984  34.706  1.00  0.00     0.001 A 
ATOM     77  C   UNL A   1      46.870  23.228  34.717  1.00  0.00     0.001 A 
ATOM     78  C   UNL A   1      46.105  22.164  35.180  1.00  0.00     0.000 A 
ENDBRANCH  60  73
ENDBRANCH  34  35
ENDBRANCH  27  29
ENDBRANCH  26  27
ENDBRANCH  25  26
ENDBRANCH  24  25
ENDBRANCH   1  24
TORSDOF 18
ENDMDL
MODEL 2
REMARK VINA RESULT:     -10.8      1.193      1.804
REMARK SMILES Cc1cc(S(=O)(=O)N[C@@H](CO)C(=O)OCCOC(=O)c2ccc(-c3c4nc(c(-c5ccccc5)c5ccc([nH]5)c(-c5ccccc5)c5nc(c(-c6ccccc6)c6ccc3[nH]6)C=C5)C=C4)cc2)ccc1OC(C)C
REMARK SMILES IDX 14 1 12 2 13 3 9 4 8 5 5 7 6 8 7 9 4 10 1 11 2 12 3 13 70 14
REMARK SMILES IDX 69 15 68 16 71 17 72 18 73 19 74 20 10 21 11 22 15 24 16 25
REMARK SMILES IDX 17 26 18 27 19 28 20 29 21 30 67 31 22 32 66 33 23 34 24 35
REMARK SMILES IDX 25 36 60 37 26 38 65 39 59 40 61 41 27 42 64 43 58 44 57 45
REMARK SMILES IDX 28 47 50 48 35 49 49 50 36 51 39 52 48 53 62 54 37 55 38 56
REMARK SMILES IDX 47 58 63 59 40 60 29 61 30 62 34 63 31 64 33 65 32 66 51 67
REMARK SMILES IDX 52 68 56 69 53 70 55 71 54 72 41 73 42 74 46 75 43 76 45 77
REMARK SMILES IDX 44 78
REMARK H PARENT 8 6 11 23 61 46 39 57
REMARK Flexibility Score: inf
ROOT
ATOM      1  O   UNL A   1      33.475  29.234  24.876  1.00  0.00    -0.461 OA
ENDROOT
BRANCH   1   2
ATOM      2  C   UNL A   1      32.125  29.083  24.662  1.00  0.00     0.326 C 
ATOM      3  O   UNL A   1      31.280  29.292  25.517  1.00  0.00    -0.250 OA
BRANCH   2   4
ATOM      4  C   UNL A   1      31.887  28.685  23.199  1.00  0.00     0.205 C 
BRANCH   4   5
ATOM      5  N   UNL A   1      31.980  27.216  23.167  1.00  0.00    -0.194 NA
ATOM      6  H   UNL A   1      32.394  26.956  24.062  1.00  0.00     0.142 HD
BRANCH   5   7
ATOM      7  S   UNL A   1      32.777  26.308  22.050  1.00  0.00     0.241 S 
ATOM      8  O   UNL A   1      33.965  27.035  21.684  1.00  0.00    -0.207 OA
ATOM      9  O   UNL A   1      31.774  25.944  21.066  1.00  0.00    -0.207 OA
BRANCH   7  10
ATOM     10  C   UNL A   1      33.261  24.807  22.854  1.00  0.00     0.083 A 
ATOM     11  C   UNL A   1      35.898  24.112  25.440  1.00  0.00     0.048 C 
ATOM     12  C   UNL A   1      34.822  23.764  24.452  1.00  0.00    -0.008 A 
ATOM     13  C   UNL A   1      34.264  24.903  23.820  1.00  0.00     0.029 A 
ATOM     14  C   UNL A   1      34.303  22.504  24.123  1.00  0.00     0.122 A 
ATOM     15  C   UNL A   1      33.259  22.434  23.169  1.00  0.00     0.048 A 
ATOM     16  C   UNL A   1      32.747  23.564  22.520  1.00  0.00     0.025 A 
BRANCH  14  17
ATOM     17  O   UNL A   1      34.605  21.252  24.570  1.00  0.00    -0.491 OA
BRANCH  17  18
ATOM     18  C   UNL A   1      34.002  20.550  25.651  1.00  0.00     0.167 C 
ATOM     19  C   UNL A   1      33.689  21.409  26.878  1.00  0.00     0.052 C 
ATOM     20  C   UNL A   1      32.923  19.578  25.175  1.00  0.00     0.052 C 
ENDBRANCH  17  18
ENDBRANCH  14  17
ENDBRANCH   7  10
ENDBRANCH   5   7
ENDBRANCH   4   5
BRANCH   4  21
ATOM     21  C   UNL A   1      30.616  29.321  22.635  1.00  0.00     0.188 C 
BRANCH  21  22
ATOM     22  O   UNL A   1      30.847  30.082  21.457  1.00  0.00    -0.394 OA
ATOM     23  H   UNL A   1      31.705  30.529  21.525  1.00  0.00     0.210 HD
ENDBRANCH  21  22
ENDBRANCH   4  21
ENDBRANCH   2   4
ENDBRANCH   1   2
BRANCH   1  24
ATOM     24  C   UNL A   1      34.012  28.340  25.853  1.00  0.00     0.274 C 
BRANCH  24  25
ATOM     25  C   UNL A   1      34.183  29.036  27.209  1.00  0.00     0.275 C 
BRANCH  25  26
ATOM     26  O   UNL A   1      35.049  30.211  27.271  1.00  0.00    -0.458 OA
BRANCH  26  27
ATOM     27  C   UNL A   1      35.906  30.625  28.238  1.00  0.00     0.338 C 
ATOM     28  O   UNL A   1      35.611  31.513  29.029  1.00  0.00    -0.246 OA
BRANCH  27  29
ATOM     29  C   UNL A   1      37.177  29.903  28.396  1.00  0.00     0.060 A 
ATOM     30  C   UNL A   1      37.394  29.141  29.555  1.00  0.00     0.016 A 
ATOM     31  C   UNL A   1      38.108  29.901  27.366  1.00  0.00     0.016 A 
ATOM     32  C   UNL A   1      38.462  28.243  29.612  1.00  0.00     0.010 A 
ATOM     33  C   UNL A   1      39.107  28.951  27.380  1.00  0.00     0.010 A 
ATOM     34  C   UNL A   1      39.294  28.117  28.498  1.00  0.00    -0.014 A 
BRANCH  34  35
ATOM     35  C   UNL A   1      40.536  27.344  28.495  1.00  0.00     0.031 A 
ATOM     36  C   UNL A   1      40.631  25.886  28.276  1.00  0.00     0.074 A 
ATOM     37  C   UNL A   1      41.637  28.077  28.760  1.00  0.00     0.049 A 
ATOM     38  N   UNL A   1      41.584  25.152  28.747  1.00  0.00    -0.248 NA
ATOM     39  C   UNL A   1      39.651  25.115  27.522  1.00  0.00     0.031 C 
ATOM     40  C   UNL A   1      43.042  27.714  28.721  1.00  0.00     0.029 A 
ATOM     41  N   UNL A   1      41.618  29.329  29.381  1.00  0.00    -0.354 N 
ATOM     42  C   UNL A   1      41.489  23.908  28.159  1.00  0.00     0.074 A 
ATOM     43  C   UNL A   1      40.221  23.904  27.474  1.00  0.00     0.031 C 
ATOM     44  C   UNL A   1      43.712  28.562  29.526  1.00  0.00     0.029 A 
ATOM     45  C   UNL A   1      42.723  29.377  30.228  1.00  0.00     0.049 A 
ATOM     46  H   UNL A   1      40.951  30.041  29.245  1.00  0.00     0.167 HD
ATOM     47  C   UNL A   1      42.551  23.055  28.198  1.00  0.00     0.031 A 
ATOM     48  C   UNL A   1      42.497  29.385  31.576  1.00  0.00     0.031 A 
ATOM     49  C   UNL A   1      43.657  23.615  28.960  1.00  0.00     0.049 A 
ATOM     50  C   UNL A   1      43.049  28.164  32.277  1.00  0.00     0.074 A 
ATOM     51  C   UNL A   1      44.806  24.303  28.609  1.00  0.00     0.029 A 
ATOM     52  N   UNL A   1      43.491  23.798  30.320  1.00  0.00    -0.354 N 
ATOM     53  N   UNL A   1      43.423  27.075  31.665  1.00  0.00    -0.248 NA
ATOM     54  C   UNL A   1      43.153  28.051  33.732  1.00  0.00     0.031 C 
ATOM     55  C   UNL A   1      45.300  24.951  29.777  1.00  0.00     0.029 A 
ATOM     56  C   UNL A   1      44.467  24.628  30.831  1.00  0.00     0.049 A 
ATOM     57  H   UNL A   1      42.772  23.389  30.853  1.00  0.00     0.167 HD
ATOM     58  C   UNL A   1      43.874  26.174  32.583  1.00  0.00     0.074 A 
ATOM     59  C   UNL A   1      43.643  26.808  33.868  1.00  0.00     0.031 C 
ATOM     60  C   UNL A   1      44.417  24.976  32.237  1.00  0.00     0.031 A 
BRANCH  47  61
ATOM     61  C   UNL A   1      42.677  21.817  27.350  1.00  0.00    -0.014 A 
ATOM     62  C   UNL A   1      43.611  21.797  26.295  1.00  0.00     0.009 A 
ATOM     63  C   UNL A   1      41.906  20.656  27.520  1.00  0.00     0.009 A 
ATOM     64  C   UNL A   1      43.716  20.715  25.412  1.00  0.00     0.001 A 
ATOM     65  C   UNL A   1      41.987  19.579  26.622  1.00  0.00     0.001 A 
ATOM     66  C   UNL A   1      42.885  19.612  25.561  1.00  0.00     0.000 A 
ENDBRANCH  47  61
BRANCH  48  67
ATOM     67  C   UNL A   1      41.248  30.102  31.998  1.00  0.00    -0.014 A 
ATOM     68  C   UNL A   1      40.146  29.346  32.459  1.00  0.00     0.009 A 
ATOM     69  C   UNL A   1      41.221  31.488  32.206  1.00  0.00     0.009 A 
ATOM     70  C   UNL A   1      39.110  29.939  33.189  1.00  0.00     0.001 A 
ATOM     71  C   UNL A   1      40.166  32.085  32.913  1.00  0.00     0.001 A 
ATOM     72  C   UNL A   1      39.129  31.308  33.430  1.00  0.00     0.000 A 
ENDBRANCH  48  67
BRANCH  60  73
ATOM     73  C   UNL A   1      44.974  24.024  33.240  1.00  0.00    -0.014 A 
ATOM     74  C   UNL A   1      46.294  24.125  33.698  1.00  0.00     0.009 A 
ATOM     75  C   UNL A   1      44.214  22.916  33.658  1.00  0.00     0.009 A 
ATOM     76  C   UNL A   1      46.814  23.185  34.592  1.00  0.00     0.001 A 
ATOM     77  C   UNL A   1      44.740  21.964  34.531  1.00  0.00     0.001 A 
ATOM     78  C   UNL A   1      46.037  22.108  35.008  1.00  0.00     0.000 A 
ENDBRANCH  60  73
ENDBRANCH  34  35
ENDBRANCH  27  29
ENDBRANCH  26  27
ENDBRANCH  25  26
ENDBRANCH  24  25
ENDBRANCH   1  24
TORSDOF 18
ENDMDL
MODEL 3
REMARK VINA RESULT:     -10.4      3.199      6.037
REMARK SMILES Cc1cc(S(=O)(=O)N[C@@H](CO)C(=O)OCCOC(=O)c2ccc(-c3c4nc(c(-c5ccccc5)c5ccc([nH]5)c(-c5ccccc5)c5nc(c(-c6ccccc6)c6ccc3[nH]6)C=C5)C=C4)cc2)ccc1OC(C)C
REMARK SMILES IDX 14 1 12 2 13 3 9 4 8 5 5 7 6 8 7 9 4 10 1 11 2 12 3 13 70 14
REMARK SMILES IDX 69 15 68 16 71 17 72 18 73 19 74 20 10 21 11 22 15 24 16 25
REMARK SMILES IDX 17 26 18 27 19 28 20 29 21 30 67 31 22 32 66 33 23 34 24 35
REMARK SMILES IDX 25 36 60 37 26 38 65 39 59 40 61 41 27 42 64 43 58 44 57 45
REMARK SMILES IDX 28 47 50 48 35 49 49 50 36 51 39 52 48 53 62 54 37 55 38 56
REMARK SMILES IDX 47 58 63 59 40 60 29 61 30 62 34 63 31 64 33 65 32 66 51 67
REMARK SMILES IDX 52 68 56 69 53 70 55 71 54 72 41 73 42 74 46 75 43 76 45 77
REMARK SMILES IDX 44 78
REMARK H PARENT 8 6 11 23 61 46 39 57
REMARK Flexibility Score: inf
ROOT
ATOM      1  O   UNL A   1      32.859  29.362  26.818  1.00  0.00    -0.461 OA
ENDROOT
BRANCH   1   2
ATOM      2  C   UNL A   1      33.035  28.604  25.685  1.00  0.00     0.326 C 
ATOM      3  O   UNL A   1      34.015  28.690  24.963  1.00  0.00    -0.250 OA
BRANCH   2   4
ATOM      4  C   UNL A   1      31.858  27.630  25.541  1.00  0.00     0.205 C 
BRANCH   4   5
ATOM      5  N   UNL A   1      32.258  26.675  24.494  1.00  0.00    -0.194 NA
ATOM      6  H   UNL A   1      33.250  26.853  24.337  1.00  0.00     0.142 HD
BRANCH   5   7
ATOM      7  S   UNL A   1      31.606  26.540  22.989  1.00  0.00     0.241 S 
ATOM      8  O   UNL A   1      30.832  25.325  22.972  1.00  0.00    -0.207 OA
ATOM      9  O   UNL A   1      32.711  26.751  22.072  1.00  0.00    -0.207 OA
BRANCH   7  10
ATOM     10  C   UNL A   1      30.507  27.911  22.776  1.00  0.00     0.083 A 
ATOM     11  C   UNL A   1      26.834  28.284  23.485  1.00  0.00     0.048 C 
ATOM     12  C   UNL A   1      28.181  28.706  22.970  1.00  0.00    -0.008 A 
ATOM     13  C   UNL A   1      29.186  27.731  23.191  1.00  0.00     0.029 A 
ATOM     14  C   UNL A   1      28.552  29.911  22.357  1.00  0.00     0.122 A 
ATOM     15  C   UNL A   1      29.906  30.086  21.981  1.00  0.00     0.048 A 
ATOM     16  C   UNL A   1      30.879  29.097  22.166  1.00  0.00     0.025 A 
BRANCH  14  17
ATOM     17  O   UNL A   1      27.836  31.027  22.041  1.00  0.00    -0.491 OA
BRANCH  17  18
ATOM     18  C   UNL A   1      28.340  32.295  21.636  1.00  0.00     0.167 C 
ATOM     19  C   UNL A   1      27.671  32.882  20.392  1.00  0.00     0.052 C 
ATOM     20  C   UNL A   1      28.569  33.229  22.823  1.00  0.00     0.052 C 
ENDBRANCH  17  18
ENDBRANCH  14  17
ENDBRANCH   7  10
ENDBRANCH   5   7
ENDBRANCH   4   5
BRANCH   4  21
ATOM     21  C   UNL A   1      31.427  27.053  26.890  1.00  0.00     0.188 C 
BRANCH  21  22
ATOM     22  O   UNL A   1      30.332  26.153  26.789  1.00  0.00    -0.394 OA
ATOM     23  H   UNL A   1      29.777  26.402  26.033  1.00  0.00     0.210 HD
ENDBRANCH  21  22
ENDBRANCH   4  21
ENDBRANCH   2   4
ENDBRANCH   1   2
BRANCH   1  24
ATOM     24  C   UNL A   1      33.254  30.728  26.670  1.00  0.00     0.274 C 
BRANCH  24  25
ATOM     25  C   UNL A   1      32.155  31.680  27.157  1.00  0.00     0.275 C 
BRANCH  25  26
ATOM     26  O   UNL A   1      32.479  33.100  27.269  1.00  0.00    -0.458 OA
BRANCH  26  27
ATOM     27  C   UNL A   1      33.115  33.785  28.252  1.00  0.00     0.338 C 
ATOM     28  O   UNL A   1      32.584  34.720  28.839  1.00  0.00    -0.246 OA
BRANCH  27  29
ATOM     29  C   UNL A   1      34.438  33.309  28.687  1.00  0.00     0.060 A 
ATOM     30  C   UNL A   1      34.530  32.473  29.810  1.00  0.00     0.016 A 
ATOM     31  C   UNL A   1      35.565  33.610  27.936  1.00  0.00     0.016 A 
ATOM     32  C   UNL A   1      35.722  31.799  30.084  1.00  0.00     0.010 A 
ATOM     33  C   UNL A   1      36.714  32.876  28.147  1.00  0.00     0.010 A 
ATOM     34  C   UNL A   1      36.804  31.970  29.218  1.00  0.00    -0.014 A 
BRANCH  34  35
ATOM     35  C   UNL A   1      38.148  31.457  29.487  1.00  0.00     0.031 A 
ATOM     36  C   UNL A   1      38.635  30.111  29.125  1.00  0.00     0.074 A 
ATOM     37  C   UNL A   1      38.938  32.322  30.156  1.00  0.00     0.049 A 
ATOM     38  N   UNL A   1      39.575  29.494  29.761  1.00  0.00    -0.248 NA
ATOM     39  C   UNL A   1      38.096  29.324  28.024  1.00  0.00     0.031 C 
ATOM     40  C   UNL A   1      40.349  32.243  30.491  1.00  0.00     0.029 A 
ATOM     41  N   UNL A   1      38.465  33.409  30.896  1.00  0.00    -0.354 N 
ATOM     42  C   UNL A   1      39.931  28.386  29.021  1.00  0.00     0.074 A 
ATOM     43  C   UNL A   1      38.924  28.273  27.995  1.00  0.00     0.031 C 
ATOM     44  C   UNL A   1      40.567  33.036  31.560  1.00  0.00     0.029 A 
ATOM     45  C   UNL A   1      39.266  33.505  32.033  1.00  0.00     0.049 A 
ATOM     46  H   UNL A   1      37.710  33.996  30.659  1.00  0.00     0.167 HD
ATOM     47  C   UNL A   1      41.114  27.757  29.265  1.00  0.00     0.031 A 
ATOM     48  C   UNL A   1      38.698  33.218  33.242  1.00  0.00     0.031 A 
ATOM     49  C   UNL A   1      41.818  28.362  30.386  1.00  0.00     0.049 A 
ATOM     50  C   UNL A   1      39.316  32.014  33.916  1.00  0.00     0.074 A 
ATOM     51  C   UNL A   1      42.826  29.307  30.481  1.00  0.00     0.029 A 
ATOM     52  N   UNL A   1      41.263  28.253  31.647  1.00  0.00    -0.354 N 
ATOM     53  N   UNL A   1      40.081  31.149  33.312  1.00  0.00    -0.248 NA
ATOM     54  C   UNL A   1      39.057  31.653  35.310  1.00  0.00     0.031 C 
ATOM     55  C   UNL A   1      42.830  29.806  31.815  1.00  0.00     0.029 A 
ATOM     56  C   UNL A   1      41.848  29.141  32.525  1.00  0.00     0.049 A 
ATOM     57  H   UNL A   1      40.545  27.624  31.887  1.00  0.00     0.167 HD
ATOM     58  C   UNL A   1      40.472  30.193  34.201  1.00  0.00     0.074 A 
ATOM     59  C   UNL A   1      39.770  30.520  35.428  1.00  0.00     0.031 C 
ATOM     60  C   UNL A   1      41.351  29.204  33.884  1.00  0.00     0.031 A 
BRANCH  47  61
ATOM     61  C   UNL A   1      41.744  26.745  28.345  1.00  0.00    -0.014 A 
ATOM     62  C   UNL A   1      41.334  25.399  28.417  1.00  0.00     0.009 A 
ATOM     63  C   UNL A   1      42.746  27.041  27.406  1.00  0.00     0.009 A 
ATOM     64  C   UNL A   1      41.942  24.392  27.657  1.00  0.00     0.001 A 
ATOM     65  C   UNL A   1      43.378  26.032  26.660  1.00  0.00     0.001 A 
ATOM     66  C   UNL A   1      42.983  24.706  26.793  1.00  0.00     0.000 A 
ENDBRANCH  47  61
BRANCH  48  67
ATOM     67  C   UNL A   1      37.250  33.596  33.360  1.00  0.00    -0.014 A 
ATOM     68  C   UNL A   1      36.838  34.874  32.918  1.00  0.00     0.009 A 
ATOM     69  C   UNL A   1      36.255  32.649  33.638  1.00  0.00     0.009 A 
ATOM     70  C   UNL A   1      35.490  35.157  32.666  1.00  0.00     0.001 A 
ATOM     71  C   UNL A   1      34.902  32.945  33.413  1.00  0.00     0.001 A 
ATOM     72  C   UNL A   1      34.524  34.186  32.899  1.00  0.00     0.000 A 
ENDBRANCH  48  67
BRANCH  60  73
ATOM     73  C   UNL A   1      41.830  28.204  34.880  1.00  0.00    -0.014 A 
ATOM     74  C   UNL A   1      42.827  28.513  35.814  1.00  0.00     0.009 A 
ATOM     75  C   UNL A   1      41.375  26.874  34.818  1.00  0.00     0.009 A 
ATOM     76  C   UNL A   1      43.305  27.542  36.698  1.00  0.00     0.001 A 
ATOM     77  C   UNL A   1      41.870  25.898  35.682  1.00  0.00     0.001 A 
ATOM     78  C   UNL A   1      42.826  26.237  36.632  1.00  0.00     0.000 A 
ENDBRANCH  60  73
ENDBRANCH  34  35
ENDBRANCH  27  29
ENDBRANCH  26  27
ENDBRANCH  25  26
ENDBRANCH  24  25
ENDBRANCH   1  24
TORSDOF 18
ENDMDL
