MODEL 1
REMARK VINA RESULT:     -13.3      0.000      0.000
REMARK SMILES O=C(OCCOC(=O)c1ccc(-c2c3nc(c(-c4ccccc4)c4ccc([nH]4)c(-c4ccccc4)c4nc(c(-c5ccccc5)c5ccc2[nH]5)C=C4)C=C3)cc1)C1=Cc2c(Cl)ccc(Cl)c2O[C@@H]1C(F)(F)F
REMARK SMILES IDX 5 1 4 2 3 3 2 4 1 5 57 6 58 7 68 8 59 9 67 10 60 11 66 12
REMARK SMILES IDX 61 13 62 14 64 15 63 16 65 17 69 18 70 19 71 20 72 21 6 22
REMARK SMILES IDX 7 23 8 24 9 25 10 26 56 27 11 28 55 29 12 30 13 31 14 32
REMARK SMILES IDX 49 33 15 34 54 35 48 36 50 37 16 38 53 39 47 40 46 41 17 43
REMARK SMILES IDX 39 44 24 45 38 46 25 47 28 48 37 49 51 50 26 51 27 52 36 54
REMARK SMILES IDX 52 55 29 56 18 57 19 58 23 59 20 60 22 61 21 62 40 63 41 64
REMARK SMILES IDX 45 65 42 66 44 67 43 68 30 69 31 70 35 71 32 72 34 73 33 74
REMARK H PARENT 50 42 28 53
REMARK Flexibility Score: inf
ROOT
ATOM      1  C   UNL A   1      36.379  20.458  24.966  1.00  0.00     0.275 C 
ENDROOT
BRANCH   1   2
ATOM      2  C   UNL A   1      34.957  21.818  25.863  1.00  0.00     0.275 C 
BRANCH   2   3
ATOM      3  O   UNL A   1      34.982  23.376  25.759  1.00  0.00    -0.459 OA
BRANCH   3   4
ATOM      4  C   UNL A   1      34.116  23.866  24.863  1.00  0.00     0.338 C 
ATOM      5  O   UNL A   1      34.230  24.046  23.679  1.00  0.00    -0.246 OA
BRANCH   4   6
ATOM      6  C   UNL A   1      33.227  24.427  25.847  1.00  0.00     0.087 C 
ATOM      7  C   UNL A   1      33.551  25.846  26.114  1.00  0.00     0.029 C 
ATOM      8  C   UNL A   1      31.589  23.793  25.043  1.00  0.00     0.316 C 
ATOM      9  C   UNL A   1      32.503  27.233  25.570  1.00  0.00     0.037 A 
ATOM     10  O   UNL A   1      30.487  25.241  24.427  1.00  0.00    -0.474 OA
ATOM     11  C   UNL A   1      32.963  28.524  25.666  1.00  0.00     0.052 A 
ATOM     12  C   UNL A   1      31.033  26.964  24.672  1.00  0.00     0.148 A 
ATOM     13  Cl  UNL A   1      34.416  28.952  26.467  1.00  0.00    -0.084 Cl
ATOM     14  C   UNL A   1      32.194  29.500  25.007  1.00  0.00     0.023 A 
ATOM     15  C   UNL A   1      30.345  27.984  24.070  1.00  0.00     0.083 A 
ATOM     16  C   UNL A   1      30.968  29.244  24.255  1.00  0.00     0.026 A 
ATOM     17  Cl  UNL A   1      28.941  27.815  23.135  1.00  0.00    -0.080 Cl
BRANCH   8  18
ATOM     18  C   UNL A   1      31.309  22.569  25.979  1.00  0.00     0.430 C 
ATOM     19  F   UNL A   1      31.740  22.785  27.231  1.00  0.00    -0.167 F 
ATOM     20  F   UNL A   1      29.954  22.434  26.109  1.00  0.00    -0.167 F 
ATOM     21  F   UNL A   1      31.682  21.356  25.540  1.00  0.00    -0.167 F 
ENDBRANCH   8  18
ENDBRANCH   4   6
ENDBRANCH   3   4
ENDBRANCH   2   3
ENDBRANCH   1   2
BRANCH   1  22
ATOM     22  O   UNL A   1      38.082  20.583  25.042  1.00  0.00    -0.458 OA
BRANCH  22  23
ATOM     23  C   UNL A   1      39.189  20.194  25.751  1.00  0.00     0.338 C 
ATOM     24  O   UNL A   1      39.895  19.213  25.628  1.00  0.00    -0.246 OA
BRANCH  23  25
ATOM     25  C   UNL A   1      39.613  21.417  26.499  1.00  0.00     0.060 A 
ATOM     26  C   UNL A   1      40.806  21.370  27.240  1.00  0.00     0.016 A 
ATOM     27  C   UNL A   1      39.062  22.649  26.149  1.00  0.00     0.016 A 
ATOM     28  C   UNL A   1      41.564  22.543  27.414  1.00  0.00     0.010 A 
ATOM     29  C   UNL A   1      39.806  23.815  26.346  1.00  0.00     0.010 A 
ATOM     30  C   UNL A   1      41.094  23.764  26.911  1.00  0.00    -0.014 A 
BRANCH  30  31
ATOM     31  C   UNL A   1      41.811  25.040  27.170  1.00  0.00     0.031 A 
ATOM     32  C   UNL A   1      41.080  26.037  28.018  1.00  0.00     0.074 A 
ATOM     33  C   UNL A   1      43.001  25.363  26.621  1.00  0.00     0.049 A 
ATOM     34  N   UNL A   1      41.396  27.265  28.327  1.00  0.00    -0.248 NA
ATOM     35  C   UNL A   1      39.791  25.580  28.564  1.00  0.00     0.031 C 
ATOM     36  C   UNL A   1      43.827  24.502  25.776  1.00  0.00     0.029 A 
ATOM     37  N   UNL A   1      43.717  26.541  26.684  1.00  0.00    -0.354 N 
ATOM     38  C   UNL A   1      40.339  27.727  29.098  1.00  0.00     0.074 A 
ATOM     39  C   UNL A   1      39.355  26.672  29.162  1.00  0.00     0.031 C 
ATOM     40  C   UNL A   1      44.927  25.182  25.390  1.00  0.00     0.029 A 
ATOM     41  C   UNL A   1      44.880  26.536  25.944  1.00  0.00     0.049 A 
ATOM     42  H   UNL A   1      43.424  27.318  27.212  1.00  0.00     0.167 HD
ATOM     43  C   UNL A   1      40.196  28.919  29.714  1.00  0.00     0.031 A 
ATOM     44  C   UNL A   1      45.788  27.514  25.737  1.00  0.00     0.031 A 
ATOM     45  C   UNL A   1      41.142  29.990  29.620  1.00  0.00     0.049 A 
ATOM     46  C   UNL A   1      45.579  28.866  26.389  1.00  0.00     0.074 A 
ATOM     47  C   UNL A   1      41.089  31.240  30.205  1.00  0.00     0.029 A 
ATOM     48  N   UNL A   1      42.310  29.935  28.875  1.00  0.00    -0.354 N 
ATOM     49  N   UNL A   1      44.610  29.267  27.178  1.00  0.00    -0.248 NA
ATOM     50  C   UNL A   1      46.599  29.898  26.129  1.00  0.00     0.031 C 
ATOM     51  C   UNL A   1      42.209  31.962  29.778  1.00  0.00     0.029 A 
ATOM     52  C   UNL A   1      42.983  31.138  28.975  1.00  0.00     0.049 A 
ATOM     53  H   UNL A   1      42.614  29.156  28.356  1.00  0.00     0.167 HD
ATOM     54  C   UNL A   1      44.926  30.573  27.540  1.00  0.00     0.074 A 
ATOM     55  C   UNL A   1      46.179  30.898  26.893  1.00  0.00     0.031 C 
ATOM     56  C   UNL A   1      44.242  31.429  28.340  1.00  0.00     0.031 A 
BRANCH  43  57
ATOM     57  C   UNL A   1      38.938  29.102  30.508  1.00  0.00    -0.014 A 
ATOM     58  C   UNL A   1      37.801  29.690  29.927  1.00  0.00     0.009 A 
ATOM     59  C   UNL A   1      38.914  28.762  31.867  1.00  0.00     0.009 A 
ATOM     60  C   UNL A   1      36.686  29.991  30.710  1.00  0.00     0.001 A 
ATOM     61  C   UNL A   1      37.784  29.033  32.639  1.00  0.00     0.001 A 
ATOM     62  C   UNL A   1      36.678  29.662  32.064  1.00  0.00     0.000 A 
ENDBRANCH  43  57
BRANCH  44  63
ATOM     63  C   UNL A   1      46.996  27.295  24.885  1.00  0.00    -0.014 A 
ATOM     64  C   UNL A   1      48.154  26.710  25.426  1.00  0.00     0.009 A 
ATOM     65  C   UNL A   1      47.036  27.752  23.559  1.00  0.00     0.009 A 
ATOM     66  C   UNL A   1      49.332  26.624  24.675  1.00  0.00     0.001 A 
ATOM     67  C   UNL A   1      48.208  27.640  22.800  1.00  0.00     0.001 A 
ATOM     68  C   UNL A   1      49.358  27.089  23.363  1.00  0.00     0.000 A 
ENDBRANCH  44  63
BRANCH  56  69
ATOM     69  C   UNL A   1      44.852  32.775  28.616  1.00  0.00    -0.014 A 
ATOM     70  C   UNL A   1      45.773  32.965  29.656  1.00  0.00     0.009 A 
ATOM     71  C   UNL A   1      44.566  33.847  27.754  1.00  0.00     0.009 A 
ATOM     72  C   UNL A   1      46.382  34.209  29.839  1.00  0.00     0.001 A 
ATOM     73  C   UNL A   1      45.199  35.080  27.920  1.00  0.00     0.001 A 
ATOM     74  C   UNL A   1      46.102  35.262  28.966  1.00  0.00     0.000 A 
ENDBRANCH  56  69
ENDBRANCH  30  31
ENDBRANCH  23  25
ENDBRANCH  22  23
ENDBRANCH   1  22
TORSDOF 12
ENDMDL
MODEL 2
REMARK VINA RESULT:     -13.3      4.401      9.563
REMARK SMILES O=C(OCCOC(=O)c1ccc(-c2c3nc(c(-c4ccccc4)c4ccc([nH]4)c(-c4ccccc4)c4nc(c(-c5ccccc5)c5ccc2[nH]5)C=C4)C=C3)cc1)C1=Cc2c(Cl)ccc(Cl)c2O[C@@H]1C(F)(F)F
REMARK SMILES IDX 5 1 4 2 3 3 2 4 1 5 57 6 58 7 68 8 59 9 67 10 60 11 66 12
REMARK SMILES IDX 61 13 62 14 64 15 63 16 65 17 69 18 70 19 71 20 72 21 6 22
REMARK SMILES IDX 7 23 8 24 9 25 10 26 56 27 11 28 55 29 12 30 13 31 14 32
REMARK SMILES IDX 49 33 15 34 54 35 48 36 50 37 16 38 53 39 47 40 46 41 17 43
REMARK SMILES IDX 39 44 24 45 38 46 25 47 28 48 37 49 51 50 26 51 27 52 36 54
REMARK SMILES IDX 52 55 29 56 18 57 19 58 23 59 20 60 22 61 21 62 40 63 41 64
REMARK SMILES IDX 45 65 42 66 44 67 43 68 30 69 31 70 35 71 32 72 34 73 33 74
REMARK H PARENT 50 42 28 53
REMARK Flexibility Score: inf
ROOT
ATOM      1  C   UNL A   1      31.027  31.845  26.060  1.00  0.00     0.275 C 
ENDROOT
BRANCH   1   2
ATOM      2  C   UNL A   1      31.100  29.942  25.037  1.00  0.00     0.275 C 
BRANCH   2   3
ATOM      3  O   UNL A   1      30.901  28.537  25.691  1.00  0.00    -0.459 OA
BRANCH   3   4
ATOM      4  C   UNL A   1      31.417  27.534  24.970  1.00  0.00     0.338 C 
ATOM      5  O   UNL A   1      31.179  27.171  23.847  1.00  0.00    -0.246 OA
BRANCH   4   6
ATOM      6  C   UNL A   1      32.011  26.867  26.098  1.00  0.00     0.087 C 
ATOM      7  C   UNL A   1      31.414  25.529  26.305  1.00  0.00     0.029 C 
ATOM      8  C   UNL A   1      33.848  27.198  25.601  1.00  0.00     0.316 C 
ATOM      9  C   UNL A   1      32.295  23.973  25.961  1.00  0.00     0.037 A 
ATOM     10  O   UNL A   1      34.784  25.570  25.195  1.00  0.00    -0.474 OA
ATOM     11  C   UNL A   1      31.615  22.778  25.974  1.00  0.00     0.052 A 
ATOM     12  C   UNL A   1      33.924  23.969  25.340  1.00  0.00     0.148 A 
ATOM     13  Cl  UNL A   1      29.994  22.619  26.502  1.00  0.00    -0.084 Cl
ATOM     14  C   UNL A   1      32.315  21.669  25.465  1.00  0.00     0.023 A 
ATOM     15  C   UNL A   1      34.527  22.831  24.874  1.00  0.00     0.083 A 
ATOM     16  C   UNL A   1      33.680  21.697  24.946  1.00  0.00     0.026 A 
ATOM     17  Cl  UNL A   1      36.083  22.738  24.205  1.00  0.00    -0.080 Cl
BRANCH   8  18
ATOM     18  C   UNL A   1      34.159  28.389  26.570  1.00  0.00     0.430 C 
ATOM     19  F   UNL A   1      35.449  28.412  26.937  1.00  0.00    -0.167 F 
ATOM     20  F   UNL A   1      33.984  29.556  25.880  1.00  0.00    -0.167 F 
ATOM     21  F   UNL A   1      33.349  28.550  27.629  1.00  0.00    -0.167 F 
ENDBRANCH   8  18
ENDBRANCH   4   6
ENDBRANCH   3   4
ENDBRANCH   2   3
ENDBRANCH   1   2
BRANCH   1  22
ATOM     22  O   UNL A   1      32.115  32.389  27.261  1.00  0.00    -0.458 OA
BRANCH  22  23
ATOM     23  C   UNL A   1      32.872  33.458  27.665  1.00  0.00     0.338 C 
ATOM     24  O   UNL A   1      32.532  34.564  28.037  1.00  0.00    -0.246 OA
BRANCH  23  25
ATOM     25  C   UNL A   1      34.228  32.888  27.929  1.00  0.00     0.060 A 
ATOM     26  C   UNL A   1      35.296  33.774  28.154  1.00  0.00     0.016 A 
ATOM     27  C   UNL A   1      34.337  31.556  28.327  1.00  0.00     0.016 A 
ATOM     28  C   UNL A   1      36.360  33.384  28.988  1.00  0.00     0.010 A 
ATOM     29  C   UNL A   1      35.408  31.165  29.134  1.00  0.00     0.010 A 
ATOM     30  C   UNL A   1      36.388  32.093  29.534  1.00  0.00    -0.014 A 
BRANCH  30  31
ATOM     31  C   UNL A   1      37.547  31.609  30.328  1.00  0.00     0.031 A 
ATOM     32  C   UNL A   1      38.425  30.601  29.650  1.00  0.00     0.074 A 
ATOM     33  C   UNL A   1      37.780  31.952  31.613  1.00  0.00     0.049 A 
ATOM     34  N   UNL A   1      39.438  29.924  30.118  1.00  0.00    -0.248 NA
ATOM     35  C   UNL A   1      38.080  30.299  28.250  1.00  0.00     0.031 C 
ATOM     36  C   UNL A   1      37.013  32.915  32.404  1.00  0.00     0.029 A 
ATOM     37  N   UNL A   1      38.739  31.498  32.494  1.00  0.00    -0.354 N 
ATOM     38  C   UNL A   1      39.844  29.111  29.069  1.00  0.00     0.074 A 
ATOM     39  C   UNL A   1      38.939  29.339  27.967  1.00  0.00     0.031 C 
ATOM     40  C   UNL A   1      37.523  32.968  33.652  1.00  0.00     0.029 A 
ATOM     41  C   UNL A   1      38.643  32.032  33.760  1.00  0.00     0.049 A 
ATOM     42  H   UNL A   1      39.434  30.848  32.239  1.00  0.00     0.167 HD
ATOM     43  C   UNL A   1      40.886  28.255  29.014  1.00  0.00     0.031 A 
ATOM     44  C   UNL A   1      39.370  31.784  34.871  1.00  0.00     0.031 A 
ATOM     45  C   UNL A   1      41.762  27.984  30.113  1.00  0.00     0.049 A 
ATOM     46  C   UNL A   1      40.498  30.774  34.805  1.00  0.00     0.074 A 
ATOM     47  C   UNL A   1      42.848  27.132  30.161  1.00  0.00     0.029 A 
ATOM     48  N   UNL A   1      41.637  28.559  31.369  1.00  0.00    -0.354 N 
ATOM     49  N   UNL A   1      40.920  30.065  33.784  1.00  0.00    -0.248 NA
ATOM     50  C   UNL A   1      41.259  30.540  36.045  1.00  0.00     0.031 C 
ATOM     51  C   UNL A   1      43.356  27.156  31.464  1.00  0.00     0.029 A 
ATOM     52  C   UNL A   1      42.621  28.068  32.206  1.00  0.00     0.049 A 
ATOM     53  H   UNL A   1      40.953  29.218  31.625  1.00  0.00     0.167 HD
ATOM     54  C   UNL A   1      42.014  29.340  34.247  1.00  0.00     0.074 A 
ATOM     55  C   UNL A   1      42.199  29.698  35.637  1.00  0.00     0.031 C 
ATOM     56  C   UNL A   1      42.800  28.458  33.581  1.00  0.00     0.031 A 
BRANCH  43  57
ATOM     57  C   UNL A   1      41.081  27.540  27.711  1.00  0.00    -0.014 A 
ATOM     58  C   UNL A   1      40.484  26.287  27.483  1.00  0.00     0.009 A 
ATOM     59  C   UNL A   1      41.932  28.079  26.738  1.00  0.00     0.009 A 
ATOM     60  C   UNL A   1      40.787  25.562  26.330  1.00  0.00     0.001 A 
ATOM     61  C   UNL A   1      42.206  27.366  25.571  1.00  0.00     0.001 A 
ATOM     62  C   UNL A   1      41.647  26.102  25.376  1.00  0.00     0.000 A 
ENDBRANCH  43  57
BRANCH  44  63
ATOM     63  C   UNL A   1      39.093  32.483  36.162  1.00  0.00    -0.014 A 
ATOM     64  C   UNL A   1      38.156  31.962  37.071  1.00  0.00     0.009 A 
ATOM     65  C   UNL A   1      39.690  33.720  36.455  1.00  0.00     0.009 A 
ATOM     66  C   UNL A   1      37.792  32.679  38.217  1.00  0.00     0.001 A 
ATOM     67  C   UNL A   1      39.344  34.422  37.616  1.00  0.00     0.001 A 
ATOM     68  C   UNL A   1      38.387  33.908  38.489  1.00  0.00     0.000 A 
ENDBRANCH  44  63
BRANCH  56  69
ATOM     69  C   UNL A   1      43.967  27.859  34.315  1.00  0.00    -0.014 A 
ATOM     70  C   UNL A   1      45.217  28.494  34.350  1.00  0.00     0.009 A 
ATOM     71  C   UNL A   1      43.778  26.685  35.063  1.00  0.00     0.009 A 
ATOM     72  C   UNL A   1      46.260  27.953  35.106  1.00  0.00     0.001 A 
ATOM     73  C   UNL A   1      44.812  26.164  35.841  1.00  0.00     0.001 A 
ATOM     74  C   UNL A   1      46.054  26.796  35.857  1.00  0.00     0.000 A 
ENDBRANCH  56  69
ENDBRANCH  30  31
ENDBRANCH  23  25
ENDBRANCH  22  23
ENDBRANCH   1  22
TORSDOF 12
ENDMDL
MODEL 3
REMARK VINA RESULT:     -13.2      0.920      6.134
REMARK SMILES O=C(OCCOC(=O)c1ccc(-c2c3nc(c(-c4ccccc4)c4ccc([nH]4)c(-c4ccccc4)c4nc(c(-c5ccccc5)c5ccc2[nH]5)C=C4)C=C3)cc1)C1=Cc2c(Cl)ccc(Cl)c2O[C@@H]1C(F)(F)F
REMARK SMILES IDX 5 1 4 2 3 3 2 4 1 5 57 6 58 7 68 8 59 9 67 10 60 11 66 12
REMARK SMILES IDX 61 13 62 14 64 15 63 16 65 17 69 18 70 19 71 20 72 21 6 22
REMARK SMILES IDX 7 23 8 24 9 25 10 26 56 27 11 28 55 29 12 30 13 31 14 32
REMARK SMILES IDX 49 33 15 34 54 35 48 36 50 37 16 38 53 39 47 40 46 41 17 43
REMARK SMILES IDX 39 44 24 45 38 46 25 47 28 48 37 49 51 50 26 51 27 52 36 54
REMARK SMILES IDX 52 55 29 56 18 57 19 58 23 59 20 60 22 61 21 62 40 63 41 64
REMARK SMILES IDX 45 65 42 66 44 67 43 68 30 69 31 70 35 71 32 72 34 73 33 74
REMARK H PARENT 50 42 28 53
REMARK Flexibility Score: inf
ROOT
ATOM      1  C   UNL A   1      36.890  20.584  24.990  1.00  0.00     0.275 C 
ENDROOT
BRANCH   1   2
ATOM      2  C   UNL A   1      34.991  21.576  25.281  1.00  0.00     0.275 C 
BRANCH   2   3
ATOM      3  O   UNL A   1      34.785  23.054  25.743  1.00  0.00    -0.459 OA
BRANCH   3   4
ATOM      4  C   UNL A   1      34.091  23.796  24.871  1.00  0.00     0.338 C 
ATOM      5  O   UNL A   1      34.331  24.096  23.731  1.00  0.00    -0.246 OA
BRANCH   4   6
ATOM      6  C   UNL A   1      33.231  24.380  25.866  1.00  0.00     0.087 C 
ATOM      7  C   UNL A   1      33.581  25.797  26.110  1.00  0.00     0.029 C 
ATOM      8  C   UNL A   1      31.568  23.763  25.102  1.00  0.00     0.316 C 
ATOM      9  C   UNL A   1      32.544  27.194  25.573  1.00  0.00     0.037 A 
ATOM     10  O   UNL A   1      30.476  25.221  24.492  1.00  0.00    -0.474 OA
ATOM     11  C   UNL A   1      33.026  28.479  25.645  1.00  0.00     0.052 A 
ATOM     12  C   UNL A   1      31.053  26.938  24.707  1.00  0.00     0.148 A 
ATOM     13  Cl  UNL A   1      34.500  28.893  26.412  1.00  0.00    -0.084 Cl
ATOM     14  C   UNL A   1      32.259  29.459  24.990  1.00  0.00     0.023 A 
ATOM     15  C   UNL A   1      30.369  27.963  24.108  1.00  0.00     0.083 A 
ATOM     16  C   UNL A   1      31.014  29.214  24.266  1.00  0.00     0.026 A 
ATOM     17  Cl  UNL A   1      28.943  27.805  23.202  1.00  0.00    -0.080 Cl
BRANCH   8  18
ATOM     18  C   UNL A   1      31.288  22.554  26.057  1.00  0.00     0.430 C 
ATOM     19  F   UNL A   1      29.978  22.281  26.150  1.00  0.00    -0.167 F 
ATOM     20  F   UNL A   1      31.827  21.431  25.492  1.00  0.00    -0.167 F 
ATOM     21  F   UNL A   1      31.865  22.577  27.269  1.00  0.00    -0.167 F 
ENDBRANCH   8  18
ENDBRANCH   4   6
ENDBRANCH   3   4
ENDBRANCH   2   3
ENDBRANCH   1   2
BRANCH   1  22
ATOM     22  O   UNL A   1      38.430  21.217  25.378  1.00  0.00    -0.458 OA
BRANCH  22  23
ATOM     23  C   UNL A   1      39.525  21.045  26.184  1.00  0.00     0.338 C 
ATOM     24  O   UNL A   1      40.390  20.191  26.161  1.00  0.00    -0.246 OA
BRANCH  23  25
ATOM     25  C   UNL A   1      39.683  22.348  26.898  1.00  0.00     0.060 A 
ATOM     26  C   UNL A   1      40.783  22.514  27.757  1.00  0.00     0.016 A 
ATOM     27  C   UNL A   1      38.999  23.467  26.423  1.00  0.00     0.016 A 
ATOM     28  C   UNL A   1      41.337  23.795  27.938  1.00  0.00     0.010 A 
ATOM     29  C   UNL A   1      39.538  24.740  26.627  1.00  0.00     0.010 A 
ATOM     30  C   UNL A   1      40.751  24.909  27.320  1.00  0.00    -0.014 A 
BRANCH  30  31
ATOM     31  C   UNL A   1      41.242  26.288  27.576  1.00  0.00     0.031 A 
ATOM     32  C   UNL A   1      42.588  26.616  27.004  1.00  0.00     0.074 A 
ATOM     33  C   UNL A   1      40.597  27.188  28.347  1.00  0.00     0.049 A 
ATOM     34  N   UNL A   1      43.319  27.688  27.148  1.00  0.00    -0.248 NA
ATOM     35  C   UNL A   1      43.202  25.561  26.180  1.00  0.00     0.031 C 
ATOM     36  C   UNL A   1      39.285  27.012  28.971  1.00  0.00     0.029 A 
ATOM     37  N   UNL A   1      40.986  28.447  28.757  1.00  0.00    -0.354 N 
ATOM     38  C   UNL A   1      44.482  27.429  26.436  1.00  0.00     0.074 A 
ATOM     39  C   UNL A   1      44.381  26.087  25.912  1.00  0.00     0.031 C 
ATOM     40  C   UNL A   1      38.986  28.113  29.692  1.00  0.00     0.029 A 
ATOM     41  C   UNL A   1      40.090  29.070  29.599  1.00  0.00     0.049 A 
ATOM     42  H   UNL A   1      41.830  28.865  28.471  1.00  0.00     0.167 HD
ATOM     43  C   UNL A   1      45.542  28.237  26.220  1.00  0.00     0.031 A 
ATOM     44  C   UNL A   1      40.163  30.266  30.222  1.00  0.00     0.031 A 
ATOM     45  C   UNL A   1      45.675  29.551  26.772  1.00  0.00     0.049 A 
ATOM     46  C   UNL A   1      41.389  31.133  30.015  1.00  0.00     0.074 A 
ATOM     47  C   UNL A   1      46.711  30.451  26.615  1.00  0.00     0.029 A 
ATOM     48  N   UNL A   1      44.738  30.146  27.603  1.00  0.00    -0.354 N 
ATOM     49  N   UNL A   1      42.451  30.908  29.278  1.00  0.00    -0.248 NA
ATOM     50  C   UNL A   1      41.418  32.427  30.719  1.00  0.00     0.031 C 
ATOM     51  C   UNL A   1      46.423  31.578  27.391  1.00  0.00     0.029 A 
ATOM     52  C   UNL A   1      45.180  31.400  27.980  1.00  0.00     0.049 A 
ATOM     53  H   UNL A   1      43.887  29.738  27.881  1.00  0.00     0.167 HD
ATOM     54  C   UNL A   1      43.248  32.043  29.396  1.00  0.00     0.074 A 
ATOM     55  C   UNL A   1      42.546  32.960  30.268  1.00  0.00     0.031 C 
ATOM     56  C   UNL A   1      44.452  32.306  28.831  1.00  0.00     0.031 A 
BRANCH  43  57
ATOM     57  C   UNL A   1      46.639  27.668  25.371  1.00  0.00    -0.014 A 
ATOM     58  C   UNL A   1      47.637  26.856  25.938  1.00  0.00     0.009 A 
ATOM     59  C   UNL A   1      46.724  28.014  24.017  1.00  0.00     0.009 A 
ATOM     60  C   UNL A   1      48.733  26.452  25.174  1.00  0.00     0.001 A 
ATOM     61  C   UNL A   1      47.805  27.580  23.248  1.00  0.00     0.001 A 
ATOM     62  C   UNL A   1      48.816  26.814  23.831  1.00  0.00     0.000 A 
ENDBRANCH  43  57
BRANCH  44  63
ATOM     63  C   UNL A   1      39.064  30.758  31.107  1.00  0.00    -0.014 A 
ATOM     64  C   UNL A   1      39.033  30.412  32.469  1.00  0.00     0.009 A 
ATOM     65  C   UNL A   1      37.991  31.495  30.582  1.00  0.00     0.009 A 
ATOM     66  C   UNL A   1      37.940  30.754  33.272  1.00  0.00     0.001 A 
ATOM     67  C   UNL A   1      36.910  31.860  31.394  1.00  0.00     0.001 A 
ATOM     68  C   UNL A   1      36.879  31.479  32.734  1.00  0.00     0.000 A 
ENDBRANCH  44  63
BRANCH  56  69
ATOM     69  C   UNL A   1      45.069  33.654  29.080  1.00  0.00    -0.014 A 
ATOM     70  C   UNL A   1      44.797  34.751  28.249  1.00  0.00     0.009 A 
ATOM     71  C   UNL A   1      45.858  33.846  30.226  1.00  0.00     0.009 A 
ATOM     72  C   UNL A   1      45.322  36.010  28.551  1.00  0.00     0.001 A 
ATOM     73  C   UNL A   1      46.356  35.111  30.542  1.00  0.00     0.001 A 
ATOM     74  C   UNL A   1      46.092  36.191  29.701  1.00  0.00     0.000 A 
ENDBRANCH  56  69
ENDBRANCH  30  31
ENDBRANCH  23  25
ENDBRANCH  22  23
ENDBRANCH   1  22
TORSDOF 12
ENDMDL
