MODEL 1
REMARK VINA RESULT:     -10.0      0.000      0.000
REMARK SMILES Cc1c(Br)c(C)c2c(c1Br)O[C@H](C(F)(F)F)C(C(=O)OCCOC(=O)c1ccc(-c3c4nc(c(-c5ccccc5)c5ccc([nH]5)c(-c5ccccc5)c5nc(c(-c6ccccc6)c6ccc3[nH]6)C=C5)C=C4)cc1)=C2
REMARK SMILES IDX 22 1 21 2 20 3 18 4 19 5 17 6 1 7 2 8 3 9 9 10 4 11 5 12
REMARK SMILES IDX 8 13 10 14 6 15 7 16 11 17 74 18 12 19 13 20 14 21 15 22
REMARK SMILES IDX 16 23 23 24 24 25 25 26 26 27 27 28 73 29 28 30 72 31 29 32
REMARK SMILES IDX 30 33 31 34 66 35 32 36 71 37 65 38 67 39 33 40 70 41 64 42
REMARK SMILES IDX 63 43 34 45 56 46 41 47 55 48 42 49 45 50 54 51 68 52 43 53
REMARK SMILES IDX 44 54 53 56 69 57 46 58 35 59 36 60 40 61 37 62 39 63 38 64
REMARK SMILES IDX 57 65 58 66 62 67 59 68 61 69 60 70 47 71 48 72 52 73 49 74
REMARK SMILES IDX 51 75 50 76
REMARK H PARENT 67 44 45 55
REMARK Flexibility Score: inf
ROOT
ATOM      1  C   UNL A   1      41.108  19.861  26.115  1.00  0.00     0.275 C 
ENDROOT
BRANCH   1   2
ATOM      2  C   UNL A   1      42.494  20.030  26.733  1.00  0.00     0.275 C 
BRANCH   2   3
ATOM      3  O   UNL A   1      43.420  20.614  25.791  1.00  0.00    -0.459 OA
BRANCH   3   4
ATOM      4  C   UNL A   1      43.345  21.958  25.656  1.00  0.00     0.338 C 
ATOM      5  O   UNL A   1      42.481  22.586  25.063  1.00  0.00    -0.246 OA
BRANCH   4   6
ATOM      6  C   UNL A   1      44.467  22.611  26.355  1.00  0.00     0.087 C 
ATOM      7  C   UNL A   1      48.424  26.537  29.769  1.00  0.00     0.047 C 
ATOM      8  C   UNL A   1      47.318  25.661  29.233  1.00  0.00    -0.019 A 
ATOM      9  C   UNL A   1      46.055  25.579  29.869  1.00  0.00     0.025 A 
ATOM     10  C   UNL A   1      47.544  24.852  28.098  1.00  0.00     0.064 A 
ATOM     11  Br  UNL A   1      45.774  26.529  31.515  1.00  0.00    -0.050 Br
ATOM     12  C   UNL A   1      45.008  24.792  29.327  1.00  0.00    -0.026 A 
ATOM     13  C   UNL A   1      46.523  24.055  27.553  1.00  0.00     0.142 A 
ATOM     14  Br  UNL A   1      49.268  24.807  27.257  1.00  0.00    -0.046 Br
ATOM     15  C   UNL A   1      43.643  24.716  29.977  1.00  0.00     0.046 C 
ATOM     16  C   UNL A   1      45.256  24.041  28.147  1.00  0.00     0.022 A 
ATOM     17  O   UNL A   1      46.841  23.286  26.461  1.00  0.00    -0.474 OA
ATOM     18  C   UNL A   1      44.209  23.247  27.504  1.00  0.00     0.027 C 
ATOM     19  C   UNL A   1      45.799  22.655  25.680  1.00  0.00     0.316 C 
BRANCH  19  20
ATOM     20  C   UNL A   1      45.710  23.334  24.303  1.00  0.00     0.430 C 
ATOM     21  F   UNL A   1      44.928  24.437  24.344  1.00  0.00    -0.167 F 
ATOM     22  F   UNL A   1      46.930  23.739  23.873  1.00  0.00    -0.167 F 
ATOM     23  F   UNL A   1      45.203  22.507  23.361  1.00  0.00    -0.167 F 
ENDBRANCH  19  20
ENDBRANCH   4   6
ENDBRANCH   3   4
ENDBRANCH   2   3
ENDBRANCH   1   2
BRANCH   1  24
ATOM     24  O   UNL A   1      40.118  20.512  26.932  1.00  0.00    -0.458 OA
BRANCH  24  25
ATOM     25  C   UNL A   1      39.370  21.448  26.306  1.00  0.00     0.338 C 
ATOM     26  O   UNL A   1      38.553  21.275  25.418  1.00  0.00    -0.246 OA
BRANCH  25  27
ATOM     27  C   UNL A   1      39.610  22.770  26.904  1.00  0.00     0.060 A 
ATOM     28  C   UNL A   1      39.059  23.890  26.295  1.00  0.00     0.016 A 
ATOM     29  C   UNL A   1      40.533  22.925  27.936  1.00  0.00     0.016 A 
ATOM     30  C   UNL A   1      39.548  25.156  26.597  1.00  0.00     0.010 A 
ATOM     31  C   UNL A   1      40.917  24.214  28.334  1.00  0.00     0.010 A 
ATOM     32  C   UNL A   1      40.479  25.349  27.628  1.00  0.00    -0.014 A 
BRANCH  32  33
ATOM     33  C   UNL A   1      41.023  26.714  27.915  1.00  0.00     0.031 A 
ATOM     34  C   UNL A   1      42.362  27.141  27.350  1.00  0.00     0.074 A 
ATOM     35  C   UNL A   1      40.312  27.610  28.633  1.00  0.00     0.049 A 
ATOM     36  N   UNL A   1      43.084  28.194  27.643  1.00  0.00    -0.248 NA
ATOM     37  C   UNL A   1      42.974  26.268  26.334  1.00  0.00     0.031 C 
ATOM     38  C   UNL A   1      38.972  27.393  29.186  1.00  0.00     0.029 A 
ATOM     39  N   UNL A   1      40.605  28.904  28.999  1.00  0.00    -0.354 N 
ATOM     40  C   UNL A   1      44.257  28.074  26.903  1.00  0.00     0.074 A 
ATOM     41  C   UNL A   1      44.154  26.845  26.149  1.00  0.00     0.031 C 
ATOM     42  C   UNL A   1      38.528  28.531  29.737  1.00  0.00     0.029 A 
ATOM     43  C   UNL A   1      39.597  29.520  29.706  1.00  0.00     0.049 A 
ATOM     44  H   UNL A   1      41.455  29.347  28.777  1.00  0.00     0.167 HD
ATOM     45  C   UNL A   1      45.322  28.910  26.858  1.00  0.00     0.031 A 
ATOM     46  C   UNL A   1      39.546  30.720  30.315  1.00  0.00     0.031 A 
ATOM     47  C   UNL A   1      45.401  30.165  27.558  1.00  0.00     0.049 A 
ATOM     48  C   UNL A   1      40.765  31.595  30.311  1.00  0.00     0.074 A 
ATOM     49  C   UNL A   1      46.447  31.072  27.581  1.00  0.00     0.029 A 
ATOM     50  N   UNL A   1      44.385  30.705  28.328  1.00  0.00    -0.354 N 
ATOM     51  N   UNL A   1      41.908  31.413  29.697  1.00  0.00    -0.248 NA
ATOM     52  C   UNL A   1      40.699  32.826  31.112  1.00  0.00     0.031 C 
ATOM     53  C   UNL A   1      46.079  32.143  28.401  1.00  0.00     0.029 A 
ATOM     54  C   UNL A   1      44.784  31.927  28.842  1.00  0.00     0.049 A 
ATOM     55  H   UNL A   1      43.509  30.283  28.487  1.00  0.00     0.167 HD
ATOM     56  C   UNL A   1      42.694  32.507  30.032  1.00  0.00     0.074 A 
ATOM     57  C   UNL A   1      41.889  33.362  30.879  1.00  0.00     0.031 C 
ATOM     58  C   UNL A   1      43.974  32.771  29.678  1.00  0.00     0.031 A 
BRANCH  45  59
ATOM     59  C   UNL A   1      46.518  28.495  26.044  1.00  0.00    -0.014 A 
ATOM     60  C   UNL A   1      47.793  28.383  26.618  1.00  0.00     0.009 A 
ATOM     61  C   UNL A   1      46.341  28.118  24.703  1.00  0.00     0.009 A 
ATOM     62  C   UNL A   1      48.869  27.911  25.860  1.00  0.00     0.001 A 
ATOM     63  C   UNL A   1      47.411  27.620  23.956  1.00  0.00     0.001 A 
ATOM     64  C   UNL A   1      48.676  27.522  24.533  1.00  0.00     0.000 A 
ENDBRANCH  45  59
BRANCH  46  65
ATOM     65  C   UNL A   1      38.317  31.136  31.046  1.00  0.00    -0.014 A 
ATOM     66  C   UNL A   1      38.145  30.805  32.398  1.00  0.00     0.009 A 
ATOM     67  C   UNL A   1      37.310  31.868  30.395  1.00  0.00     0.009 A 
ATOM     68  C   UNL A   1      36.986  31.189  33.079  1.00  0.00     0.001 A 
ATOM     69  C   UNL A   1      36.171  32.284  31.088  1.00  0.00     0.001 A 
ATOM     70  C   UNL A   1      36.006  31.936  32.426  1.00  0.00     0.000 A 
ENDBRANCH  46  65
BRANCH  58  71
ATOM     71  C   UNL A   1      44.580  34.050  30.180  1.00  0.00    -0.014 A 
ATOM     72  C   UNL A   1      44.427  35.249  29.471  1.00  0.00     0.009 A 
ATOM     73  C   UNL A   1      45.261  34.062  31.408  1.00  0.00     0.009 A 
ATOM     74  C   UNL A   1      44.965  36.437  29.972  1.00  0.00     0.001 A 
ATOM     75  C   UNL A   1      45.774  35.255  31.919  1.00  0.00     0.001 A 
ATOM     76  C   UNL A   1      45.631  36.439  31.197  1.00  0.00     0.000 A 
ENDBRANCH  58  71
ENDBRANCH  32  33
ENDBRANCH  25  27
ENDBRANCH  24  25
ENDBRANCH   1  24
TORSDOF 12
ENDMDL
MODEL 2
REMARK VINA RESULT:      -9.7      6.033     11.302
REMARK SMILES Cc1c(Br)c(C)c2c(c1Br)O[C@H](C(F)(F)F)C(C(=O)OCCOC(=O)c1ccc(-c3c4nc(c(-c5ccccc5)c5ccc([nH]5)c(-c5ccccc5)c5nc(c(-c6ccccc6)c6ccc3[nH]6)C=C5)C=C4)cc1)=C2
REMARK SMILES IDX 22 1 21 2 20 3 18 4 19 5 17 6 1 7 2 8 3 9 9 10 4 11 5 12
REMARK SMILES IDX 8 13 10 14 6 15 7 16 11 17 74 18 12 19 13 20 14 21 15 22
REMARK SMILES IDX 16 23 23 24 24 25 25 26 26 27 27 28 73 29 28 30 72 31 29 32
REMARK SMILES IDX 30 33 31 34 66 35 32 36 71 37 65 38 67 39 33 40 70 41 64 42
REMARK SMILES IDX 63 43 34 45 56 46 41 47 55 48 42 49 45 50 54 51 68 52 43 53
REMARK SMILES IDX 44 54 53 56 69 57 46 58 35 59 36 60 40 61 37 62 39 63 38 64
REMARK SMILES IDX 57 65 58 66 62 67 59 68 61 69 60 70 47 71 48 72 52 73 49 74
REMARK SMILES IDX 51 75 50 76
REMARK H PARENT 67 44 45 55
REMARK Flexibility Score: inf
ROOT
ATOM      1  C   UNL A   1      33.120  34.370  28.365  1.00  0.00     0.275 C 
ENDROOT
BRANCH   1   2
ATOM      2  C   UNL A   1      33.371  34.649  29.846  1.00  0.00     0.275 C 
BRANCH   2   3
ATOM      3  O   UNL A   1      34.779  34.592  30.157  1.00  0.00    -0.459 OA
BRANCH   3   4
ATOM      4  C   UNL A   1      35.141  33.651  31.058  1.00  0.00     0.338 C 
ATOM      5  O   UNL A   1      34.595  32.575  31.252  1.00  0.00    -0.246 OA
BRANCH   4   6
ATOM      6  C   UNL A   1      36.337  34.083  31.805  1.00  0.00     0.087 C 
ATOM      7  C   UNL A   1      42.209  34.727  34.605  1.00  0.00     0.047 C 
ATOM      8  C   UNL A   1      41.021  34.518  33.695  1.00  0.00    -0.019 A 
ATOM      9  C   UNL A   1      41.168  34.006  32.383  1.00  0.00     0.025 A 
ATOM     10  C   UNL A   1      39.728  34.885  34.125  1.00  0.00     0.064 A 
ATOM     11  Br  UNL A   1      42.932  33.665  31.704  1.00  0.00    -0.050 Br
ATOM     12  C   UNL A   1      40.041  33.768  31.557  1.00  0.00    -0.026 A 
ATOM     13  C   UNL A   1      38.599  34.668  33.316  1.00  0.00     0.142 A 
ATOM     14  Br  UNL A   1      39.463  35.706  35.839  1.00  0.00    -0.046 Br
ATOM     15  C   UNL A   1      40.176  33.193  30.162  1.00  0.00     0.046 C 
ATOM     16  C   UNL A   1      38.749  34.091  32.050  1.00  0.00     0.022 A 
ATOM     17  O   UNL A   1      37.385  35.077  33.810  1.00  0.00    -0.474 OA
ATOM     18  C   UNL A   1      37.538  33.826  31.274  1.00  0.00     0.027 C 
ATOM     19  C   UNL A   1      36.156  34.652  33.174  1.00  0.00     0.316 C 
BRANCH  19  20
ATOM     20  C   UNL A   1      35.417  33.670  34.099  1.00  0.00     0.430 C 
ATOM     21  F   UNL A   1      35.829  32.397  33.902  1.00  0.00    -0.167 F 
ATOM     22  F   UNL A   1      35.644  33.954  35.404  1.00  0.00    -0.167 F 
ATOM     23  F   UNL A   1      34.078  33.701  33.905  1.00  0.00    -0.167 F 
ENDBRANCH  19  20
ENDBRANCH   4   6
ENDBRANCH   3   4
ENDBRANCH   2   3
ENDBRANCH   1   2
BRANCH   1  24
ATOM     24  O   UNL A   1      34.215  33.619  27.809  1.00  0.00    -0.458 OA
BRANCH  24  25
ATOM     25  C   UNL A   1      34.009  32.288  27.696  1.00  0.00     0.338 C 
ATOM     26  O   UNL A   1      32.986  31.719  27.354  1.00  0.00    -0.246 OA
BRANCH  25  27
ATOM     27  C   UNL A   1      35.256  31.558  27.973  1.00  0.00     0.060 A 
ATOM     28  C   UNL A   1      35.179  30.235  28.387  1.00  0.00     0.016 A 
ATOM     29  C   UNL A   1      36.476  32.229  28.018  1.00  0.00     0.016 A 
ATOM     30  C   UNL A   1      36.274  29.634  29.000  1.00  0.00     0.010 A 
ATOM     31  C   UNL A   1      37.613  31.568  28.506  1.00  0.00     0.010 A 
ATOM     32  C   UNL A   1      37.516  30.281  29.065  1.00  0.00    -0.014 A 
BRANCH  32  33
ATOM     33  C   UNL A   1      38.674  29.636  29.762  1.00  0.00     0.031 A 
ATOM     34  C   UNL A   1      38.935  29.907  31.228  1.00  0.00     0.074 A 
ATOM     35  C   UNL A   1      39.473  28.759  29.117  1.00  0.00     0.049 A 
ATOM     36  N   UNL A   1      39.985  29.603  31.951  1.00  0.00    -0.248 NA
ATOM     37  C   UNL A   1      37.888  30.621  31.979  1.00  0.00     0.031 C 
ATOM     38  C   UNL A   1      39.318  28.323  27.725  1.00  0.00     0.029 A 
ATOM     39  N   UNL A   1      40.566  28.048  29.556  1.00  0.00    -0.354 N 
ATOM     40  C   UNL A   1      39.755  30.145  33.211  1.00  0.00     0.074 A 
ATOM     41  C   UNL A   1      38.467  30.800  33.159  1.00  0.00     0.031 C 
ATOM     42  C   UNL A   1      40.215  27.365  27.457  1.00  0.00     0.029 A 
ATOM     43  C   UNL A   1      41.102  27.212  28.603  1.00  0.00     0.049 A 
ATOM     44  H   UNL A   1      40.931  28.130  30.466  1.00  0.00     0.167 HD
ATOM     45  C   UNL A   1      40.544  30.103  34.312  1.00  0.00     0.031 A 
ATOM     46  C   UNL A   1      42.211  26.448  28.614  1.00  0.00     0.031 A 
ATOM     47  C   UNL A   1      41.797  29.398  34.386  1.00  0.00     0.049 A 
ATOM     48  C   UNL A   1      43.106  26.476  29.819  1.00  0.00     0.074 A 
ATOM     49  C   UNL A   1      42.672  29.311  35.456  1.00  0.00     0.029 A 
ATOM     50  N   UNL A   1      42.336  28.634  33.365  1.00  0.00    -0.354 N 
ATOM     51  N   UNL A   1      42.926  27.086  30.964  1.00  0.00    -0.248 NA
ATOM     52  C   UNL A   1      44.373  25.738  29.719  1.00  0.00     0.031 C 
ATOM     53  C   UNL A   1      43.762  28.527  35.067  1.00  0.00     0.029 A 
ATOM     54  C   UNL A   1      43.538  28.083  33.775  1.00  0.00     0.049 A 
ATOM     55  H   UNL A   1      41.927  28.503  32.479  1.00  0.00     0.167 HD
ATOM     56  C   UNL A   1      44.053  26.800  31.723  1.00  0.00     0.074 A 
ATOM     57  C   UNL A   1      44.896  25.939  30.920  1.00  0.00     0.031 C 
ATOM     58  C   UNL A   1      44.365  27.225  32.970  1.00  0.00     0.031 A 
BRANCH  45  59
ATOM     59  C   UNL A   1      40.103  30.861  35.534  1.00  0.00    -0.014 A 
ATOM     60  C   UNL A   1      40.962  31.749  36.197  1.00  0.00     0.009 A 
ATOM     61  C   UNL A   1      38.771  30.753  35.968  1.00  0.00     0.009 A 
ATOM     62  C   UNL A   1      40.498  32.505  37.278  1.00  0.00     0.001 A 
ATOM     63  C   UNL A   1      38.303  31.530  37.029  1.00  0.00     0.001 A 
ATOM     64  C   UNL A   1      39.168  32.403  37.687  1.00  0.00     0.000 A 
ENDBRANCH  45  59
BRANCH  46  65
ATOM     65  C   UNL A   1      42.579  25.645  27.415  1.00  0.00    -0.014 A 
ATOM     66  C   UNL A   1      43.375  26.200  26.402  1.00  0.00     0.009 A 
ATOM     67  C   UNL A   1      42.136  24.319  27.277  1.00  0.00     0.009 A 
ATOM     68  C   UNL A   1      43.712  25.447  25.274  1.00  0.00     0.001 A 
ATOM     69  C   UNL A   1      42.506  23.557  26.167  1.00  0.00     0.001 A 
ATOM     70  C   UNL A   1      43.285  24.124  25.163  1.00  0.00     0.000 A 
ENDBRANCH  46  65
BRANCH  58  71
ATOM     71  C   UNL A   1      45.660  26.745  33.560  1.00  0.00    -0.014 A 
ATOM     72  C   UNL A   1      45.731  25.529  34.254  1.00  0.00     0.009 A 
ATOM     73  C   UNL A   1      46.832  27.492  33.366  1.00  0.00     0.009 A 
ATOM     74  C   UNL A   1      46.951  25.079  34.763  1.00  0.00     0.001 A 
ATOM     75  C   UNL A   1      48.055  27.028  33.852  1.00  0.00     0.001 A 
ATOM     76  C   UNL A   1      48.112  25.825  34.556  1.00  0.00     0.000 A 
ENDBRANCH  58  71
ENDBRANCH  32  33
ENDBRANCH  25  27
ENDBRANCH  24  25
ENDBRANCH   1  24
TORSDOF 12
ENDMDL
MODEL 3
REMARK VINA RESULT:      -9.5      5.869      9.224
REMARK SMILES Cc1c(Br)c(C)c2c(c1Br)O[C@H](C(F)(F)F)C(C(=O)OCCOC(=O)c1ccc(-c3c4nc(c(-c5ccccc5)c5ccc([nH]5)c(-c5ccccc5)c5nc(c(-c6ccccc6)c6ccc3[nH]6)C=C5)C=C4)cc1)=C2
REMARK SMILES IDX 22 1 21 2 20 3 18 4 19 5 17 6 1 7 2 8 3 9 9 10 4 11 5 12
REMARK SMILES IDX 8 13 10 14 6 15 7 16 11 17 74 18 12 19 13 20 14 21 15 22
REMARK SMILES IDX 16 23 23 24 24 25 25 26 26 27 27 28 73 29 28 30 72 31 29 32
REMARK SMILES IDX 30 33 31 34 66 35 32 36 71 37 65 38 67 39 33 40 70 41 64 42
REMARK SMILES IDX 63 43 34 45 56 46 41 47 55 48 42 49 45 50 54 51 68 52 43 53
REMARK SMILES IDX 44 54 53 56 69 57 46 58 35 59 36 60 40 61 37 62 39 63 38 64
REMARK SMILES IDX 57 65 58 66 62 67 59 68 61 69 60 70 47 71 48 72 52 73 49 74
REMARK SMILES IDX 51 75 50 76
REMARK H PARENT 67 44 45 55
REMARK Flexibility Score: inf
ROOT
ATOM      1  C   UNL A   1      31.781  29.918  25.421  1.00  0.00     0.275 C 
ENDROOT
BRANCH   1   2
ATOM      2  C   UNL A   1      31.363  28.483  25.105  1.00  0.00     0.275 C 
BRANCH   2   3
ATOM      3  O   UNL A   1      32.288  27.531  25.674  1.00  0.00    -0.459 OA
BRANCH   3   4
ATOM      4  C   UNL A   1      33.247  27.077  24.836  1.00  0.00     0.338 C 
ATOM      5  O   UNL A   1      33.952  27.748  24.097  1.00  0.00    -0.246 OA
BRANCH   4   6
ATOM      6  C   UNL A   1      33.364  25.609  24.930  1.00  0.00     0.087 C 
ATOM      7  C   UNL A   1      35.158  19.331  24.629  1.00  0.00     0.047 C 
ATOM      8  C   UNL A   1      35.039  20.826  24.810  1.00  0.00    -0.019 A 
ATOM      9  C   UNL A   1      36.164  21.634  25.105  1.00  0.00     0.025 A 
ATOM     10  C   UNL A   1      33.774  21.448  24.738  1.00  0.00     0.064 A 
ATOM     11  Br  UNL A   1      37.870  20.796  25.385  1.00  0.00    -0.050 Br
ATOM     12  C   UNL A   1      36.048  23.042  25.222  1.00  0.00    -0.026 A 
ATOM     13  C   UNL A   1      33.636  22.841  24.864  1.00  0.00     0.142 A 
ATOM     14  Br  UNL A   1      32.185  20.405  24.471  1.00  0.00    -0.046 Br
ATOM     15  C   UNL A   1      37.244  23.924  25.508  1.00  0.00     0.046 C 
ATOM     16  C   UNL A   1      34.766  23.638  25.080  1.00  0.00     0.022 A 
ATOM     17  O   UNL A   1      32.364  23.354  24.801  1.00  0.00    -0.474 OA
ATOM     18  C   UNL A   1      34.578  25.087  25.138  1.00  0.00     0.027 C 
ATOM     19  C   UNL A   1      32.156  24.778  24.648  1.00  0.00     0.316 C 
BRANCH  19  20
ATOM     20  C   UNL A   1      31.590  25.064  23.247  1.00  0.00     0.430 C 
ATOM     21  F   UNL A   1      32.578  25.287  22.349  1.00  0.00    -0.167 F 
ATOM     22  F   UNL A   1      30.872  24.013  22.780  1.00  0.00    -0.167 F 
ATOM     23  F   UNL A   1      30.778  26.145  23.238  1.00  0.00    -0.167 F 
ENDBRANCH  19  20
ENDBRANCH   4   6
ENDBRANCH   3   4
ENDBRANCH   2   3
ENDBRANCH   1   2
BRANCH   1  24
ATOM     24  O   UNL A   1      32.277  30.004  26.770  1.00  0.00    -0.458 OA
BRANCH  24  25
ATOM     25  C   UNL A   1      32.879  31.170  27.094  1.00  0.00     0.338 C 
ATOM     26  O   UNL A   1      32.379  32.282  27.128  1.00  0.00    -0.246 OA
BRANCH  25  27
ATOM     27  C   UNL A   1      34.270  30.924  27.504  1.00  0.00     0.060 A 
ATOM     28  C   UNL A   1      34.710  29.612  27.620  1.00  0.00     0.016 A 
ATOM     29  C   UNL A   1      35.070  31.968  27.963  1.00  0.00     0.016 A 
ATOM     30  C   UNL A   1      35.866  29.329  28.340  1.00  0.00     0.010 A 
ATOM     31  C   UNL A   1      36.306  31.682  28.562  1.00  0.00     0.010 A 
ATOM     32  C   UNL A   1      36.695  30.355  28.818  1.00  0.00    -0.014 A 
BRANCH  32  33
ATOM     33  C   UNL A   1      37.915  30.033  29.624  1.00  0.00     0.031 A 
ATOM     34  C   UNL A   1      39.054  29.245  29.012  1.00  0.00     0.074 A 
ATOM     35  C   UNL A   1      38.051  30.483  30.891  1.00  0.00     0.049 A 
ATOM     36  N   UNL A   1      40.094  28.704  29.597  1.00  0.00    -0.248 NA
ATOM     37  C   UNL A   1      39.015  29.026  27.555  1.00  0.00     0.031 C 
ATOM     38  C   UNL A   1      37.086  31.320  31.610  1.00  0.00     0.029 A 
ATOM     39  N   UNL A   1      39.074  30.322  31.796  1.00  0.00    -0.354 N 
ATOM     40  C   UNL A   1      40.790  28.030  28.599  1.00  0.00     0.074 A 
ATOM     41  C   UNL A   1      40.056  28.225  27.369  1.00  0.00     0.031 C 
ATOM     42  C   UNL A   1      37.598  31.670  32.797  1.00  0.00     0.029 A 
ATOM     43  C   UNL A   1      38.863  30.973  32.990  1.00  0.00     0.049 A 
ATOM     44  H   UNL A   1      39.882  29.792  31.607  1.00  0.00     0.167 HD
ATOM     45  C   UNL A   1      41.934  27.311  28.698  1.00  0.00     0.031 A 
ATOM     46  C   UNL A   1      39.568  30.973  34.138  1.00  0.00     0.031 A 
ATOM     47  C   UNL A   1      42.701  27.168  29.908  1.00  0.00     0.049 A 
ATOM     48  C   UNL A   1      40.793  30.112  34.244  1.00  0.00     0.074 A 
ATOM     49  C   UNL A   1      43.869  26.449  30.105  1.00  0.00     0.029 A 
ATOM     50  N   UNL A   1      42.399  27.781  31.112  1.00  0.00    -0.354 N 
ATOM     51  N   UNL A   1      41.375  29.390  33.319  1.00  0.00    -0.248 NA
ATOM     52  C   UNL A   1      41.438  30.039  35.563  1.00  0.00     0.031 C 
ATOM     53  C   UNL A   1      44.249  26.592  31.442  1.00  0.00     0.029 A 
ATOM     54  C   UNL A   1      43.350  27.445  32.061  1.00  0.00     0.049 A 
ATOM     55  H   UNL A   1      41.624  28.366  31.271  1.00  0.00     0.167 HD
ATOM     56  C   UNL A   1      42.457  28.783  33.941  1.00  0.00     0.074 A 
ATOM     57  C   UNL A   1      42.469  29.243  35.314  1.00  0.00     0.031 C 
ATOM     58  C   UNL A   1      43.354  27.912  33.421  1.00  0.00     0.031 A 
BRANCH  45  59
ATOM     59  C   UNL A   1      42.432  26.592  27.474  1.00  0.00    -0.014 A 
ATOM     60  C   UNL A   1      41.981  25.306  27.144  1.00  0.00     0.009 A 
ATOM     61  C   UNL A   1      43.293  27.258  26.586  1.00  0.00     0.009 A 
ATOM     62  C   UNL A   1      42.392  24.697  25.955  1.00  0.00     0.001 A 
ATOM     63  C   UNL A   1      43.680  26.659  25.386  1.00  0.00     0.001 A 
ATOM     64  C   UNL A   1      43.233  25.376  25.073  1.00  0.00     0.000 A 
ENDBRANCH  45  59
BRANCH  46  65
ATOM     65  C   UNL A   1      39.091  31.760  35.309  1.00  0.00    -0.014 A 
ATOM     66  C   UNL A   1      39.503  33.089  35.491  1.00  0.00     0.009 A 
ATOM     67  C   UNL A   1      38.221  31.186  36.251  1.00  0.00     0.009 A 
ATOM     68  C   UNL A   1      39.060  33.821  36.595  1.00  0.00     0.001 A 
ATOM     69  C   UNL A   1      37.750  31.933  37.333  1.00  0.00     0.001 A 
ATOM     70  C   UNL A   1      38.177  33.246  37.509  1.00  0.00     0.000 A 
ENDBRANCH  46  65
BRANCH  58  71
ATOM     71  C   UNL A   1      44.442  27.416  34.329  1.00  0.00    -0.014 A 
ATOM     72  C   UNL A   1      45.640  28.130  34.478  1.00  0.00     0.009 A 
ATOM     73  C   UNL A   1      44.240  26.253  35.088  1.00  0.00     0.009 A 
ATOM     74  C   UNL A   1      46.626  27.675  35.355  1.00  0.00     0.001 A 
ATOM     75  C   UNL A   1      45.216  25.815  35.984  1.00  0.00     0.001 A 
ATOM     76  C   UNL A   1      46.411  26.523  36.112  1.00  0.00     0.000 A 
ENDBRANCH  58  71
ENDBRANCH  32  33
ENDBRANCH  25  27
ENDBRANCH  24  25
ENDBRANCH   1  24
TORSDOF 12
ENDMDL
