MODEL 1
REMARK VINA RESULT:      -9.1      0.000      0.000
REMARK SMILES C[C@H](C(=O)OCCOC(=O)c1ccc(-c2c3nc(c(-c4ccccc4)c4ccc([nH]4)c(-c4ccccc4)c4nc(c(-c5ccccc5)c5ccc2[nH]5)C=C4)C=C3)cc1)c1ccc2c(c1)[nH]c1ccc(Cl)cc12
REMARK SMILES IDX 7 1 6 2 5 3 3 4 4 5 2 6 1 7 59 8 60 9 64 10 61 11 63 12
REMARK SMILES IDX 62 13 65 14 72 15 66 16 71 18 67 19 69 20 68 21 70 22 8 23
REMARK SMILES IDX 9 24 10 25 11 26 12 27 58 28 13 29 57 30 14 31 15 32 16 33
REMARK SMILES IDX 51 34 17 35 56 36 50 37 52 38 18 39 55 40 49 41 48 42 19 44
REMARK SMILES IDX 41 45 26 46 40 47 27 48 30 49 39 50 53 51 28 52 29 53 38 55
REMARK SMILES IDX 54 56 31 57 20 58 21 59 25 60 22 61 24 62 23 63 42 64 43 65
REMARK SMILES IDX 47 66 44 67 46 68 45 69 32 70 33 71 37 72 34 73 36 74 35 75
REMARK H PARENT 65 17 52 43 30 54
REMARK Flexibility Score: inf
ROOT
ATOM      1  C   UNL A   1      33.153  35.755  30.098  1.00  0.00     0.275 C 
ENDROOT
BRANCH   1   2
ATOM      2  C   UNL A   1      33.575  35.707  31.564  1.00  0.00     0.274 C 
BRANCH   2   3
ATOM      3  O   UNL A   1      34.537  34.653  31.766  1.00  0.00    -0.462 OA
BRANCH   3   4
ATOM      4  C   UNL A   1      34.481  33.957  32.935  1.00  0.00     0.313 C 
ATOM      5  O   UNL A   1      33.601  33.154  33.224  1.00  0.00    -0.252 OA
BRANCH   4   6
ATOM      6  C   UNL A   1      35.629  34.322  33.883  1.00  0.00     0.126 C 
ATOM      7  C   UNL A   1      35.190  34.515  35.333  1.00  0.00     0.025 C 
BRANCH   6   8
ATOM      8  C   UNL A   1      36.770  33.326  33.779  1.00  0.00    -0.032 A 
ATOM      9  C   UNL A   1      36.604  32.126  33.075  1.00  0.00     0.005 A 
ATOM     10  C   UNL A   1      37.988  33.592  34.422  1.00  0.00     0.031 A 
ATOM     11  C   UNL A   1      37.614  31.154  33.057  1.00  0.00     0.011 A 
ATOM     12  C   UNL A   1      38.938  32.575  34.473  1.00  0.00     0.047 A 
ATOM     13  C   UNL A   1      38.789  31.365  33.807  1.00  0.00     0.007 A 
ATOM     14  N   UNL A   1      40.119  32.530  35.165  1.00  0.00    -0.355 N 
ATOM     15  C   UNL A   1      39.948  30.580  34.108  1.00  0.00     0.009 A 
ATOM     16  C   UNL A   1      40.721  31.306  35.014  1.00  0.00     0.047 A 
ATOM     17  H   UNL A   1      40.486  33.273  35.697  1.00  0.00     0.167 HD
ATOM     18  C   UNL A   1      40.387  29.296  33.729  1.00  0.00     0.031 A 
ATOM     19  C   UNL A   1      41.877  30.802  35.614  1.00  0.00     0.028 A 
ATOM     20  C   UNL A   1      41.555  28.788  34.302  1.00  0.00     0.041 A 
ATOM     21  C   UNL A   1      42.280  29.517  35.243  1.00  0.00     0.022 A 
ATOM     22  Cl  UNL A   1      42.105  27.221  33.845  1.00  0.00    -0.084 Cl
ENDBRANCH   6   8
ENDBRANCH   4   6
ENDBRANCH   3   4
ENDBRANCH   2   3
ENDBRANCH   1   2
BRANCH   1  23
ATOM     23  O   UNL A   1      32.648  34.470  29.702  1.00  0.00    -0.458 OA
BRANCH  23  24
ATOM     24  C   UNL A   1      33.092  34.035  28.502  1.00  0.00     0.338 C 
ATOM     25  O   UNL A   1      32.566  34.157  27.412  1.00  0.00    -0.246 OA
BRANCH  24  26
ATOM     26  C   UNL A   1      34.435  33.480  28.683  1.00  0.00     0.060 A 
ATOM     27  C   UNL A   1      34.589  32.378  29.526  1.00  0.00     0.016 A 
ATOM     28  C   UNL A   1      35.539  34.098  28.102  1.00  0.00     0.016 A 
ATOM     29  C   UNL A   1      35.856  31.920  29.847  1.00  0.00     0.010 A 
ATOM     30  C   UNL A   1      36.814  33.602  28.383  1.00  0.00     0.010 A 
ATOM     31  C   UNL A   1      36.978  32.527  29.276  1.00  0.00    -0.014 A 
BRANCH  31  32
ATOM     32  C   UNL A   1      38.328  32.056  29.648  1.00  0.00     0.031 A 
ATOM     33  C   UNL A   1      38.801  30.712  29.180  1.00  0.00     0.074 A 
ATOM     34  C   UNL A   1      39.129  32.848  30.384  1.00  0.00     0.049 A 
ATOM     35  N   UNL A   1      39.885  30.060  29.509  1.00  0.00    -0.248 NA
ATOM     36  C   UNL A   1      37.936  30.006  28.220  1.00  0.00     0.031 C 
ATOM     37  C   UNL A   1      38.802  34.202  30.836  1.00  0.00     0.029 A 
ATOM     38  N   UNL A   1      40.387  32.624  30.879  1.00  0.00    -0.354 N 
ATOM     39  C   UNL A   1      39.815  28.853  28.828  1.00  0.00     0.074 A 
ATOM     40  C   UNL A   1      38.582  28.858  28.072  1.00  0.00     0.031 C 
ATOM     41  C   UNL A   1      39.837  34.692  31.535  1.00  0.00     0.029 A 
ATOM     42  C   UNL A   1      40.868  33.665  31.635  1.00  0.00     0.049 A 
ATOM     43  H   UNL A   1      40.895  31.798  30.710  1.00  0.00     0.167 HD
ATOM     44  C   UNL A   1      40.702  27.830  28.839  1.00  0.00     0.031 A 
ATOM     45  C   UNL A   1      41.996  33.762  32.359  1.00  0.00     0.031 A 
ATOM     46  C   UNL A   1      41.931  27.838  29.586  1.00  0.00     0.049 A 
ATOM     47  C   UNL A   1      42.933  32.591  32.405  1.00  0.00     0.074 A 
ATOM     48  C   UNL A   1      42.896  26.851  29.676  1.00  0.00     0.029 A 
ATOM     49  N   UNL A   1      42.366  28.898  30.369  1.00  0.00    -0.354 N 
ATOM     50  N   UNL A   1      42.837  31.434  31.796  1.00  0.00    -0.248 NA
ATOM     51  C   UNL A   1      44.128  32.735  33.247  1.00  0.00     0.031 C 
ATOM     52  C   UNL A   1      43.899  27.300  30.542  1.00  0.00     0.029 A 
ATOM     53  C   UNL A   1      43.579  28.584  30.956  1.00  0.00     0.049 A 
ATOM     54  H   UNL A   1      41.884  29.748  30.487  1.00  0.00     0.167 HD
ATOM     55  C   UNL A   1      43.963  30.715  32.170  1.00  0.00     0.074 A 
ATOM     56  C   UNL A   1      44.736  31.574  33.045  1.00  0.00     0.031 C 
ATOM     57  C   UNL A   1      44.324  29.456  31.825  1.00  0.00     0.031 A 
BRANCH  44  58
ATOM     58  C   UNL A   1      40.344  26.600  28.056  1.00  0.00    -0.014 A 
ATOM     59  C   UNL A   1      40.845  26.383  26.764  1.00  0.00     0.009 A 
ATOM     60  C   UNL A   1      39.499  25.637  28.629  1.00  0.00     0.009 A 
ATOM     61  C   UNL A   1      40.484  25.239  26.049  1.00  0.00     0.001 A 
ATOM     62  C   UNL A   1      39.157  24.483  27.921  1.00  0.00     0.001 A 
ATOM     63  C   UNL A   1      39.643  24.289  26.630  1.00  0.00     0.000 A 
ENDBRANCH  44  58
BRANCH  45  64
ATOM     64  C   UNL A   1      42.269  34.997  33.136  1.00  0.00    -0.014 A 
ATOM     65  C   UNL A   1      43.144  35.974  32.642  1.00  0.00     0.009 A 
ATOM     66  C   UNL A   1      41.641  35.210  34.374  1.00  0.00     0.009 A 
ATOM     67  C   UNL A   1      43.395  37.133  33.378  1.00  0.00     0.001 A 
ATOM     68  C   UNL A   1      41.874  36.382  35.095  1.00  0.00     0.001 A 
ATOM     69  C   UNL A   1      42.757  37.339  34.600  1.00  0.00     0.000 A 
ENDBRANCH  45  64
BRANCH  57  70
ATOM     70  C   UNL A   1      45.624  28.950  32.378  1.00  0.00    -0.014 A 
ATOM     71  C   UNL A   1      45.675  28.287  33.614  1.00  0.00     0.009 A 
ATOM     72  C   UNL A   1      46.804  29.114  31.638  1.00  0.00     0.009 A 
ATOM     73  C   UNL A   1      46.894  27.824  34.111  1.00  0.00     0.001 A 
ATOM     74  C   UNL A   1      48.016  28.628  32.127  1.00  0.00     0.001 A 
ATOM     75  C   UNL A   1      48.062  27.991  33.366  1.00  0.00     0.000 A 
ENDBRANCH  57  70
ENDBRANCH  31  32
ENDBRANCH  24  26
ENDBRANCH  23  24
ENDBRANCH   1  23
TORSDOF 12
ENDMDL
MODEL 2
REMARK VINA RESULT:      -9.0      3.572      8.474
REMARK SMILES C[C@H](C(=O)OCCOC(=O)c1ccc(-c2c3nc(c(-c4ccccc4)c4ccc([nH]4)c(-c4ccccc4)c4nc(c(-c5ccccc5)c5ccc2[nH]5)C=C4)C=C3)cc1)c1ccc2c(c1)[nH]c1ccc(Cl)cc12
REMARK SMILES IDX 7 1 6 2 5 3 3 4 4 5 2 6 1 7 59 8 60 9 64 10 61 11 63 12
REMARK SMILES IDX 62 13 65 14 72 15 66 16 71 18 67 19 69 20 68 21 70 22 8 23
REMARK SMILES IDX 9 24 10 25 11 26 12 27 58 28 13 29 57 30 14 31 15 32 16 33
REMARK SMILES IDX 51 34 17 35 56 36 50 37 52 38 18 39 55 40 49 41 48 42 19 44
REMARK SMILES IDX 41 45 26 46 40 47 27 48 30 49 39 50 53 51 28 52 29 53 38 55
REMARK SMILES IDX 54 56 31 57 20 58 21 59 25 60 22 61 24 62 23 63 42 64 43 65
REMARK SMILES IDX 47 66 44 67 46 68 45 69 32 70 33 71 37 72 34 73 36 74 35 75
REMARK H PARENT 65 17 52 43 30 54
REMARK Flexibility Score: inf
ROOT
ATOM      1  C   UNL A   1      32.745  36.316  29.929  1.00  0.00     0.275 C 
ENDROOT
BRANCH   1   2
ATOM      2  C   UNL A   1      33.683  35.586  28.972  1.00  0.00     0.274 C 
BRANCH   2   3
ATOM      3  O   UNL A   1      33.252  34.220  28.806  1.00  0.00    -0.462 OA
BRANCH   3   4
ATOM      4  C   UNL A   1      34.122  33.233  29.155  1.00  0.00     0.313 C 
ATOM      5  O   UNL A   1      34.282  32.820  30.299  1.00  0.00    -0.252 OA
BRANCH   4   6
ATOM      6  C   UNL A   1      34.922  32.713  27.955  1.00  0.00     0.126 C 
ATOM      7  C   UNL A   1      36.431  32.897  28.098  1.00  0.00     0.025 C 
BRANCH   6   8
ATOM      8  C   UNL A   1      34.569  31.271  27.637  1.00  0.00    -0.032 A 
ATOM      9  C   UNL A   1      35.563  30.285  27.613  1.00  0.00     0.005 A 
ATOM     10  C   UNL A   1      33.243  30.930  27.330  1.00  0.00     0.031 A 
ATOM     11  C   UNL A   1      35.267  28.971  27.221  1.00  0.00     0.011 A 
ATOM     12  C   UNL A   1      32.991  29.647  26.852  1.00  0.00     0.047 A 
ATOM     13  C   UNL A   1      33.962  28.656  26.791  1.00  0.00     0.007 A 
ATOM     14  N   UNL A   1      31.830  29.128  26.342  1.00  0.00    -0.355 N 
ATOM     15  C   UNL A   1      33.336  27.495  26.236  1.00  0.00     0.009 A 
ATOM     16  C   UNL A   1      32.028  27.845  25.899  1.00  0.00     0.047 A 
ATOM     17  H   UNL A   1      30.972  29.610  26.298  1.00  0.00     0.167 HD
ATOM     18  C   UNL A   1      33.778  26.189  25.944  1.00  0.00     0.031 A 
ATOM     19  C   UNL A   1      31.151  26.987  25.231  1.00  0.00     0.028 A 
ATOM     20  C   UNL A   1      32.903  25.311  25.299  1.00  0.00     0.041 A 
ATOM     21  C   UNL A   1      31.619  25.706  24.930  1.00  0.00     0.022 A 
ATOM     22  Cl  UNL A   1      33.429  23.711  24.939  1.00  0.00    -0.084 Cl
ENDBRANCH   6   8
ENDBRANCH   4   6
ENDBRANCH   3   4
ENDBRANCH   2   3
ENDBRANCH   1   2
BRANCH   1  23
ATOM     23  O   UNL A   1      32.426  35.460  31.037  1.00  0.00    -0.458 OA
BRANCH  23  24
ATOM     24  C   UNL A   1      32.777  35.948  32.247  1.00  0.00     0.338 C 
ATOM     25  O   UNL A   1      32.212  36.795  32.913  1.00  0.00    -0.246 OA
BRANCH  24  26
ATOM     26  C   UNL A   1      33.923  35.180  32.738  1.00  0.00     0.060 A 
ATOM     27  C   UNL A   1      35.202  35.708  32.553  1.00  0.00     0.016 A 
ATOM     28  C   UNL A   1      33.743  33.913  33.285  1.00  0.00     0.016 A 
ATOM     29  C   UNL A   1      36.319  34.948  32.860  1.00  0.00     0.010 A 
ATOM     30  C   UNL A   1      34.867  33.168  33.644  1.00  0.00     0.010 A 
ATOM     31  C   UNL A   1      36.160  33.673  33.411  1.00  0.00    -0.014 A 
BRANCH  31  32
ATOM     32  C   UNL A   1      37.354  32.853  33.703  1.00  0.00     0.031 A 
ATOM     33  C   UNL A   1      38.082  33.040  35.000  1.00  0.00     0.074 A 
ATOM     34  C   UNL A   1      37.761  31.931  32.814  1.00  0.00     0.049 A 
ATOM     35  N   UNL A   1      39.220  32.527  35.387  1.00  0.00    -0.248 NA
ATOM     36  C   UNL A   1      37.449  33.927  35.991  1.00  0.00     0.031 C 
ATOM     37  C   UNL A   1      37.090  31.613  31.551  1.00  0.00     0.029 A 
ATOM     38  N   UNL A   1      38.842  31.088  32.840  1.00  0.00    -0.354 N 
ATOM     39  C   UNL A   1      39.459  33.056  36.648  1.00  0.00     0.074 A 
ATOM     40  C   UNL A   1      38.353  33.935  36.960  1.00  0.00     0.031 C 
ATOM     41  C   UNL A   1      37.770  30.638  30.927  1.00  0.00     0.029 A 
ATOM     42  C   UNL A   1      38.955  30.312  31.713  1.00  0.00     0.049 A 
ATOM     43  H   UNL A   1      39.476  31.044  33.592  1.00  0.00     0.167 HD
ATOM     44  C   UNL A   1      40.513  32.831  37.467  1.00  0.00     0.031 A 
ATOM     45  C   UNL A   1      39.928  29.463  31.338  1.00  0.00     0.031 A 
ATOM     46  C   UNL A   1      41.603  31.947  37.152  1.00  0.00     0.049 A 
ATOM     47  C   UNL A   1      41.116  29.278  32.236  1.00  0.00     0.074 A 
ATOM     48  C   UNL A   1      42.725  31.653  37.907  1.00  0.00     0.029 A 
ATOM     49  N   UNL A   1      41.699  31.206  35.984  1.00  0.00    -0.354 N 
ATOM     50  N   UNL A   1      41.357  29.819  33.405  1.00  0.00    -0.248 NA
ATOM     51  C   UNL A   1      42.169  28.373  31.757  1.00  0.00     0.031 C 
ATOM     52  C   UNL A   1      43.519  30.760  37.178  1.00  0.00     0.029 A 
ATOM     53  C   UNL A   1      42.868  30.465  35.990  1.00  0.00     0.049 A 
ATOM     54  H   UNL A   1      41.033  31.205  35.259  1.00  0.00     0.167 HD
ATOM     55  C   UNL A   1      42.585  29.313  33.809  1.00  0.00     0.074 A 
ATOM     56  C   UNL A   1      43.027  28.408  32.767  1.00  0.00     0.031 C 
ATOM     57  C   UNL A   1      43.286  29.576  34.938  1.00  0.00     0.031 A 
BRANCH  44  58
ATOM     58  C   UNL A   1      40.555  33.594  38.760  1.00  0.00    -0.014 A 
ATOM     59  C   UNL A   1      39.972  33.085  39.930  1.00  0.00     0.009 A 
ATOM     60  C   UNL A   1      41.203  34.838  38.808  1.00  0.00     0.009 A 
ATOM     61  C   UNL A   1      40.010  33.822  41.116  1.00  0.00     0.001 A 
ATOM     62  C   UNL A   1      41.258  35.563  40.000  1.00  0.00     0.001 A 
ATOM     63  C   UNL A   1      40.655  35.057  41.150  1.00  0.00     0.000 A 
ENDBRANCH  44  58
BRANCH  45  64
ATOM     64  C   UNL A   1      39.836  28.768  30.030  1.00  0.00    -0.014 A 
ATOM     65  C   UNL A   1      39.323  27.467  29.946  1.00  0.00     0.009 A 
ATOM     66  C   UNL A   1      40.251  29.413  28.853  1.00  0.00     0.009 A 
ATOM     67  C   UNL A   1      39.238  26.819  28.711  1.00  0.00     0.001 A 
ATOM     68  C   UNL A   1      40.140  28.774  27.617  1.00  0.00     0.001 A 
ATOM     69  C   UNL A   1      39.642  27.474  27.548  1.00  0.00     0.000 A 
ENDBRANCH  45  64
BRANCH  57  70
ATOM     70  C   UNL A   1      44.589  28.853  35.108  1.00  0.00    -0.014 A 
ATOM     71  C   UNL A   1      45.793  29.417  34.661  1.00  0.00     0.009 A 
ATOM     72  C   UNL A   1      44.612  27.606  35.751  1.00  0.00     0.009 A 
ATOM     73  C   UNL A   1      46.996  28.729  34.830  1.00  0.00     0.001 A 
ATOM     74  C   UNL A   1      45.819  26.932  35.938  1.00  0.00     0.001 A 
ATOM     75  C   UNL A   1      47.008  27.490  35.470  1.00  0.00     0.000 A 
ENDBRANCH  57  70
ENDBRANCH  31  32
ENDBRANCH  24  26
ENDBRANCH  23  24
ENDBRANCH   1  23
TORSDOF 12
ENDMDL
MODEL 3
REMARK VINA RESULT:      -8.9      5.086     10.664
REMARK SMILES C[C@H](C(=O)OCCOC(=O)c1ccc(-c2c3nc(c(-c4ccccc4)c4ccc([nH]4)c(-c4ccccc4)c4nc(c(-c5ccccc5)c5ccc2[nH]5)C=C4)C=C3)cc1)c1ccc2c(c1)[nH]c1ccc(Cl)cc12
REMARK SMILES IDX 7 1 6 2 5 3 3 4 4 5 2 6 1 7 59 8 60 9 64 10 61 11 63 12
REMARK SMILES IDX 62 13 65 14 72 15 66 16 71 18 67 19 69 20 68 21 70 22 8 23
REMARK SMILES IDX 9 24 10 25 11 26 12 27 58 28 13 29 57 30 14 31 15 32 16 33
REMARK SMILES IDX 51 34 17 35 56 36 50 37 52 38 18 39 55 40 49 41 48 42 19 44
REMARK SMILES IDX 41 45 26 46 40 47 27 48 30 49 39 50 53 51 28 52 29 53 38 55
REMARK SMILES IDX 54 56 31 57 20 58 21 59 25 60 22 61 24 62 23 63 42 64 43 65
REMARK SMILES IDX 47 66 44 67 46 68 45 69 32 70 33 71 37 72 34 73 36 74 35 75
REMARK H PARENT 65 17 52 43 30 54
REMARK Flexibility Score: inf
ROOT
ATOM      1  C   UNL A   1      44.566  22.676  24.254  1.00  0.00     0.275 C 
ENDROOT
BRANCH   1   2
ATOM      2  C   UNL A   1      44.063  21.560  25.167  1.00  0.00     0.274 C 
BRANCH   2   3
ATOM      3  O   UNL A   1      42.644  21.697  25.377  1.00  0.00    -0.462 OA
BRANCH   3   4
ATOM      4  C   UNL A   1      41.972  20.632  25.894  1.00  0.00     0.313 C 
ATOM      5  O   UNL A   1      42.081  19.479  25.490  1.00  0.00    -0.252 OA
BRANCH   4   6
ATOM      6  C   UNL A   1      41.018  21.040  27.023  1.00  0.00     0.126 C 
ATOM      7  C   UNL A   1      41.706  21.774  28.172  1.00  0.00     0.025 C 
BRANCH   6   8
ATOM      8  C   UNL A   1      39.837  21.831  26.490  1.00  0.00    -0.032 A 
ATOM      9  C   UNL A   1      39.631  23.157  26.891  1.00  0.00     0.005 A 
ATOM     10  C   UNL A   1      38.925  21.219  25.618  1.00  0.00     0.031 A 
ATOM     11  C   UNL A   1      38.490  23.865  26.487  1.00  0.00     0.011 A 
ATOM     12  C   UNL A   1      37.753  21.904  25.309  1.00  0.00     0.047 A 
ATOM     13  C   UNL A   1      37.509  23.210  25.714  1.00  0.00     0.007 A 
ATOM     14  N   UNL A   1      36.652  21.466  24.621  1.00  0.00    -0.355 N 
ATOM     15  C   UNL A   1      36.211  23.561  25.225  1.00  0.00     0.009 A 
ATOM     16  C   UNL A   1      35.674  22.428  24.612  1.00  0.00     0.047 A 
ATOM     17  H   UNL A   1      36.573  20.583  24.193  1.00  0.00     0.167 HD
ATOM     18  C   UNL A   1      35.422  24.726  25.290  1.00  0.00     0.031 A 
ATOM     19  C   UNL A   1      34.371  22.370  24.112  1.00  0.00     0.028 A 
ATOM     20  C   UNL A   1      34.124  24.691  24.772  1.00  0.00     0.041 A 
ATOM     21  C   UNL A   1      33.598  23.529  24.210  1.00  0.00     0.022 A 
ATOM     22  Cl  UNL A   1      33.150  26.110  24.842  1.00  0.00    -0.084 Cl
ENDBRANCH   6   8
ENDBRANCH   4   6
ENDBRANCH   3   4
ENDBRANCH   2   3
ENDBRANCH   1   2
BRANCH   1  23
ATOM     23  O   UNL A   1      43.867  23.893  24.554  1.00  0.00    -0.458 OA
BRANCH  23  24
ATOM     24  C   UNL A   1      44.634  24.868  25.089  1.00  0.00     0.338 C 
ATOM     25  O   UNL A   1      45.733  25.247  24.730  1.00  0.00    -0.246 OA
BRANCH  24  26
ATOM     26  C   UNL A   1      43.864  25.535  26.140  1.00  0.00     0.060 A 
ATOM     27  C   UNL A   1      44.049  26.906  26.328  1.00  0.00     0.016 A 
ATOM     28  C   UNL A   1      43.042  24.800  26.990  1.00  0.00     0.016 A 
ATOM     29  C   UNL A   1      43.461  27.546  27.407  1.00  0.00     0.010 A 
ATOM     30  C   UNL A   1      42.407  25.455  28.046  1.00  0.00     0.010 A 
ATOM     31  C   UNL A   1      42.633  26.825  28.272  1.00  0.00    -0.014 A 
BRANCH  31  32
ATOM     32  C   UNL A   1      42.036  27.504  29.441  1.00  0.00     0.031 A 
ATOM     33  C   UNL A   1      40.696  28.164  29.311  1.00  0.00     0.074 A 
ATOM     34  C   UNL A   1      42.690  27.504  30.616  1.00  0.00     0.049 A 
ATOM     35  N   UNL A   1      40.066  28.926  30.167  1.00  0.00    -0.248 NA
ATOM     36  C   UNL A   1      39.971  27.942  28.049  1.00  0.00     0.031 C 
ATOM     37  C   UNL A   1      43.967  26.835  30.878  1.00  0.00     0.029 A 
ATOM     38  N   UNL A   1      42.366  28.088  31.813  1.00  0.00    -0.354 N 
ATOM     39  C   UNL A   1      38.890  29.305  29.534  1.00  0.00     0.074 A 
ATOM     40  C   UNL A   1      38.894  28.697  28.222  1.00  0.00     0.031 C 
ATOM     41  C   UNL A   1      44.313  27.039  32.158  1.00  0.00     0.029 A 
ATOM     42  C   UNL A   1      43.319  27.904  32.784  1.00  0.00     0.049 A 
ATOM     43  H   UNL A   1      41.532  28.590  31.962  1.00  0.00     0.167 HD
ATOM     44  C   UNL A   1      37.900  30.097  30.008  1.00  0.00     0.031 A 
ATOM     45  C   UNL A   1      43.401  28.411  34.027  1.00  0.00     0.031 A 
ATOM     46  C   UNL A   1      37.900  30.689  31.319  1.00  0.00     0.049 A 
ATOM     47  C   UNL A   1      42.321  29.335  34.506  1.00  0.00     0.074 A 
ATOM     48  C   UNL A   1      36.951  31.515  31.896  1.00  0.00     0.029 A 
ATOM     49  N   UNL A   1      38.902  30.508  32.261  1.00  0.00    -0.354 N 
ATOM     50  N   UNL A   1      41.236  29.727  33.885  1.00  0.00    -0.248 NA
ATOM     51  C   UNL A   1      42.483  29.895  35.855  1.00  0.00     0.031 C 
ATOM     52  C   UNL A   1      37.397  31.862  33.176  1.00  0.00     0.029 A 
ATOM     53  C   UNL A   1      38.601  31.217  33.411  1.00  0.00     0.049 A 
ATOM     54  H   UNL A   1      39.706  29.956  32.132  1.00  0.00     0.167 HD
ATOM     55  C   UNL A   1      40.578  30.571  34.768  1.00  0.00     0.074 A 
ATOM     56  C   UNL A   1      41.378  30.618  35.976  1.00  0.00     0.031 C 
ATOM     57  C   UNL A   1      39.418  31.250  34.596  1.00  0.00     0.031 A 
BRANCH  44  58
ATOM     58  C   UNL A   1      36.760  30.404  29.080  1.00  0.00    -0.014 A 
ATOM     59  C   UNL A   1      35.863  29.407  28.667  1.00  0.00     0.009 A 
ATOM     60  C   UNL A   1      36.576  31.717  28.621  1.00  0.00     0.009 A 
ATOM     61  C   UNL A   1      34.821  29.714  27.790  1.00  0.00     0.001 A 
ATOM     62  C   UNL A   1      35.521  32.026  27.762  1.00  0.00     0.001 A 
ATOM     63  C   UNL A   1      34.649  31.023  27.341  1.00  0.00     0.000 A 
ENDBRANCH  44  58
BRANCH  45  64
ATOM     64  C   UNL A   1      44.574  28.092  34.878  1.00  0.00    -0.014 A 
ATOM     65  C   UNL A   1      45.720  28.898  34.847  1.00  0.00     0.009 A 
ATOM     66  C   UNL A   1      44.545  26.982  35.740  1.00  0.00     0.009 A 
ATOM     67  C   UNL A   1      46.820  28.592  35.652  1.00  0.00     0.001 A 
ATOM     68  C   UNL A   1      45.635  26.695  36.562  1.00  0.00     0.001 A 
ATOM     69  C   UNL A   1      46.774  27.495  36.512  1.00  0.00     0.000 A 
ENDBRANCH  45  64
BRANCH  57  70
ATOM     70  C   UNL A   1      38.941  32.077  35.753  1.00  0.00    -0.014 A 
ATOM     71  C   UNL A   1      38.139  31.518  36.760  1.00  0.00     0.009 A 
ATOM     72  C   UNL A   1      39.325  33.422  35.850  1.00  0.00     0.009 A 
ATOM     73  C   UNL A   1      37.706  32.305  37.828  1.00  0.00     0.001 A 
ATOM     74  C   UNL A   1      38.910  34.198  36.932  1.00  0.00     0.001 A 
ATOM     75  C   UNL A   1      38.094  33.641  37.915  1.00  0.00     0.000 A 
ENDBRANCH  57  70
ENDBRANCH  31  32
ENDBRANCH  24  26
ENDBRANCH  23  24
ENDBRANCH   1  23
TORSDOF 12
ENDMDL
