MODEL 1
REMARK VINA RESULT:     -11.1      0.000      0.000
REMARK SMILES COc1ccc(-c2nc3ccc(C)cc3[nH]2)c(C(=O)OCCOC(=O)c2ccc(-c3c4nc(c(-c5ccccc5)c5ccc([nH]5)c(-c5ccccc5)c5nc(c(-c6ccccc6)c6ccc3[nH]6)C=C5)C=C4)cc2)c1OC
REMARK SMILES IDX 22 1 21 2 20 3 18 4 19 5 17 6 3 7 4 8 74 9 5 10 6 11 2 12
REMARK SMILES IDX 1 13 75 14 76 15 7 16 8 17 16 18 9 19 15 20 10 22 14 23
REMARK SMILES IDX 11 24 12 25 13 26 23 27 24 28 25 29 26 30 27 31 73 32 28 33
REMARK SMILES IDX 72 34 29 35 30 36 31 37 66 38 32 39 71 40 65 41 67 42 33 43
REMARK SMILES IDX 70 44 64 45 63 46 34 48 56 49 41 50 55 51 42 52 45 53 54 54
REMARK SMILES IDX 68 55 43 56 44 57 53 59 69 60 46 61 35 62 36 63 40 64 37 65
REMARK SMILES IDX 39 66 38 67 57 68 58 69 62 70 59 71 61 72 60 73 47 74 48 75
REMARK SMILES IDX 52 76 49 77 51 78 50 79
REMARK H PARENT 16 21 67 47 45 58
REMARK Flexibility Score: inf
ROOT
ATOM      1  C   UNL A   1      33.513  29.348  25.814  1.00  0.00     0.275 C 
ENDROOT
BRANCH   1   2
ATOM      2  C   UNL A   1      32.081  28.824  25.691  1.00  0.00     0.275 C 
BRANCH   2   3
ATOM      3  O   UNL A   1      32.163  27.468  25.260  1.00  0.00    -0.458 OA
BRANCH   3   4
ATOM      4  C   UNL A   1      31.338  26.602  25.879  1.00  0.00     0.342 C 
ATOM      5  O   UNL A   1      30.662  26.775  26.882  1.00  0.00    -0.246 OA
BRANCH   4   6
ATOM      6  C   UNL A   1      31.309  25.386  25.053  1.00  0.00     0.116 A 
ATOM      7  C   UNL A   1      32.068  23.133  24.715  1.00  0.00     0.161 A 
ATOM      8  C   UNL A   1      31.263  23.061  23.567  1.00  0.00     0.051 A 
ATOM      9  C   UNL A   1      32.125  24.315  25.450  1.00  0.00     0.176 A 
ATOM     10  C   UNL A   1      30.496  24.165  23.146  1.00  0.00     0.017 A 
ATOM     11  C   UNL A   1      30.508  25.356  23.885  1.00  0.00     0.036 A 
BRANCH   7  12
ATOM     12  O   UNL A   1      32.891  22.076  24.993  1.00  0.00    -0.493 OA
ATOM     13  C   UNL A   1      32.232  20.828  24.770  1.00  0.00     0.278 C 
ENDBRANCH   7  12
BRANCH   9  14
ATOM     14  O   UNL A   1      33.073  24.593  26.397  1.00  0.00    -0.492 OA
ATOM     15  C   UNL A   1      34.399  24.789  25.949  1.00  0.00     0.278 C 
ENDBRANCH   9  14
BRANCH  11  16
ATOM     16  C   UNL A   1      29.932  26.620  23.385  1.00  0.00     0.139 A 
ATOM     17  N   UNL A   1      28.681  26.955  23.627  1.00  0.00    -0.228 NA
ATOM     18  N   UNL A   1      30.547  27.645  22.692  1.00  0.00    -0.338 N 
ATOM     19  C   UNL A   1      28.491  28.215  23.164  1.00  0.00     0.089 A 
ATOM     20  C   UNL A   1      29.642  28.685  22.560  1.00  0.00     0.066 A 
ATOM     21  H   UNL A   1      31.470  27.636  22.350  1.00  0.00     0.168 HD
ATOM     22  C   UNL A   1      27.362  29.030  23.290  1.00  0.00     0.031 A 
ATOM     23  C   UNL A   1      29.717  29.984  22.043  1.00  0.00     0.031 A 
ATOM     24  C   UNL A   1      27.467  30.368  22.915  1.00  0.00     0.006 A 
ATOM     25  C   UNL A   1      28.638  30.852  22.321  1.00  0.00    -0.049 A 
ATOM     26  C   UNL A   1      28.764  32.333  22.110  1.00  0.00     0.044 C 
ENDBRANCH  11  16
ENDBRANCH   4   6
ENDBRANCH   3   4
ENDBRANCH   2   3
ENDBRANCH   1   2
BRANCH   1  27
ATOM     27  O   UNL A   1      34.014  29.186  27.161  1.00  0.00    -0.458 OA
BRANCH  27  28
ATOM     28  C   UNL A   1      34.662  30.252  27.704  1.00  0.00     0.338 C 
ATOM     29  O   UNL A   1      34.212  31.371  27.890  1.00  0.00    -0.246 OA
BRANCH  28  30
ATOM     30  C   UNL A   1      36.033  29.854  28.123  1.00  0.00     0.060 A 
ATOM     31  C   UNL A   1      37.068  29.878  27.175  1.00  0.00     0.016 A 
ATOM     32  C   UNL A   1      36.318  29.493  29.441  1.00  0.00     0.016 A 
ATOM     33  C   UNL A   1      38.391  29.595  27.551  1.00  0.00     0.010 A 
ATOM     34  C   UNL A   1      37.637  29.208  29.815  1.00  0.00     0.010 A 
ATOM     35  C   UNL A   1      38.687  29.257  28.876  1.00  0.00    -0.014 A 
BRANCH  35  36
ATOM     36  C   UNL A   1      40.027  28.758  29.292  1.00  0.00     0.031 A 
ATOM     37  C   UNL A   1      40.993  29.738  29.872  1.00  0.00     0.074 A 
ATOM     38  C   UNL A   1      40.432  27.485  29.132  1.00  0.00     0.049 A 
ATOM     39  N   UNL A   1      42.247  29.560  30.190  1.00  0.00    -0.248 NA
ATOM     40  C   UNL A   1      40.461  31.072  30.190  1.00  0.00     0.031 C 
ATOM     41  C   UNL A   1      39.578  26.368  28.778  1.00  0.00     0.029 A 
ATOM     42  N   UNL A   1      41.689  26.926  29.191  1.00  0.00    -0.354 N 
ATOM     43  C   UNL A   1      42.632  30.728  30.822  1.00  0.00     0.074 A 
ATOM     44  C   UNL A   1      41.512  31.643  30.755  1.00  0.00     0.031 C 
ATOM     45  C   UNL A   1      40.339  25.301  28.476  1.00  0.00     0.029 A 
ATOM     46  C   UNL A   1      41.740  25.660  28.652  1.00  0.00     0.049 A 
ATOM     47  H   UNL A   1      42.470  27.384  29.578  1.00  0.00     0.167 HD
ATOM     48  C   UNL A   1      43.800  30.995  31.448  1.00  0.00     0.031 A 
ATOM     49  C   UNL A   1      42.791  24.892  28.303  1.00  0.00     0.031 A 
ATOM     50  C   UNL A   1      44.941  30.123  31.442  1.00  0.00     0.049 A 
ATOM     51  C   UNL A   1      44.167  25.331  28.706  1.00  0.00     0.074 A 
ATOM     52  C   UNL A   1      46.181  30.320  32.021  1.00  0.00     0.029 A 
ATOM     53  N   UNL A   1      44.992  28.900  30.789  1.00  0.00    -0.354 N 
ATOM     54  N   UNL A   1      44.521  26.421  29.339  1.00  0.00    -0.248 NA
ATOM     55  C   UNL A   1      45.275  24.409  28.422  1.00  0.00     0.031 C 
ATOM     56  C   UNL A   1      47.004  29.248  31.659  1.00  0.00     0.029 A 
ATOM     57  C   UNL A   1      46.257  28.352  30.909  1.00  0.00     0.049 A 
ATOM     58  H   UNL A   1      44.239  28.484  30.310  1.00  0.00     0.167 HD
ATOM     59  C   UNL A   1      45.872  26.275  29.615  1.00  0.00     0.074 A 
ATOM     60  C   UNL A   1      46.286  25.013  29.034  1.00  0.00     0.031 C 
ATOM     61  C   UNL A   1      46.672  27.096  30.335  1.00  0.00     0.031 A 
BRANCH  48  62
ATOM     62  C   UNL A   1      43.874  32.312  32.157  1.00  0.00    -0.014 A 
ATOM     63  C   UNL A   1      44.366  33.453  31.500  1.00  0.00     0.009 A 
ATOM     64  C   UNL A   1      43.512  32.400  33.507  1.00  0.00     0.009 A 
ATOM     65  C   UNL A   1      44.544  34.646  32.201  1.00  0.00     0.001 A 
ATOM     66  C   UNL A   1      43.668  33.601  34.198  1.00  0.00     0.001 A 
ATOM     67  C   UNL A   1      44.196  34.718  33.550  1.00  0.00     0.000 A 
ENDBRANCH  48  62
BRANCH  49  68
ATOM     68  C   UNL A   1      42.592  23.635  27.534  1.00  0.00    -0.014 A 
ATOM     69  C   UNL A   1      42.671  23.614  26.135  1.00  0.00     0.009 A 
ATOM     70  C   UNL A   1      42.279  22.446  28.212  1.00  0.00     0.009 A 
ATOM     71  C   UNL A   1      42.430  22.429  25.432  1.00  0.00     0.001 A 
ATOM     72  C   UNL A   1      42.059  21.258  27.509  1.00  0.00     0.001 A 
ATOM     73  C   UNL A   1      42.129  21.252  26.118  1.00  0.00     0.000 A 
ENDBRANCH  49  68
BRANCH  61  74
ATOM     74  C   UNL A   1      48.072  26.633  30.613  1.00  0.00    -0.014 A 
ATOM     75  C   UNL A   1      48.379  25.834  31.724  1.00  0.00     0.009 A 
ATOM     76  C   UNL A   1      49.088  26.947  29.695  1.00  0.00     0.009 A 
ATOM     77  C   UNL A   1      49.682  25.367  31.913  1.00  0.00     0.001 A 
ATOM     78  C   UNL A   1      50.381  26.456  29.872  1.00  0.00     0.001 A 
ATOM     79  C   UNL A   1      50.677  25.670  30.984  1.00  0.00     0.000 A 
ENDBRANCH  61  74
ENDBRANCH  35  36
ENDBRANCH  28  30
ENDBRANCH  27  28
ENDBRANCH   1  27
TORSDOF 14
ENDMDL
MODEL 2
REMARK VINA RESULT:     -11.1      2.802      8.269
REMARK SMILES COc1ccc(-c2nc3ccc(C)cc3[nH]2)c(C(=O)OCCOC(=O)c2ccc(-c3c4nc(c(-c5ccccc5)c5ccc([nH]5)c(-c5ccccc5)c5nc(c(-c6ccccc6)c6ccc3[nH]6)C=C5)C=C4)cc2)c1OC
REMARK SMILES IDX 22 1 21 2 20 3 18 4 19 5 17 6 3 7 4 8 74 9 5 10 6 11 2 12
REMARK SMILES IDX 1 13 75 14 76 15 7 16 8 17 16 18 9 19 15 20 10 22 14 23
REMARK SMILES IDX 11 24 12 25 13 26 23 27 24 28 25 29 26 30 27 31 73 32 28 33
REMARK SMILES IDX 72 34 29 35 30 36 31 37 66 38 32 39 71 40 65 41 67 42 33 43
REMARK SMILES IDX 70 44 64 45 63 46 34 48 56 49 41 50 55 51 42 52 45 53 54 54
REMARK SMILES IDX 68 55 43 56 44 57 53 59 69 60 46 61 35 62 36 63 40 64 37 65
REMARK SMILES IDX 39 66 38 67 57 68 58 69 62 70 59 71 61 72 60 73 47 74 48 75
REMARK SMILES IDX 52 76 49 77 51 78 50 79
REMARK H PARENT 16 21 67 47 45 58
REMARK Flexibility Score: inf
ROOT
ATOM      1  C   UNL A   1      36.534  23.337  26.041  1.00  0.00     0.275 C 
ENDROOT
BRANCH   1   2
ATOM      2  C   UNL A   1      35.798  22.214  25.307  1.00  0.00     0.275 C 
BRANCH   2   3
ATOM      3  O   UNL A   1      34.506  22.709  24.964  1.00  0.00    -0.458 OA
BRANCH   3   4
ATOM      4  C   UNL A   1      34.365  23.165  23.705  1.00  0.00     0.342 C 
ATOM      5  O   UNL A   1      35.136  23.059  22.763  1.00  0.00    -0.246 OA
BRANCH   4   6
ATOM      6  C   UNL A   1      33.020  23.753  23.620  1.00  0.00     0.116 A 
ATOM      7  C   UNL A   1      31.660  25.732  23.580  1.00  0.00     0.161 A 
ATOM      8  C   UNL A   1      30.526  24.919  23.422  1.00  0.00     0.051 A 
ATOM      9  C   UNL A   1      32.918  25.149  23.717  1.00  0.00     0.176 A 
ATOM     10  C   UNL A   1      30.637  23.515  23.387  1.00  0.00     0.017 A 
ATOM     11  C   UNL A   1      31.894  22.903  23.489  1.00  0.00     0.036 A 
BRANCH   7  12
ATOM     12  O   UNL A   1      31.472  27.078  23.743  1.00  0.00    -0.493 OA
ATOM     13  C   UNL A   1      31.180  27.718  22.500  1.00  0.00     0.278 C 
ENDBRANCH   7  12
BRANCH   9  14
ATOM     14  O   UNL A   1      34.033  25.810  24.157  1.00  0.00    -0.492 OA
ATOM     15  C   UNL A   1      34.069  26.186  25.520  1.00  0.00     0.278 C 
ENDBRANCH   9  14
BRANCH  11  16
ATOM     16  C   UNL A   1      32.069  21.453  23.703  1.00  0.00     0.139 A 
ATOM     17  N   UNL A   1      32.108  20.604  22.696  1.00  0.00    -0.228 NA
ATOM     18  N   UNL A   1      32.282  20.765  24.882  1.00  0.00    -0.338 N 
ATOM     19  C   UNL A   1      32.415  19.381  23.196  1.00  0.00     0.089 A 
ATOM     20  C   UNL A   1      32.525  19.437  24.573  1.00  0.00     0.066 A 
ATOM     21  H   UNL A   1      32.262  21.153  25.787  1.00  0.00     0.168 HD
ATOM     22  C   UNL A   1      32.670  18.194  22.503  1.00  0.00     0.031 A 
ATOM     23  C   UNL A   1      32.884  18.310  25.322  1.00  0.00     0.031 A 
ATOM     24  C   UNL A   1      33.169  17.106  23.215  1.00  0.00     0.006 A 
ATOM     25  C   UNL A   1      33.301  17.166  24.607  1.00  0.00    -0.049 A 
ATOM     26  C   UNL A   1      34.014  16.040  25.299  1.00  0.00     0.044 C 
ENDBRANCH  11  16
ENDBRANCH   4   6
ENDBRANCH   3   4
ENDBRANCH   2   3
ENDBRANCH   1   2
BRANCH   1  27
ATOM     27  O   UNL A   1      37.850  23.551  25.481  1.00  0.00    -0.458 OA
BRANCH  27  28
ATOM     28  C   UNL A   1      38.910  23.296  26.295  1.00  0.00     0.338 C 
ATOM     29  O   UNL A   1      39.478  22.228  26.452  1.00  0.00    -0.246 OA
BRANCH  28  30
ATOM     30  C   UNL A   1      39.354  24.552  26.959  1.00  0.00     0.060 A 
ATOM     31  C   UNL A   1      38.937  24.812  28.273  1.00  0.00     0.016 A 
ATOM     32  C   UNL A   1      40.202  25.456  26.317  1.00  0.00     0.016 A 
ATOM     33  C   UNL A   1      39.406  25.941  28.964  1.00  0.00     0.010 A 
ATOM     34  C   UNL A   1      40.668  26.583  27.005  1.00  0.00     0.010 A 
ATOM     35  C   UNL A   1      40.276  26.837  28.334  1.00  0.00    -0.014 A 
BRANCH  35  36
ATOM     36  C   UNL A   1      40.650  28.145  28.940  1.00  0.00     0.031 A 
ATOM     37  C   UNL A   1      41.939  28.231  29.689  1.00  0.00     0.074 A 
ATOM     38  C   UNL A   1      39.871  29.241  28.890  1.00  0.00     0.049 A 
ATOM     39  N   UNL A   1      42.409  29.223  30.397  1.00  0.00    -0.248 NA
ATOM     40  C   UNL A   1      42.839  27.073  29.578  1.00  0.00     0.031 C 
ATOM     41  C   UNL A   1      38.698  29.402  28.052  1.00  0.00     0.029 A 
ATOM     42  N   UNL A   1      39.917  30.414  29.610  1.00  0.00    -0.354 N 
ATOM     43  C   UNL A   1      43.694  28.845  30.745  1.00  0.00     0.074 A 
ATOM     44  C   UNL A   1      43.892  27.497  30.257  1.00  0.00     0.031 C 
ATOM     45  C   UNL A   1      38.033  30.512  28.420  1.00  0.00     0.029 A 
ATOM     46  C   UNL A   1      38.762  31.155  29.505  1.00  0.00     0.049 A 
ATOM     47  H   UNL A   1      40.696  30.692  30.144  1.00  0.00     0.167 HD
ATOM     48  C   UNL A   1      44.640  29.578  31.372  1.00  0.00     0.031 A 
ATOM     49  C   UNL A   1      38.321  32.207  30.223  1.00  0.00     0.031 A 
ATOM     50  C   UNL A   1      44.418  30.881  31.931  1.00  0.00     0.049 A 
ATOM     51  C   UNL A   1      39.262  32.860  31.192  1.00  0.00     0.074 A 
ATOM     52  C   UNL A   1      45.307  31.691  32.614  1.00  0.00     0.029 A 
ATOM     53  N   UNL A   1      43.203  31.552  31.904  1.00  0.00    -0.354 N 
ATOM     54  N   UNL A   1      40.490  32.521  31.488  1.00  0.00    -0.248 NA
ATOM     55  C   UNL A   1      38.792  34.081  31.863  1.00  0.00     0.031 C 
ATOM     56  C   UNL A   1      44.611  32.820  33.061  1.00  0.00     0.029 A 
ATOM     57  C   UNL A   1      43.305  32.743  32.601  1.00  0.00     0.049 A 
ATOM     58  H   UNL A   1      42.389  31.227  31.457  1.00  0.00     0.167 HD
ATOM     59  C   UNL A   1      40.976  33.532  32.303  1.00  0.00     0.074 A 
ATOM     60  C   UNL A   1      39.890  34.473  32.497  1.00  0.00     0.031 C 
ATOM     61  C   UNL A   1      42.229  33.683  32.794  1.00  0.00     0.031 A 
BRANCH  48  62
ATOM     62  C   UNL A   1      45.988  28.936  31.493  1.00  0.00    -0.014 A 
ATOM     63  C   UNL A   1      46.945  29.081  30.474  1.00  0.00     0.009 A 
ATOM     64  C   UNL A   1      46.282  28.130  32.600  1.00  0.00     0.009 A 
ATOM     65  C   UNL A   1      48.151  28.384  30.538  1.00  0.00     0.001 A 
ATOM     66  C   UNL A   1      47.499  27.456  32.673  1.00  0.00     0.001 A 
ATOM     67  C   UNL A   1      48.426  27.571  31.637  1.00  0.00     0.000 A 
ENDBRANCH  48  62
BRANCH  49  68
ATOM     68  C   UNL A   1      36.931  32.709  30.062  1.00  0.00    -0.014 A 
ATOM     69  C   UNL A   1      36.612  33.684  29.108  1.00  0.00     0.009 A 
ATOM     70  C   UNL A   1      35.916  32.230  30.905  1.00  0.00     0.009 A 
ATOM     71  C   UNL A   1      35.306  34.176  29.011  1.00  0.00     0.001 A 
ATOM     72  C   UNL A   1      34.607  32.707  30.792  1.00  0.00     0.001 A 
ATOM     73  C   UNL A   1      34.305  33.686  29.849  1.00  0.00     0.000 A 
ENDBRANCH  49  68
BRANCH  61  74
ATOM     74  C   UNL A   1      42.536  34.951  33.533  1.00  0.00    -0.014 A 
ATOM     75  C   UNL A   1      42.402  35.048  34.925  1.00  0.00     0.009 A 
ATOM     76  C   UNL A   1      43.044  36.050  32.819  1.00  0.00     0.009 A 
ATOM     77  C   UNL A   1      42.761  36.225  35.586  1.00  0.00     0.001 A 
ATOM     78  C   UNL A   1      43.428  37.213  33.483  1.00  0.00     0.001 A 
ATOM     79  C   UNL A   1      43.282  37.301  34.866  1.00  0.00     0.000 A 
ENDBRANCH  61  74
ENDBRANCH  35  36
ENDBRANCH  28  30
ENDBRANCH  27  28
ENDBRANCH   1  27
TORSDOF 14
ENDMDL
MODEL 3
REMARK VINA RESULT:     -10.9      0.887      5.979
REMARK SMILES COc1ccc(-c2nc3ccc(C)cc3[nH]2)c(C(=O)OCCOC(=O)c2ccc(-c3c4nc(c(-c5ccccc5)c5ccc([nH]5)c(-c5ccccc5)c5nc(c(-c6ccccc6)c6ccc3[nH]6)C=C5)C=C4)cc2)c1OC
REMARK SMILES IDX 22 1 21 2 20 3 18 4 19 5 17 6 3 7 4 8 74 9 5 10 6 11 2 12
REMARK SMILES IDX 1 13 75 14 76 15 7 16 8 17 16 18 9 19 15 20 10 22 14 23
REMARK SMILES IDX 11 24 12 25 13 26 23 27 24 28 25 29 26 30 27 31 73 32 28 33
REMARK SMILES IDX 72 34 29 35 30 36 31 37 66 38 32 39 71 40 65 41 67 42 33 43
REMARK SMILES IDX 70 44 64 45 63 46 34 48 56 49 41 50 55 51 42 52 45 53 54 54
REMARK SMILES IDX 68 55 43 56 44 57 53 59 69 60 46 61 35 62 36 63 40 64 37 65
REMARK SMILES IDX 39 66 38 67 57 68 58 69 62 70 59 71 61 72 60 73 47 74 48 75
REMARK SMILES IDX 52 76 49 77 51 78 50 79
REMARK H PARENT 16 21 67 47 45 58
REMARK Flexibility Score: inf
ROOT
ATOM      1  C   UNL A   1      33.238  29.585  25.775  1.00  0.00     0.275 C 
ENDROOT
BRANCH   1   2
ATOM      2  C   UNL A   1      31.881  28.921  25.538  1.00  0.00     0.275 C 
BRANCH   2   3
ATOM      3  O   UNL A   1      32.128  27.548  25.243  1.00  0.00    -0.458 OA
BRANCH   3   4
ATOM      4  C   UNL A   1      31.317  26.660  25.848  1.00  0.00     0.342 C 
ATOM      5  O   UNL A   1      30.631  26.809  26.848  1.00  0.00    -0.246 OA
BRANCH   4   6
ATOM      6  C   UNL A   1      31.317  25.452  25.009  1.00  0.00     0.116 A 
ATOM      7  C   UNL A   1      32.119  23.217  24.654  1.00  0.00     0.161 A 
ATOM      8  C   UNL A   1      31.325  23.142  23.499  1.00  0.00     0.051 A 
ATOM      9  C   UNL A   1      32.148  24.392  25.402  1.00  0.00     0.176 A 
ATOM     10  C   UNL A   1      30.541  24.237  23.082  1.00  0.00     0.017 A 
ATOM     11  C   UNL A   1      30.526  25.420  23.834  1.00  0.00     0.036 A 
BRANCH   7  12
ATOM     12  O   UNL A   1      32.959  22.172  24.929  1.00  0.00    -0.493 OA
ATOM     13  C   UNL A   1      32.311  20.915  24.726  1.00  0.00     0.278 C 
ENDBRANCH   7  12
BRANCH   9  14
ATOM     14  O   UNL A   1      33.083  24.677  26.360  1.00  0.00    -0.492 OA
ATOM     15  C   UNL A   1      34.412  24.889  25.927  1.00  0.00     0.278 C 
ENDBRANCH   9  14
BRANCH  11  16
ATOM     16  C   UNL A   1      29.931  26.679  23.342  1.00  0.00     0.139 A 
ATOM     17  N   UNL A   1      28.684  27.008  23.612  1.00  0.00    -0.228 NA
ATOM     18  N   UNL A   1      30.524  27.704  22.630  1.00  0.00    -0.338 N 
ATOM     19  C   UNL A   1      28.477  28.265  23.148  1.00  0.00     0.089 A 
ATOM     20  C   UNL A   1      29.611  28.738  22.515  1.00  0.00     0.066 A 
ATOM     21  H   UNL A   1      31.439  27.699  22.268  1.00  0.00     0.168 HD
ATOM     22  C   UNL A   1      27.347  29.075  23.297  1.00  0.00     0.031 A 
ATOM     23  C   UNL A   1      29.666  30.035  21.991  1.00  0.00     0.031 A 
ATOM     24  C   UNL A   1      27.435  30.411  22.915  1.00  0.00     0.006 A 
ATOM     25  C   UNL A   1      28.589  30.899  22.291  1.00  0.00    -0.049 A 
ATOM     26  C   UNL A   1      28.702  32.380  22.071  1.00  0.00     0.044 C 
ENDBRANCH  11  16
ENDBRANCH   4   6
ENDBRANCH   3   4
ENDBRANCH   2   3
ENDBRANCH   1   2
BRANCH   1  27
ATOM     27  O   UNL A   1      33.641  29.469  27.159  1.00  0.00    -0.458 OA
BRANCH  27  28
ATOM     28  C   UNL A   1      34.310  30.527  27.692  1.00  0.00     0.338 C 
ATOM     29  O   UNL A   1      33.873  31.647  27.897  1.00  0.00    -0.246 OA
BRANCH  28  30
ATOM     30  C   UNL A   1      35.689  30.117  28.071  1.00  0.00     0.060 A 
ATOM     31  C   UNL A   1      35.941  29.708  29.390  1.00  0.00     0.016 A 
ATOM     32  C   UNL A   1      36.727  30.100  27.138  1.00  0.00     0.016 A 
ATOM     33  C   UNL A   1      37.207  29.231  29.763  1.00  0.00     0.010 A 
ATOM     34  C   UNL A   1      37.992  29.628  27.512  1.00  0.00     0.010 A 
ATOM     35  C   UNL A   1      38.245  29.188  28.826  1.00  0.00    -0.014 A 
BRANCH  35  36
ATOM     36  C   UNL A   1      39.651  28.881  29.207  1.00  0.00     0.031 A 
ATOM     37  C   UNL A   1      40.175  27.511  28.921  1.00  0.00     0.074 A 
ATOM     38  C   UNL A   1      40.462  29.752  29.835  1.00  0.00     0.049 A 
ATOM     39  N   UNL A   1      41.318  26.983  29.270  1.00  0.00    -0.248 NA
ATOM     40  C   UNL A   1      39.326  26.648  28.086  1.00  0.00     0.031 C 
ATOM     41  C   UNL A   1      40.200  31.167  30.011  1.00  0.00     0.029 A 
ATOM     42  N   UNL A   1      41.653  29.558  30.497  1.00  0.00    -0.354 N 
ATOM     43  C   UNL A   1      41.364  25.759  28.627  1.00  0.00     0.074 A 
ATOM     44  C   UNL A   1      40.097  25.581  27.950  1.00  0.00     0.031 C 
ATOM     45  C   UNL A   1      41.093  31.684  30.875  1.00  0.00     0.029 A 
ATOM     46  C   UNL A   1      42.011  30.630  31.284  1.00  0.00     0.049 A 
ATOM     47  H   UNL A   1      42.192  28.738  30.416  1.00  0.00     0.167 HD
ATOM     48  C   UNL A   1      42.393  24.885  28.567  1.00  0.00     0.031 A 
ATOM     49  C   UNL A   1      42.945  30.741  32.250  1.00  0.00     0.031 A 
ATOM     50  C   UNL A   1      43.616  25.021  29.305  1.00  0.00     0.049 A 
ATOM     51  C   UNL A   1      43.925  29.621  32.435  1.00  0.00     0.074 A 
ATOM     52  C   UNL A   1      44.706  24.170  29.335  1.00  0.00     0.029 A 
ATOM     53  N   UNL A   1      43.896  26.062  30.180  1.00  0.00    -0.354 N 
ATOM     54  N   UNL A   1      43.988  28.480  31.796  1.00  0.00    -0.248 NA
ATOM     55  C   UNL A   1      45.006  29.830  33.408  1.00  0.00     0.031 C 
ATOM     56  C   UNL A   1      45.614  24.660  30.280  1.00  0.00     0.029 A 
ATOM     57  C   UNL A   1      45.119  25.850  30.791  1.00  0.00     0.049 A 
ATOM     58  H   UNL A   1      43.310  26.835  30.342  1.00  0.00     0.167 HD
ATOM     59  C   UNL A   1      45.162  27.875  32.216  1.00  0.00     0.074 A 
ATOM     60  C   UNL A   1      45.755  28.753  33.205  1.00  0.00     0.031 C 
ATOM     61  C   UNL A   1      45.715  26.721  31.773  1.00  0.00     0.031 A 
BRANCH  48  62
ATOM     62  C   UNL A   1      42.187  23.697  27.679  1.00  0.00    -0.014 A 
ATOM     63  C   UNL A   1      41.635  22.509  28.189  1.00  0.00     0.009 A 
ATOM     64  C   UNL A   1      42.607  23.740  26.344  1.00  0.00     0.009 A 
ATOM     65  C   UNL A   1      41.557  21.369  27.388  1.00  0.00     0.001 A 
ATOM     66  C   UNL A   1      42.504  22.606  25.539  1.00  0.00     0.001 A 
ATOM     67  C   UNL A   1      41.994  21.419  26.065  1.00  0.00     0.000 A 
ENDBRANCH  48  62
BRANCH  49  68
ATOM     68  C   UNL A   1      43.001  31.947  33.117  1.00  0.00    -0.014 A 
ATOM     69  C   UNL A   1      42.268  32.028  34.308  1.00  0.00     0.009 A 
ATOM     70  C   UNL A   1      43.775  33.052  32.723  1.00  0.00     0.009 A 
ATOM     71  C   UNL A   1      42.299  33.194  35.079  1.00  0.00     0.001 A 
ATOM     72  C   UNL A   1      43.822  34.208  33.506  1.00  0.00     0.001 A 
ATOM     73  C   UNL A   1      43.078  34.281  34.681  1.00  0.00     0.000 A 
ENDBRANCH  49  68
BRANCH  61  74
ATOM     74  C   UNL A   1      47.076  26.360  32.290  1.00  0.00    -0.014 A 
ATOM     75  C   UNL A   1      48.247  26.839  31.687  1.00  0.00     0.009 A 
ATOM     76  C   UNL A   1      47.176  25.582  33.456  1.00  0.00     0.009 A 
ATOM     77  C   UNL A   1      49.495  26.535  32.237  1.00  0.00     0.001 A 
ATOM     78  C   UNL A   1      48.421  25.303  34.019  1.00  0.00     0.001 A 
ATOM     79  C   UNL A   1      49.580  25.777  33.406  1.00  0.00     0.000 A 
ENDBRANCH  61  74
ENDBRANCH  35  36
ENDBRANCH  28  30
ENDBRANCH  27  28
ENDBRANCH   1  27
TORSDOF 14
ENDMDL
