MODEL 1
REMARK VINA RESULT:     -11.2      0.000      0.000
REMARK SMILES Nc1cc(C(=O)OCCOC(=O)c2ccc(-c3c4nc(c(-c5ccccc5)c5ccc([nH]5)c(-c5ccccc5)c5nc(c(-c6ccccc6)c6ccc3[nH]6)C=C5)C=C4)cc2)ccc1N1CC2(CCOCC2)C1
REMARK SMILES IDX 9 1 8 2 7 3 5 4 6 5 4 6 2 7 3 8 63 9 62 10 61 11 1 12 64 15
REMARK SMILES IDX 65 16 72 17 66 18 67 19 71 20 68 21 70 22 69 23 10 24 11 25
REMARK SMILES IDX 12 26 13 27 14 28 60 29 15 30 59 31 16 32 17 33 18 34 53 35
REMARK SMILES IDX 19 36 58 37 52 38 54 39 20 40 57 41 51 42 50 43 21 45 43 46
REMARK SMILES IDX 28 47 42 48 29 49 32 50 41 51 55 52 30 53 31 54 40 56 56 57
REMARK SMILES IDX 33 58 22 59 23 60 27 61 24 62 26 63 25 64 44 65 45 66 49 67
REMARK SMILES IDX 46 68 48 69 47 70 34 71 35 72 39 73 36 74 38 75 37 76
REMARK H PARENT 1 13 1 14 54 44 32 55
REMARK Flexibility Score: inf
ROOT
ATOM      1  C   UNL A   1      34.205  34.718  31.957  1.00  0.00     0.275 C 
ENDROOT
BRANCH   1   2
ATOM      2  C   UNL A   1      33.643  35.380  30.698  1.00  0.00     0.275 C 
BRANCH   2   3
ATOM      3  O   UNL A   1      33.105  34.392  29.794  1.00  0.00    -0.458 OA
BRANCH   3   4
ATOM      4  C   UNL A   1      33.697  34.338  28.576  1.00  0.00     0.338 C 
ATOM      5  O   UNL A   1      34.466  35.161  28.103  1.00  0.00    -0.246 OA
BRANCH   4   6
ATOM      6  C   UNL A   1      33.398  33.052  27.906  1.00  0.00     0.062 A 
ATOM      7  C   UNL A   1      34.227  30.831  27.290  1.00  0.00     0.056 A 
ATOM      8  C   UNL A   1      34.417  32.096  27.855  1.00  0.00     0.043 A 
ATOM      9  C   UNL A   1      33.021  30.579  26.607  1.00  0.00     0.060 A 
ATOM     10  C   UNL A   1      32.011  31.567  26.627  1.00  0.00     0.029 A 
ATOM     11  C   UNL A   1      32.178  32.784  27.300  1.00  0.00     0.018 A 
BRANCH   7  12
ATOM     12  N   UNL A   1      35.327  29.978  27.280  1.00  0.00    -0.397 N 
ATOM     13  H   UNL A   1      36.038  30.082  27.954  1.00  0.00     0.156 HD
ATOM     14  H   UNL A   1      35.394  29.269  26.600  1.00  0.00     0.156 HD
ENDBRANCH   7  12
BRANCH   9  15
ATOM     15  N   UNL A   1      32.757  29.417  25.849  1.00  0.00    -0.369 N 
ATOM     16  C   UNL A   1      32.917  29.116  24.465  1.00  0.00     0.125 C 
ATOM     17  C   UNL A   1      31.595  28.590  26.013  1.00  0.00     0.125 C 
ATOM     18  C   UNL A   1      31.508  28.475  24.477  1.00  0.00     0.010 C 
ATOM     19  C   UNL A   1      31.448  27.049  23.926  1.00  0.00     0.039 C 
ATOM     20  C   UNL A   1      30.360  29.300  23.875  1.00  0.00     0.039 C 
ATOM     21  C   UNL A   1      31.483  27.112  22.402  1.00  0.00     0.161 C 
ATOM     22  C   UNL A   1      30.456  29.249  22.356  1.00  0.00     0.161 C 
ATOM     23  O   UNL A   1      30.393  27.894  21.906  1.00  0.00    -0.381 OA
ENDBRANCH   9  15
ENDBRANCH   4   6
ENDBRANCH   3   4
ENDBRANCH   2   3
ENDBRANCH   1   2
BRANCH   1  24
ATOM     24  O   UNL A   1      34.506  33.336  31.689  1.00  0.00    -0.458 OA
BRANCH  24  25
ATOM     25  C   UNL A   1      35.312  32.721  32.585  1.00  0.00     0.338 C 
ATOM     26  O   UNL A   1      35.217  32.733  33.801  1.00  0.00    -0.246 OA
BRANCH  25  27
ATOM     27  C   UNL A   1      36.378  31.984  31.881  1.00  0.00     0.060 A 
ATOM     28  C   UNL A   1      37.216  31.128  32.589  1.00  0.00     0.016 A 
ATOM     29  C   UNL A   1      36.635  32.245  30.536  1.00  0.00     0.016 A 
ATOM     30  C   UNL A   1      38.376  30.629  31.999  1.00  0.00     0.010 A 
ATOM     31  C   UNL A   1      37.735  31.645  29.911  1.00  0.00     0.010 A 
ATOM     32  C   UNL A   1      38.651  30.868  30.643  1.00  0.00    -0.014 A 
BRANCH  32  33
ATOM     33  C   UNL A   1      39.901  30.348  30.004  1.00  0.00     0.031 A 
ATOM     34  C   UNL A   1      41.137  31.216  29.926  1.00  0.00     0.074 A 
ATOM     35  C   UNL A   1      39.953  29.100  29.494  1.00  0.00     0.049 A 
ATOM     36  N   UNL A   1      42.243  31.022  29.252  1.00  0.00    -0.248 NA
ATOM     37  C   UNL A   1      41.121  32.471  30.695  1.00  0.00     0.031 C 
ATOM     38  C   UNL A   1      38.867  28.118  29.526  1.00  0.00     0.029 A 
ATOM     39  N   UNL A   1      40.974  28.438  28.852  1.00  0.00    -0.354 N 
ATOM     40  C   UNL A   1      43.019  32.159  29.454  1.00  0.00     0.074 A 
ATOM     41  C   UNL A   1      42.260  33.036  30.320  1.00  0.00     0.031 C 
ATOM     42  C   UNL A   1      39.295  26.968  28.982  1.00  0.00     0.029 A 
ATOM     43  C   UNL A   1      40.647  27.158  28.470  1.00  0.00     0.049 A 
ATOM     44  H   UNL A   1      41.854  28.843  28.680  1.00  0.00     0.167 HD
ATOM     45  C   UNL A   1      44.247  32.452  28.962  1.00  0.00     0.031 A 
ATOM     46  C   UNL A   1      41.330  26.247  27.750  1.00  0.00     0.031 A 
ATOM     47  C   UNL A   1      45.036  31.561  28.152  1.00  0.00     0.049 A 
ATOM     48  C   UNL A   1      42.679  26.604  27.196  1.00  0.00     0.074 A 
ATOM     49  C   UNL A   1      46.301  31.767  27.627  1.00  0.00     0.029 A 
ATOM     50  N   UNL A   1      44.646  30.290  27.766  1.00  0.00    -0.354 N 
ATOM     51  N   UNL A   1      43.369  27.707  27.347  1.00  0.00    -0.248 NA
ATOM     52  C   UNL A   1      43.333  25.593  26.352  1.00  0.00     0.031 C 
ATOM     53  C   UNL A   1      46.663  30.632  26.895  1.00  0.00     0.029 A 
ATOM     54  C   UNL A   1      45.641  29.703  27.002  1.00  0.00     0.049 A 
ATOM     55  H   UNL A   1      43.789  29.866  28.000  1.00  0.00     0.167 HD
ATOM     56  C   UNL A   1      44.540  27.520  26.625  1.00  0.00     0.074 A 
ATOM     57  C   UNL A   1      44.480  26.191  26.058  1.00  0.00     0.031 C 
ATOM     58  C   UNL A   1      45.571  28.380  26.443  1.00  0.00     0.031 A 
BRANCH  45  59
ATOM     59  C   UNL A   1      44.810  33.816  29.252  1.00  0.00    -0.014 A 
ATOM     60  C   UNL A   1      45.639  34.053  30.359  1.00  0.00     0.009 A 
ATOM     61  C   UNL A   1      44.547  34.871  28.362  1.00  0.00     0.009 A 
ATOM     62  C   UNL A   1      46.170  35.325  30.583  1.00  0.00     0.001 A 
ATOM     63  C   UNL A   1      45.100  36.134  28.574  1.00  0.00     0.001 A 
ATOM     64  C   UNL A   1      45.905  36.363  29.688  1.00  0.00     0.000 A 
ENDBRANCH  45  59
BRANCH  46  65
ATOM     65  C   UNL A   1      40.722  24.922  27.458  1.00  0.00    -0.014 A 
ATOM     66  C   UNL A   1      39.630  24.816  26.584  1.00  0.00     0.009 A 
ATOM     67  C   UNL A   1      41.227  23.759  28.060  1.00  0.00     0.009 A 
ATOM     68  C   UNL A   1      39.045  23.572  26.331  1.00  0.00     0.001 A 
ATOM     69  C   UNL A   1      40.662  22.513  27.779  1.00  0.00     0.001 A 
ATOM     70  C   UNL A   1      39.567  22.422  26.923  1.00  0.00     0.000 A 
ENDBRANCH  46  65
BRANCH  58  71
ATOM     71  C   UNL A   1      46.731  27.893  25.624  1.00  0.00    -0.014 A 
ATOM     72  C   UNL A   1      47.865  27.334  26.232  1.00  0.00     0.009 A 
ATOM     73  C   UNL A   1      46.676  27.974  24.224  1.00  0.00     0.009 A 
ATOM     74  C   UNL A   1      48.936  26.894  25.454  1.00  0.00     0.001 A 
ATOM     75  C   UNL A   1      47.739  27.511  23.448  1.00  0.00     0.001 A 
ATOM     76  C   UNL A   1      48.871  26.980  24.063  1.00  0.00     0.000 A 
ENDBRANCH  58  71
ENDBRANCH  32  33
ENDBRANCH  25  27
ENDBRANCH  24  25
ENDBRANCH   1  24
TORSDOF 13
ENDMDL
MODEL 2
REMARK VINA RESULT:     -11.1      4.326      6.630
REMARK SMILES Nc1cc(C(=O)OCCOC(=O)c2ccc(-c3c4nc(c(-c5ccccc5)c5ccc([nH]5)c(-c5ccccc5)c5nc(c(-c6ccccc6)c6ccc3[nH]6)C=C5)C=C4)cc2)ccc1N1CC2(CCOCC2)C1
REMARK SMILES IDX 9 1 8 2 7 3 5 4 6 5 4 6 2 7 3 8 63 9 62 10 61 11 1 12 64 15
REMARK SMILES IDX 65 16 72 17 66 18 67 19 71 20 68 21 70 22 69 23 10 24 11 25
REMARK SMILES IDX 12 26 13 27 14 28 60 29 15 30 59 31 16 32 17 33 18 34 53 35
REMARK SMILES IDX 19 36 58 37 52 38 54 39 20 40 57 41 51 42 50 43 21 45 43 46
REMARK SMILES IDX 28 47 42 48 29 49 32 50 41 51 55 52 30 53 31 54 40 56 56 57
REMARK SMILES IDX 33 58 22 59 23 60 27 61 24 62 26 63 25 64 44 65 45 66 49 67
REMARK SMILES IDX 46 68 48 69 47 70 34 71 35 72 39 73 36 74 38 75 37 76
REMARK H PARENT 1 13 1 14 54 44 32 55
REMARK Flexibility Score: inf
ROOT
ATOM      1  C   UNL A   1      33.094  36.876  30.199  1.00  0.00     0.275 C 
ENDROOT
BRANCH   1   2
ATOM      2  C   UNL A   1      32.992  36.085  28.894  1.00  0.00     0.275 C 
BRANCH   2   3
ATOM      3  O   UNL A   1      32.873  34.671  29.159  1.00  0.00    -0.458 OA
BRANCH   3   4
ATOM      4  C   UNL A   1      33.980  33.937  28.895  1.00  0.00     0.338 C 
ATOM      5  O   UNL A   1      35.112  34.156  29.299  1.00  0.00    -0.246 OA
BRANCH   4   6
ATOM      6  C   UNL A   1      33.629  32.715  28.138  1.00  0.00     0.062 A 
ATOM      7  C   UNL A   1      34.395  30.545  27.297  1.00  0.00     0.056 A 
ATOM      8  C   UNL A   1      34.631  31.757  27.953  1.00  0.00     0.043 A 
ATOM      9  C   UNL A   1      33.151  30.362  26.661  1.00  0.00     0.060 A 
ATOM     10  C   UNL A   1      32.157  31.354  26.817  1.00  0.00     0.029 A 
ATOM     11  C   UNL A   1      32.376  32.509  27.578  1.00  0.00     0.018 A 
BRANCH   7  12
ATOM     12  N   UNL A   1      35.481  29.685  27.157  1.00  0.00    -0.397 N 
ATOM     13  H   UNL A   1      35.425  28.916  26.544  1.00  0.00     0.156 HD
ATOM     14  H   UNL A   1      36.305  29.846  27.672  1.00  0.00     0.156 HD
ENDBRANCH   7  12
BRANCH   9  15
ATOM     15  N   UNL A   1      32.832  29.270  25.825  1.00  0.00    -0.369 N 
ATOM     16  C   UNL A   1      32.918  29.082  24.414  1.00  0.00     0.125 C 
ATOM     17  C   UNL A   1      31.666  28.445  25.979  1.00  0.00     0.125 C 
ATOM     18  C   UNL A   1      31.502  28.458  24.445  1.00  0.00     0.010 C 
ATOM     19  C   UNL A   1      31.392  27.083  23.783  1.00  0.00     0.039 C 
ATOM     20  C   UNL A   1      30.338  29.343  23.972  1.00  0.00     0.039 C 
ATOM     21  C   UNL A   1      31.353  27.272  22.269  1.00  0.00     0.161 C 
ATOM     22  C   UNL A   1      30.358  29.416  22.451  1.00  0.00     0.161 C 
ATOM     23  O   UNL A   1      30.252  28.104  21.895  1.00  0.00    -0.381 OA
ENDBRANCH   9  15
ENDBRANCH   4   6
ENDBRANCH   3   4
ENDBRANCH   2   3
ENDBRANCH   1   2
BRANCH   1  24
ATOM     24  O   UNL A   1      32.141  36.373  31.152  1.00  0.00    -0.458 OA
BRANCH  24  25
ATOM     25  C   UNL A   1      32.575  36.275  32.430  1.00  0.00     0.338 C 
ATOM     26  O   UNL A   1      32.108  36.818  33.416  1.00  0.00    -0.246 OA
BRANCH  25  27
ATOM     27  C   UNL A   1      33.743  35.375  32.498  1.00  0.00     0.060 A 
ATOM     28  C   UNL A   1      33.566  34.029  32.797  1.00  0.00     0.016 A 
ATOM     29  C   UNL A   1      35.031  35.897  32.398  1.00  0.00     0.016 A 
ATOM     30  C   UNL A   1      34.661  33.228  33.118  1.00  0.00     0.010 A 
ATOM     31  C   UNL A   1      36.136  35.061  32.601  1.00  0.00     0.010 A 
ATOM     32  C   UNL A   1      35.969  33.726  33.013  1.00  0.00    -0.014 A 
BRANCH  32  33
ATOM     33  C   UNL A   1      37.150  32.878  33.368  1.00  0.00     0.031 A 
ATOM     34  C   UNL A   1      37.828  33.035  34.711  1.00  0.00     0.074 A 
ATOM     35  C   UNL A   1      37.629  31.957  32.506  1.00  0.00     0.049 A 
ATOM     36  N   UNL A   1      38.966  32.538  35.128  1.00  0.00    -0.248 NA
ATOM     37  C   UNL A   1      37.144  33.874  35.710  1.00  0.00     0.031 C 
ATOM     38  C   UNL A   1      37.067  31.645  31.190  1.00  0.00     0.029 A 
ATOM     39  N   UNL A   1      38.699  31.100  32.616  1.00  0.00    -0.354 N 
ATOM     40  C   UNL A   1      39.168  33.060  36.401  1.00  0.00     0.074 A 
ATOM     41  C   UNL A   1      38.033  33.909  36.693  1.00  0.00     0.031 C 
ATOM     42  C   UNL A   1      37.761  30.636  30.641  1.00  0.00     0.029 A 
ATOM     43  C   UNL A   1      38.877  30.295  31.515  1.00  0.00     0.049 A 
ATOM     44  H   UNL A   1      39.284  31.067  33.407  1.00  0.00     0.167 HD
ATOM     45  C   UNL A   1      40.205  32.859  37.250  1.00  0.00     0.031 A 
ATOM     46  C   UNL A   1      39.849  29.414  31.210  1.00  0.00     0.031 A 
ATOM     47  C   UNL A   1      41.308  31.969  36.996  1.00  0.00     0.049 A 
ATOM     48  C   UNL A   1      40.999  29.226  32.156  1.00  0.00     0.074 A 
ATOM     49  C   UNL A   1      42.392  31.687  37.810  1.00  0.00     0.029 A 
ATOM     50  N   UNL A   1      41.458  31.203  35.852  1.00  0.00    -0.354 N 
ATOM     51  N   UNL A   1      41.204  29.775  33.328  1.00  0.00    -0.248 NA
ATOM     52  C   UNL A   1      42.066  28.309  31.724  1.00  0.00     0.031 C 
ATOM     53  C   UNL A   1      43.217  30.775  37.144  1.00  0.00     0.029 A 
ATOM     54  C   UNL A   1      42.621  30.456  35.934  1.00  0.00     0.049 A 
ATOM     55  H   UNL A   1      40.831  31.192  35.093  1.00  0.00     0.167 HD
ATOM     56  C   UNL A   1      42.416  29.266  33.775  1.00  0.00     0.074 A 
ATOM     57  C   UNL A   1      42.888  28.345  32.764  1.00  0.00     0.031 C 
ATOM     58  C   UNL A   1      43.081  29.544  34.922  1.00  0.00     0.031 A 
BRANCH  45  59
ATOM     59  C   UNL A   1      40.224  33.647  38.531  1.00  0.00    -0.014 A 
ATOM     60  C   UNL A   1      39.635  33.159  39.707  1.00  0.00     0.009 A 
ATOM     61  C   UNL A   1      40.898  34.879  38.570  1.00  0.00     0.009 A 
ATOM     62  C   UNL A   1      39.696  33.903  40.888  1.00  0.00     0.001 A 
ATOM     63  C   UNL A   1      40.980  35.608  39.756  1.00  0.00     0.001 A 
ATOM     64  C   UNL A   1      40.373  35.123  40.913  1.00  0.00     0.000 A 
ENDBRANCH  45  59
BRANCH  46  65
ATOM     65  C   UNL A   1      39.809  28.681  29.918  1.00  0.00    -0.014 A 
ATOM     66  C   UNL A   1      39.344  27.358  29.863  1.00  0.00     0.009 A 
ATOM     67  C   UNL A   1      40.244  29.297  28.734  1.00  0.00     0.009 A 
ATOM     68  C   UNL A   1      39.331  26.663  28.650  1.00  0.00     0.001 A 
ATOM     69  C   UNL A   1      40.198  28.612  27.518  1.00  0.00     0.001 A 
ATOM     70  C   UNL A   1      39.750  27.294  27.479  1.00  0.00     0.000 A 
ENDBRANCH  46  65
BRANCH  58  71
ATOM     71  C   UNL A   1      44.373  28.817  35.156  1.00  0.00    -0.014 A 
ATOM     72  C   UNL A   1      45.598  29.364  34.746  1.00  0.00     0.009 A 
ATOM     73  C   UNL A   1      44.365  27.578  35.817  1.00  0.00     0.009 A 
ATOM     74  C   UNL A   1      46.788  28.669  34.966  1.00  0.00     0.001 A 
ATOM     75  C   UNL A   1      45.559  26.898  36.057  1.00  0.00     0.001 A 
ATOM     76  C   UNL A   1      46.768  27.439  35.623  1.00  0.00     0.000 A 
ENDBRANCH  58  71
ENDBRANCH  32  33
ENDBRANCH  25  27
ENDBRANCH  24  25
ENDBRANCH   1  24
TORSDOF 13
ENDMDL
MODEL 3
REMARK VINA RESULT:     -11.0      4.863      9.867
REMARK SMILES Nc1cc(C(=O)OCCOC(=O)c2ccc(-c3c4nc(c(-c5ccccc5)c5ccc([nH]5)c(-c5ccccc5)c5nc(c(-c6ccccc6)c6ccc3[nH]6)C=C5)C=C4)cc2)ccc1N1CC2(CCOCC2)C1
REMARK SMILES IDX 9 1 8 2 7 3 5 4 6 5 4 6 2 7 3 8 63 9 62 10 61 11 1 12 64 15
REMARK SMILES IDX 65 16 72 17 66 18 67 19 71 20 68 21 70 22 69 23 10 24 11 25
REMARK SMILES IDX 12 26 13 27 14 28 60 29 15 30 59 31 16 32 17 33 18 34 53 35
REMARK SMILES IDX 19 36 58 37 52 38 54 39 20 40 57 41 51 42 50 43 21 45 43 46
REMARK SMILES IDX 28 47 42 48 29 49 32 50 41 51 55 52 30 53 31 54 40 56 56 57
REMARK SMILES IDX 33 58 22 59 23 60 27 61 24 62 26 63 25 64 44 65 45 66 49 67
REMARK SMILES IDX 46 68 48 69 47 70 34 71 35 72 39 73 36 74 38 75 37 76
REMARK H PARENT 1 13 1 14 54 44 32 55
REMARK Flexibility Score: inf
ROOT
ATOM      1  C   UNL A   1      43.040  18.577  25.760  1.00  0.00     0.275 C 
ENDROOT
BRANCH   1   2
ATOM      2  C   UNL A   1      42.283  19.438  26.772  1.00  0.00     0.275 C 
BRANCH   2   3
ATOM      3  O   UNL A   1      41.851  20.677  26.170  1.00  0.00    -0.458 OA
BRANCH   3   4
ATOM      4  C   UNL A   1      41.466  21.641  27.041  1.00  0.00     0.338 C 
ATOM      5  O   UNL A   1      42.132  22.106  27.954  1.00  0.00    -0.246 OA
BRANCH   4   6
ATOM      6  C   UNL A   1      40.141  22.185  26.667  1.00  0.00     0.062 A 
ATOM      7  C   UNL A   1      37.992  21.752  25.574  1.00  0.00     0.056 A 
ATOM      8  C   UNL A   1      39.283  21.356  25.937  1.00  0.00     0.043 A 
ATOM      9  C   UNL A   1      37.611  23.087  25.813  1.00  0.00     0.060 A 
ATOM     10  C   UNL A   1      38.500  23.931  26.515  1.00  0.00     0.029 A 
ATOM     11  C   UNL A   1      39.744  23.480  26.972  1.00  0.00     0.018 A 
BRANCH   7  12
ATOM     12  N   UNL A   1      37.245  20.844  24.828  1.00  0.00    -0.397 N 
ATOM     13  H   UNL A   1      36.398  20.489  25.188  1.00  0.00     0.156 HD
ATOM     14  H   UNL A   1      37.562  20.557  23.942  1.00  0.00     0.156 HD
ENDBRANCH   7  12
BRANCH   9  15
ATOM     15  N   UNL A   1      36.409  23.671  25.355  1.00  0.00    -0.369 N 
ATOM     16  C   UNL A   1      35.084  23.681  25.880  1.00  0.00     0.125 C 
ATOM     17  C   UNL A   1      35.989  23.687  23.982  1.00  0.00     0.125 C 
ATOM     18  C   UNL A   1      34.556  23.375  24.458  1.00  0.00     0.010 C 
ATOM     19  C   UNL A   1      33.471  24.331  23.956  1.00  0.00     0.039 C 
ATOM     20  C   UNL A   1      34.127  21.927  24.169  1.00  0.00     0.039 C 
ATOM     21  C   UNL A   1      32.145  23.951  24.608  1.00  0.00     0.161 C 
ATOM     22  C   UNL A   1      32.771  21.673  24.813  1.00  0.00     0.161 C 
ATOM     23  O   UNL A   1      31.806  22.596  24.303  1.00  0.00    -0.381 OA
ENDBRANCH   9  15
ENDBRANCH   4   6
ENDBRANCH   3   4
ENDBRANCH   2   3
ENDBRANCH   1   2
BRANCH   1  24
ATOM     24  O   UNL A   1      43.332  19.349  24.582  1.00  0.00    -0.458 OA
BRANCH  24  25
ATOM     25  C   UNL A   1      44.643  19.555  24.318  1.00  0.00     0.338 C 
ATOM     26  O   UNL A   1      45.449  18.747  23.888  1.00  0.00    -0.246 OA
BRANCH  25  27
ATOM     27  C   UNL A   1      45.004  20.953  24.619  1.00  0.00     0.060 A 
ATOM     28  C   UNL A   1      45.614  21.267  25.829  1.00  0.00     0.016 A 
ATOM     29  C   UNL A   1      44.615  21.975  23.755  1.00  0.00     0.016 A 
ATOM     30  C   UNL A   1      45.726  22.596  26.238  1.00  0.00     0.010 A 
ATOM     31  C   UNL A   1      44.839  23.310  24.115  1.00  0.00     0.010 A 
ATOM     32  C   UNL A   1      45.352  23.644  25.382  1.00  0.00    -0.014 A 
BRANCH  32  33
ATOM     33  C   UNL A   1      45.456  25.072  25.817  1.00  0.00     0.031 A 
ATOM     34  C   UNL A   1      46.773  25.808  25.713  1.00  0.00     0.074 A 
ATOM     35  C   UNL A   1      44.383  25.730  26.302  1.00  0.00     0.049 A 
ATOM     36  N   UNL A   1      47.111  26.973  26.208  1.00  0.00    -0.248 NA
ATOM     37  C   UNL A   1      47.853  25.142  24.969  1.00  0.00     0.031 C 
ATOM     38  C   UNL A   1      43.029  25.184  26.427  1.00  0.00     0.029 A 
ATOM     39  N   UNL A   1      44.260  27.017  26.773  1.00  0.00    -0.354 N 
ATOM     40  C   UNL A   1      48.457  27.143  25.901  1.00  0.00     0.074 A 
ATOM     41  C   UNL A   1      48.873  25.965  25.170  1.00  0.00     0.031 C 
ATOM     42  C   UNL A   1      42.207  26.140  26.888  1.00  0.00     0.029 A 
ATOM     43  C   UNL A   1      42.988  27.334  27.188  1.00  0.00     0.049 A 
ATOM     44  H   UNL A   1      45.013  27.650  26.812  1.00  0.00     0.167 HD
ATOM     45  C   UNL A   1      49.276  28.180  26.202  1.00  0.00     0.031 A 
ATOM     46  C   UNL A   1      42.502  28.439  27.787  1.00  0.00     0.031 A 
ATOM     47  C   UNL A   1      48.858  29.382  26.873  1.00  0.00     0.049 A 
ATOM     48  C   UNL A   1      43.433  29.564  28.131  1.00  0.00     0.074 A 
ATOM     49  C   UNL A   1      49.617  30.495  27.199  1.00  0.00     0.029 A 
ATOM     50  N   UNL A   1      47.567  29.640  27.302  1.00  0.00    -0.354 N 
ATOM     51  N   UNL A   1      44.716  29.680  27.887  1.00  0.00    -0.248 NA
ATOM     52  C   UNL A   1      42.851  30.704  28.855  1.00  0.00     0.031 C 
ATOM     53  C   UNL A   1      48.791  31.412  27.857  1.00  0.00     0.029 A 
ATOM     54  C   UNL A   1      47.509  30.888  27.899  1.00  0.00     0.049 A 
ATOM     55  H   UNL A   1      46.804  29.027  27.197  1.00  0.00     0.167 HD
ATOM     56  C   UNL A   1      45.091  30.906  28.419  1.00  0.00     0.074 A 
ATOM     57  C   UNL A   1      43.899  31.508  28.976  1.00  0.00     0.031 C 
ATOM     58  C   UNL A   1      46.318  31.478  28.449  1.00  0.00     0.031 A 
BRANCH  45  59
ATOM     59  C   UNL A   1      50.731  28.049  25.842  1.00  0.00    -0.014 A 
ATOM     60  C   UNL A   1      51.232  28.509  24.615  1.00  0.00     0.009 A 
ATOM     61  C   UNL A   1      51.624  27.505  26.780  1.00  0.00     0.009 A 
ATOM     62  C   UNL A   1      52.594  28.400  24.325  1.00  0.00     0.001 A 
ATOM     63  C   UNL A   1      52.988  27.421  26.497  1.00  0.00     0.001 A 
ATOM     64  C   UNL A   1      53.471  27.862  25.267  1.00  0.00     0.000 A 
ENDBRANCH  45  59
BRANCH  46  65
ATOM     65  C   UNL A   1      41.063  28.512  28.155  1.00  0.00    -0.014 A 
ATOM     66  C   UNL A   1      40.611  27.982  29.373  1.00  0.00     0.009 A 
ATOM     67  C   UNL A   1      40.134  29.105  27.286  1.00  0.00     0.009 A 
ATOM     68  C   UNL A   1      39.255  28.031  29.705  1.00  0.00     0.001 A 
ATOM     69  C   UNL A   1      38.785  29.183  27.636  1.00  0.00     0.001 A 
ATOM     70  C   UNL A   1      38.345  28.638  28.840  1.00  0.00     0.000 A 
ENDBRANCH  46  65
BRANCH  58  71
ATOM     71  C   UNL A   1      46.424  32.837  29.076  1.00  0.00    -0.014 A 
ATOM     72  C   UNL A   1      46.229  34.002  28.319  1.00  0.00     0.009 A 
ATOM     73  C   UNL A   1      46.699  32.951  30.447  1.00  0.00     0.009 A 
ATOM     74  C   UNL A   1      46.339  35.258  28.919  1.00  0.00     0.001 A 
ATOM     75  C   UNL A   1      46.785  34.207  31.049  1.00  0.00     0.001 A 
ATOM     76  C   UNL A   1      46.614  35.359  30.282  1.00  0.00     0.000 A 
ENDBRANCH  58  71
ENDBRANCH  32  33
ENDBRANCH  25  27
ENDBRANCH  24  25
ENDBRANCH   1  24
TORSDOF 13
ENDMDL
