MODEL 1
REMARK VINA RESULT:     -10.0      0.000      0.000
REMARK SMILES CCCc1ccc(C(=O)C[C@H](C)CC(=O)OCCOC(=O)c2ccc(-c3c4nc(c(-c5ccccc5)c5ccc([nH]5)c(-c5ccccc5)c5nc(c(-c6ccccc6)c6ccc3[nH]6)C=C5)C=C4)cc2)cc1
REMARK SMILES IDX 14 1 15 2 13 3 11 4 12 5 10 6 8 7 9 8 7 9 4 10 5 11 71 12
REMARK SMILES IDX 6 13 70 14 3 15 2 16 1 17 16 18 17 19 18 20 19 21 20 22
REMARK SMILES IDX 21 23 22 24 23 25 69 26 24 27 68 28 25 29 26 30 27 31 62 32
REMARK SMILES IDX 28 33 67 34 61 35 63 36 29 37 66 38 60 39 59 40 30 42 52 43
REMARK SMILES IDX 37 44 51 45 38 46 41 47 50 48 64 49 39 50 40 51 49 53 65 54
REMARK SMILES IDX 42 55 31 56 32 57 36 58 33 59 35 60 34 61 53 62 54 63 58 64
REMARK SMILES IDX 55 65 57 66 56 67 43 68 44 69 48 70 45 71 47 72 46 73
REMARK H PARENT 63 41 41 52
REMARK Flexibility Score: inf
ROOT
ATOM      1  C   UNL A   1      32.856  29.006  26.836  1.00  0.00     0.306 C 
ATOM      2  O   UNL A   1      33.670  28.626  27.668  1.00  0.00    -0.252 OA
ENDROOT
BRANCH   1   3
ATOM      3  C   UNL A   1      33.002  28.739  25.356  1.00  0.00     0.126 C 
BRANCH   3   4
ATOM      4  C   UNL A   1      32.666  27.319  24.860  1.00  0.00     0.005 C 
ATOM      5  C   UNL A   1      33.673  26.263  25.342  1.00  0.00     0.009 C 
BRANCH   4   6
ATOM      6  C   UNL A   1      31.210  26.835  25.139  1.00  0.00     0.085 C 
BRANCH   6   7
ATOM      7  C   UNL A   1      30.257  26.585  23.970  1.00  0.00     0.163 C 
ATOM      8  O   UNL A   1      30.095  25.459  23.505  1.00  0.00    -0.294 OA
BRANCH   7   9
ATOM      9  C   UNL A   1      29.544  27.734  23.358  1.00  0.00     0.018 A 
ATOM     10  C   UNL A   1      28.246  30.169  22.851  1.00  0.00    -0.048 A 
ATOM     11  C   UNL A   1      29.638  30.057  22.705  1.00  0.00     0.004 A 
ATOM     12  C   UNL A   1      27.516  29.019  23.172  1.00  0.00     0.004 A 
ATOM     13  C   UNL A   1      30.288  28.847  22.962  1.00  0.00     0.012 A 
ATOM     14  C   UNL A   1      28.152  27.795  23.373  1.00  0.00     0.012 A 
BRANCH  10  15
ATOM     15  C   UNL A   1      27.595  31.532  22.792  1.00  0.00     0.035 C 
BRANCH  15  16
ATOM     16  C   UNL A   1      28.185  32.542  21.802  1.00  0.00     0.001 C 
ATOM     17  C   UNL A   1      27.939  32.223  20.333  1.00  0.00     0.004 C 
ENDBRANCH  15  16
ENDBRANCH  10  15
ENDBRANCH   7   9
ENDBRANCH   6   7
ENDBRANCH   4   6
ENDBRANCH   3   4
ENDBRANCH   1   3
BRANCH   1  18
ATOM     18  O   UNL A   1      31.768  29.771  27.103  1.00  0.00    -0.462 OA
BRANCH  18  19
ATOM     19  C   UNL A   1      31.787  31.113  26.584  1.00  0.00     0.274 C 
BRANCH  19  20
ATOM     20  C   UNL A   1      32.793  31.991  27.331  1.00  0.00     0.275 C 
BRANCH  20  21
ATOM     21  O   UNL A   1      32.340  33.355  27.417  1.00  0.00    -0.458 OA
BRANCH  21  22
ATOM     22  C   UNL A   1      32.990  34.131  28.310  1.00  0.00     0.338 C 
ATOM     23  O   UNL A   1      32.574  35.147  28.854  1.00  0.00    -0.246 OA
BRANCH  22  24
ATOM     24  C   UNL A   1      34.280  33.521  28.656  1.00  0.00     0.060 A 
ATOM     25  C   UNL A   1      34.371  32.754  29.822  1.00  0.00     0.016 A 
ATOM     26  C   UNL A   1      35.412  33.767  27.880  1.00  0.00     0.016 A 
ATOM     27  C   UNL A   1      35.595  32.237  30.229  1.00  0.00     0.010 A 
ATOM     28  C   UNL A   1      36.641  33.242  28.284  1.00  0.00     0.010 A 
ATOM     29  C   UNL A   1      36.740  32.485  29.466  1.00  0.00    -0.014 A 
BRANCH  29  30
ATOM     30  C   UNL A   1      38.052  31.992  29.934  1.00  0.00     0.031 A 
ATOM     31  C   UNL A   1      38.581  30.685  29.421  1.00  0.00     0.074 A 
ATOM     32  C   UNL A   1      38.770  32.722  30.806  1.00  0.00     0.049 A 
ATOM     33  N   UNL A   1      39.659  30.035  29.773  1.00  0.00    -0.248 NA
ATOM     34  C   UNL A   1      37.788  30.021  28.374  1.00  0.00     0.031 C 
ATOM     35  C   UNL A   1      38.386  34.034  31.330  1.00  0.00     0.029 A 
ATOM     36  N   UNL A   1      39.973  32.457  31.408  1.00  0.00    -0.354 N 
ATOM     37  C   UNL A   1      39.665  28.876  29.010  1.00  0.00     0.074 A 
ATOM     38  C   UNL A   1      38.476  28.904  28.186  1.00  0.00     0.031 C 
ATOM     39  C   UNL A   1      39.338  34.459  32.177  1.00  0.00     0.029 A 
ATOM     40  C   UNL A   1      40.370  33.432  32.289  1.00  0.00     0.049 A 
ATOM     41  H   UNL A   1      40.502  31.647  31.225  1.00  0.00     0.167 HD
ATOM     42  C   UNL A   1      40.581  27.879  29.000  1.00  0.00     0.031 A 
ATOM     43  C   UNL A   1      41.430  33.477  33.115  1.00  0.00     0.031 A 
ATOM     44  C   UNL A   1      41.761  27.854  29.820  1.00  0.00     0.049 A 
ATOM     45  C   UNL A   1      42.393  32.322  33.137  1.00  0.00     0.074 A 
ATOM     46  C   UNL A   1      42.753  26.891  29.879  1.00  0.00     0.029 A 
ATOM     47  N   UNL A   1      42.109  28.842  30.729  1.00  0.00    -0.354 N 
ATOM     48  N   UNL A   1      42.385  31.227  32.417  1.00  0.00    -0.248 NA
ATOM     49  C   UNL A   1      43.510  32.412  34.087  1.00  0.00     0.031 C 
ATOM     50  C   UNL A   1      43.678  27.274  30.856  1.00  0.00     0.029 A 
ATOM     51  C   UNL A   1      43.287  28.501  31.370  1.00  0.00     0.049 A 
ATOM     52  H   UNL A   1      41.594  29.665  30.894  1.00  0.00     0.167 HD
ATOM     53  C   UNL A   1      43.504  30.507  32.811  1.00  0.00     0.074 A 
ATOM     54  C   UNL A   1      44.176  31.297  33.823  1.00  0.00     0.031 C 
ATOM     55  C   UNL A   1      43.938  29.299  32.375  1.00  0.00     0.031 A 
BRANCH  42  56
ATOM     56  C   UNL A   1      40.313  26.708  28.098  1.00  0.00    -0.014 A 
ATOM     57  C   UNL A   1      40.839  26.652  26.798  1.00  0.00     0.009 A 
ATOM     58  C   UNL A   1      39.543  25.633  28.568  1.00  0.00     0.009 A 
ATOM     59  C   UNL A   1      40.573  25.554  25.976  1.00  0.00     0.001 A 
ATOM     60  C   UNL A   1      39.300  24.526  27.752  1.00  0.00     0.001 A 
ATOM     61  C   UNL A   1      39.807  24.492  26.455  1.00  0.00     0.000 A 
ENDBRANCH  42  56
BRANCH  43  62
ATOM     62  C   UNL A   1      41.622  34.641  34.017  1.00  0.00    -0.014 A 
ATOM     63  C   UNL A   1      42.358  35.757  33.596  1.00  0.00     0.009 A 
ATOM     64  C   UNL A   1      41.071  34.637  35.308  1.00  0.00     0.009 A 
ATOM     65  C   UNL A   1      42.560  36.837  34.458  1.00  0.00     0.001 A 
ATOM     66  C   UNL A   1      41.252  35.729  36.159  1.00  0.00     0.001 A 
ATOM     67  C   UNL A   1      42.003  36.824  35.736  1.00  0.00     0.000 A 
ENDBRANCH  43  62
BRANCH  55  68
ATOM     68  C   UNL A   1      45.215  28.777  32.969  1.00  0.00    -0.014 A 
ATOM     69  C   UNL A   1      46.462  29.104  32.415  1.00  0.00     0.009 A 
ATOM     70  C   UNL A   1      45.167  27.974  34.120  1.00  0.00     0.009 A 
ATOM     71  C   UNL A   1      47.637  28.612  32.987  1.00  0.00     0.001 A 
ATOM     72  C   UNL A   1      46.345  27.505  34.702  1.00  0.00     0.001 A 
ATOM     73  C   UNL A   1      47.578  27.817  34.131  1.00  0.00     0.000 A 
ENDBRANCH  55  68
ENDBRANCH  29  30
ENDBRANCH  22  24
ENDBRANCH  21  22
ENDBRANCH  20  21
ENDBRANCH  19  20
ENDBRANCH  18  19
ENDBRANCH   1  18
TORSDOF 17
ENDMDL
MODEL 2
REMARK VINA RESULT:     -10.0      2.407      7.068
REMARK SMILES CCCc1ccc(C(=O)C[C@H](C)CC(=O)OCCOC(=O)c2ccc(-c3c4nc(c(-c5ccccc5)c5ccc([nH]5)c(-c5ccccc5)c5nc(c(-c6ccccc6)c6ccc3[nH]6)C=C5)C=C4)cc2)cc1
REMARK SMILES IDX 14 1 15 2 13 3 11 4 12 5 10 6 8 7 9 8 7 9 4 10 5 11 71 12
REMARK SMILES IDX 6 13 70 14 3 15 2 16 1 17 16 18 17 19 18 20 19 21 20 22
REMARK SMILES IDX 21 23 22 24 23 25 69 26 24 27 68 28 25 29 26 30 27 31 62 32
REMARK SMILES IDX 28 33 67 34 61 35 63 36 29 37 66 38 60 39 59 40 30 42 52 43
REMARK SMILES IDX 37 44 51 45 38 46 41 47 50 48 64 49 39 50 40 51 49 53 65 54
REMARK SMILES IDX 42 55 31 56 32 57 36 58 33 59 35 60 34 61 53 62 54 63 58 64
REMARK SMILES IDX 55 65 57 66 56 67 43 68 44 69 48 70 45 71 47 72 46 73
REMARK H PARENT 63 41 41 52
REMARK Flexibility Score: inf
ROOT
ATOM      1  C   UNL A   1      32.812  27.287  26.255  1.00  0.00     0.306 C 
ATOM      2  O   UNL A   1      34.026  27.219  26.113  1.00  0.00    -0.252 OA
ENDROOT
BRANCH   1   3
ATOM      3  C   UNL A   1      31.949  26.088  26.571  1.00  0.00     0.126 C 
BRANCH   3   4
ATOM      4  C   UNL A   1      32.273  24.774  25.834  1.00  0.00     0.005 C 
ATOM      5  C   UNL A   1      31.482  23.573  26.376  1.00  0.00     0.009 C 
BRANCH   4   6
ATOM      6  C   UNL A   1      32.162  24.829  24.279  1.00  0.00     0.085 C 
BRANCH   6   7
ATOM      7  C   UNL A   1      30.792  24.996  23.622  1.00  0.00     0.163 C 
ATOM      8  O   UNL A   1      30.209  24.047  23.103  1.00  0.00    -0.294 OA
BRANCH   7   9
ATOM      9  C   UNL A   1      30.170  26.344  23.575  1.00  0.00     0.018 A 
ATOM     10  C   UNL A   1      28.753  28.659  22.864  1.00  0.00    -0.048 A 
ATOM     11  C   UNL A   1      28.125  27.628  23.583  1.00  0.00     0.004 A 
ATOM     12  C   UNL A   1      30.119  28.539  22.588  1.00  0.00     0.004 A 
ATOM     13  C   UNL A   1      28.827  26.472  23.933  1.00  0.00     0.012 A 
ATOM     14  C   UNL A   1      30.839  27.414  22.985  1.00  0.00     0.012 A 
BRANCH  10  15
ATOM     15  C   UNL A   1      27.924  29.790  22.301  1.00  0.00     0.035 C 
BRANCH  15  16
ATOM     16  C   UNL A   1      27.589  30.946  23.250  1.00  0.00     0.001 C 
ATOM     17  C   UNL A   1      28.753  31.874  23.570  1.00  0.00     0.004 C 
ENDBRANCH  15  16
ENDBRANCH  10  15
ENDBRANCH   7   9
ENDBRANCH   6   7
ENDBRANCH   4   6
ENDBRANCH   3   4
ENDBRANCH   1   3
BRANCH   1  18
ATOM     18  O   UNL A   1      32.067  28.408  26.076  1.00  0.00    -0.462 OA
BRANCH  18  19
ATOM     19  C   UNL A   1      31.938  29.278  27.215  1.00  0.00     0.274 C 
BRANCH  19  20
ATOM     20  C   UNL A   1      32.754  30.560  27.038  1.00  0.00     0.275 C 
BRANCH  20  21
ATOM     21  O   UNL A   1      34.167  30.301  27.126  1.00  0.00    -0.458 OA
BRANCH  21  22
ATOM     22  C   UNL A   1      34.811  30.913  28.143  1.00  0.00     0.338 C 
ATOM     23  O   UNL A   1      34.385  31.811  28.859  1.00  0.00    -0.246 OA
BRANCH  22  24
ATOM     24  C   UNL A   1      36.109  30.267  28.373  1.00  0.00     0.060 A 
ATOM     25  C   UNL A   1      36.366  29.701  29.626  1.00  0.00     0.016 A 
ATOM     26  C   UNL A   1      37.096  30.287  27.388  1.00  0.00     0.016 A 
ATOM     27  C   UNL A   1      37.616  29.162  29.909  1.00  0.00     0.010 A 
ATOM     28  C   UNL A   1      38.349  29.738  27.669  1.00  0.00     0.010 A 
ATOM     29  C   UNL A   1      38.618  29.185  28.934  1.00  0.00    -0.014 A 
BRANCH  29  30
ATOM     30  C   UNL A   1      39.965  28.671  29.258  1.00  0.00     0.031 A 
ATOM     31  C   UNL A   1      40.923  29.530  30.030  1.00  0.00     0.074 A 
ATOM     32  C   UNL A   1      40.321  27.433  28.871  1.00  0.00     0.049 A 
ATOM     33  N   UNL A   1      42.174  29.304  30.334  1.00  0.00    -0.248 NA
ATOM     34  C   UNL A   1      40.403  30.816  30.522  1.00  0.00     0.031 C 
ATOM     35  C   UNL A   1      39.455  26.484  28.168  1.00  0.00     0.029 A 
ATOM     36  N   UNL A   1      41.509  26.764  29.015  1.00  0.00    -0.354 N 
ATOM     37  C   UNL A   1      42.599  30.426  31.032  1.00  0.00     0.074 A 
ATOM     38  C   UNL A   1      41.477  31.338  31.095  1.00  0.00     0.031 C 
ATOM     39  C   UNL A   1      40.145  25.354  27.941  1.00  0.00     0.029 A 
ATOM     40  C   UNL A   1      41.507  25.518  28.439  1.00  0.00     0.049 A 
ATOM     41  H   UNL A   1      42.287  27.140  29.486  1.00  0.00     0.167 HD
ATOM     42  C   UNL A   1      43.816  30.671  31.572  1.00  0.00     0.031 A 
ATOM     43  C   UNL A   1      42.502  24.622  28.303  1.00  0.00     0.031 A 
ATOM     44  C   UNL A   1      44.929  29.763  31.507  1.00  0.00     0.049 A 
ATOM     45  C   UNL A   1      43.864  24.951  28.847  1.00  0.00     0.074 A 
ATOM     46  C   UNL A   1      46.202  29.917  32.028  1.00  0.00     0.029 A 
ATOM     47  N   UNL A   1      44.900  28.526  30.882  1.00  0.00    -0.354 N 
ATOM     48  N   UNL A   1      44.258  26.018  29.498  1.00  0.00    -0.248 NA
ATOM     49  C   UNL A   1      44.919  23.950  28.634  1.00  0.00     0.031 C 
ATOM     50  C   UNL A   1      46.957  28.794  31.677  1.00  0.00     0.029 A 
ATOM     51  C   UNL A   1      46.139  27.917  30.982  1.00  0.00     0.049 A 
ATOM     52  H   UNL A   1      44.114  28.138  30.432  1.00  0.00     0.167 HD
ATOM     53  C   UNL A   1      45.599  25.809  29.792  1.00  0.00     0.074 A 
ATOM     54  C   UNL A   1      45.946  24.507  29.260  1.00  0.00     0.031 C 
ATOM     55  C   UNL A   1      46.465  26.622  30.444  1.00  0.00     0.031 A 
BRANCH  42  56
ATOM     56  C   UNL A   1      44.017  32.000  32.242  1.00  0.00    -0.014 A 
ATOM     57  C   UNL A   1      44.332  33.151  31.504  1.00  0.00     0.009 A 
ATOM     58  C   UNL A   1      43.864  32.104  33.633  1.00  0.00     0.009 A 
ATOM     59  C   UNL A   1      44.517  34.375  32.150  1.00  0.00     0.001 A 
ATOM     60  C   UNL A   1      44.026  33.334  34.274  1.00  0.00     0.001 A 
ATOM     61  C   UNL A   1      44.361  34.466  33.533  1.00  0.00     0.000 A 
ENDBRANCH  42  56
BRANCH  43  62
ATOM     62  C   UNL A   1      42.258  23.342  27.593  1.00  0.00    -0.014 A 
ATOM     63  C   UNL A   1      41.712  22.242  28.270  1.00  0.00     0.009 A 
ATOM     64  C   UNL A   1      42.576  23.213  26.232  1.00  0.00     0.009 A 
ATOM     65  C   UNL A   1      41.511  21.031  27.604  1.00  0.00     0.001 A 
ATOM     66  C   UNL A   1      42.349  22.009  25.561  1.00  0.00     0.001 A 
ATOM     67  C   UNL A   1      41.825  20.917  26.250  1.00  0.00     0.000 A 
ENDBRANCH  43  62
BRANCH  55  68
ATOM     68  C   UNL A   1      47.863  26.110  30.644  1.00  0.00    -0.014 A 
ATOM     69  C   UNL A   1      48.315  25.705  31.909  1.00  0.00     0.009 A 
ATOM     70  C   UNL A   1      48.726  26.000  29.542  1.00  0.00     0.009 A 
ATOM     71  C   UNL A   1      49.617  25.227  32.072  1.00  0.00     0.001 A 
ATOM     72  C   UNL A   1      50.018  25.499  29.704  1.00  0.00     0.001 A 
ATOM     73  C   UNL A   1      50.465  25.121  30.970  1.00  0.00     0.000 A 
ENDBRANCH  55  68
ENDBRANCH  29  30
ENDBRANCH  22  24
ENDBRANCH  21  22
ENDBRANCH  20  21
ENDBRANCH  19  20
ENDBRANCH  18  19
ENDBRANCH   1  18
TORSDOF 17
ENDMDL
MODEL 3
REMARK VINA RESULT:      -9.9      2.894      8.067
REMARK SMILES CCCc1ccc(C(=O)C[C@H](C)CC(=O)OCCOC(=O)c2ccc(-c3c4nc(c(-c5ccccc5)c5ccc([nH]5)c(-c5ccccc5)c5nc(c(-c6ccccc6)c6ccc3[nH]6)C=C5)C=C4)cc2)cc1
REMARK SMILES IDX 14 1 15 2 13 3 11 4 12 5 10 6 8 7 9 8 7 9 4 10 5 11 71 12
REMARK SMILES IDX 6 13 70 14 3 15 2 16 1 17 16 18 17 19 18 20 19 21 20 22
REMARK SMILES IDX 21 23 22 24 23 25 69 26 24 27 68 28 25 29 26 30 27 31 62 32
REMARK SMILES IDX 28 33 67 34 61 35 63 36 29 37 66 38 60 39 59 40 30 42 52 43
REMARK SMILES IDX 37 44 51 45 38 46 41 47 50 48 64 49 39 50 40 51 49 53 65 54
REMARK SMILES IDX 42 55 31 56 32 57 36 58 33 59 35 60 34 61 53 62 54 63 58 64
REMARK SMILES IDX 55 65 57 66 56 67 43 68 44 69 48 70 45 71 47 72 46 73
REMARK H PARENT 63 41 41 52
REMARK Flexibility Score: inf
ROOT
ATOM      1  C   UNL A   1      32.250  28.584  24.275  1.00  0.00     0.306 C 
ATOM      2  O   UNL A   1      33.105  28.903  23.459  1.00  0.00    -0.252 OA
ENDROOT
BRANCH   1   3
ATOM      3  C   UNL A   1      31.832  27.152  24.515  1.00  0.00     0.126 C 
BRANCH   3   4
ATOM      4  C   UNL A   1      30.858  26.523  23.500  1.00  0.00     0.005 C 
ATOM      5  C   UNL A   1      29.848  27.534  22.935  1.00  0.00     0.009 C 
BRANCH   4   6
ATOM      6  C   UNL A   1      31.521  25.724  22.336  1.00  0.00     0.085 C 
BRANCH   6   7
ATOM      7  C   UNL A   1      33.007  25.374  22.407  1.00  0.00     0.163 C 
ATOM      8  O   UNL A   1      33.831  25.923  21.678  1.00  0.00    -0.294 OA
BRANCH   7   9
ATOM      9  C   UNL A   1      33.460  24.319  23.348  1.00  0.00     0.018 A 
ATOM     10  C   UNL A   1      34.813  22.226  24.636  1.00  0.00    -0.048 A 
ATOM     11  C   UNL A   1      35.186  23.562  24.858  1.00  0.00     0.004 A 
ATOM     12  C   UNL A   1      33.700  21.972  23.827  1.00  0.00     0.004 A 
ATOM     13  C   UNL A   1      34.518  24.605  24.213  1.00  0.00     0.012 A 
ATOM     14  C   UNL A   1      32.993  23.012  23.227  1.00  0.00     0.012 A 
BRANCH  10  15
ATOM     15  C   UNL A   1      35.687  21.109  25.159  1.00  0.00     0.035 C 
BRANCH  15  16
ATOM     16  C   UNL A   1      37.181  21.177  24.819  1.00  0.00     0.001 C 
ATOM     17  C   UNL A   1      37.909  19.840  24.849  1.00  0.00     0.004 C 
ENDBRANCH  15  16
ENDBRANCH  10  15
ENDBRANCH   7   9
ENDBRANCH   6   7
ENDBRANCH   4   6
ENDBRANCH   3   4
ENDBRANCH   1   3
BRANCH   1  18
ATOM     18  O   UNL A   1      31.513  29.453  25.012  1.00  0.00    -0.462 OA
BRANCH  18  19
ATOM     19  C   UNL A   1      32.241  30.310  25.909  1.00  0.00     0.274 C 
BRANCH  19  20
ATOM     20  C   UNL A   1      32.549  29.606  27.233  1.00  0.00     0.275 C 
BRANCH  20  21
ATOM     21  O   UNL A   1      33.968  29.465  27.436  1.00  0.00    -0.458 OA
BRANCH  21  22
ATOM     22  C   UNL A   1      34.581  30.515  28.024  1.00  0.00     0.338 C 
ATOM     23  O   UNL A   1      34.081  31.589  28.335  1.00  0.00    -0.246 OA
BRANCH  22  24
ATOM     24  C   UNL A   1      35.963  30.158  28.367  1.00  0.00     0.060 A 
ATOM     25  C   UNL A   1      36.940  30.210  27.368  1.00  0.00     0.016 A 
ATOM     26  C   UNL A   1      36.280  29.698  29.645  1.00  0.00     0.016 A 
ATOM     27  C   UNL A   1      38.238  29.793  27.633  1.00  0.00     0.010 A 
ATOM     28  C   UNL A   1      37.587  29.285  29.914  1.00  0.00     0.010 A 
ATOM     29  C   UNL A   1      38.568  29.319  28.906  1.00  0.00    -0.014 A 
BRANCH  29  30
ATOM     30  C   UNL A   1      39.932  28.813  29.168  1.00  0.00     0.031 A 
ATOM     31  C   UNL A   1      40.937  29.700  29.842  1.00  0.00     0.074 A 
ATOM     32  C   UNL A   1      40.260  27.558  28.814  1.00  0.00     0.049 A 
ATOM     33  N   UNL A   1      42.204  29.481  30.077  1.00  0.00    -0.248 NA
ATOM     34  C   UNL A   1      40.451  31.008  30.308  1.00  0.00     0.031 C 
ATOM     35  C   UNL A   1      39.350  26.583  28.208  1.00  0.00     0.029 A 
ATOM     36  N   UNL A   1      41.453  26.889  28.913  1.00  0.00    -0.354 N 
ATOM     37  C   UNL A   1      42.674  30.630  30.699  1.00  0.00     0.074 A 
ATOM     38  C   UNL A   1      41.560  31.549  30.791  1.00  0.00     0.031 C 
ATOM     39  C   UNL A   1      40.022  25.441  27.987  1.00  0.00     0.029 A 
ATOM     40  C   UNL A   1      41.413  25.620  28.392  1.00  0.00     0.049 A 
ATOM     41  H   UNL A   1      42.259  27.282  29.318  1.00  0.00     0.167 HD
ATOM     42  C   UNL A   1      43.923  30.892  31.151  1.00  0.00     0.031 A 
ATOM     43  C   UNL A   1      42.395  24.714  28.235  1.00  0.00     0.031 A 
ATOM     44  C   UNL A   1      45.027  29.976  31.057  1.00  0.00     0.049 A 
ATOM     45  C   UNL A   1      43.789  25.060  28.678  1.00  0.00     0.074 A 
ATOM     46  C   UNL A   1      46.330  30.147  31.491  1.00  0.00     0.029 A 
ATOM     47  N   UNL A   1      44.957  28.713  30.489  1.00  0.00    -0.354 N 
ATOM     48  N   UNL A   1      44.225  26.152  29.257  1.00  0.00    -0.248 NA
ATOM     49  C   UNL A   1      44.826  24.045  28.444  1.00  0.00     0.031 C 
ATOM     50  C   UNL A   1      47.060  29.005  31.143  1.00  0.00     0.029 A 
ATOM     51  C   UNL A   1      46.198  28.104  30.538  1.00  0.00     0.049 A 
ATOM     52  H   UNL A   1      44.144  28.310  30.106  1.00  0.00     0.167 HD
ATOM     53  C   UNL A   1      45.581  25.949  29.477  1.00  0.00     0.074 A 
ATOM     54  C   UNL A   1      45.892  24.623  28.981  1.00  0.00     0.031 C 
ATOM     55  C   UNL A   1      46.488  26.785  30.038  1.00  0.00     0.031 A 
BRANCH  42  56
ATOM     56  C   UNL A   1      44.168  32.248  31.749  1.00  0.00    -0.014 A 
ATOM     57  C   UNL A   1      44.629  33.319  30.969  1.00  0.00     0.009 A 
ATOM     58  C   UNL A   1      43.908  32.460  33.111  1.00  0.00     0.009 A 
ATOM     59  C   UNL A   1      44.852  34.569  31.549  1.00  0.00     0.001 A 
ATOM     60  C   UNL A   1      44.110  33.718  33.684  1.00  0.00     0.001 A 
ATOM     61  C   UNL A   1      44.590  34.768  32.904  1.00  0.00     0.000 A 
ENDBRANCH  42  56
BRANCH  43  62
ATOM     62  C   UNL A   1      42.104  23.406  27.597  1.00  0.00    -0.014 A 
ATOM     63  C   UNL A   1      41.564  22.351  28.345  1.00  0.00     0.009 A 
ATOM     64  C   UNL A   1      42.372  23.205  26.233  1.00  0.00     0.009 A 
ATOM     65  C   UNL A   1      41.320  21.112  27.747  1.00  0.00     0.001 A 
ATOM     66  C   UNL A   1      42.102  21.975  25.631  1.00  0.00     0.001 A 
ATOM     67  C   UNL A   1      41.584  20.927  26.391  1.00  0.00     0.000 A 
ENDBRANCH  43  62
BRANCH  55  68
ATOM     68  C   UNL A   1      47.894  26.275  30.173  1.00  0.00    -0.014 A 
ATOM     69  C   UNL A   1      48.351  25.712  31.375  1.00  0.00     0.009 A 
ATOM     70  C   UNL A   1      48.761  26.330  29.070  1.00  0.00     0.009 A 
ATOM     71  C   UNL A   1      49.661  25.239  31.477  1.00  0.00     0.001 A 
ATOM     72  C   UNL A   1      50.061  25.834  29.169  1.00  0.00     0.001 A 
ATOM     73  C   UNL A   1      50.513  25.297  30.374  1.00  0.00     0.000 A 
ENDBRANCH  55  68
ENDBRANCH  29  30
ENDBRANCH  22  24
ENDBRANCH  21  22
ENDBRANCH  20  21
ENDBRANCH  19  20
ENDBRANCH  18  19
ENDBRANCH   1  18
TORSDOF 17
ENDMDL
