MODEL 1
REMARK VINA RESULT:     -11.2      0.000      0.000
REMARK SMILES Cc1ccc([C@@H](CC(=O)OCCOC(=O)c2ccc(-c3c4nc(c(-c5ccccc5)c5ccc([nH]5)c(-c5ccccc5)c5nc(c(-c6ccccc6)c6ccc3[nH]6)C=C5)C=C4)cc2)NC(=O)c2ccc(OC(F)F)cc2)cc1
REMARK SMILES IDX 10 1 8 2 9 3 7 4 6 5 5 6 1 7 2 8 3 9 78 10 4 11 77 12 64 13
REMARK SMILES IDX 65 14 66 16 67 17 68 18 76 19 69 20 75 21 70 22 71 23 72 24
REMARK SMILES IDX 73 25 74 26 11 27 12 28 13 29 14 30 15 31 16 32 17 33 63 34
REMARK SMILES IDX 18 35 62 36 19 37 20 38 21 39 56 40 22 41 61 42 55 43 57 44
REMARK SMILES IDX 23 45 60 46 54 47 53 48 24 50 46 51 31 52 45 53 32 54 35 55
REMARK SMILES IDX 44 56 58 57 33 58 34 59 43 61 59 62 36 63 25 64 26 65 30 66
REMARK SMILES IDX 27 67 29 68 28 69 47 70 48 71 52 72 49 73 51 74 50 75 37 76
REMARK SMILES IDX 38 77 42 78 39 79 41 80 40 81
REMARK H PARENT 64 15 57 49 35 60
REMARK Flexibility Score: inf
ROOT
ATOM      1  O   UNL A   1      31.486  28.651  25.935  1.00  0.00    -0.462 OA
ENDROOT
BRANCH   1   2
ATOM      2  C   UNL A   1      31.415  27.721  26.917  1.00  0.00     0.308 C 
ATOM      3  O   UNL A   1      31.202  27.974  28.098  1.00  0.00    -0.252 OA
BRANCH   2   4
ATOM      4  C   UNL A   1      31.655  26.338  26.353  1.00  0.00     0.152 C 
BRANCH   4   5
ATOM      5  C   UNL A   1      31.055  26.180  24.935  1.00  0.00     0.123 C 
BRANCH   5   6
ATOM      6  C   UNL A   1      30.810  24.667  24.753  1.00  0.00    -0.025 A 
ATOM      7  C   UNL A   1      32.629  20.888  23.908  1.00  0.00     0.044 C 
ATOM      8  C   UNL A   1      31.779  22.082  24.233  1.00  0.00    -0.051 A 
ATOM      9  C   UNL A   1      31.185  22.826  23.212  1.00  0.00     0.004 A 
ATOM     10  C   UNL A   1      31.712  22.558  25.545  1.00  0.00     0.004 A 
ATOM     11  C   UNL A   1      30.655  24.092  23.477  1.00  0.00     0.006 A 
ATOM     12  C   UNL A   1      31.215  23.834  25.809  1.00  0.00     0.006 A 
ENDBRANCH   5   6
BRANCH   5  13
ATOM     13  N   UNL A   1      31.898  26.775  23.899  1.00  0.00    -0.345 N 
ATOM     14  C   UNL A   1      33.227  26.613  23.606  1.00  0.00     0.251 C 
ATOM     15  H   UNL A   1      31.428  27.405  23.307  1.00  0.00     0.164 HD
ATOM     16  O   UNL A   1      33.800  27.487  22.959  1.00  0.00    -0.269 OA
BRANCH  14  17
ATOM     17  C   UNL A   1      33.996  25.416  24.022  1.00  0.00     0.040 A 
ATOM     18  C   UNL A   1      34.549  25.390  25.306  1.00  0.00     0.017 A 
ATOM     19  C   UNL A   1      34.342  24.409  23.120  1.00  0.00     0.017 A 
ATOM     20  C   UNL A   1      35.401  24.347  25.686  1.00  0.00     0.047 A 
ATOM     21  C   UNL A   1      35.190  23.360  23.503  1.00  0.00     0.047 A 
ATOM     22  C   UNL A   1      35.727  23.325  24.789  1.00  0.00     0.126 A 
BRANCH  22  23
ATOM     23  O   UNL A   1      36.587  22.385  25.281  1.00  0.00    -0.435 OA
BRANCH  23  24
ATOM     24  C   UNL A   1      36.063  21.122  25.668  1.00  0.00     0.542 C 
ATOM     25  F   UNL A   1      34.928  21.295  26.389  1.00  0.00    -0.167 F 
ATOM     26  F   UNL A   1      35.760  20.385  24.572  1.00  0.00    -0.167 F 
ENDBRANCH  23  24
ENDBRANCH  22  23
ENDBRANCH  14  17
ENDBRANCH   5  13
ENDBRANCH   4   5
ENDBRANCH   2   4
ENDBRANCH   1   2
BRANCH   1  27
ATOM     27  C   UNL A   1      32.178  29.856  26.249  1.00  0.00     0.274 C 
BRANCH  27  28
ATOM     28  C   UNL A   1      33.682  29.566  26.312  1.00  0.00     0.275 C 
BRANCH  28  29
ATOM     29  O   UNL A   1      34.401  29.843  27.568  1.00  0.00    -0.458 OA
BRANCH  29  30
ATOM     30  C   UNL A   1      35.416  30.704  27.866  1.00  0.00     0.338 C 
ATOM     31  O   UNL A   1      35.272  31.919  27.866  1.00  0.00    -0.246 OA
BRANCH  30  32
ATOM     32  C   UNL A   1      36.710  30.130  28.253  1.00  0.00     0.060 A 
ATOM     33  C   UNL A   1      36.861  29.413  29.456  1.00  0.00     0.016 A 
ATOM     34  C   UNL A   1      37.722  30.171  27.320  1.00  0.00     0.016 A 
ATOM     35  C   UNL A   1      37.998  28.627  29.654  1.00  0.00     0.010 A 
ATOM     36  C   UNL A   1      38.684  29.206  27.395  1.00  0.00     0.010 A 
ATOM     37  C   UNL A   1      38.889  28.505  28.593  1.00  0.00    -0.014 A 
BRANCH  37  38
ATOM     38  C   UNL A   1      40.227  27.938  28.669  1.00  0.00     0.031 A 
ATOM     39  C   UNL A   1      40.564  26.580  28.227  1.00  0.00     0.074 A 
ATOM     40  C   UNL A   1      41.139  28.863  29.059  1.00  0.00     0.049 A 
ATOM     41  N   UNL A   1      41.577  25.925  28.671  1.00  0.00    -0.248 NA
ATOM     42  C   UNL A   1      39.799  25.816  27.247  1.00  0.00     0.031 C 
ATOM     43  C   UNL A   1      42.585  28.896  29.032  1.00  0.00     0.029 A 
ATOM     44  N   UNL A   1      40.806  30.050  29.729  1.00  0.00    -0.354 N 
ATOM     45  C   UNL A   1      41.812  24.901  27.776  1.00  0.00     0.074 A 
ATOM     46  C   UNL A   1      40.607  24.778  27.001  1.00  0.00     0.031 C 
ATOM     47  C   UNL A   1      43.001  29.835  29.913  1.00  0.00     0.029 A 
ATOM     48  C   UNL A   1      41.822  30.327  30.625  1.00  0.00     0.049 A 
ATOM     49  H   UNL A   1      39.995  30.588  29.586  1.00  0.00     0.167 HD
ATOM     50  C   UNL A   1      43.082  24.429  27.644  1.00  0.00     0.031 A 
ATOM     51  C   UNL A   1      41.514  30.150  31.944  1.00  0.00     0.031 A 
ATOM     52  C   UNL A   1      43.978  25.132  28.562  1.00  0.00     0.049 A 
ATOM     53  C   UNL A   1      42.299  28.992  32.503  1.00  0.00     0.074 A 
ATOM     54  C   UNL A   1      44.864  26.181  28.378  1.00  0.00     0.029 A 
ATOM     55  N   UNL A   1      43.725  25.068  29.927  1.00  0.00    -0.354 N 
ATOM     56  N   UNL A   1      42.737  27.981  31.802  1.00  0.00    -0.248 NA
ATOM     57  C   UNL A   1      42.709  28.932  33.895  1.00  0.00     0.031 C 
ATOM     58  C   UNL A   1      45.104  26.777  29.648  1.00  0.00     0.029 A 
ATOM     59  C   UNL A   1      44.373  26.086  30.599  1.00  0.00     0.049 A 
ATOM     60  H   UNL A   1      43.159  24.388  30.357  1.00  0.00     0.167 HD
ATOM     61  C   UNL A   1      43.571  27.214  32.573  1.00  0.00     0.074 A 
ATOM     62  C   UNL A   1      43.483  27.833  33.887  1.00  0.00     0.031 C 
ATOM     63  C   UNL A   1      44.284  26.164  32.055  1.00  0.00     0.031 A 
BRANCH  50  64
ATOM     64  C   UNL A   1      43.558  23.596  26.479  1.00  0.00    -0.014 A 
ATOM     65  C   UNL A   1      43.451  22.194  26.547  1.00  0.00     0.009 A 
ATOM     66  C   UNL A   1      44.124  24.117  25.302  1.00  0.00     0.009 A 
ATOM     67  C   UNL A   1      43.932  21.354  25.535  1.00  0.00     0.001 A 
ATOM     68  C   UNL A   1      44.624  23.279  24.290  1.00  0.00     0.001 A 
ATOM     69  C   UNL A   1      44.533  21.897  24.409  1.00  0.00     0.000 A 
ENDBRANCH  50  64
BRANCH  51  70
ATOM     70  C   UNL A   1      40.084  30.500  32.293  1.00  0.00    -0.014 A 
ATOM     71  C   UNL A   1      39.234  29.474  32.778  1.00  0.00     0.009 A 
ATOM     72  C   UNL A   1      39.647  31.823  32.455  1.00  0.00     0.009 A 
ATOM     73  C   UNL A   1      38.063  29.761  33.495  1.00  0.00     0.001 A 
ATOM     74  C   UNL A   1      38.453  32.107  33.145  1.00  0.00     0.001 A 
ATOM     75  C   UNL A   1      37.680  31.082  33.691  1.00  0.00     0.000 A 
ENDBRANCH  51  70
BRANCH  63  76
ATOM     76  C   UNL A   1      45.031  25.094  32.830  1.00  0.00    -0.014 A 
ATOM     77  C   UNL A   1      46.273  25.258  33.444  1.00  0.00     0.009 A 
ATOM     78  C   UNL A   1      44.406  23.839  33.037  1.00  0.00     0.009 A 
ATOM     79  C   UNL A   1      46.853  24.242  34.216  1.00  0.00     0.001 A 
ATOM     80  C   UNL A   1      44.950  22.841  33.843  1.00  0.00     0.001 A 
ATOM     81  C   UNL A   1      46.184  23.043  34.431  1.00  0.00     0.000 A 
ENDBRANCH  63  76
ENDBRANCH  37  38
ENDBRANCH  30  32
ENDBRANCH  29  30
ENDBRANCH  28  29
ENDBRANCH  27  28
ENDBRANCH   1  27
TORSDOF 17
ENDMDL
MODEL 2
REMARK VINA RESULT:     -11.2      2.645      4.512
REMARK SMILES Cc1ccc([C@@H](CC(=O)OCCOC(=O)c2ccc(-c3c4nc(c(-c5ccccc5)c5ccc([nH]5)c(-c5ccccc5)c5nc(c(-c6ccccc6)c6ccc3[nH]6)C=C5)C=C4)cc2)NC(=O)c2ccc(OC(F)F)cc2)cc1
REMARK SMILES IDX 10 1 8 2 9 3 7 4 6 5 5 6 1 7 2 8 3 9 78 10 4 11 77 12 64 13
REMARK SMILES IDX 65 14 66 16 67 17 68 18 76 19 69 20 75 21 70 22 71 23 72 24
REMARK SMILES IDX 73 25 74 26 11 27 12 28 13 29 14 30 15 31 16 32 17 33 63 34
REMARK SMILES IDX 18 35 62 36 19 37 20 38 21 39 56 40 22 41 61 42 55 43 57 44
REMARK SMILES IDX 23 45 60 46 54 47 53 48 24 50 46 51 31 52 45 53 32 54 35 55
REMARK SMILES IDX 44 56 58 57 33 58 34 59 43 61 59 62 36 63 25 64 26 65 30 66
REMARK SMILES IDX 27 67 29 68 28 69 47 70 48 71 52 72 49 73 51 74 50 75 37 76
REMARK SMILES IDX 38 77 42 78 39 79 41 80 40 81
REMARK H PARENT 64 15 57 49 35 60
REMARK Flexibility Score: inf
ROOT
ATOM      1  O   UNL A   1      31.405  30.774  25.734  1.00  0.00    -0.462 OA
ENDROOT
BRANCH   1   2
ATOM      2  C   UNL A   1      30.648  30.360  24.690  1.00  0.00     0.308 C 
ATOM      3  O   UNL A   1      29.756  31.023  24.173  1.00  0.00    -0.252 OA
BRANCH   2   4
ATOM      4  C   UNL A   1      31.046  28.961  24.271  1.00  0.00     0.152 C 
BRANCH   4   5
ATOM      5  C   UNL A   1      32.382  28.951  23.488  1.00  0.00     0.123 C 
BRANCH   5   6
ATOM      6  C   UNL A   1      32.378  27.638  22.676  1.00  0.00    -0.025 A 
ATOM      7  C   UNL A   1      32.715  23.378  22.879  1.00  0.00     0.044 C 
ATOM      8  C   UNL A   1      32.555  24.836  22.563  1.00  0.00    -0.051 A 
ATOM      9  C   UNL A   1      33.671  25.622  22.266  1.00  0.00     0.004 A 
ATOM     10  C   UNL A   1      31.314  25.457  22.727  1.00  0.00     0.004 A 
ATOM     11  C   UNL A   1      33.575  27.017  22.272  1.00  0.00     0.006 A 
ATOM     12  C   UNL A   1      31.220  26.848  22.765  1.00  0.00     0.006 A 
ENDBRANCH   5   6
BRANCH   5  13
ATOM     13  N   UNL A   1      33.545  29.108  24.360  1.00  0.00    -0.345 N 
ATOM     14  C   UNL A   1      33.884  28.498  25.539  1.00  0.00     0.251 C 
ATOM     15  H   UNL A   1      34.201  29.770  24.044  1.00  0.00     0.164 HD
ATOM     16  O   UNL A   1      34.693  29.054  26.280  1.00  0.00    -0.269 OA
BRANCH  14  17
ATOM     17  C   UNL A   1      33.330  27.185  25.948  1.00  0.00     0.040 A 
ATOM     18  C   UNL A   1      34.114  26.042  25.763  1.00  0.00     0.017 A 
ATOM     19  C   UNL A   1      31.996  27.032  26.329  1.00  0.00     0.017 A 
ATOM     20  C   UNL A   1      33.576  24.772  25.999  1.00  0.00     0.047 A 
ATOM     21  C   UNL A   1      31.459  25.759  26.571  1.00  0.00     0.047 A 
ATOM     22  C   UNL A   1      32.246  24.621  26.405  1.00  0.00     0.126 A 
BRANCH  22  23
ATOM     23  O   UNL A   1      31.843  23.327  26.575  1.00  0.00    -0.435 OA
BRANCH  23  24
ATOM     24  C   UNL A   1      30.491  22.995  26.292  1.00  0.00     0.542 C 
ATOM     25  F   UNL A   1      30.435  21.807  25.639  1.00  0.00    -0.167 F 
ATOM     26  F   UNL A   1      29.786  22.878  27.443  1.00  0.00    -0.167 F 
ENDBRANCH  23  24
ENDBRANCH  22  23
ENDBRANCH  14  17
ENDBRANCH   5  13
ENDBRANCH   4   5
ENDBRANCH   2   4
ENDBRANCH   1   2
BRANCH   1  27
ATOM     27  C   UNL A   1      31.048  32.021  26.321  1.00  0.00     0.274 C 
BRANCH  27  28
ATOM     28  C   UNL A   1      32.304  32.669  26.918  1.00  0.00     0.275 C 
BRANCH  28  29
ATOM     29  O   UNL A   1      32.140  33.828  27.813  1.00  0.00    -0.458 OA
BRANCH  29  30
ATOM     30  C   UNL A   1      33.041  34.560  28.530  1.00  0.00     0.338 C 
ATOM     31  O   UNL A   1      32.854  35.732  28.825  1.00  0.00    -0.246 OA
BRANCH  30  32
ATOM     32  C   UNL A   1      34.253  33.880  29.004  1.00  0.00     0.060 A 
ATOM     33  C   UNL A   1      34.176  32.708  29.782  1.00  0.00     0.016 A 
ATOM     34  C   UNL A   1      35.460  34.333  28.520  1.00  0.00     0.016 A 
ATOM     35  C   UNL A   1      35.315  31.921  29.958  1.00  0.00     0.010 A 
ATOM     36  C   UNL A   1      36.488  33.438  28.464  1.00  0.00     0.010 A 
ATOM     37  C   UNL A   1      36.463  32.282  29.260  1.00  0.00    -0.014 A 
BRANCH  37  38
ATOM     38  C   UNL A   1      37.798  31.746  29.483  1.00  0.00     0.031 A 
ATOM     39  C   UNL A   1      38.265  30.468  28.937  1.00  0.00     0.074 A 
ATOM     40  C   UNL A   1      38.589  32.636  30.132  1.00  0.00     0.049 A 
ATOM     41  N   UNL A   1      39.224  29.787  29.455  1.00  0.00    -0.248 NA
ATOM     42  C   UNL A   1      37.703  29.819  27.756  1.00  0.00     0.031 C 
ATOM     43  C   UNL A   1      40.019  32.711  30.347  1.00  0.00     0.029 A 
ATOM     44  N   UNL A   1      38.098  33.715  30.881  1.00  0.00    -0.354 N 
ATOM     45  C   UNL A   1      39.648  28.897  28.491  1.00  0.00     0.074 A 
ATOM     46  C   UNL A   1      38.590  28.844  27.518  1.00  0.00     0.031 C 
ATOM     47  C   UNL A   1      40.243  33.536  31.396  1.00  0.00     0.029 A 
ATOM     48  C   UNL A   1      38.943  33.899  31.959  1.00  0.00     0.049 A 
ATOM     49  H   UNL A   1      37.295  34.246  30.676  1.00  0.00     0.167 HD
ATOM     50  C   UNL A   1      40.944  28.480  28.511  1.00  0.00     0.031 A 
ATOM     51  C   UNL A   1      38.437  33.542  33.177  1.00  0.00     0.031 A 
ATOM     52  C   UNL A   1      41.647  29.080  29.644  1.00  0.00     0.049 A 
ATOM     53  C   UNL A   1      39.177  32.341  33.708  1.00  0.00     0.074 A 
ATOM     54  C   UNL A   1      42.499  30.167  29.742  1.00  0.00     0.029 A 
ATOM     55  N   UNL A   1      41.182  28.830  30.930  1.00  0.00    -0.354 N 
ATOM     56  N   UNL A   1      39.769  31.444  32.967  1.00  0.00    -0.248 NA
ATOM     57  C   UNL A   1      39.362  32.110  35.130  1.00  0.00     0.031 C 
ATOM     58  C   UNL A   1      42.505  30.598  31.099  1.00  0.00     0.029 A 
ATOM     59  C   UNL A   1      41.665  29.768  31.822  1.00  0.00     0.049 A 
ATOM     60  H   UNL A   1      40.588  28.085  31.173  1.00  0.00     0.167 HD
ATOM     61  C   UNL A   1      40.505  30.605  33.762  1.00  0.00     0.074 A 
ATOM     62  C   UNL A   1      40.179  31.043  35.111  1.00  0.00     0.031 C 
ATOM     63  C   UNL A   1      41.341  29.652  33.242  1.00  0.00     0.031 A 
BRANCH  50  64
ATOM     64  C   UNL A   1      41.639  27.821  27.345  1.00  0.00    -0.014 A 
ATOM     65  C   UNL A   1      42.150  26.518  27.496  1.00  0.00     0.009 A 
ATOM     66  C   UNL A   1      41.833  28.419  26.088  1.00  0.00     0.009 A 
ATOM     67  C   UNL A   1      42.865  25.869  26.482  1.00  0.00     0.001 A 
ATOM     68  C   UNL A   1      42.564  27.780  25.071  1.00  0.00     0.001 A 
ATOM     69  C   UNL A   1      43.085  26.507  25.270  1.00  0.00     0.000 A 
ENDBRANCH  50  64
BRANCH  51  70
ATOM     70  C   UNL A   1      36.954  33.804  33.327  1.00  0.00    -0.014 A 
ATOM     71  C   UNL A   1      36.447  35.071  32.944  1.00  0.00     0.009 A 
ATOM     72  C   UNL A   1      36.022  32.775  33.528  1.00  0.00     0.009 A 
ATOM     73  C   UNL A   1      35.087  35.269  32.662  1.00  0.00     0.001 A 
ATOM     74  C   UNL A   1      34.652  32.987  33.278  1.00  0.00     0.001 A 
ATOM     75  C   UNL A   1      34.190  34.219  32.815  1.00  0.00     0.000 A 
ENDBRANCH  51  70
BRANCH  63  76
ATOM     76  C   UNL A   1      42.005  28.509  33.989  1.00  0.00    -0.014 A 
ATOM     77  C   UNL A   1      41.365  27.353  34.434  1.00  0.00     0.009 A 
ATOM     78  C   UNL A   1      43.408  28.552  34.193  1.00  0.00     0.009 A 
ATOM     79  C   UNL A   1      42.073  26.306  35.040  1.00  0.00     0.001 A 
ATOM     80  C   UNL A   1      44.128  27.496  34.748  1.00  0.00     0.001 A 
ATOM     81  C   UNL A   1      43.455  26.368  35.178  1.00  0.00     0.000 A 
ENDBRANCH  63  76
ENDBRANCH  37  38
ENDBRANCH  30  32
ENDBRANCH  29  30
ENDBRANCH  28  29
ENDBRANCH  27  28
ENDBRANCH   1  27
TORSDOF 17
ENDMDL
MODEL 3
REMARK VINA RESULT:     -11.2      1.487      2.310
REMARK SMILES Cc1ccc([C@@H](CC(=O)OCCOC(=O)c2ccc(-c3c4nc(c(-c5ccccc5)c5ccc([nH]5)c(-c5ccccc5)c5nc(c(-c6ccccc6)c6ccc3[nH]6)C=C5)C=C4)cc2)NC(=O)c2ccc(OC(F)F)cc2)cc1
REMARK SMILES IDX 10 1 8 2 9 3 7 4 6 5 5 6 1 7 2 8 3 9 78 10 4 11 77 12 64 13
REMARK SMILES IDX 65 14 66 16 67 17 68 18 76 19 69 20 75 21 70 22 71 23 72 24
REMARK SMILES IDX 73 25 74 26 11 27 12 28 13 29 14 30 15 31 16 32 17 33 63 34
REMARK SMILES IDX 18 35 62 36 19 37 20 38 21 39 56 40 22 41 61 42 55 43 57 44
REMARK SMILES IDX 23 45 60 46 54 47 53 48 24 50 46 51 31 52 45 53 32 54 35 55
REMARK SMILES IDX 44 56 58 57 33 58 34 59 43 61 59 62 36 63 25 64 26 65 30 66
REMARK SMILES IDX 27 67 29 68 28 69 47 70 48 71 52 72 49 73 51 74 50 75 37 76
REMARK SMILES IDX 38 77 42 78 39 79 41 80 40 81
REMARK H PARENT 64 15 57 49 35 60
REMARK Flexibility Score: inf
ROOT
ATOM      1  O   UNL A   1      32.387  29.320  26.803  1.00  0.00    -0.462 OA
ENDROOT
BRANCH   1   2
ATOM      2  C   UNL A   1      31.721  28.190  27.142  1.00  0.00     0.308 C 
ATOM      3  O   UNL A   1      31.415  27.882  28.289  1.00  0.00    -0.252 OA
BRANCH   2   4
ATOM      4  C   UNL A   1      31.431  27.359  25.912  1.00  0.00     0.152 C 
BRANCH   4   5
ATOM      5  C   UNL A   1      32.182  26.006  25.937  1.00  0.00     0.123 C 
BRANCH   5   6
ATOM      6  C   UNL A   1      32.191  25.508  24.476  1.00  0.00    -0.025 A 
ATOM      7  C   UNL A   1      32.404  22.072  21.936  1.00  0.00     0.044 C 
ATOM      8  C   UNL A   1      32.301  23.407  22.614  1.00  0.00    -0.051 A 
ATOM      9  C   UNL A   1      33.453  24.137  22.916  1.00  0.00     0.004 A 
ATOM     10  C   UNL A   1      31.069  23.853  23.099  1.00  0.00     0.004 A 
ATOM     11  C   UNL A   1      33.393  25.216  23.803  1.00  0.00     0.006 A 
ATOM     12  C   UNL A   1      31.010  24.908  24.010  1.00  0.00     0.006 A 
ENDBRANCH   5   6
BRANCH   5  13
ATOM     13  N   UNL A   1      31.600  25.059  26.886  1.00  0.00    -0.345 N 
ATOM     14  C   UNL A   1      31.740  23.701  27.015  1.00  0.00     0.251 C 
ATOM     15  H   UNL A   1      31.000  25.468  27.551  1.00  0.00     0.164 HD
ATOM     16  O   UNL A   1      30.873  23.073  27.619  1.00  0.00    -0.269 OA
BRANCH  14  17
ATOM     17  C   UNL A   1      32.905  22.964  26.471  1.00  0.00     0.040 A 
ATOM     18  C   UNL A   1      32.675  21.783  25.759  1.00  0.00     0.017 A 
ATOM     19  C   UNL A   1      34.217  23.304  26.805  1.00  0.00     0.017 A 
ATOM     20  C   UNL A   1      33.749  20.982  25.356  1.00  0.00     0.047 A 
ATOM     21  C   UNL A   1      35.294  22.504  26.395  1.00  0.00     0.047 A 
ATOM     22  C   UNL A   1      35.065  21.336  25.669  1.00  0.00     0.126 A 
BRANCH  22  23
ATOM     23  O   UNL A   1      36.014  20.454  25.237  1.00  0.00    -0.435 OA
BRANCH  23  24
ATOM     24  C   UNL A   1      37.319  20.943  24.957  1.00  0.00     0.542 C 
ATOM     25  F   UNL A   1      38.191  19.908  24.876  1.00  0.00    -0.167 F 
ATOM     26  F   UNL A   1      37.329  21.599  23.772  1.00  0.00    -0.167 F 
ENDBRANCH  23  24
ENDBRANCH  22  23
ENDBRANCH  14  17
ENDBRANCH   5  13
ENDBRANCH   4   5
ENDBRANCH   2   4
ENDBRANCH   1   2
BRANCH   1  27
ATOM     27  C   UNL A   1      33.600  29.149  26.077  1.00  0.00     0.274 C 
BRANCH  27  28
ATOM     28  C   UNL A   1      34.760  29.006  27.069  1.00  0.00     0.275 C 
BRANCH  28  29
ATOM     29  O   UNL A   1      35.164  30.185  27.855  1.00  0.00    -0.458 OA
BRANCH  29  30
ATOM     30  C   UNL A   1      36.369  30.576  28.358  1.00  0.00     0.338 C 
ATOM     31  O   UNL A   1      36.530  31.643  28.936  1.00  0.00    -0.246 OA
BRANCH  30  32
ATOM     32  C   UNL A   1      37.496  29.642  28.241  1.00  0.00     0.060 A 
ATOM     33  C   UNL A   1      38.369  29.686  27.137  1.00  0.00     0.016 A 
ATOM     34  C   UNL A   1      37.765  28.840  29.327  1.00  0.00     0.016 A 
ATOM     35  C   UNL A   1      39.590  29.010  27.194  1.00  0.00     0.010 A 
ATOM     36  C   UNL A   1      39.052  28.414  29.489  1.00  0.00     0.010 A 
ATOM     37  C   UNL A   1      39.934  28.404  28.398  1.00  0.00    -0.014 A 
BRANCH  37  38
ATOM     38  C   UNL A   1      41.029  27.465  28.593  1.00  0.00     0.031 A 
ATOM     39  C   UNL A   1      40.902  26.014  28.415  1.00  0.00     0.074 A 
ATOM     40  C   UNL A   1      42.203  28.108  28.815  1.00  0.00     0.049 A 
ATOM     41  N   UNL A   1      41.678  25.163  28.984  1.00  0.00    -0.248 NA
ATOM     42  C   UNL A   1      39.889  25.369  27.586  1.00  0.00     0.031 C 
ATOM     43  C   UNL A   1      43.584  27.676  28.799  1.00  0.00     0.029 A 
ATOM     44  N   UNL A   1      42.292  29.439  29.250  1.00  0.00    -0.354 N 
ATOM     45  C   UNL A   1      41.538  23.974  28.298  1.00  0.00     0.074 A 
ATOM     46  C   UNL A   1      40.319  24.102  27.546  1.00  0.00     0.031 C 
ATOM     47  C   UNL A   1      44.314  28.576  29.495  1.00  0.00     0.029 A 
ATOM     48  C   UNL A   1      43.385  29.536  30.089  1.00  0.00     0.049 A 
ATOM     49  H   UNL A   1      41.684  30.172  29.000  1.00  0.00     0.167 HD
ATOM     50  C   UNL A   1      42.587  23.108  28.271  1.00  0.00     0.031 A 
ATOM     51  C   UNL A   1      43.101  29.706  31.414  1.00  0.00     0.031 A 
ATOM     52  C   UNL A   1      43.702  23.644  29.052  1.00  0.00     0.049 A 
ATOM     53  C   UNL A   1      43.510  28.479  32.188  1.00  0.00     0.074 A 
ATOM     54  C   UNL A   1      44.862  24.307  28.687  1.00  0.00     0.029 A 
ATOM     55  N   UNL A   1      43.508  23.910  30.402  1.00  0.00    -0.354 N 
ATOM     56  N   UNL A   1      43.574  27.273  31.692  1.00  0.00    -0.248 NA
ATOM     57  C   UNL A   1      43.947  28.543  33.572  1.00  0.00     0.031 C 
ATOM     58  C   UNL A   1      45.338  25.015  29.826  1.00  0.00     0.029 A 
ATOM     59  C   UNL A   1      44.474  24.773  30.881  1.00  0.00     0.049 A 
ATOM     60  H   UNL A   1      42.778  23.533  30.945  1.00  0.00     0.167 HD
ATOM     61  C   UNL A   1      44.162  26.433  32.601  1.00  0.00     0.074 A 
ATOM     62  C   UNL A   1      44.336  27.273  33.776  1.00  0.00     0.031 C 
ATOM     63  C   UNL A   1      44.484  25.136  32.296  1.00  0.00     0.031 A 
BRANCH  50  64
ATOM     64  C   UNL A   1      42.721  21.972  27.286  1.00  0.00    -0.014 A 
ATOM     65  C   UNL A   1      41.934  20.818  27.456  1.00  0.00     0.009 A 
ATOM     66  C   UNL A   1      43.599  21.966  26.188  1.00  0.00     0.009 A 
ATOM     67  C   UNL A   1      42.052  19.698  26.623  1.00  0.00     0.001 A 
ATOM     68  C   UNL A   1      43.734  20.839  25.358  1.00  0.00     0.001 A 
ATOM     69  C   UNL A   1      42.964  19.703  25.579  1.00  0.00     0.000 A 
ENDBRANCH  50  64
BRANCH  51  70
ATOM     70  C   UNL A   1      41.871  30.547  31.676  1.00  0.00    -0.014 A 
ATOM     71  C   UNL A   1      41.662  31.708  30.889  1.00  0.00     0.009 A 
ATOM     72  C   UNL A   1      40.784  30.081  32.432  1.00  0.00     0.009 A 
ATOM     73  C   UNL A   1      40.398  32.304  30.771  1.00  0.00     0.001 A 
ATOM     74  C   UNL A   1      39.524  30.704  32.337  1.00  0.00     0.001 A 
ATOM     75  C   UNL A   1      39.323  31.790  31.486  1.00  0.00     0.000 A 
ENDBRANCH  51  70
BRANCH  63  76
ATOM     76  C   UNL A   1      44.895  24.042  33.264  1.00  0.00    -0.014 A 
ATOM     77  C   UNL A   1      46.143  23.931  33.878  1.00  0.00     0.009 A 
ATOM     78  C   UNL A   1      43.928  23.086  33.664  1.00  0.00     0.009 A 
ATOM     79  C   UNL A   1      46.410  22.937  34.829  1.00  0.00     0.001 A 
ATOM     80  C   UNL A   1      44.168  22.125  34.645  1.00  0.00     0.001 A 
ATOM     81  C   UNL A   1      45.418  22.048  35.227  1.00  0.00     0.000 A 
ENDBRANCH  63  76
ENDBRANCH  37  38
ENDBRANCH  30  32
ENDBRANCH  29  30
ENDBRANCH  28  29
ENDBRANCH  27  28
ENDBRANCH   1  27
TORSDOF 17
ENDMDL
