MODEL 1
REMARK VINA RESULT:     -10.5      0.000      0.000
REMARK SMILES NC(=O)C[NH+]1CCC([NH2+]Cc2cc(C(=O)OCCOC(=O)c3ccc(-c4c5nc(c(-c6ccccc6)c6ccc([nH]6)c(-c6ccccc6)c6nc(c(-c7ccccc7)c7ccc4[nH]7)C=C6)C=C5)cc3)cs2)CC1
REMARK SMILES IDX 16 1 14 2 15 3 13 4 11 5 12 6 71 7 70 8 10 9 9 10 8 13 5 14
REMARK SMILES IDX 6 15 73 16 7 18 72 19 4 20 2 21 1 22 3 25 17 26 18 27 19 28
REMARK SMILES IDX 20 29 21 30 22 31 23 32 69 33 24 34 68 35 25 36 26 37 27 38
REMARK SMILES IDX 62 39 28 40 67 41 61 42 63 43 29 44 66 45 60 46 59 47 30 49
REMARK SMILES IDX 52 50 37 51 51 52 38 53 41 54 50 55 64 56 39 57 40 58 49 60
REMARK SMILES IDX 65 61 42 62 31 63 32 64 36 65 33 66 35 67 34 68 53 69 54 70
REMARK SMILES IDX 58 71 55 72 57 73 56 74 43 75 44 76 48 77 45 78 47 79 46 80
REMARK H PARENT 9 11 9 12 5 17 1 23 1 24 63 48 41 59
REMARK Flexibility Score: inf
ROOT
ATOM      1  O   UNL A   1      41.132  20.381  25.793  1.00  0.00    -0.458 OA
ENDROOT
BRANCH   1   2
ATOM      2  C   UNL A   1      40.404  20.983  26.774  1.00  0.00     0.339 C 
ATOM      3  O   UNL A   1      40.465  20.683  27.965  1.00  0.00    -0.246 OA
BRANCH   2   4
ATOM      4  C   UNL A   1      39.486  22.011  26.278  1.00  0.00     0.071 A 
ATOM      5  C   UNL A   1      37.369  22.683  25.748  1.00  0.00     0.060 A 
ATOM      6  C   UNL A   1      38.385  21.816  25.372  1.00  0.00     0.037 A 
ATOM      7  S   UNL A   1      38.050  24.144  26.342  1.00  0.00    -0.142 S 
ATOM      8  C   UNL A   1      39.493  23.317  26.741  1.00  0.00     0.081 A 
BRANCH   5   9
ATOM      9  C   UNL A   1      35.886  22.461  25.803  1.00  0.00     0.308 C 
BRANCH   9  10
ATOM     10  N   UNL A   1      35.505  21.078  26.135  1.00  0.00    -0.339 N 
ATOM     11  H   UNL A   1      36.360  20.585  26.392  1.00  0.00     0.346 HD
ATOM     12  H   UNL A   1      34.805  21.184  26.868  1.00  0.00     0.346 HD
BRANCH  10  13
ATOM     13  C   UNL A   1      34.824  20.259  25.100  1.00  0.00     0.194 C 
ATOM     14  N   UNL A   1      33.521  17.632  24.737  1.00  0.00    -0.327 N 
ATOM     15  C   UNL A   1      34.866  17.851  24.197  1.00  0.00     0.268 C 
ATOM     16  C   UNL A   1      32.729  18.845  24.544  1.00  0.00     0.268 C 
ATOM     17  H   UNL A   1      33.629  17.427  25.731  1.00  0.00     0.348 HD
ATOM     18  C   UNL A   1      35.600  18.932  25.001  1.00  0.00     0.126 C 
ATOM     19  C   UNL A   1      33.351  19.951  25.377  1.00  0.00     0.126 C 
BRANCH  14  20
ATOM     20  C   UNL A   1      32.825  16.458  24.184  1.00  0.00     0.363 C 
BRANCH  20  21
ATOM     21  C   UNL A   1      32.950  15.267  25.141  1.00  0.00     0.272 C 
ATOM     22  N   UNL A   1      31.797  14.869  25.754  1.00  0.00    -0.365 N 
ATOM     23  H   UNL A   1      31.811  14.109  26.381  1.00  0.00     0.159 HD
ATOM     24  H   UNL A   1      30.953  15.340  25.570  1.00  0.00     0.159 HD
ATOM     25  O   UNL A   1      34.009  14.693  25.377  1.00  0.00    -0.269 OA
ENDBRANCH  20  21
ENDBRANCH  14  20
ENDBRANCH  10  13
ENDBRANCH   9  10
ENDBRANCH   5   9
ENDBRANCH   2   4
ENDBRANCH   1   2
BRANCH   1  26
ATOM     26  C   UNL A   1      42.482  20.023  26.145  1.00  0.00     0.275 C 
BRANCH  26  27
ATOM     27  C   UNL A   1      43.469  21.012  25.524  1.00  0.00     0.275 C 
BRANCH  27  28
ATOM     28  O   UNL A   1      42.839  22.290  25.301  1.00  0.00    -0.458 OA
BRANCH  28  29
ATOM     29  C   UNL A   1      43.690  23.336  25.179  1.00  0.00     0.338 C 
ATOM     30  O   UNL A   1      44.466  23.564  24.270  1.00  0.00    -0.246 OA
BRANCH  29  31
ATOM     31  C   UNL A   1      43.476  24.282  26.284  1.00  0.00     0.060 A 
ATOM     32  C   UNL A   1      42.854  23.820  27.439  1.00  0.00     0.016 A 
ATOM     33  C   UNL A   1      43.728  25.640  26.131  1.00  0.00     0.016 A 
ATOM     34  C   UNL A   1      42.406  24.692  28.413  1.00  0.00     0.010 A 
ATOM     35  C   UNL A   1      43.361  26.520  27.158  1.00  0.00     0.010 A 
ATOM     36  C   UNL A   1      42.675  26.054  28.296  1.00  0.00    -0.014 A 
BRANCH  36  37
ATOM     37  C   UNL A   1      42.188  26.976  29.350  1.00  0.00     0.031 A 
ATOM     38  C   UNL A   1      42.958  27.116  30.630  1.00  0.00     0.074 A 
ATOM     39  C   UNL A   1      41.082  27.718  29.139  1.00  0.00     0.049 A 
ATOM     40  N   UNL A   1      42.626  27.744  31.728  1.00  0.00    -0.248 NA
ATOM     41  C   UNL A   1      44.270  26.451  30.689  1.00  0.00     0.031 C 
ATOM     42  C   UNL A   1      40.293  27.740  27.904  1.00  0.00     0.029 A 
ATOM     43  N   UNL A   1      40.435  28.607  29.959  1.00  0.00    -0.354 N 
ATOM     44  C   UNL A   1      43.659  27.505  32.624  1.00  0.00     0.074 A 
ATOM     45  C   UNL A   1      44.624  26.667  31.947  1.00  0.00     0.031 C 
ATOM     46  C   UNL A   1      39.287  28.617  28.039  1.00  0.00     0.029 A 
ATOM     47  C   UNL A   1      39.303  29.145  29.396  1.00  0.00     0.049 A 
ATOM     48  H   UNL A   1      40.751  28.838  30.862  1.00  0.00     0.167 HD
ATOM     49  C   UNL A   1      43.786  27.945  33.900  1.00  0.00     0.031 A 
ATOM     50  C   UNL A   1      38.353  29.936  29.929  1.00  0.00     0.031 A 
ATOM     51  C   UNL A   1      42.829  28.797  34.554  1.00  0.00     0.049 A 
ATOM     52  C   UNL A   1      38.473  30.338  31.370  1.00  0.00     0.074 A 
ATOM     53  C   UNL A   1      42.865  29.305  35.840  1.00  0.00     0.029 A 
ATOM     54  N   UNL A   1      41.665  29.272  33.967  1.00  0.00    -0.354 N 
ATOM     55  N   UNL A   1      39.433  30.075  32.225  1.00  0.00    -0.248 NA
ATOM     56  C   UNL A   1      37.373  31.136  31.925  1.00  0.00     0.031 C 
ATOM     57  C   UNL A   1      41.693  30.037  36.052  1.00  0.00     0.029 A 
ATOM     58  C   UNL A   1      40.959  30.043  34.875  1.00  0.00     0.049 A 
ATOM     59  H   UNL A   1      41.384  29.089  33.042  1.00  0.00     0.167 HD
ATOM     60  C   UNL A   1      39.063  30.690  33.412  1.00  0.00     0.074 A 
ATOM     61  C   UNL A   1      37.802  31.359  33.160  1.00  0.00     0.031 C 
ATOM     62  C   UNL A   1      39.704  30.696  34.605  1.00  0.00     0.031 A 
BRANCH  49  63
ATOM     63  C   UNL A   1      44.973  27.459  34.685  1.00  0.00    -0.014 A 
ATOM     64  C   UNL A   1      46.204  28.132  34.660  1.00  0.00     0.009 A 
ATOM     65  C   UNL A   1      44.845  26.311  35.483  1.00  0.00     0.009 A 
ATOM     66  C   UNL A   1      47.293  27.642  35.386  1.00  0.00     0.001 A 
ATOM     67  C   UNL A   1      45.925  25.842  36.234  1.00  0.00     0.001 A 
ATOM     68  C   UNL A   1      47.151  26.502  36.176  1.00  0.00     0.000 A 
ENDBRANCH  49  63
BRANCH  50  69
ATOM     69  C   UNL A   1      37.176  30.341  29.115  1.00  0.00    -0.014 A 
ATOM     70  C   UNL A   1      37.033  31.664  28.671  1.00  0.00     0.009 A 
ATOM     71  C   UNL A   1      36.184  29.404  28.781  1.00  0.00     0.009 A 
ATOM     72  C   UNL A   1      35.912  32.044  27.929  1.00  0.00     0.001 A 
ATOM     73  C   UNL A   1      35.083  29.778  28.009  1.00  0.00     0.001 A 
ATOM     74  C   UNL A   1      34.942  31.100  27.593  1.00  0.00     0.000 A 
ENDBRANCH  50  69
BRANCH  62  75
ATOM     75  C   UNL A   1      39.066  31.481  35.717  1.00  0.00    -0.014 A 
ATOM     76  C   UNL A   1      39.334  32.846  35.893  1.00  0.00     0.009 A 
ATOM     77  C   UNL A   1      38.159  30.847  36.581  1.00  0.00     0.009 A 
ATOM     78  C   UNL A   1      38.732  33.555  36.934  1.00  0.00     0.001 A 
ATOM     79  C   UNL A   1      37.532  31.566  37.600  1.00  0.00     0.001 A 
ATOM     80  C   UNL A   1      37.827  32.916  37.782  1.00  0.00     0.000 A 
ENDBRANCH  62  75
ENDBRANCH  36  37
ENDBRANCH  29  31
ENDBRANCH  28  29
ENDBRANCH  27  28
ENDBRANCH  26  27
ENDBRANCH   1  26
TORSDOF 16
ENDMDL
MODEL 2
REMARK VINA RESULT:     -10.2      2.354      3.136
REMARK SMILES NC(=O)C[NH+]1CCC([NH2+]Cc2cc(C(=O)OCCOC(=O)c3ccc(-c4c5nc(c(-c6ccccc6)c6ccc([nH]6)c(-c6ccccc6)c6nc(c(-c7ccccc7)c7ccc4[nH]7)C=C6)C=C5)cc3)cs2)CC1
REMARK SMILES IDX 16 1 14 2 15 3 13 4 11 5 12 6 71 7 70 8 10 9 9 10 8 13 5 14
REMARK SMILES IDX 6 15 73 16 7 18 72 19 4 20 2 21 1 22 3 25 17 26 18 27 19 28
REMARK SMILES IDX 20 29 21 30 22 31 23 32 69 33 24 34 68 35 25 36 26 37 27 38
REMARK SMILES IDX 62 39 28 40 67 41 61 42 63 43 29 44 66 45 60 46 59 47 30 49
REMARK SMILES IDX 52 50 37 51 51 52 38 53 41 54 50 55 64 56 39 57 40 58 49 60
REMARK SMILES IDX 65 61 42 62 31 63 32 64 36 65 33 66 35 67 34 68 53 69 54 70
REMARK SMILES IDX 58 71 55 72 57 73 56 74 43 75 44 76 48 77 45 78 47 79 46 80
REMARK H PARENT 9 11 9 12 5 17 1 23 1 24 63 48 41 59
REMARK Flexibility Score: inf
ROOT
ATOM      1  O   UNL A   1      45.640  21.024  25.510  1.00  0.00    -0.458 OA
ENDROOT
BRANCH   1   2
ATOM      2  C   UNL A   1      44.564  20.510  24.853  1.00  0.00     0.339 C 
ATOM      3  O   UNL A   1      44.522  20.311  23.640  1.00  0.00    -0.246 OA
BRANCH   2   4
ATOM      4  C   UNL A   1      43.414  20.250  25.723  1.00  0.00     0.071 A 
ATOM      5  C   UNL A   1      41.459  20.943  26.678  1.00  0.00     0.060 A 
ATOM      6  C   UNL A   1      42.829  21.161  26.671  1.00  0.00     0.037 A 
ATOM      7  S   UNL A   1      41.139  19.275  26.426  1.00  0.00    -0.142 S 
ATOM      8  C   UNL A   1      42.647  19.098  25.638  1.00  0.00     0.081 A 
BRANCH   5   9
ATOM      9  C   UNL A   1      40.329  21.928  26.750  1.00  0.00     0.308 C 
BRANCH   9  10
ATOM     10  N   UNL A   1      39.407  21.859  25.604  1.00  0.00    -0.339 N 
ATOM     11  H   UNL A   1      39.543  22.709  25.058  1.00  0.00     0.346 HD
ATOM     12  H   UNL A   1      39.649  20.982  25.145  1.00  0.00     0.346 HD
BRANCH  10  13
ATOM     13  C   UNL A   1      37.951  21.739  25.868  1.00  0.00     0.194 C 
ATOM     14  N   UNL A   1      35.335  22.152  24.557  1.00  0.00    -0.327 N 
ATOM     15  C   UNL A   1      35.803  23.120  25.553  1.00  0.00     0.268 C 
ATOM     16  C   UNL A   1      35.700  20.806  24.995  1.00  0.00     0.268 C 
ATOM     17  H   UNL A   1      35.798  22.382  23.678  1.00  0.00     0.348 HD
ATOM     18  C   UNL A   1      37.336  23.128  25.616  1.00  0.00     0.126 C 
ATOM     19  C   UNL A   1      37.215  20.710  25.007  1.00  0.00     0.126 C 
BRANCH  14  20
ATOM     20  C   UNL A   1      33.896  22.233  24.257  1.00  0.00     0.363 C 
BRANCH  20  21
ATOM     21  C   UNL A   1      33.671  22.950  22.921  1.00  0.00     0.272 C 
ATOM     22  N   UNL A   1      32.456  22.751  22.332  1.00  0.00    -0.365 N 
ATOM     23  H   UNL A   1      32.250  23.184  21.472  1.00  0.00     0.159 HD
ATOM     24  H   UNL A   1      31.787  22.175  22.766  1.00  0.00     0.159 HD
ATOM     25  O   UNL A   1      34.516  23.657  22.379  1.00  0.00    -0.269 OA
ENDBRANCH  20  21
ENDBRANCH  14  20
ENDBRANCH  10  13
ENDBRANCH   9  10
ENDBRANCH   5   9
ENDBRANCH   2   4
ENDBRANCH   1   2
BRANCH   1  26
ATOM     26  C   UNL A   1      46.138  22.279  25.009  1.00  0.00     0.275 C 
BRANCH  26  27
ATOM     27  C   UNL A   1      45.655  23.430  25.892  1.00  0.00     0.275 C 
BRANCH  27  28
ATOM     28  O   UNL A   1      44.995  24.438  25.100  1.00  0.00    -0.458 OA
BRANCH  28  29
ATOM     29  C   UNL A   1      43.651  24.304  25.006  1.00  0.00     0.338 C 
ATOM     30  O   UNL A   1      43.026  23.539  24.294  1.00  0.00    -0.246 OA
BRANCH  29  31
ATOM     31  C   UNL A   1      42.994  25.162  26.003  1.00  0.00     0.060 A 
ATOM     32  C   UNL A   1      43.298  26.519  26.009  1.00  0.00     0.016 A 
ATOM     33  C   UNL A   1      42.221  24.622  27.024  1.00  0.00     0.016 A 
ATOM     34  C   UNL A   1      42.912  27.338  27.055  1.00  0.00     0.010 A 
ATOM     35  C   UNL A   1      41.747  25.465  28.037  1.00  0.00     0.010 A 
ATOM     36  C   UNL A   1      42.111  26.825  28.073  1.00  0.00    -0.014 A 
BRANCH  36  37
ATOM     37  C   UNL A   1      41.706  27.717  29.186  1.00  0.00     0.031 A 
ATOM     38  C   UNL A   1      42.494  27.718  30.463  1.00  0.00     0.074 A 
ATOM     39  C   UNL A   1      40.661  28.554  29.033  1.00  0.00     0.049 A 
ATOM     40  N   UNL A   1      42.221  28.303  31.600  1.00  0.00    -0.248 NA
ATOM     41  C   UNL A   1      43.750  26.951  30.465  1.00  0.00     0.031 C 
ATOM     42  C   UNL A   1      39.866  28.712  27.811  1.00  0.00     0.029 A 
ATOM     43  N   UNL A   1      40.091  29.439  29.913  1.00  0.00    -0.354 N 
ATOM     44  C   UNL A   1      43.239  27.930  32.468  1.00  0.00     0.074 A 
ATOM     45  C   UNL A   1      44.130  27.062  31.730  1.00  0.00     0.031 C 
ATOM     46  C   UNL A   1      38.933  29.655  28.011  1.00  0.00     0.029 A 
ATOM     47  C   UNL A   1      39.001  30.097  29.397  1.00  0.00     0.049 A 
ATOM     48  H   UNL A   1      40.431  29.589  30.824  1.00  0.00     0.167 HD
ATOM     49  C   UNL A   1      43.410  28.280  33.765  1.00  0.00     0.031 A 
ATOM     50  C   UNL A   1      38.120  30.925  29.988  1.00  0.00     0.031 A 
ATOM     51  C   UNL A   1      42.528  29.163  34.482  1.00  0.00     0.049 A 
ATOM     52  C   UNL A   1      38.282  31.229  31.449  1.00  0.00     0.074 A 
ATOM     53  C   UNL A   1      42.612  29.587  35.795  1.00  0.00     0.029 A 
ATOM     54  N   UNL A   1      41.400  29.762  33.938  1.00  0.00    -0.354 N 
ATOM     55  N   UNL A   1      39.225  30.840  32.275  1.00  0.00    -0.248 NA
ATOM     56  C   UNL A   1      37.252  32.075  32.064  1.00  0.00     0.031 C 
ATOM     57  C   UNL A   1      41.503  30.395  36.064  1.00  0.00     0.029 A 
ATOM     58  C   UNL A   1      40.764  30.529  34.899  1.00  0.00     0.049 A 
ATOM     59  H   UNL A   1      41.098  29.658  33.007  1.00  0.00     0.167 HD
ATOM     60  C   UNL A   1      38.912  31.409  33.501  1.00  0.00     0.074 A 
ATOM     61  C   UNL A   1      37.706  32.189  33.305  1.00  0.00     0.031 C 
ATOM     62  C   UNL A   1      39.561  31.293  34.685  1.00  0.00     0.031 A 
BRANCH  49  63
ATOM     63  C   UNL A   1      44.561  27.657  34.506  1.00  0.00    -0.014 A 
ATOM     64  C   UNL A   1      45.819  28.274  34.574  1.00  0.00     0.009 A 
ATOM     65  C   UNL A   1      44.370  26.431  35.165  1.00  0.00     0.009 A 
ATOM     66  C   UNL A   1      46.873  27.658  35.254  1.00  0.00     0.001 A 
ATOM     67  C   UNL A   1      45.416  25.834  35.871  1.00  0.00     0.001 A 
ATOM     68  C   UNL A   1      46.669  26.442  35.906  1.00  0.00     0.000 A 
ENDBRANCH  49  63
BRANCH  50  69
ATOM     69  C   UNL A   1      36.972  31.469  29.214  1.00  0.00    -0.014 A 
ATOM     70  C   UNL A   1      36.988  32.790  28.742  1.00  0.00     0.009 A 
ATOM     71  C   UNL A   1      35.848  30.669  28.948  1.00  0.00     0.009 A 
ATOM     72  C   UNL A   1      35.896  33.303  28.038  1.00  0.00     0.001 A 
ATOM     73  C   UNL A   1      34.774  31.173  28.213  1.00  0.00     0.001 A 
ATOM     74  C   UNL A   1      34.793  32.493  27.768  1.00  0.00     0.000 A 
ENDBRANCH  50  69
BRANCH  62  75
ATOM     75  C   UNL A   1      38.996  32.056  35.849  1.00  0.00    -0.014 A 
ATOM     76  C   UNL A   1      39.320  33.404  36.065  1.00  0.00     0.009 A 
ATOM     77  C   UNL A   1      38.099  31.422  36.724  1.00  0.00     0.009 A 
ATOM     78  C   UNL A   1      38.783  34.092  37.154  1.00  0.00     0.001 A 
ATOM     79  C   UNL A   1      37.539  32.122  37.793  1.00  0.00     0.001 A 
ATOM     80  C   UNL A   1      37.889  33.453  38.013  1.00  0.00     0.000 A 
ENDBRANCH  62  75
ENDBRANCH  36  37
ENDBRANCH  29  31
ENDBRANCH  28  29
ENDBRANCH  27  28
ENDBRANCH  26  27
ENDBRANCH   1  26
TORSDOF 16
ENDMDL
MODEL 3
REMARK VINA RESULT:     -10.2      2.568      6.896
REMARK SMILES NC(=O)C[NH+]1CCC([NH2+]Cc2cc(C(=O)OCCOC(=O)c3ccc(-c4c5nc(c(-c6ccccc6)c6ccc([nH]6)c(-c6ccccc6)c6nc(c(-c7ccccc7)c7ccc4[nH]7)C=C6)C=C5)cc3)cs2)CC1
REMARK SMILES IDX 16 1 14 2 15 3 13 4 11 5 12 6 71 7 70 8 10 9 9 10 8 13 5 14
REMARK SMILES IDX 6 15 73 16 7 18 72 19 4 20 2 21 1 22 3 25 17 26 18 27 19 28
REMARK SMILES IDX 20 29 21 30 22 31 23 32 69 33 24 34 68 35 25 36 26 37 27 38
REMARK SMILES IDX 62 39 28 40 67 41 61 42 63 43 29 44 66 45 60 46 59 47 30 49
REMARK SMILES IDX 52 50 37 51 51 52 38 53 41 54 50 55 64 56 39 57 40 58 49 60
REMARK SMILES IDX 65 61 42 62 31 63 32 64 36 65 33 66 35 67 34 68 53 69 54 70
REMARK SMILES IDX 58 71 55 72 57 73 56 74 43 75 44 76 48 77 45 78 47 79 46 80
REMARK H PARENT 9 11 9 12 5 17 1 23 1 24 63 48 41 59
REMARK Flexibility Score: inf
ROOT
ATOM      1  O   UNL A   1      45.715  21.849  25.682  1.00  0.00    -0.458 OA
ENDROOT
BRANCH   1   2
ATOM      2  C   UNL A   1      44.618  21.449  24.982  1.00  0.00     0.339 C 
ATOM      3  O   UNL A   1      44.534  21.466  23.756  1.00  0.00    -0.246 OA
BRANCH   2   4
ATOM      4  C   UNL A   1      43.499  21.032  25.832  1.00  0.00     0.071 A 
ATOM      5  C   UNL A   1      41.478  21.472  26.799  1.00  0.00     0.060 A 
ATOM      6  C   UNL A   1      42.817  21.835  26.812  1.00  0.00     0.037 A 
ATOM      7  S   UNL A   1      41.339  19.791  26.476  1.00  0.00    -0.142 S 
ATOM      8  C   UNL A   1      42.860  19.809  25.693  1.00  0.00     0.081 A 
BRANCH   5   9
ATOM      9  C   UNL A   1      40.249  22.327  26.903  1.00  0.00     0.308 C 
BRANCH   9  10
ATOM     10  N   UNL A   1      39.390  22.280  25.708  1.00  0.00    -0.339 N 
ATOM     11  H   UNL A   1      39.469  23.186  25.245  1.00  0.00     0.346 HD
ATOM     12  H   UNL A   1      39.735  21.474  25.187  1.00  0.00     0.346 HD
BRANCH  10  13
ATOM     13  C   UNL A   1      37.941  22.004  25.882  1.00  0.00     0.194 C 
ATOM     14  N   UNL A   1      35.362  22.287  24.469  1.00  0.00    -0.327 N 
ATOM     15  C   UNL A   1      35.688  23.205  25.565  1.00  0.00     0.268 C 
ATOM     16  C   UNL A   1      35.833  20.948  24.815  1.00  0.00     0.268 C 
ATOM     17  H   UNL A   1      35.840  22.635  23.638  1.00  0.00     0.348 HD
ATOM     18  C   UNL A   1      37.209  23.348  25.712  1.00  0.00     0.126 C 
ATOM     19  C   UNL A   1      37.348  20.991  24.901  1.00  0.00     0.126 C 
BRANCH  14  20
ATOM     20  C   UNL A   1      33.937  22.262  24.100  1.00  0.00     0.363 C 
BRANCH  20  21
ATOM     21  C   UNL A   1      33.716  23.011  22.781  1.00  0.00     0.272 C 
ATOM     22  N   UNL A   1      32.617  22.643  22.059  1.00  0.00    -0.365 N 
ATOM     23  H   UNL A   1      32.421  23.086  21.202  1.00  0.00     0.159 HD
ATOM     24  H   UNL A   1      32.022  21.934  22.396  1.00  0.00     0.159 HD
ATOM     25  O   UNL A   1      34.471  23.884  22.360  1.00  0.00    -0.269 OA
ENDBRANCH  20  21
ENDBRANCH  14  20
ENDBRANCH  10  13
ENDBRANCH   9  10
ENDBRANCH   5   9
ENDBRANCH   2   4
ENDBRANCH   1   2
BRANCH   1  26
ATOM     26  C   UNL A   1      46.195  23.175  25.391  1.00  0.00     0.275 C 
BRANCH  26  27
ATOM     27  C   UNL A   1      45.591  24.182  26.371  1.00  0.00     0.275 C 
BRANCH  27  28
ATOM     28  O   UNL A   1      44.996  25.289  25.664  1.00  0.00    -0.458 OA
BRANCH  28  29
ATOM     29  C   UNL A   1      43.655  25.207  25.494  1.00  0.00     0.338 C 
ATOM     30  O   UNL A   1      43.046  24.543  24.676  1.00  0.00    -0.246 OA
BRANCH  29  31
ATOM     31  C   UNL A   1      42.973  25.974  26.548  1.00  0.00     0.060 A 
ATOM     32  C   UNL A   1      43.348  27.298  26.749  1.00  0.00     0.016 A 
ATOM     33  C   UNL A   1      42.100  25.359  27.438  1.00  0.00     0.016 A 
ATOM     34  C   UNL A   1      42.931  28.002  27.864  1.00  0.00     0.010 A 
ATOM     35  C   UNL A   1      41.599  26.098  28.517  1.00  0.00     0.010 A 
ATOM     36  C   UNL A   1      42.031  27.417  28.752  1.00  0.00    -0.014 A 
BRANCH  36  37
ATOM     37  C   UNL A   1      41.593  28.186  29.941  1.00  0.00     0.031 A 
ATOM     38  C   UNL A   1      40.376  29.061  29.856  1.00  0.00     0.074 A 
ATOM     39  C   UNL A   1      42.259  28.064  31.106  1.00  0.00     0.049 A 
ATOM     40  N   UNL A   1      39.919  29.925  30.724  1.00  0.00    -0.248 NA
ATOM     41  C   UNL A   1      39.575  28.961  28.625  1.00  0.00     0.031 C 
ATOM     42  C   UNL A   1      43.404  27.180  31.345  1.00  0.00     0.029 A 
ATOM     43  N   UNL A   1      42.063  28.682  32.316  1.00  0.00    -0.354 N 
ATOM     44  C   UNL A   1      38.810  30.509  30.125  1.00  0.00     0.074 A 
ATOM     45  C   UNL A   1      38.670  29.910  28.816  1.00  0.00     0.031 C 
ATOM     46  C   UNL A   1      43.789  27.294  32.625  1.00  0.00     0.029 A 
ATOM     47  C   UNL A   1      42.984  28.322  33.269  1.00  0.00     0.049 A 
ATOM     48  H   UNL A   1      41.332  29.320  32.484  1.00  0.00     0.167 HD
ATOM     49  C   UNL A   1      37.988  31.463  30.624  1.00  0.00     0.031 A 
ATOM     50  C   UNL A   1      43.193  28.804  34.508  1.00  0.00     0.031 A 
ATOM     51  C   UNL A   1      38.125  32.034  31.937  1.00  0.00     0.049 A 
ATOM     52  C   UNL A   1      42.322  29.921  35.005  1.00  0.00     0.074 A 
ATOM     53  C   UNL A   1      37.343  33.001  32.543  1.00  0.00     0.029 A 
ATOM     54  N   UNL A   1      39.109  31.684  32.851  1.00  0.00    -0.354 N 
ATOM     55  N   UNL A   1      41.301  30.497  34.417  1.00  0.00    -0.248 NA
ATOM     56  C   UNL A   1      42.639  30.463  36.332  1.00  0.00     0.031 C 
ATOM     57  C   UNL A   1      37.890  33.279  33.800  1.00  0.00     0.029 A 
ATOM     58  C   UNL A   1      38.972  32.437  34.004  1.00  0.00     0.049 A 
ATOM     59  H   UNL A   1      39.801  31.000  32.701  1.00  0.00     0.167 HD
ATOM     60  C   UNL A   1      40.842  31.457  35.308  1.00  0.00     0.074 A 
ATOM     61  C   UNL A   1      41.681  31.367  36.486  1.00  0.00     0.031 C 
ATOM     62  C   UNL A   1      39.822  32.336  35.163  1.00  0.00     0.031 A 
BRANCH  49  63
ATOM     63  C   UNL A   1      36.907  31.988  29.720  1.00  0.00    -0.014 A 
ATOM     64  C   UNL A   1      35.612  31.445  29.721  1.00  0.00     0.009 A 
ATOM     65  C   UNL A   1      37.190  33.063  28.863  1.00  0.00     0.009 A 
ATOM     66  C   UNL A   1      34.636  31.944  28.854  1.00  0.00     0.001 A 
ATOM     67  C   UNL A   1      36.204  33.581  28.021  1.00  0.00     0.001 A 
ATOM     68  C   UNL A   1      34.931  33.014  28.009  1.00  0.00     0.000 A 
ENDBRANCH  49  63
BRANCH  50  69
ATOM     69  C   UNL A   1      44.313  28.278  35.335  1.00  0.00    -0.014 A 
ATOM     70  C   UNL A   1      44.112  27.202  36.211  1.00  0.00     0.009 A 
ATOM     71  C   UNL A   1      45.591  28.856  35.253  1.00  0.00     0.009 A 
ATOM     72  C   UNL A   1      45.160  26.730  37.004  1.00  0.00     0.001 A 
ATOM     73  C   UNL A   1      46.646  28.358  36.020  1.00  0.00     0.001 A 
ATOM     74  C   UNL A   1      46.428  27.303  36.903  1.00  0.00     0.000 A 
ENDBRANCH  50  69
BRANCH  62  75
ATOM     75  C   UNL A   1      39.538  33.247  36.324  1.00  0.00    -0.014 A 
ATOM     76  C   UNL A   1      40.060  34.549  36.375  1.00  0.00     0.009 A 
ATOM     77  C   UNL A   1      38.709  32.805  37.366  1.00  0.00     0.009 A 
ATOM     78  C   UNL A   1      39.785  35.377  37.464  1.00  0.00     0.001 A 
ATOM     79  C   UNL A   1      38.407  33.647  38.437  1.00  0.00     0.001 A 
ATOM     80  C   UNL A   1      38.954  34.928  38.491  1.00  0.00     0.000 A 
ENDBRANCH  62  75
ENDBRANCH  36  37
ENDBRANCH  29  31
ENDBRANCH  28  29
ENDBRANCH  27  28
ENDBRANCH  26  27
ENDBRANCH   1  26
TORSDOF 16
ENDMDL
