MODEL 1
REMARK VINA RESULT:      -8.9      0.000      0.000
REMARK SMILES COC[C@@H](C)CC(=O)N1CC(CC(=O)OCCOC(=O)c2ccc(-c3c4nc(c(-c5ccccc5)c5ccc([nH]5)c(-c5ccccc5)c5nc(c(-c6ccccc6)c6ccc3[nH]6)C=C5)C=C4)cc2)C1
REMARK SMILES IDX 15 1 13 2 14 3 12 4 11 5 7 6 8 7 9 8 10 9 69 10 6 11 4 12
REMARK SMILES IDX 5 13 3 14 2 15 1 16 16 17 17 18 18 19 19 20 20 21 21 22
REMARK SMILES IDX 22 23 68 24 23 25 67 26 24 27 25 28 26 29 61 30 27 31 66 32
REMARK SMILES IDX 60 33 62 34 28 35 65 36 59 37 58 38 29 40 51 41 36 42 50 43
REMARK SMILES IDX 37 44 40 45 49 46 63 47 38 48 39 49 48 51 64 52 41 53 30 54
REMARK SMILES IDX 31 55 35 56 32 57 34 58 33 59 52 60 53 61 57 62 54 63 56 64
REMARK SMILES IDX 55 65 42 66 43 67 47 68 44 69 46 70 45 71
REMARK H PARENT 62 39 40 50
REMARK Flexibility Score: inf
ROOT
ATOM      1  O   UNL A   1      32.179  30.558  27.384  1.00  0.00    -0.462 OA
ENDROOT
BRANCH   1   2
ATOM      2  C   UNL A   1      33.407  30.014  27.185  1.00  0.00     0.306 C 
ATOM      3  O   UNL A   1      34.435  30.646  26.981  1.00  0.00    -0.252 OA
BRANCH   2   4
ATOM      4  C   UNL A   1      33.360  28.498  27.206  1.00  0.00     0.130 C 
BRANCH   4   5
ATOM      5  C   UNL A   1      33.225  27.854  25.832  1.00  0.00     0.039 C 
ATOM      6  C   UNL A   1      31.213  27.718  23.189  1.00  0.00     0.222 C 
ATOM      7  O   UNL A   1      31.898  27.499  22.193  1.00  0.00    -0.275 OA
ATOM      8  N   UNL A   1      31.733  28.129  24.396  1.00  0.00    -0.342 N 
ATOM      9  C   UNL A   1      33.041  28.749  24.606  1.00  0.00     0.125 C 
ATOM     10  C   UNL A   1      31.855  27.252  25.553  1.00  0.00     0.125 C 
BRANCH   6  11
ATOM     11  C   UNL A   1      29.694  27.722  23.143  1.00  0.00     0.106 C 
BRANCH  11  12
ATOM     12  C   UNL A   1      28.984  29.083  23.075  1.00  0.00     0.021 C 
ATOM     13  C   UNL A   1      27.468  28.834  23.039  1.00  0.00     0.010 C 
BRANCH  12  14
ATOM     14  C   UNL A   1      29.412  29.923  21.857  1.00  0.00     0.163 C 
BRANCH  14  15
ATOM     15  O   UNL A   1      28.313  30.689  21.365  1.00  0.00    -0.384 OA
ATOM     16  C   UNL A   1      28.453  32.089  21.554  1.00  0.00     0.194 C 
ENDBRANCH  14  15
ENDBRANCH  12  14
ENDBRANCH  11  12
ENDBRANCH   6  11
ENDBRANCH   4   5
ENDBRANCH   2   4
ENDBRANCH   1   2
BRANCH   1  17
ATOM     17  C   UNL A   1      31.741  31.572  26.459  1.00  0.00     0.274 C 
BRANCH  17  18
ATOM     18  C   UNL A   1      31.577  32.920  27.165  1.00  0.00     0.275 C 
BRANCH  18  19
ATOM     19  O   UNL A   1      32.839  33.605  27.248  1.00  0.00    -0.458 OA
BRANCH  19  20
ATOM     20  C   UNL A   1      33.173  34.054  28.476  1.00  0.00     0.338 C 
ATOM     21  O   UNL A   1      32.482  34.713  29.243  1.00  0.00    -0.246 OA
BRANCH  20  22
ATOM     22  C   UNL A   1      34.480  33.504  28.848  1.00  0.00     0.060 A 
ATOM     23  C   UNL A   1      34.572  32.741  30.015  1.00  0.00     0.016 A 
ATOM     24  C   UNL A   1      35.615  33.775  28.083  1.00  0.00     0.016 A 
ATOM     25  C   UNL A   1      35.803  32.249  30.433  1.00  0.00     0.010 A 
ATOM     26  C   UNL A   1      36.850  33.266  28.495  1.00  0.00     0.010 A 
ATOM     27  C   UNL A   1      36.950  32.506  29.673  1.00  0.00    -0.014 A 
BRANCH  27  28
ATOM     28  C   UNL A   1      38.255  31.975  30.122  1.00  0.00     0.031 A 
ATOM     29  C   UNL A   1      38.760  30.668  29.591  1.00  0.00     0.074 A 
ATOM     30  C   UNL A   1      38.991  32.685  30.996  1.00  0.00     0.049 A 
ATOM     31  N   UNL A   1      39.841  30.008  29.920  1.00  0.00    -0.248 NA
ATOM     32  C   UNL A   1      37.946  30.019  28.552  1.00  0.00     0.031 C 
ATOM     33  C   UNL A   1      38.629  33.994  31.541  1.00  0.00     0.029 A 
ATOM     34  N   UNL A   1      40.199  32.400  31.581  1.00  0.00    -0.354 N 
ATOM     35  C   UNL A   1      39.829  28.858  29.142  1.00  0.00     0.074 A 
ATOM     36  C   UNL A   1      38.629  28.903  28.335  1.00  0.00     0.031 C 
ATOM     37  C   UNL A   1      39.596  34.401  32.380  1.00  0.00     0.029 A 
ATOM     38  C   UNL A   1      40.617  33.361  32.467  1.00  0.00     0.049 A 
ATOM     39  H   UNL A   1      40.716  31.586  31.384  1.00  0.00     0.167 HD
ATOM     40  C   UNL A   1      40.739  27.854  29.107  1.00  0.00     0.031 A 
ATOM     41  C   UNL A   1      41.686  33.386  33.284  1.00  0.00     0.031 A 
ATOM     42  C   UNL A   1      41.928  27.810  29.915  1.00  0.00     0.049 A 
ATOM     43  C   UNL A   1      42.630  32.219  33.292  1.00  0.00     0.074 A 
ATOM     44  C   UNL A   1      42.919  26.844  29.939  1.00  0.00     0.029 A 
ATOM     45  N   UNL A   1      42.284  28.772  30.847  1.00  0.00    -0.354 N 
ATOM     46  N   UNL A   1      42.607  31.135  32.555  1.00  0.00    -0.248 NA
ATOM     47  C   UNL A   1      43.740  32.274  34.253  1.00  0.00     0.031 C 
ATOM     48  C   UNL A   1      43.850  27.197  30.923  1.00  0.00     0.029 A 
ATOM     49  C   UNL A   1      43.462  28.406  31.477  1.00  0.00     0.049 A 
ATOM     50  H   UNL A   1      41.774  29.594  31.034  1.00  0.00     0.167 HD
ATOM     51  C   UNL A   1      43.702  30.382  32.956  1.00  0.00     0.074 A 
ATOM     52  C   UNL A   1      44.379  31.142  33.987  1.00  0.00     0.031 C 
ATOM     53  C   UNL A   1      44.109  29.168  32.513  1.00  0.00     0.031 A 
BRANCH  40  54
ATOM     54  C   UNL A   1      40.455  26.702  28.189  1.00  0.00    -0.014 A 
ATOM     55  C   UNL A   1      39.651  25.626  28.597  1.00  0.00     0.009 A 
ATOM     56  C   UNL A   1      40.979  26.706  26.887  1.00  0.00     0.009 A 
ATOM     57  C   UNL A   1      39.400  24.563  27.726  1.00  0.00     0.001 A 
ATOM     58  C   UNL A   1      40.711  25.652  26.013  1.00  0.00     0.001 A 
ATOM     59  C   UNL A   1      39.928  24.578  26.435  1.00  0.00     0.000 A 
ENDBRANCH  40  54
BRANCH  41  60
ATOM     60  C   UNL A   1      41.892  34.539  34.197  1.00  0.00    -0.014 A 
ATOM     61  C   UNL A   1      41.393  34.510  35.506  1.00  0.00     0.009 A 
ATOM     62  C   UNL A   1      42.593  35.674  33.758  1.00  0.00     0.009 A 
ATOM     63  C   UNL A   1      41.581  35.603  36.356  1.00  0.00     0.001 A 
ATOM     64  C   UNL A   1      42.798  36.754  34.618  1.00  0.00     0.001 A 
ATOM     65  C   UNL A   1      42.287  36.721  35.914  1.00  0.00     0.000 A 
ENDBRANCH  41  60
BRANCH  53  66
ATOM     66  C   UNL A   1      45.347  28.596  33.141  1.00  0.00    -0.014 A 
ATOM     67  C   UNL A   1      45.263  27.752  34.259  1.00  0.00     0.009 A 
ATOM     68  C   UNL A   1      46.606  28.880  32.591  1.00  0.00     0.009 A 
ATOM     69  C   UNL A   1      46.421  27.224  34.830  1.00  0.00     0.001 A 
ATOM     70  C   UNL A   1      47.760  28.332  33.151  1.00  0.00     0.001 A 
ATOM     71  C   UNL A   1      47.668  27.512  34.274  1.00  0.00     0.000 A 
ENDBRANCH  53  66
ENDBRANCH  27  28
ENDBRANCH  20  22
ENDBRANCH  19  20
ENDBRANCH  18  19
ENDBRANCH  17  18
ENDBRANCH   1  17
TORSDOF 16
ENDMDL
MODEL 2
REMARK VINA RESULT:      -8.9      0.551      6.225
REMARK SMILES COC[C@@H](C)CC(=O)N1CC(CC(=O)OCCOC(=O)c2ccc(-c3c4nc(c(-c5ccccc5)c5ccc([nH]5)c(-c5ccccc5)c5nc(c(-c6ccccc6)c6ccc3[nH]6)C=C5)C=C4)cc2)C1
REMARK SMILES IDX 15 1 13 2 14 3 12 4 11 5 7 6 8 7 9 8 10 9 69 10 6 11 4 12
REMARK SMILES IDX 5 13 3 14 2 15 1 16 16 17 17 18 18 19 19 20 20 21 21 22
REMARK SMILES IDX 22 23 68 24 23 25 67 26 24 27 25 28 26 29 61 30 27 31 66 32
REMARK SMILES IDX 60 33 62 34 28 35 65 36 59 37 58 38 29 40 51 41 36 42 50 43
REMARK SMILES IDX 37 44 40 45 49 46 63 47 38 48 39 49 48 51 64 52 41 53 30 54
REMARK SMILES IDX 31 55 35 56 32 57 34 58 33 59 52 60 53 61 57 62 54 63 56 64
REMARK SMILES IDX 55 65 42 66 43 67 47 68 44 69 46 70 45 71
REMARK H PARENT 62 39 40 50
REMARK Flexibility Score: inf
ROOT
ATOM      1  O   UNL A   1      32.534  30.520  27.582  1.00  0.00    -0.462 OA
ENDROOT
BRANCH   1   2
ATOM      2  C   UNL A   1      33.731  29.961  27.266  1.00  0.00     0.306 C 
ATOM      3  O   UNL A   1      34.753  30.582  27.004  1.00  0.00    -0.252 OA
BRANCH   2   4
ATOM      4  C   UNL A   1      33.653  28.447  27.238  1.00  0.00     0.130 C 
BRANCH   4   5
ATOM      5  C   UNL A   1      33.752  27.839  25.844  1.00  0.00     0.039 C 
ATOM      6  C   UNL A   1      32.048  27.495  23.009  1.00  0.00     0.222 C 
ATOM      7  O   UNL A   1      32.851  27.417  22.084  1.00  0.00    -0.275 OA
ATOM      8  N   UNL A   1      32.380  27.937  24.271  1.00  0.00    -0.342 N 
ATOM      9  C   UNL A   1      33.552  28.739  24.624  1.00  0.00     0.125 C 
ATOM     10  C   UNL A   1      32.523  27.048  25.416  1.00  0.00     0.125 C 
BRANCH   6  11
ATOM     11  C   UNL A   1      30.558  27.273  22.811  1.00  0.00     0.106 C 
BRANCH  11  12
ATOM     12  C   UNL A   1      29.609  28.431  23.156  1.00  0.00     0.021 C 
ATOM     13  C   UNL A   1      28.180  27.873  23.246  1.00  0.00     0.010 C 
BRANCH  12  14
ATOM     14  C   UNL A   1      29.666  29.580  22.131  1.00  0.00     0.163 C 
BRANCH  14  15
ATOM     15  O   UNL A   1      28.379  29.808  21.562  1.00  0.00    -0.384 OA
ATOM     16  C   UNL A   1      28.231  31.083  20.955  1.00  0.00     0.194 C 
ENDBRANCH  14  15
ENDBRANCH  12  14
ENDBRANCH  11  12
ENDBRANCH   6  11
ENDBRANCH   4   5
ENDBRANCH   2   4
ENDBRANCH   1   2
BRANCH   1  17
ATOM     17  C   UNL A   1      31.868  31.291  26.563  1.00  0.00     0.274 C 
BRANCH  17  18
ATOM     18  C   UNL A   1      31.624  32.726  27.036  1.00  0.00     0.275 C 
BRANCH  18  19
ATOM     19  O   UNL A   1      32.852  33.475  27.036  1.00  0.00    -0.458 OA
BRANCH  19  20
ATOM     20  C   UNL A   1      33.148  34.100  28.195  1.00  0.00     0.338 C 
ATOM     21  O   UNL A   1      32.475  34.937  28.784  1.00  0.00    -0.246 OA
BRANCH  20  22
ATOM     22  C   UNL A   1      34.369  33.514  28.756  1.00  0.00     0.060 A 
ATOM     23  C   UNL A   1      35.586  33.781  28.122  1.00  0.00     0.016 A 
ATOM     24  C   UNL A   1      34.315  32.670  29.866  1.00  0.00     0.016 A 
ATOM     25  C   UNL A   1      36.758  33.199  28.588  1.00  0.00     0.010 A 
ATOM     26  C   UNL A   1      35.497  32.098  30.344  1.00  0.00     0.010 A 
ATOM     27  C   UNL A   1      36.722  32.356  29.705  1.00  0.00    -0.014 A 
BRANCH  27  28
ATOM     28  C   UNL A   1      37.975  31.745  30.198  1.00  0.00     0.031 A 
ATOM     29  C   UNL A   1      38.775  32.422  31.269  1.00  0.00     0.074 A 
ATOM     30  C   UNL A   1      38.380  30.567  29.688  1.00  0.00     0.049 A 
ATOM     31  N   UNL A   1      39.931  32.079  31.774  1.00  0.00    -0.248 NA
ATOM     32  C   UNL A   1      38.197  33.643  31.850  1.00  0.00     0.031 C 
ATOM     33  C   UNL A   1      37.658  29.788  28.681  1.00  0.00     0.029 A 
ATOM     34  N   UNL A   1      39.502  29.822  29.949  1.00  0.00    -0.354 N 
ATOM     35  C   UNL A   1      40.229  33.050  32.722  1.00  0.00     0.074 A 
ATOM     36  C   UNL A   1      39.140  34.002  32.710  1.00  0.00     0.031 C 
ATOM     37  C   UNL A   1      38.355  28.672  28.410  1.00  0.00     0.029 A 
ATOM     38  C   UNL A   1      39.591  28.684  29.187  1.00  0.00     0.049 A 
ATOM     39  H   UNL A   1      40.177  30.079  30.617  1.00  0.00     0.167 HD
ATOM     40  C   UNL A   1      41.316  33.137  33.526  1.00  0.00     0.031 A 
ATOM     41  C   UNL A   1      40.574  27.770  29.100  1.00  0.00     0.031 A 
ATOM     42  C   UNL A   1      42.400  32.191  33.529  1.00  0.00     0.049 A 
ATOM     43  C   UNL A   1      41.810  27.941  29.935  1.00  0.00     0.074 A 
ATOM     44  C   UNL A   1      43.537  32.185  34.319  1.00  0.00     0.029 A 
ATOM     45  N   UNL A   1      42.484  31.086  32.697  1.00  0.00    -0.354 N 
ATOM     46  N   UNL A   1      42.083  28.864  30.824  1.00  0.00    -0.248 NA
ATOM     47  C   UNL A   1      42.877  26.949  29.746  1.00  0.00     0.031 C 
ATOM     48  C   UNL A   1      44.334  31.102  33.929  1.00  0.00     0.029 A 
ATOM     49  C   UNL A   1      43.670  30.409  32.930  1.00  0.00     0.049 A 
ATOM     50  H   UNL A   1      41.802  30.821  32.039  1.00  0.00     0.167 HD
ATOM     51  C   UNL A   1      43.349  28.561  31.307  1.00  0.00     0.074 A 
ATOM     52  C   UNL A   1      43.781  27.357  30.627  1.00  0.00     0.031 C 
ATOM     53  C   UNL A   1      44.088  29.223  32.229  1.00  0.00     0.031 A 
BRANCH  40  54
ATOM     54  C   UNL A   1      41.401  34.324  34.439  1.00  0.00    -0.014 A 
ATOM     55  C   UNL A   1      41.988  35.528  34.019  1.00  0.00     0.009 A 
ATOM     56  C   UNL A   1      40.860  34.245  35.732  1.00  0.00     0.009 A 
ATOM     57  C   UNL A   1      42.057  36.620  34.887  1.00  0.00     0.001 A 
ATOM     58  C   UNL A   1      40.912  35.345  36.589  1.00  0.00     0.001 A 
ATOM     59  C   UNL A   1      41.517  36.528  36.170  1.00  0.00     0.000 A 
ENDBRANCH  40  54
BRANCH  41  60
ATOM     60  C   UNL A   1      40.448  26.637  28.148  1.00  0.00    -0.014 A 
ATOM     61  C   UNL A   1      40.956  26.739  26.846  1.00  0.00     0.009 A 
ATOM     62  C   UNL A   1      39.819  25.445  28.544  1.00  0.00     0.009 A 
ATOM     63  C   UNL A   1      40.824  25.674  25.953  1.00  0.00     0.001 A 
ATOM     64  C   UNL A   1      39.711  24.375  27.656  1.00  0.00     0.001 A 
ATOM     65  C   UNL A   1      40.206  24.491  26.359  1.00  0.00     0.000 A 
ENDBRANCH  41  60
BRANCH  53  66
ATOM     66  C   UNL A   1      45.437  28.651  32.556  1.00  0.00    -0.014 A 
ATOM     67  C   UNL A   1      45.585  27.681  33.560  1.00  0.00     0.009 A 
ATOM     68  C   UNL A   1      46.567  29.062  31.832  1.00  0.00     0.009 A 
ATOM     69  C   UNL A   1      46.843  27.154  33.851  1.00  0.00     0.001 A 
ATOM     70  C   UNL A   1      47.820  28.518  32.110  1.00  0.00     0.001 A 
ATOM     71  C   UNL A   1      47.959  27.571  33.123  1.00  0.00     0.000 A 
ENDBRANCH  53  66
ENDBRANCH  27  28
ENDBRANCH  20  22
ENDBRANCH  19  20
ENDBRANCH  18  19
ENDBRANCH  17  18
ENDBRANCH   1  17
TORSDOF 16
ENDMDL
MODEL 3
REMARK VINA RESULT:      -8.8      5.708     11.223
REMARK SMILES COC[C@@H](C)CC(=O)N1CC(CC(=O)OCCOC(=O)c2ccc(-c3c4nc(c(-c5ccccc5)c5ccc([nH]5)c(-c5ccccc5)c5nc(c(-c6ccccc6)c6ccc3[nH]6)C=C5)C=C4)cc2)C1
REMARK SMILES IDX 15 1 13 2 14 3 12 4 11 5 7 6 8 7 9 8 10 9 69 10 6 11 4 12
REMARK SMILES IDX 5 13 3 14 2 15 1 16 16 17 17 18 18 19 19 20 20 21 21 22
REMARK SMILES IDX 22 23 68 24 23 25 67 26 24 27 25 28 26 29 61 30 27 31 66 32
REMARK SMILES IDX 60 33 62 34 28 35 65 36 59 37 58 38 29 40 51 41 36 42 50 43
REMARK SMILES IDX 37 44 40 45 49 46 63 47 38 48 39 49 48 51 64 52 41 53 30 54
REMARK SMILES IDX 31 55 35 56 32 57 34 58 33 59 52 60 53 61 57 62 54 63 56 64
REMARK SMILES IDX 55 65 42 66 43 67 47 68 44 69 46 70 45 71
REMARK H PARENT 62 39 40 50
REMARK Flexibility Score: inf
ROOT
ATOM      1  O   UNL A   1      42.699  19.467  25.009  1.00  0.00    -0.462 OA
ENDROOT
BRANCH   1   2
ATOM      2  C   UNL A   1      43.992  19.053  25.040  1.00  0.00     0.306 C 
ATOM      3  O   UNL A   1      44.388  18.009  25.540  1.00  0.00    -0.252 OA
BRANCH   2   4
ATOM      4  C   UNL A   1      44.921  20.068  24.402  1.00  0.00     0.130 C 
BRANCH   4   5
ATOM      5  C   UNL A   1      44.713  21.499  24.882  1.00  0.00     0.039 C 
ATOM      6  C   UNL A   1      46.072  24.531  24.751  1.00  0.00     0.222 C 
ATOM      7  O   UNL A   1      45.172  25.361  24.837  1.00  0.00    -0.275 OA
ATOM      8  N   UNL A   1      45.857  23.199  24.473  1.00  0.00    -0.342 N 
ATOM      9  C   UNL A   1      44.660  22.629  23.854  1.00  0.00     0.125 C 
ATOM     10  C   UNL A   1      45.955  22.148  25.478  1.00  0.00     0.125 C 
BRANCH   6  11
ATOM     11  C   UNL A   1      47.540  24.921  24.774  1.00  0.00     0.106 C 
BRANCH  11  12
ATOM     12  C   UNL A   1      47.953  26.103  25.665  1.00  0.00     0.021 C 
ATOM     13  C   UNL A   1      48.144  27.338  24.771  1.00  0.00     0.010 C 
BRANCH  12  14
ATOM     14  C   UNL A   1      49.237  25.828  26.470  1.00  0.00     0.163 C 
BRANCH  14  15
ATOM     15  O   UNL A   1      48.918  25.326  27.767  1.00  0.00    -0.384 OA
ATOM     16  C   UNL A   1      50.051  25.073  28.585  1.00  0.00     0.194 C 
ENDBRANCH  14  15
ENDBRANCH  12  14
ENDBRANCH  11  12
ENDBRANCH   6  11
ENDBRANCH   4   5
ENDBRANCH   2   4
ENDBRANCH   1   2
BRANCH   1  17
ATOM     17  C   UNL A   1      41.877  19.173  26.156  1.00  0.00     0.274 C 
BRANCH  17  18
ATOM     18  C   UNL A   1      41.743  20.401  27.060  1.00  0.00     0.275 C 
BRANCH  18  19
ATOM     19  O   UNL A   1      41.600  21.596  26.272  1.00  0.00    -0.458 OA
BRANCH  19  20
ATOM     20  C   UNL A   1      40.461  22.291  26.479  1.00  0.00     0.338 C 
ATOM     21  O   UNL A   1      39.314  21.862  26.473  1.00  0.00    -0.246 OA
BRANCH  20  22
ATOM     22  C   UNL A   1      40.803  23.662  26.871  1.00  0.00     0.060 A 
ATOM     23  C   UNL A   1      41.337  23.874  28.145  1.00  0.00     0.016 A 
ATOM     24  C   UNL A   1      40.556  24.735  26.014  1.00  0.00     0.016 A 
ATOM     25  C   UNL A   1      41.620  25.164  28.577  1.00  0.00     0.010 A 
ATOM     26  C   UNL A   1      40.857  26.030  26.443  1.00  0.00     0.010 A 
ATOM     27  C   UNL A   1      41.386  26.251  27.727  1.00  0.00    -0.014 A 
BRANCH  27  28
ATOM     28  C   UNL A   1      41.695  27.621  28.192  1.00  0.00     0.031 A 
ATOM     29  C   UNL A   1      43.114  28.098  28.240  1.00  0.00     0.074 A 
ATOM     30  C   UNL A   1      40.689  28.438  28.553  1.00  0.00     0.049 A 
ATOM     31  N   UNL A   1      43.587  29.233  28.686  1.00  0.00    -0.248 NA
ATOM     32  C   UNL A   1      44.137  27.180  27.716  1.00  0.00     0.031 C 
ATOM     33  C   UNL A   1      39.265  28.103  28.498  1.00  0.00     0.029 A 
ATOM     34  N   UNL A   1      40.714  29.720  29.041  1.00  0.00    -0.354 N 
ATOM     35  C   UNL A   1      44.962  29.161  28.512  1.00  0.00     0.074 A 
ATOM     36  C   UNL A   1      45.250  27.866  27.934  1.00  0.00     0.031 C 
ATOM     37  C   UNL A   1      38.553  29.155  28.933  1.00  0.00     0.029 A 
ATOM     38  C   UNL A   1      39.471  30.214  29.342  1.00  0.00     0.049 A 
ATOM     39  H   UNL A   1      41.545  30.234  29.164  1.00  0.00     0.167 HD
ATOM     40  C   UNL A   1      45.900  30.093  28.812  1.00  0.00     0.031 A 
ATOM     41  C   UNL A   1      39.111  31.378  29.915  1.00  0.00     0.031 A 
ATOM     42  C   UNL A   1      45.610  31.377  29.392  1.00  0.00     0.049 A 
ATOM     43  C   UNL A   1      40.178  32.354  30.321  1.00  0.00     0.074 A 
ATOM     44  C   UNL A   1      46.490  32.395  29.717  1.00  0.00     0.029 A 
ATOM     45  N   UNL A   1      44.343  31.815  29.742  1.00  0.00    -0.354 N 
ATOM     46  N   UNL A   1      41.475  32.274  30.156  1.00  0.00    -0.248 NA
ATOM     47  C   UNL A   1      39.728  33.575  31.004  1.00  0.00     0.031 C 
ATOM     48  C   UNL A   1      45.759  33.432  30.309  1.00  0.00     0.029 A 
ATOM     49  C   UNL A   1      44.420  33.076  30.310  1.00  0.00     0.049 A 
ATOM     50  H   UNL A   1      43.511  31.307  29.606  1.00  0.00     0.167 HD
ATOM     51  C   UNL A   1      41.998  33.437  30.706  1.00  0.00     0.074 A 
ATOM     52  C   UNL A   1      40.876  34.214  31.191  1.00  0.00     0.031 C 
ATOM     53  C   UNL A   1      43.293  33.824  30.803  1.00  0.00     0.031 A 
BRANCH  40  54
ATOM     54  C   UNL A   1      47.333  29.733  28.551  1.00  0.00    -0.014 A 
ATOM     55  C   UNL A   1      48.084  29.006  29.487  1.00  0.00     0.009 A 
ATOM     56  C   UNL A   1      47.932  30.105  27.338  1.00  0.00     0.009 A 
ATOM     57  C   UNL A   1      49.418  28.683  29.224  1.00  0.00     0.001 A 
ATOM     58  C   UNL A   1      49.258  29.764  27.069  1.00  0.00     0.001 A 
ATOM     59  C   UNL A   1      50.002  29.060  28.015  1.00  0.00     0.000 A 
ENDBRANCH  40  54
BRANCH  41  60
ATOM     60  C   UNL A   1      37.679  31.659  30.182  1.00  0.00    -0.014 A 
ATOM     61  C   UNL A   1      37.098  31.307  31.408  1.00  0.00     0.009 A 
ATOM     62  C   UNL A   1      36.886  32.286  29.207  1.00  0.00     0.009 A 
ATOM     63  C   UNL A   1      35.746  31.564  31.647  1.00  0.00     0.001 A 
ATOM     64  C   UNL A   1      35.542  32.563  29.459  1.00  0.00     0.001 A 
ATOM     65  C   UNL A   1      34.971  32.196  30.676  1.00  0.00     0.000 A 
ENDBRANCH  41  60
BRANCH  53  66
ATOM     66  C   UNL A   1      43.557  35.151  31.454  1.00  0.00    -0.014 A 
ATOM     67  C   UNL A   1      43.764  36.304  30.681  1.00  0.00     0.009 A 
ATOM     68  C   UNL A   1      43.570  35.254  32.853  1.00  0.00     0.009 A 
ATOM     69  C   UNL A   1      44.005  37.532  31.298  1.00  0.00     0.001 A 
ATOM     70  C   UNL A   1      43.789  36.487  33.467  1.00  0.00     0.001 A 
ATOM     71  C   UNL A   1      44.014  37.623  32.691  1.00  0.00     0.000 A 
ENDBRANCH  53  66
ENDBRANCH  27  28
ENDBRANCH  20  22
ENDBRANCH  19  20
ENDBRANCH  18  19
ENDBRANCH  17  18
ENDBRANCH   1  17
TORSDOF 16
ENDMDL
