MODEL 1
REMARK VINA RESULT:      -9.9      0.000      0.000
REMARK SMILES [N-]=[N+]=NC[C@@H](Nc1ccccc1Br)C(=O)OCCOC(=O)c1ccc(-c2c3nc(c(-c4ccccc4)c4ccc([nH]4)c(-c4ccccc4)c4nc(c(-c5ccccc5)c5ccc2[nH]5)C=C4)C=C3)cc1
REMARK SMILES IDX 17 1 16 2 14 3 15 4 5 5 4 6 3 7 1 8 2 9 6 10 7 12 8 13 12 14
REMARK SMILES IDX 9 15 11 16 13 17 10 18 18 19 19 20 20 21 21 22 22 23 23 24
REMARK SMILES IDX 69 25 24 26 68 27 25 28 26 29 27 30 62 31 28 32 67 33 61 34
REMARK SMILES IDX 63 35 29 36 66 37 60 38 59 39 30 41 52 42 37 43 51 44 38 45
REMARK SMILES IDX 41 46 50 47 64 48 39 49 40 50 49 52 65 53 42 54 31 55 32 56
REMARK SMILES IDX 36 57 33 58 35 59 34 60 53 61 54 62 58 63 55 64 57 65 56 66
REMARK SMILES IDX 43 67 44 68 48 69 45 70 47 71 46 72
REMARK H PARENT 6 11 63 40 41 51
REMARK Flexibility Score: inf
ROOT
ATOM      1  C   UNL A   1      36.106  20.366  25.030  1.00  0.00     0.274 C 
ENDROOT
BRANCH   1   2
ATOM      2  O   UNL A   1      35.759  21.415  25.960  1.00  0.00    -0.461 OA
BRANCH   2   3
ATOM      3  C   UNL A   1      34.534  21.976  25.747  1.00  0.00     0.328 C 
ATOM      4  O   UNL A   1      34.350  22.891  24.950  1.00  0.00    -0.250 OA
BRANCH   3   5
ATOM      5  C   UNL A   1      33.406  21.365  26.606  1.00  0.00     0.195 C 
BRANCH   5   6
ATOM      6  C   UNL A   1      32.912  22.360  27.674  1.00  0.00     0.127 C 
BRANCH   6   7
ATOM      7  N   UNL A   1      31.579  22.902  27.324  1.00  0.00    -0.091 NA
ATOM      8  N   UNL A   1      31.544  25.184  26.648  1.00  0.00    -0.003 NA
ATOM      9  N   UNL A   1      31.544  24.097  26.984  1.00  0.00     0.001 N 
ENDBRANCH   6   7
ENDBRANCH   5   6
BRANCH   5  10
ATOM     10  N   UNL A   1      32.280  20.764  25.840  1.00  0.00    -0.371 N 
ATOM     11  H   UNL A   1      31.356  21.070  25.991  1.00  0.00     0.161 HD
BRANCH  10  12
ATOM     12  C   UNL A   1      32.545  19.767  24.907  1.00  0.00     0.049 A 
ATOM     13  C   UNL A   1      32.901  18.500  25.385  1.00  0.00     0.027 A 
ATOM     14  C   UNL A   1      32.335  19.924  23.524  1.00  0.00     0.041 A 
ATOM     15  C   UNL A   1      32.952  17.402  24.527  1.00  0.00     0.002 A 
ATOM     16  C   UNL A   1      32.334  18.816  22.673  1.00  0.00     0.018 A 
ATOM     17  Br  UNL A   1      32.137  21.646  22.732  1.00  0.00    -0.049 Br
ATOM     18  C   UNL A   1      32.629  17.553  23.180  1.00  0.00     0.001 A 
ENDBRANCH  10  12
ENDBRANCH   5  10
ENDBRANCH   3   5
ENDBRANCH   2   3
ENDBRANCH   1   2
BRANCH   1  19
ATOM     19  C   UNL A   1      37.618  20.115  24.920  1.00  0.00     0.275 C 
BRANCH  19  20
ATOM     20  O   UNL A   1      38.422  21.267  25.250  1.00  0.00    -0.458 OA
BRANCH  20  21
ATOM     21  C   UNL A   1      39.433  21.030  26.118  1.00  0.00     0.338 C 
ATOM     22  O   UNL A   1      39.974  19.957  26.336  1.00  0.00    -0.246 OA
BRANCH  21  23
ATOM     23  C   UNL A   1      39.940  22.289  26.690  1.00  0.00     0.060 A 
ATOM     24  C   UNL A   1      39.452  23.494  26.171  1.00  0.00     0.016 A 
ATOM     25  C   UNL A   1      40.964  22.296  27.632  1.00  0.00     0.016 A 
ATOM     26  C   UNL A   1      39.984  24.712  26.573  1.00  0.00     0.010 A 
ATOM     27  C   UNL A   1      41.504  23.522  28.036  1.00  0.00     0.010 A 
ATOM     28  C   UNL A   1      41.029  24.732  27.496  1.00  0.00    -0.014 A 
BRANCH  28  29
ATOM     29  C   UNL A   1      41.702  26.011  27.818  1.00  0.00     0.031 A 
ATOM     30  C   UNL A   1      40.982  27.014  28.673  1.00  0.00     0.074 A 
ATOM     31  C   UNL A   1      42.940  26.267  27.359  1.00  0.00     0.049 A 
ATOM     32  N   UNL A   1      41.295  28.256  28.932  1.00  0.00    -0.248 NA
ATOM     33  C   UNL A   1      39.740  26.555  29.318  1.00  0.00     0.031 C 
ATOM     34  C   UNL A   1      43.776  25.335  26.601  1.00  0.00     0.029 A 
ATOM     35  N   UNL A   1      43.704  27.402  27.454  1.00  0.00    -0.354 N 
ATOM     36  C   UNL A   1      40.274  28.738  29.741  1.00  0.00     0.074 A 
ATOM     37  C   UNL A   1      39.323  27.662  29.916  1.00  0.00     0.031 C 
ATOM     38  C   UNL A   1      44.932  25.943  26.286  1.00  0.00     0.029 A 
ATOM     39  C   UNL A   1      44.888  27.322  26.763  1.00  0.00     0.049 A 
ATOM     40  H   UNL A   1      43.430  28.197  27.967  1.00  0.00     0.167 HD
ATOM     41  C   UNL A   1      40.144  29.970  30.287  1.00  0.00     0.031 A 
ATOM     42  C   UNL A   1      45.808  28.271  26.505  1.00  0.00     0.031 A 
ATOM     43  C   UNL A   1      41.096  31.032  30.104  1.00  0.00     0.049 A 
ATOM     44  C   UNL A   1      45.583  29.664  27.031  1.00  0.00     0.074 A 
ATOM     45  C   UNL A   1      41.056  32.322  30.602  1.00  0.00     0.029 A 
ATOM     46  N   UNL A   1      42.265  30.922  29.366  1.00  0.00    -0.354 N 
ATOM     47  N   UNL A   1      44.603  30.123  27.771  1.00  0.00    -0.248 NA
ATOM     48  C   UNL A   1      46.595  30.673  26.684  1.00  0.00     0.031 C 
ATOM     49  C   UNL A   1      42.171  33.011  30.117  1.00  0.00     0.029 A 
ATOM     50  C   UNL A   1      42.944  32.128  29.380  1.00  0.00     0.049 A 
ATOM     51  H   UNL A   1      42.567  30.109  28.902  1.00  0.00     0.167 HD
ATOM     52  C   UNL A   1      44.906  31.457  28.018  1.00  0.00     0.074 A 
ATOM     53  C   UNL A   1      46.163  31.731  27.354  1.00  0.00     0.031 C 
ATOM     54  C   UNL A   1      44.208  32.372  28.733  1.00  0.00     0.031 A 
BRANCH  41  55
ATOM     55  C   UNL A   1      38.911  30.247  31.100  1.00  0.00    -0.014 A 
ATOM     56  C   UNL A   1      38.901  30.089  32.495  1.00  0.00     0.009 A 
ATOM     57  C   UNL A   1      37.753  30.718  30.463  1.00  0.00     0.009 A 
ATOM     58  C   UNL A   1      37.747  30.370  33.230  1.00  0.00     0.001 A 
ATOM     59  C   UNL A   1      36.611  31.029  31.203  1.00  0.00     0.001 A 
ATOM     60  C   UNL A   1      36.606  30.847  32.585  1.00  0.00     0.000 A 
ENDBRANCH  41  55
BRANCH  42  61
ATOM     61  C   UNL A   1      47.004  27.961  25.676  1.00  0.00    -0.014 A 
ATOM     62  C   UNL A   1      46.910  27.908  24.277  1.00  0.00     0.009 A 
ATOM     63  C   UNL A   1      48.236  27.666  26.281  1.00  0.00     0.009 A 
ATOM     64  C   UNL A   1      48.011  27.526  23.505  1.00  0.00     0.001 A 
ATOM     65  C   UNL A   1      49.346  27.320  25.505  1.00  0.00     0.001 A 
ATOM     66  C   UNL A   1      49.228  27.235  24.120  1.00  0.00     0.000 A 
ENDBRANCH  42  61
BRANCH  54  67
ATOM     67  C   UNL A   1      44.826  33.732  28.909  1.00  0.00    -0.014 A 
ATOM     68  C   UNL A   1      44.525  34.798  28.048  1.00  0.00     0.009 A 
ATOM     69  C   UNL A   1      45.684  33.959  29.998  1.00  0.00     0.009 A 
ATOM     70  C   UNL A   1      45.098  36.055  28.256  1.00  0.00     0.001 A 
ATOM     71  C   UNL A   1      46.226  35.223  30.224  1.00  0.00     0.001 A 
ATOM     72  C   UNL A   1      45.940  36.269  29.348  1.00  0.00     0.000 A 
ENDBRANCH  54  67
ENDBRANCH  28  29
ENDBRANCH  21  23
ENDBRANCH  20  21
ENDBRANCH  19  20
ENDBRANCH   1  19
TORSDOF 15
ENDMDL
MODEL 2
REMARK VINA RESULT:      -9.9      5.560     10.426
REMARK SMILES [N-]=[N+]=NC[C@@H](Nc1ccccc1Br)C(=O)OCCOC(=O)c1ccc(-c2c3nc(c(-c4ccccc4)c4ccc([nH]4)c(-c4ccccc4)c4nc(c(-c5ccccc5)c5ccc2[nH]5)C=C4)C=C3)cc1
REMARK SMILES IDX 17 1 16 2 14 3 15 4 5 5 4 6 3 7 1 8 2 9 6 10 7 12 8 13 12 14
REMARK SMILES IDX 9 15 11 16 13 17 10 18 18 19 19 20 20 21 21 22 22 23 23 24
REMARK SMILES IDX 69 25 24 26 68 27 25 28 26 29 27 30 62 31 28 32 67 33 61 34
REMARK SMILES IDX 63 35 29 36 66 37 60 38 59 39 30 41 52 42 37 43 51 44 38 45
REMARK SMILES IDX 41 46 50 47 64 48 39 49 40 50 49 52 65 53 42 54 31 55 32 56
REMARK SMILES IDX 36 57 33 58 35 59 34 60 53 61 54 62 58 63 55 64 57 65 56 66
REMARK SMILES IDX 43 67 44 68 48 69 45 70 47 71 46 72
REMARK H PARENT 6 11 63 40 41 51
REMARK Flexibility Score: inf
ROOT
ATOM      1  C   UNL A   1      35.333  34.429  34.621  1.00  0.00     0.274 C 
ENDROOT
BRANCH   1   2
ATOM      2  O   UNL A   1      35.514  35.588  33.779  1.00  0.00    -0.461 OA
BRANCH   2   3
ATOM      3  C   UNL A   1      34.354  36.155  33.342  1.00  0.00     0.328 C 
ATOM      4  O   UNL A   1      33.828  37.112  33.903  1.00  0.00    -0.250 OA
BRANCH   3   5
ATOM      5  C   UNL A   1      33.755  35.477  32.091  1.00  0.00     0.195 C 
BRANCH   5   6
ATOM      6  C   UNL A   1      32.362  36.046  31.756  1.00  0.00     0.127 C 
BRANCH   6   7
ATOM      7  N   UNL A   1      31.309  35.389  32.562  1.00  0.00    -0.091 NA
ATOM      8  N   UNL A   1      29.881  36.856  33.775  1.00  0.00    -0.003 NA
ATOM      9  N   UNL A   1      30.566  36.143  33.213  1.00  0.00     0.001 N 
ENDBRANCH   6   7
ENDBRANCH   5   6
BRANCH   5  10
ATOM     10  N   UNL A   1      34.647  35.446  30.899  1.00  0.00    -0.371 N 
ATOM     11  H   UNL A   1      35.125  36.259  30.614  1.00  0.00     0.161 HD
BRANCH  10  12
ATOM     12  C   UNL A   1      34.799  34.258  30.192  1.00  0.00     0.049 A 
ATOM     13  C   UNL A   1      35.144  33.107  30.910  1.00  0.00     0.027 A 
ATOM     14  C   UNL A   1      34.486  34.124  28.826  1.00  0.00     0.041 A 
ATOM     15  C   UNL A   1      35.086  31.848  30.313  1.00  0.00     0.002 A 
ATOM     16  C   UNL A   1      34.377  32.860  28.242  1.00  0.00     0.018 A 
ATOM     17  Br  UNL A   1      34.291  35.642  27.691  1.00  0.00    -0.049 Br
ATOM     18  C   UNL A   1      34.664  31.722  28.992  1.00  0.00     0.001 A 
ENDBRANCH  10  12
ENDBRANCH   5  10
ENDBRANCH   3   5
ENDBRANCH   2   3
ENDBRANCH   1   2
BRANCH   1  19
ATOM     19  C   UNL A   1      36.626  33.632  34.859  1.00  0.00     0.275 C 
BRANCH  19  20
ATOM     20  O   UNL A   1      36.643  32.347  34.205  1.00  0.00    -0.458 OA
BRANCH  20  21
ATOM     21  C   UNL A   1      37.639  31.518  34.595  1.00  0.00     0.338 C 
ATOM     22  O   UNL A   1      37.842  31.101  35.725  1.00  0.00    -0.246 OA
BRANCH  21  23
ATOM     23  C   UNL A   1      38.399  31.026  33.434  1.00  0.00     0.060 A 
ATOM     24  C   UNL A   1      39.489  30.181  33.669  1.00  0.00     0.016 A 
ATOM     25  C   UNL A   1      38.130  31.481  32.147  1.00  0.00     0.016 A 
ATOM     26  C   UNL A   1      40.326  29.789  32.632  1.00  0.00     0.010 A 
ATOM     27  C   UNL A   1      38.974  31.091  31.100  1.00  0.00     0.010 A 
ATOM     28  C   UNL A   1      40.084  30.260  31.341  1.00  0.00    -0.014 A 
BRANCH  28  29
ATOM     29  C   UNL A   1      41.052  29.972  30.260  1.00  0.00     0.031 A 
ATOM     30  C   UNL A   1      40.930  28.682  29.501  1.00  0.00     0.074 A 
ATOM     31  C   UNL A   1      42.020  30.855  29.955  1.00  0.00     0.049 A 
ATOM     32  N   UNL A   1      41.760  28.142  28.648  1.00  0.00    -0.248 NA
ATOM     33  C   UNL A   1      39.711  27.891  29.743  1.00  0.00     0.031 C 
ATOM     34  C   UNL A   1      42.182  32.180  30.554  1.00  0.00     0.029 A 
ATOM     35  N   UNL A   1      43.063  30.757  29.069  1.00  0.00    -0.354 N 
ATOM     36  C   UNL A   1      41.182  26.935  28.276  1.00  0.00     0.074 A 
ATOM     37  C   UNL A   1      39.940  26.812  29.009  1.00  0.00     0.031 C 
ATOM     38  C   UNL A   1      43.271  32.766  30.030  1.00  0.00     0.029 A 
ATOM     39  C   UNL A   1      43.915  31.834  29.110  1.00  0.00     0.049 A 
ATOM     40  H   UNL A   1      43.188  29.991  28.464  1.00  0.00     0.167 HD
ATOM     41  C   UNL A   1      41.648  26.013  27.400  1.00  0.00     0.031 A 
ATOM     42  C   UNL A   1      45.106  32.021  28.509  1.00  0.00     0.031 A 
ATOM     43  C   UNL A   1      42.884  26.147  26.679  1.00  0.00     0.049 A 
ATOM     44  C   UNL A   1      45.655  30.930  27.627  1.00  0.00     0.074 A 
ATOM     45  C   UNL A   1      43.457  25.268  25.778  1.00  0.00     0.029 A 
ATOM     46  N   UNL A   1      43.738  27.236  26.777  1.00  0.00    -0.354 N 
ATOM     47  N   UNL A   1      45.119  29.779  27.300  1.00  0.00    -0.248 NA
ATOM     48  C   UNL A   1      46.978  31.166  27.030  1.00  0.00     0.031 C 
ATOM     49  C   UNL A   1      44.685  25.796  25.374  1.00  0.00     0.029 A 
ATOM     50  C   UNL A   1      44.842  27.040  25.965  1.00  0.00     0.049 A 
ATOM     51  H   UNL A   1      43.583  28.029  27.338  1.00  0.00     0.167 HD
ATOM     52  C   UNL A   1      46.014  29.178  26.424  1.00  0.00     0.074 A 
ATOM     53  C   UNL A   1      47.124  30.093  26.265  1.00  0.00     0.031 C 
ATOM     54  C   UNL A   1      45.924  27.977  25.802  1.00  0.00     0.031 A 
BRANCH  41  55
ATOM     55  C   UNL A   1      40.837  24.763  27.206  1.00  0.00    -0.014 A 
ATOM     56  C   UNL A   1      39.659  24.764  26.442  1.00  0.00     0.009 A 
ATOM     57  C   UNL A   1      41.286  23.553  27.758  1.00  0.00     0.009 A 
ATOM     58  C   UNL A   1      38.933  23.584  26.262  1.00  0.00     0.001 A 
ATOM     59  C   UNL A   1      40.576  22.370  27.549  1.00  0.00     0.001 A 
ATOM     60  C   UNL A   1      39.396  22.388  26.808  1.00  0.00     0.000 A 
ENDBRANCH  41  55
BRANCH  42  61
ATOM     61  C   UNL A   1      45.887  33.264  28.747  1.00  0.00    -0.014 A 
ATOM     62  C   UNL A   1      45.617  34.430  28.013  1.00  0.00     0.009 A 
ATOM     63  C   UNL A   1      46.943  33.279  29.673  1.00  0.00     0.009 A 
ATOM     64  C   UNL A   1      46.413  35.568  28.171  1.00  0.00     0.001 A 
ATOM     65  C   UNL A   1      47.714  34.430  29.856  1.00  0.00     0.001 A 
ATOM     66  C   UNL A   1      47.458  35.567  29.094  1.00  0.00     0.000 A 
ENDBRANCH  42  61
BRANCH  54  67
ATOM     67  C   UNL A   1      47.013  27.618  24.828  1.00  0.00    -0.014 A 
ATOM     68  C   UNL A   1      48.087  26.793  25.190  1.00  0.00     0.009 A 
ATOM     69  C   UNL A   1      46.922  28.073  23.502  1.00  0.00     0.009 A 
ATOM     70  C   UNL A   1      49.067  26.458  24.253  1.00  0.00     0.001 A 
ATOM     71  C   UNL A   1      47.882  27.709  22.559  1.00  0.00     0.001 A 
ATOM     72  C   UNL A   1      48.959  26.909  22.937  1.00  0.00     0.000 A 
ENDBRANCH  54  67
ENDBRANCH  28  29
ENDBRANCH  21  23
ENDBRANCH  20  21
ENDBRANCH  19  20
ENDBRANCH   1  19
TORSDOF 15
ENDMDL
MODEL 3
REMARK VINA RESULT:      -9.8      0.675      6.194
REMARK SMILES [N-]=[N+]=NC[C@@H](Nc1ccccc1Br)C(=O)OCCOC(=O)c1ccc(-c2c3nc(c(-c4ccccc4)c4ccc([nH]4)c(-c4ccccc4)c4nc(c(-c5ccccc5)c5ccc2[nH]5)C=C4)C=C3)cc1
REMARK SMILES IDX 17 1 16 2 14 3 15 4 5 5 4 6 3 7 1 8 2 9 6 10 7 12 8 13 12 14
REMARK SMILES IDX 9 15 11 16 13 17 10 18 18 19 19 20 20 21 21 22 22 23 23 24
REMARK SMILES IDX 69 25 24 26 68 27 25 28 26 29 27 30 62 31 28 32 67 33 61 34
REMARK SMILES IDX 63 35 29 36 66 37 60 38 59 39 30 41 52 42 37 43 51 44 38 45
REMARK SMILES IDX 41 46 50 47 64 48 39 49 40 50 49 52 65 53 42 54 31 55 32 56
REMARK SMILES IDX 36 57 33 58 35 59 34 60 53 61 54 62 58 63 55 64 57 65 56 66
REMARK SMILES IDX 43 67 44 68 48 69 45 70 47 71 46 72
REMARK H PARENT 6 11 63 40 41 51
REMARK Flexibility Score: inf
ROOT
ATOM      1  C   UNL A   1      36.143  20.422  25.026  1.00  0.00     0.274 C 
ENDROOT
BRANCH   1   2
ATOM      2  O   UNL A   1      35.696  21.525  25.843  1.00  0.00    -0.461 OA
BRANCH   2   3
ATOM      3  C   UNL A   1      34.458  21.998  25.524  1.00  0.00     0.328 C 
ATOM      4  O   UNL A   1      34.270  22.836  24.646  1.00  0.00    -0.250 OA
BRANCH   3   5
ATOM      5  C   UNL A   1      33.317  21.397  26.373  1.00  0.00     0.195 C 
BRANCH   5   6
ATOM      6  C   UNL A   1      32.742  22.434  27.357  1.00  0.00     0.127 C 
BRANCH   6   7
ATOM      7  N   UNL A   1      31.741  23.302  26.694  1.00  0.00    -0.091 NA
ATOM      8  N   UNL A   1      29.507  23.081  27.486  1.00  0.00    -0.003 NA
ATOM      9  N   UNL A   1      30.568  23.185  27.087  1.00  0.00     0.001 N 
ENDBRANCH   6   7
ENDBRANCH   5   6
BRANCH   5  10
ATOM     10  N   UNL A   1      32.248  20.706  25.601  1.00  0.00    -0.371 N 
ATOM     11  H   UNL A   1      31.313  21.009  25.667  1.00  0.00     0.161 HD
BRANCH  10  12
ATOM     12  C   UNL A   1      32.582  19.631  24.785  1.00  0.00     0.049 A 
ATOM     13  C   UNL A   1      33.025  18.453  25.401  1.00  0.00     0.027 A 
ATOM     14  C   UNL A   1      32.361  19.614  23.395  1.00  0.00     0.041 A 
ATOM     15  C   UNL A   1      33.153  17.271  24.672  1.00  0.00     0.002 A 
ATOM     16  C   UNL A   1      32.438  18.420  22.676  1.00  0.00     0.018 A 
ATOM     17  Br  UNL A   1      32.044  21.218  22.415  1.00  0.00    -0.049 Br
ATOM     18  C   UNL A   1      32.821  17.246  23.320  1.00  0.00     0.001 A 
ENDBRANCH  10  12
ENDBRANCH   5  10
ENDBRANCH   3   5
ENDBRANCH   2   3
ENDBRANCH   1   2
BRANCH   1  19
ATOM     19  C   UNL A   1      37.668  20.227  25.036  1.00  0.00     0.275 C 
BRANCH  19  20
ATOM     20  O   UNL A   1      38.405  21.432  25.326  1.00  0.00    -0.458 OA
BRANCH  20  21
ATOM     21  C   UNL A   1      39.335  21.314  26.302  1.00  0.00     0.338 C 
ATOM     22  O   UNL A   1      39.860  20.282  26.691  1.00  0.00    -0.246 OA
BRANCH  21  23
ATOM     23  C   UNL A   1      39.781  22.638  26.766  1.00  0.00     0.060 A 
ATOM     24  C   UNL A   1      39.190  23.771  26.196  1.00  0.00     0.016 A 
ATOM     25  C   UNL A   1      40.844  22.775  27.654  1.00  0.00     0.016 A 
ATOM     26  C   UNL A   1      39.656  25.046  26.492  1.00  0.00     0.010 A 
ATOM     27  C   UNL A   1      41.317  24.058  27.952  1.00  0.00     0.010 A 
ATOM     28  C   UNL A   1      40.738  25.196  27.359  1.00  0.00    -0.014 A 
BRANCH  28  29
ATOM     29  C   UNL A   1      41.336  26.534  27.564  1.00  0.00     0.031 A 
ATOM     30  C   UNL A   1      42.684  26.824  26.969  1.00  0.00     0.074 A 
ATOM     31  C   UNL A   1      40.680  27.476  28.264  1.00  0.00     0.049 A 
ATOM     32  N   UNL A   1      43.472  27.848  27.167  1.00  0.00    -0.248 NA
ATOM     33  C   UNL A   1      43.217  25.823  26.031  1.00  0.00     0.031 C 
ATOM     34  C   UNL A   1      39.328  27.345  28.808  1.00  0.00     0.029 A 
ATOM     35  N   UNL A   1      41.078  28.731  28.651  1.00  0.00    -0.354 N 
ATOM     36  C   UNL A   1      44.607  27.599  26.406  1.00  0.00     0.074 A 
ATOM     37  C   UNL A   1      44.414  26.321  25.756  1.00  0.00     0.031 C 
ATOM     38  C   UNL A   1      39.014  28.470  29.472  1.00  0.00     0.029 A 
ATOM     39  C   UNL A   1      40.164  29.369  29.454  1.00  0.00     0.049 A 
ATOM     40  H   UNL A   1      41.934  29.135  28.379  1.00  0.00     0.167 HD
ATOM     41  C   UNL A   1      45.710  28.371  26.263  1.00  0.00     0.031 A 
ATOM     42  C   UNL A   1      40.267  30.525  30.136  1.00  0.00     0.031 A 
ATOM     43  C   UNL A   1      45.890  29.640  26.916  1.00  0.00     0.049 A 
ATOM     44  C   UNL A   1      41.550  31.310  30.049  1.00  0.00     0.074 A 
ATOM     45  C   UNL A   1      46.974  30.497  26.851  1.00  0.00     0.029 A 
ATOM     46  N   UNL A   1      44.956  30.234  27.751  1.00  0.00    -0.354 N 
ATOM     47  N   UNL A   1      42.630  31.057  29.351  1.00  0.00    -0.248 NA
ATOM     48  C   UNL A   1      41.626  32.542  30.848  1.00  0.00     0.031 C 
ATOM     49  C   UNL A   1      46.721  31.583  27.693  1.00  0.00     0.029 A 
ATOM     50  C   UNL A   1      45.448  31.439  28.223  1.00  0.00     0.049 A 
ATOM     51  H   UNL A   1      44.076  29.857  27.976  1.00  0.00     0.167 HD
ATOM     52  C   UNL A   1      43.492  32.121  29.587  1.00  0.00     0.074 A 
ATOM     53  C   UNL A   1      42.807  33.024  30.488  1.00  0.00     0.031 C 
ATOM     54  C   UNL A   1      44.738  32.335  29.099  1.00  0.00     0.031 A 
BRANCH  41  55
ATOM     55  C   UNL A   1      46.823  27.846  25.400  1.00  0.00    -0.014 A 
ATOM     56  C   UNL A   1      47.862  27.069  25.935  1.00  0.00     0.009 A 
ATOM     57  C   UNL A   1      46.804  28.095  24.018  1.00  0.00     0.009 A 
ATOM     58  C   UNL A   1      48.875  26.578  25.108  1.00  0.00     0.001 A 
ATOM     59  C   UNL A   1      47.800  27.576  23.190  1.00  0.00     0.001 A 
ATOM     60  C   UNL A   1      48.839  26.825  23.736  1.00  0.00     0.000 A 
ENDBRANCH  41  55
BRANCH  42  61
ATOM     61  C   UNL A   1      39.150  30.998  30.998  1.00  0.00    -0.014 A 
ATOM     62  C   UNL A   1      39.051  30.581  32.334  1.00  0.00     0.009 A 
ATOM     63  C   UNL A   1      38.147  31.831  30.476  1.00  0.00     0.009 A 
ATOM     64  C   UNL A   1      37.953  30.951  33.114  1.00  0.00     0.001 A 
ATOM     65  C   UNL A   1      37.068  32.230  31.269  1.00  0.00     0.001 A 
ATOM     66  C   UNL A   1      36.964  31.777  32.581  1.00  0.00     0.000 A 
ENDBRANCH  42  61
BRANCH  54  67
ATOM     67  C   UNL A   1      45.411  33.632  29.459  1.00  0.00    -0.014 A 
ATOM     68  C   UNL A   1      45.230  34.795  28.698  1.00  0.00     0.009 A 
ATOM     69  C   UNL A   1      46.196  33.695  30.623  1.00  0.00     0.009 A 
ATOM     70  C   UNL A   1      45.849  35.989  29.076  1.00  0.00     0.001 A 
ATOM     71  C   UNL A   1      46.784  34.896  31.018  1.00  0.00     0.001 A 
ATOM     72  C   UNL A   1      46.618  36.040  30.240  1.00  0.00     0.000 A 
ENDBRANCH  54  67
ENDBRANCH  28  29
ENDBRANCH  21  23
ENDBRANCH  20  21
ENDBRANCH  19  20
ENDBRANCH   1  19
TORSDOF 15
ENDMDL
