MODEL 1
REMARK VINA RESULT:      -8.9      0.000      0.000
REMARK SMILES O=C(CCNC(=O)c1ccccc1OC(F)F)OCCOC(=O)c1ccc(-c2c3nc(c(-c4ccccc4)c4ccc([nH]4)c(-c4ccccc4)c4nc(c(-c5ccccc5)c5ccc2[nH]5)C=C4)C=C3)cc1
REMARK SMILES IDX 18 1 2 2 1 3 3 4 4 5 5 6 6 7 7 9 8 10 9 11 13 12 10 13 12 14
REMARK SMILES IDX 11 15 14 16 15 17 16 18 17 19 19 20 20 21 21 22 22 23 23 24
REMARK SMILES IDX 24 25 25 26 71 27 26 28 70 29 27 30 28 31 29 32 64 33 30 34
REMARK SMILES IDX 69 35 63 36 65 37 31 38 68 39 62 40 61 41 32 43 54 44 39 45
REMARK SMILES IDX 53 46 40 47 43 48 52 49 66 50 41 51 42 52 51 54 67 55 44 56
REMARK SMILES IDX 33 57 34 58 38 59 35 60 37 61 36 62 55 63 56 64 60 65 57 66
REMARK SMILES IDX 59 67 58 68 45 69 46 70 50 71 47 72 49 73 48 74
REMARK H PARENT 5 8 65 42 43 53
REMARK Flexibility Score: inf
ROOT
ATOM      1  O   UNL A   1      43.279  20.044  25.086  1.00  0.00    -0.462 OA
ENDROOT
BRANCH   1   2
ATOM      2  C   UNL A   1      44.525  19.546  24.892  1.00  0.00     0.307 C 
ATOM      3  O   UNL A   1      44.699  18.391  24.515  1.00  0.00    -0.252 OA
BRANCH   2   4
ATOM      4  C   UNL A   1      45.680  20.430  25.283  1.00  0.00     0.144 C 
BRANCH   4   5
ATOM      5  C   UNL A   1      45.984  21.497  24.251  1.00  0.00     0.128 C 
BRANCH   5   6
ATOM      6  N   UNL A   1      44.875  22.425  24.093  1.00  0.00    -0.351 N 
ATOM      7  C   UNL A   1      44.442  23.445  24.896  1.00  0.00     0.255 C 
ATOM      8  H   UNL A   1      44.348  22.297  23.271  1.00  0.00     0.163 HD
ATOM      9  O   UNL A   1      43.315  23.903  24.719  1.00  0.00    -0.269 OA
BRANCH   7  10
ATOM     10  C   UNL A   1      45.284  23.979  25.989  1.00  0.00     0.082 A 
ATOM     11  C   UNL A   1      44.990  23.517  27.284  1.00  0.00     0.018 A 
ATOM     12  C   UNL A   1      46.292  24.937  25.811  1.00  0.00     0.138 A 
ATOM     13  C   UNL A   1      45.739  23.950  28.379  1.00  0.00     0.001 A 
ATOM     14  C   UNL A   1      47.066  25.331  26.910  1.00  0.00     0.047 A 
ATOM     15  C   UNL A   1      46.788  24.845  28.188  1.00  0.00     0.004 A 
BRANCH  12  16
ATOM     16  O   UNL A   1      46.668  25.484  24.615  1.00  0.00    -0.434 OA
BRANCH  16  17
ATOM     17  C   UNL A   1      46.865  26.901  24.611  1.00  0.00     0.542 C 
ATOM     18  F   UNL A   1      47.498  27.237  23.462  1.00  0.00    -0.167 F 
ATOM     19  F   UNL A   1      45.698  27.581  24.661  1.00  0.00    -0.167 F 
ENDBRANCH  16  17
ENDBRANCH  12  16
ENDBRANCH   7  10
ENDBRANCH   5   6
ENDBRANCH   4   5
ENDBRANCH   2   4
ENDBRANCH   1   2
BRANCH   1  20
ATOM     20  C   UNL A   1      42.341  19.365  25.948  1.00  0.00     0.274 C 
BRANCH  20  21
ATOM     21  C   UNL A   1      41.651  20.321  26.923  1.00  0.00     0.275 C 
BRANCH  21  22
ATOM     22  O   UNL A   1      41.618  21.655  26.382  1.00  0.00    -0.458 OA
BRANCH  22  23
ATOM     23  C   UNL A   1      40.401  22.250  26.396  1.00  0.00     0.338 C 
ATOM     24  O   UNL A   1      39.335  21.745  26.086  1.00  0.00    -0.246 OA
BRANCH  23  25
ATOM     25  C   UNL A   1      40.510  23.586  27.030  1.00  0.00     0.060 A 
ATOM     26  C   UNL A   1      39.919  24.668  26.364  1.00  0.00     0.016 A 
ATOM     27  C   UNL A   1      41.153  23.783  28.255  1.00  0.00     0.016 A 
ATOM     28  C   UNL A   1      40.007  25.954  26.898  1.00  0.00     0.010 A 
ATOM     29  C   UNL A   1      41.252  25.075  28.785  1.00  0.00     0.010 A 
ATOM     30  C   UNL A   1      40.709  26.169  28.090  1.00  0.00    -0.014 A 
BRANCH  30  31
ATOM     31  C   UNL A   1      41.056  27.553  28.493  1.00  0.00     0.031 A 
ATOM     32  C   UNL A   1      42.503  27.962  28.449  1.00  0.00     0.074 A 
ATOM     33  C   UNL A   1      40.119  28.440  28.872  1.00  0.00     0.049 A 
ATOM     34  N   UNL A   1      43.048  29.119  28.727  1.00  0.00    -0.248 NA
ATOM     35  C   UNL A   1      43.463  26.926  28.032  1.00  0.00     0.031 C 
ATOM     36  C   UNL A   1      38.682  28.188  28.932  1.00  0.00     0.029 A 
ATOM     37  N   UNL A   1      40.253  29.744  29.282  1.00  0.00    -0.354 N 
ATOM     38  C   UNL A   1      44.409  28.953  28.509  1.00  0.00     0.074 A 
ATOM     39  C   UNL A   1      44.613  27.577  28.112  1.00  0.00     0.031 C 
ATOM     40  C   UNL A   1      38.064  29.304  29.362  1.00  0.00     0.029 A 
ATOM     41  C   UNL A   1      39.063  30.340  29.622  1.00  0.00     0.049 A 
ATOM     42  H   UNL A   1      41.119  30.208  29.327  1.00  0.00     0.167 HD
ATOM     43  C   UNL A   1      45.405  29.863  28.617  1.00  0.00     0.031 A 
ATOM     44  C   UNL A   1      38.815  31.576  30.096  1.00  0.00     0.031 A 
ATOM     45  C   UNL A   1      45.223  31.221  29.043  1.00  0.00     0.049 A 
ATOM     46  C   UNL A   1      39.952  32.544  30.297  1.00  0.00     0.074 A 
ATOM     47  C   UNL A   1      46.173  32.218  29.175  1.00  0.00     0.029 A 
ATOM     48  N   UNL A   1      44.009  31.770  29.420  1.00  0.00    -0.354 N 
ATOM     49  N   UNL A   1      41.227  32.390  30.038  1.00  0.00    -0.248 NA
ATOM     50  C   UNL A   1      39.609  33.863  30.851  1.00  0.00     0.031 C 
ATOM     51  C   UNL A   1      45.540  33.358  29.682  1.00  0.00     0.029 A 
ATOM     52  C   UNL A   1      44.190  33.084  29.815  1.00  0.00     0.049 A 
ATOM     53  H   UNL A   1      43.146  31.296  29.408  1.00  0.00     0.167 HD
ATOM     54  C   UNL A   1      41.831  33.599  30.365  1.00  0.00     0.074 A 
ATOM     55  C   UNL A   1      40.783  34.479  30.835  1.00  0.00     0.031 C 
ATOM     56  C   UNL A   1      43.137  33.950  30.278  1.00  0.00     0.031 A 
BRANCH  43  57
ATOM     57  C   UNL A   1      46.793  29.391  28.293  1.00  0.00    -0.014 A 
ATOM     58  C   UNL A   1      47.554  28.685  29.237  1.00  0.00     0.009 A 
ATOM     59  C   UNL A   1      47.342  29.654  27.030  1.00  0.00     0.009 A 
ATOM     60  C   UNL A   1      48.854  28.278  28.933  1.00  0.00     0.001 A 
ATOM     61  C   UNL A   1      48.633  29.225  26.720  1.00  0.00     0.001 A 
ATOM     62  C   UNL A   1      49.391  28.547  27.674  1.00  0.00     0.000 A 
ENDBRANCH  43  57
BRANCH  44  63
ATOM     63  C   UNL A   1      37.426  31.984  30.431  1.00  0.00    -0.014 A 
ATOM     64  C   UNL A   1      36.919  31.795  31.725  1.00  0.00     0.009 A 
ATOM     65  C   UNL A   1      36.584  32.518  29.442  1.00  0.00     0.009 A 
ATOM     66  C   UNL A   1      35.589  32.106  32.016  1.00  0.00     0.001 A 
ATOM     67  C   UNL A   1      35.262  32.850  29.742  1.00  0.00     0.001 A 
ATOM     68  C   UNL A   1      34.762  32.634  31.025  1.00  0.00     0.000 A 
ENDBRANCH  44  63
BRANCH  56  69
ATOM     69  C   UNL A   1      43.507  35.355  30.664  1.00  0.00    -0.014 A 
ATOM     70  C   UNL A   1      43.491  36.396  29.724  1.00  0.00     0.009 A 
ATOM     71  C   UNL A   1      43.820  35.647  32.001  1.00  0.00     0.009 A 
ATOM     72  C   UNL A   1      43.806  37.701  30.113  1.00  0.00     0.001 A 
ATOM     73  C   UNL A   1      44.111  36.955  32.391  1.00  0.00     0.001 A 
ATOM     74  C   UNL A   1      44.109  37.980  31.446  1.00  0.00     0.000 A 
ENDBRANCH  56  69
ENDBRANCH  30  31
ENDBRANCH  23  25
ENDBRANCH  22  23
ENDBRANCH  21  22
ENDBRANCH  20  21
ENDBRANCH   1  20
TORSDOF 16
ENDMDL
MODEL 2
REMARK VINA RESULT:      -8.7      1.357      6.346
REMARK SMILES O=C(CCNC(=O)c1ccccc1OC(F)F)OCCOC(=O)c1ccc(-c2c3nc(c(-c4ccccc4)c4ccc([nH]4)c(-c4ccccc4)c4nc(c(-c5ccccc5)c5ccc2[nH]5)C=C4)C=C3)cc1
REMARK SMILES IDX 18 1 2 2 1 3 3 4 4 5 5 6 6 7 7 9 8 10 9 11 13 12 10 13 12 14
REMARK SMILES IDX 11 15 14 16 15 17 16 18 17 19 19 20 20 21 21 22 22 23 23 24
REMARK SMILES IDX 24 25 25 26 71 27 26 28 70 29 27 30 28 31 29 32 64 33 30 34
REMARK SMILES IDX 69 35 63 36 65 37 31 38 68 39 62 40 61 41 32 43 54 44 39 45
REMARK SMILES IDX 53 46 40 47 43 48 52 49 66 50 41 51 42 52 51 54 67 55 44 56
REMARK SMILES IDX 33 57 34 58 38 59 35 60 37 61 36 62 55 63 56 64 60 65 57 66
REMARK SMILES IDX 59 67 58 68 45 69 46 70 50 71 47 72 49 73 48 74
REMARK H PARENT 5 8 65 42 43 53
REMARK Flexibility Score: inf
ROOT
ATOM      1  O   UNL A   1      42.662  19.628  25.003  1.00  0.00    -0.462 OA
ENDROOT
BRANCH   1   2
ATOM      2  C   UNL A   1      43.967  19.257  25.045  1.00  0.00     0.307 C 
ATOM      3  O   UNL A   1      44.301  18.084  24.913  1.00  0.00    -0.252 OA
BRANCH   2   4
ATOM      4  C   UNL A   1      44.968  20.330  25.389  1.00  0.00     0.144 C 
BRANCH   4   5
ATOM      5  C   UNL A   1      45.195  21.310  24.258  1.00  0.00     0.128 C 
BRANCH   5   6
ATOM      6  N   UNL A   1      44.191  22.363  24.248  1.00  0.00    -0.351 N 
ATOM      7  C   UNL A   1      44.111  23.529  24.961  1.00  0.00     0.255 C 
ATOM      8  H   UNL A   1      43.445  22.212  23.624  1.00  0.00     0.163 HD
ATOM      9  O   UNL A   1      43.036  24.121  25.013  1.00  0.00    -0.269 OA
BRANCH   7  10
ATOM     10  C   UNL A   1      45.277  24.067  25.695  1.00  0.00     0.082 A 
ATOM     11  C   UNL A   1      46.098  24.964  24.990  1.00  0.00     0.018 A 
ATOM     12  C   UNL A   1      45.628  23.693  27.001  1.00  0.00     0.138 A 
ATOM     13  C   UNL A   1      47.213  25.538  25.603  1.00  0.00     0.001 A 
ATOM     14  C   UNL A   1      46.722  24.308  27.621  1.00  0.00     0.047 A 
ATOM     15  C   UNL A   1      47.515  25.222  26.924  1.00  0.00     0.004 A 
BRANCH  12  16
ATOM     16  O   UNL A   1      44.933  22.819  27.791  1.00  0.00    -0.434 OA
BRANCH  16  17
ATOM     17  C   UNL A   1      43.915  23.395  28.615  1.00  0.00     0.542 C 
ATOM     18  F   UNL A   1      43.291  22.394  29.280  1.00  0.00    -0.167 F 
ATOM     19  F   UNL A   1      44.419  24.255  29.529  1.00  0.00    -0.167 F 
ENDBRANCH  16  17
ENDBRANCH  12  16
ENDBRANCH   7  10
ENDBRANCH   5   6
ENDBRANCH   4   5
ENDBRANCH   2   4
ENDBRANCH   1   2
BRANCH   1  20
ATOM     20  C   UNL A   1      41.811  19.456  26.156  1.00  0.00     0.274 C 
BRANCH  20  21
ATOM     21  C   UNL A   1      41.432  20.789  26.802  1.00  0.00     0.275 C 
BRANCH  21  22
ATOM     22  O   UNL A   1      40.889  21.690  25.818  1.00  0.00    -0.458 OA
BRANCH  22  23
ATOM     23  C   UNL A   1      39.717  22.277  26.161  1.00  0.00     0.338 C 
ATOM     24  O   UNL A   1      38.612  21.761  26.162  1.00  0.00    -0.246 OA
BRANCH  23  25
ATOM     25  C   UNL A   1      39.983  23.620  26.729  1.00  0.00     0.060 A 
ATOM     26  C   UNL A   1      40.035  24.700  25.837  1.00  0.00     0.016 A 
ATOM     27  C   UNL A   1      40.160  23.833  28.100  1.00  0.00     0.016 A 
ATOM     28  C   UNL A   1      40.305  25.986  26.307  1.00  0.00     0.010 A 
ATOM     29  C   UNL A   1      40.443  25.120  28.569  1.00  0.00     0.010 A 
ATOM     30  C   UNL A   1      40.551  26.195  27.670  1.00  0.00    -0.014 A 
BRANCH  30  31
ATOM     31  C   UNL A   1      41.127  27.486  28.118  1.00  0.00     0.031 A 
ATOM     32  C   UNL A   1      40.186  28.548  28.616  1.00  0.00     0.074 A 
ATOM     33  C   UNL A   1      42.452  27.715  28.107  1.00  0.00     0.049 A 
ATOM     34  N   UNL A   1      40.451  29.741  29.082  1.00  0.00    -0.248 NA
ATOM     35  C   UNL A   1      38.751  28.217  28.584  1.00  0.00     0.031 C 
ATOM     36  C   UNL A   1      43.478  26.767  27.680  1.00  0.00     0.029 A 
ATOM     37  N   UNL A   1      43.157  28.836  28.471  1.00  0.00    -0.354 N 
ATOM     38  C   UNL A   1      39.221  30.297  29.409  1.00  0.00     0.074 A 
ATOM     39  C   UNL A   1      38.207  29.328  29.054  1.00  0.00     0.031 C 
ATOM     40  C   UNL A   1      44.685  27.350  27.801  1.00  0.00     0.029 A 
ATOM     41  C   UNL A   1      44.514  28.715  28.298  1.00  0.00     0.049 A 
ATOM     42  H   UNL A   1      42.730  29.649  28.825  1.00  0.00     0.167 HD
ATOM     43  C   UNL A   1      38.953  31.501  29.965  1.00  0.00     0.031 A 
ATOM     44  C   UNL A   1      45.500  29.609  28.508  1.00  0.00     0.031 A 
ATOM     45  C   UNL A   1      39.946  32.486  30.291  1.00  0.00     0.049 A 
ATOM     46  C   UNL A   1      45.168  30.979  29.040  1.00  0.00     0.074 A 
ATOM     47  C   UNL A   1      39.767  33.732  30.865  1.00  0.00     0.029 A 
ATOM     48  N   UNL A   1      41.303  32.340  30.057  1.00  0.00    -0.354 N 
ATOM     49  N   UNL A   1      44.006  31.473  29.393  1.00  0.00    -0.248 NA
ATOM     50  C   UNL A   1      46.292  31.913  29.211  1.00  0.00     0.031 C 
ATOM     51  C   UNL A   1      41.015  34.362  30.931  1.00  0.00     0.029 A 
ATOM     52  C   UNL A   1      41.972  33.487  30.447  1.00  0.00     0.049 A 
ATOM     53  H   UNL A   1      41.727  31.540  29.672  1.00  0.00     0.167 HD
ATOM     54  C   UNL A   1      44.263  32.758  29.857  1.00  0.00     0.074 A 
ATOM     55  C   UNL A   1      45.691  32.967  29.747  1.00  0.00     0.031 C 
ATOM     56  C   UNL A   1      43.394  33.681  30.335  1.00  0.00     0.031 A 
BRANCH  43  57
ATOM     57  C   UNL A   1      37.510  31.822  30.224  1.00  0.00    -0.014 A 
ATOM     58  C   UNL A   1      36.718  32.433  29.239  1.00  0.00     0.009 A 
ATOM     59  C   UNL A   1      36.937  31.508  31.465  1.00  0.00     0.009 A 
ATOM     60  C   UNL A   1      35.386  32.753  29.504  1.00  0.00     0.001 A 
ATOM     61  C   UNL A   1      35.598  31.807  31.719  1.00  0.00     0.001 A 
ATOM     62  C   UNL A   1      34.827  32.437  30.743  1.00  0.00     0.000 A 
ENDBRANCH  43  57
BRANCH  44  63
ATOM     63  C   UNL A   1      46.910  29.253  28.206  1.00  0.00    -0.014 A 
ATOM     64  C   UNL A   1      47.447  29.484  26.931  1.00  0.00     0.009 A 
ATOM     65  C   UNL A   1      47.710  28.631  29.178  1.00  0.00     0.009 A 
ATOM     66  C   UNL A   1      48.748  29.075  26.626  1.00  0.00     0.001 A 
ATOM     67  C   UNL A   1      49.017  28.245  28.878  1.00  0.00     0.001 A 
ATOM     68  C   UNL A   1      49.532  28.458  27.600  1.00  0.00     0.000 A 
ENDBRANCH  44  63
BRANCH  56  69
ATOM     69  C   UNL A   1      43.960  34.989  30.812  1.00  0.00    -0.014 A 
ATOM     70  C   UNL A   1      44.412  35.149  32.131  1.00  0.00     0.009 A 
ATOM     71  C   UNL A   1      44.096  36.056  29.911  1.00  0.00     0.009 A 
ATOM     72  C   UNL A   1      44.967  36.364  32.543  1.00  0.00     0.001 A 
ATOM     73  C   UNL A   1      44.672  37.260  30.319  1.00  0.00     0.001 A 
ATOM     74  C   UNL A   1      45.101  37.415  31.636  1.00  0.00     0.000 A 
ENDBRANCH  56  69
ENDBRANCH  30  31
ENDBRANCH  23  25
ENDBRANCH  22  23
ENDBRANCH  21  22
ENDBRANCH  20  21
ENDBRANCH   1  20
TORSDOF 16
ENDMDL
MODEL 3
REMARK VINA RESULT:      -8.5      4.803      7.346
REMARK SMILES O=C(CCNC(=O)c1ccccc1OC(F)F)OCCOC(=O)c1ccc(-c2c3nc(c(-c4ccccc4)c4ccc([nH]4)c(-c4ccccc4)c4nc(c(-c5ccccc5)c5ccc2[nH]5)C=C4)C=C3)cc1
REMARK SMILES IDX 18 1 2 2 1 3 3 4 4 5 5 6 6 7 7 9 8 10 9 11 13 12 10 13 12 14
REMARK SMILES IDX 11 15 14 16 15 17 16 18 17 19 19 20 20 21 21 22 22 23 23 24
REMARK SMILES IDX 24 25 25 26 71 27 26 28 70 29 27 30 28 31 29 32 64 33 30 34
REMARK SMILES IDX 69 35 63 36 65 37 31 38 68 39 62 40 61 41 32 43 54 44 39 45
REMARK SMILES IDX 53 46 40 47 43 48 52 49 66 50 41 51 42 52 51 54 67 55 44 56
REMARK SMILES IDX 33 57 34 58 38 59 35 60 37 61 36 62 55 63 56 64 60 65 57 66
REMARK SMILES IDX 59 67 58 68 45 69 46 70 50 71 47 72 49 73 48 74
REMARK H PARENT 5 8 65 42 43 53
REMARK Flexibility Score: inf
ROOT
ATOM      1  O   UNL A   1      36.534  20.836  25.430  1.00  0.00    -0.462 OA
ENDROOT
BRANCH   1   2
ATOM      2  C   UNL A   1      35.483  21.113  24.618  1.00  0.00     0.307 C 
ATOM      3  O   UNL A   1      35.457  22.129  23.932  1.00  0.00    -0.252 OA
BRANCH   2   4
ATOM      4  C   UNL A   1      34.299  20.183  24.697  1.00  0.00     0.144 C 
BRANCH   4   5
ATOM      5  C   UNL A   1      33.201  20.700  25.603  1.00  0.00     0.128 C 
BRANCH   5   6
ATOM      6  N   UNL A   1      33.731  21.184  26.869  1.00  0.00    -0.351 N 
ATOM      7  C   UNL A   1      33.920  22.459  27.330  1.00  0.00     0.255 C 
ATOM      8  H   UNL A   1      33.996  20.476  27.499  1.00  0.00     0.163 HD
ATOM      9  O   UNL A   1      34.652  22.637  28.301  1.00  0.00    -0.269 OA
BRANCH   7  10
ATOM     10  C   UNL A   1      33.296  23.622  26.663  1.00  0.00     0.082 A 
ATOM     11  C   UNL A   1      34.142  24.412  25.866  1.00  0.00     0.018 A 
ATOM     12  C   UNL A   1      31.955  23.999  26.827  1.00  0.00     0.138 A 
ATOM     13  C   UNL A   1      33.642  25.522  25.183  1.00  0.00     0.001 A 
ATOM     14  C   UNL A   1      31.453  25.087  26.104  1.00  0.00     0.047 A 
ATOM     15  C   UNL A   1      32.293  25.849  25.290  1.00  0.00     0.004 A 
BRANCH  12  16
ATOM     16  O   UNL A   1      31.030  23.335  27.586  1.00  0.00    -0.434 OA
BRANCH  16  17
ATOM     17  C   UNL A   1      29.849  22.909  26.900  1.00  0.00     0.542 C 
ATOM     18  F   UNL A   1      30.207  21.991  25.971  1.00  0.00    -0.167 F 
ATOM     19  F   UNL A   1      28.951  22.335  27.731  1.00  0.00    -0.167 F 
ENDBRANCH  16  17
ENDBRANCH  12  16
ENDBRANCH   7  10
ENDBRANCH   5   6
ENDBRANCH   4   5
ENDBRANCH   2   4
ENDBRANCH   1   2
BRANCH   1  20
ATOM     20  C   UNL A   1      37.728  20.219  24.904  1.00  0.00     0.274 C 
BRANCH  20  21
ATOM     21  C   UNL A   1      39.001  20.787  25.533  1.00  0.00     0.275 C 
BRANCH  21  22
ATOM     22  O   UNL A   1      39.758  19.741  26.170  1.00  0.00    -0.458 OA
BRANCH  22  23
ATOM     23  C   UNL A   1      41.098  19.801  25.976  1.00  0.00     0.338 C 
ATOM     24  O   UNL A   1      41.780  19.020  25.334  1.00  0.00    -0.246 OA
BRANCH  23  25
ATOM     25  C   UNL A   1      41.618  21.081  26.511  1.00  0.00     0.060 A 
ATOM     26  C   UNL A   1      41.528  21.288  27.894  1.00  0.00     0.016 A 
ATOM     27  C   UNL A   1      42.200  22.055  25.693  1.00  0.00     0.016 A 
ATOM     28  C   UNL A   1      41.980  22.483  28.456  1.00  0.00     0.010 A 
ATOM     29  C   UNL A   1      42.642  23.258  26.254  1.00  0.00     0.010 A 
ATOM     30  C   UNL A   1      42.501  23.489  27.634  1.00  0.00    -0.014 A 
BRANCH  30  31
ATOM     31  C   UNL A   1      42.696  24.853  28.183  1.00  0.00     0.031 A 
ATOM     32  C   UNL A   1      44.081  25.250  28.617  1.00  0.00     0.074 A 
ATOM     33  C   UNL A   1      41.684  25.732  28.281  1.00  0.00     0.049 A 
ATOM     34  N   UNL A   1      44.504  26.390  29.102  1.00  0.00    -0.248 NA
ATOM     35  C   UNL A   1      45.128  24.223  28.485  1.00  0.00     0.031 C 
ATOM     36  C   UNL A   1      40.302  25.491  27.871  1.00  0.00     0.029 A 
ATOM     37  N   UNL A   1      41.675  27.017  28.765  1.00  0.00    -0.354 N 
ATOM     38  C   UNL A   1      45.865  26.220  29.320  1.00  0.00     0.074 A 
ATOM     39  C   UNL A   1      46.190  24.859  28.952  1.00  0.00     0.031 C 
ATOM     40  C   UNL A   1      39.575  26.594  28.127  1.00  0.00     0.029 A 
ATOM     41  C   UNL A   1      40.436  27.609  28.733  1.00  0.00     0.049 A 
ATOM     42  H   UNL A   1      42.480  27.471  29.102  1.00  0.00     0.167 HD
ATOM     43  C   UNL A   1      46.770  27.116  29.777  1.00  0.00     0.031 A 
ATOM     44  C   UNL A   1      40.044  28.828  29.155  1.00  0.00     0.031 A 
ATOM     45  C   UNL A   1      46.457  28.458  30.178  1.00  0.00     0.049 A 
ATOM     46  C   UNL A   1      41.055  29.776  29.746  1.00  0.00     0.074 A 
ATOM     47  C   UNL A   1      47.312  29.440  30.647  1.00  0.00     0.029 A 
ATOM     48  N   UNL A   1      45.183  29.002  30.172  1.00  0.00    -0.354 N 
ATOM     49  N   UNL A   1      42.347  29.621  29.899  1.00  0.00    -0.248 NA
ATOM     50  C   UNL A   1      40.547  31.075  30.216  1.00  0.00     0.031 C 
ATOM     51  C   UNL A   1      46.545  30.564  30.973  1.00  0.00     0.029 A 
ATOM     52  C   UNL A   1      45.223  30.297  30.658  1.00  0.00     0.049 A 
ATOM     53  H   UNL A   1      44.371  28.537  29.867  1.00  0.00     0.167 HD
ATOM     54  C   UNL A   1      42.810  30.811  30.451  1.00  0.00     0.074 A 
ATOM     55  C   UNL A   1      41.664  31.680  30.600  1.00  0.00     0.031 C 
ATOM     56  C   UNL A   1      44.075  31.153  30.798  1.00  0.00     0.031 A 
BRANCH  43  57
ATOM     57  C   UNL A   1      48.191  26.645  29.892  1.00  0.00    -0.014 A 
ATOM     58  C   UNL A   1      49.105  26.844  28.844  1.00  0.00     0.009 A 
ATOM     59  C   UNL A   1      48.620  26.000  31.061  1.00  0.00     0.009 A 
ATOM     60  C   UNL A   1      50.414  26.375  28.953  1.00  0.00     0.001 A 
ATOM     61  C   UNL A   1      49.937  25.553  31.176  1.00  0.00     0.001 A 
ATOM     62  C   UNL A   1      50.829  25.732  30.120  1.00  0.00     0.000 A 
ENDBRANCH  43  57
BRANCH  44  63
ATOM     63  C   UNL A   1      38.619  29.235  29.047  1.00  0.00    -0.014 A 
ATOM     64  C   UNL A   1      38.130  29.814  27.868  1.00  0.00     0.009 A 
ATOM     65  C   UNL A   1      37.755  29.091  30.144  1.00  0.00     0.009 A 
ATOM     66  C   UNL A   1      36.811  30.268  27.797  1.00  0.00     0.001 A 
ATOM     67  C   UNL A   1      36.430  29.524  30.062  1.00  0.00     0.001 A 
ATOM     68  C   UNL A   1      35.962  30.121  28.893  1.00  0.00     0.000 A 
ENDBRANCH  44  63
BRANCH  56  69
ATOM     69  C   UNL A   1      44.297  32.538  31.340  1.00  0.00    -0.014 A 
ATOM     70  C   UNL A   1      44.259  32.795  32.718  1.00  0.00     0.009 A 
ATOM     71  C   UNL A   1      44.607  33.585  30.459  1.00  0.00     0.009 A 
ATOM     72  C   UNL A   1      44.502  34.083  33.202  1.00  0.00     0.001 A 
ATOM     73  C   UNL A   1      44.873  34.866  30.947  1.00  0.00     0.001 A 
ATOM     74  C   UNL A   1      44.814  35.115  32.317  1.00  0.00     0.000 A 
ENDBRANCH  56  69
ENDBRANCH  30  31
ENDBRANCH  23  25
ENDBRANCH  22  23
ENDBRANCH  21  22
ENDBRANCH  20  21
ENDBRANCH   1  20
TORSDOF 16
ENDMDL
