MODEL 1
REMARK VINA RESULT:     -13.1      0.000      0.000
REMARK SMILES C[C@H]1CCc2sc3ncn4nc(/C=C\C(=O)OCCOC(=O)c5ccc(-c6c7nc(c(-c8ccccc8)c8ccc([nH]8)c(-c8ccccc8)c8nc(c(-c9ccccc9)c9ccc6[nH]9)C=C8)C=C7)cc5)nc4c3c2C1
REMARK SMILES IDX 19 1 18 2 17 3 15 4 16 5 14 6 13 7 12 8 1 9 2 10 3 11 75 12
REMARK SMILES IDX 4 13 74 14 5 15 73 16 6 17 7 18 72 19 8 20 10 21 71 22 9 23
REMARK SMILES IDX 11 24 20 25 21 26 22 27 23 28 24 29 70 30 25 31 69 32 26 33
REMARK SMILES IDX 27 34 28 35 63 36 29 37 68 38 62 39 64 40 30 41 67 42 61 43
REMARK SMILES IDX 60 44 31 46 53 47 38 48 52 49 39 50 42 51 51 52 65 53 40 54
REMARK SMILES IDX 41 55 50 57 66 58 43 59 32 60 33 61 37 62 34 63 36 64 35 65
REMARK SMILES IDX 54 66 55 67 59 68 56 69 58 70 57 71 44 72 45 73 49 74 46 75
REMARK SMILES IDX 48 76 47 77
REMARK H PARENT 64 45 42 56
REMARK Flexibility Score: inf
ROOT
ATOM      1  C   UNL A   1      43.638  18.764  25.748  1.00  0.00     0.275 C 
ENDROOT
BRANCH   1   2
ATOM      2  C   UNL A   1      42.302  18.946  26.442  1.00  0.00     0.275 C 
BRANCH   2   3
ATOM      3  O   UNL A   1      41.369  19.204  25.403  1.00  0.00    -0.459 OA
BRANCH   3   4
ATOM      4  C   UNL A   1      40.164  19.679  25.710  1.00  0.00     0.331 C 
ATOM      5  O   UNL A   1      39.102  19.083  25.665  1.00  0.00    -0.247 OA
BRANCH   4   6
ATOM      6  C   UNL A   1      40.319  21.054  26.205  1.00  0.00     0.097 C 
ATOM      7  C   UNL A   1      39.373  22.004  26.286  1.00  0.00     0.058 C 
BRANCH   7   8
ATOM      8  C   UNL A   1      37.972  22.016  25.967  1.00  0.00     0.175 A 
ATOM      9  C   UNL A   1      34.038  16.160  25.395  1.00  0.00     0.008 C 
ATOM     10  C   UNL A   1      34.580  16.883  24.162  1.00  0.00    -0.009 C 
ATOM     11  C   UNL A   1      33.501  17.098  23.084  1.00  0.00     0.009 C 
ATOM     12  C   UNL A   1      35.269  18.205  24.549  1.00  0.00     0.041 C 
ATOM     13  C   UNL A   1      32.457  18.159  23.474  1.00  0.00     0.047 C 
ATOM     14  C   UNL A   1      34.410  19.416  24.538  1.00  0.00    -0.020 A 
ATOM     15  C   UNL A   1      33.130  19.383  24.023  1.00  0.00     0.011 A 
ATOM     16  C   UNL A   1      34.779  20.743  24.891  1.00  0.00     0.060 A 
ATOM     17  S   UNL A   1      32.367  20.905  24.058  1.00  0.00    -0.120 S 
ATOM     18  C   UNL A   1      33.766  21.671  24.683  1.00  0.00     0.129 A 
ATOM     19  C   UNL A   1      36.044  21.353  25.382  1.00  0.00     0.168 A 
ATOM     20  N   UNL A   1      33.806  23.030  24.891  1.00  0.00    -0.225 NA
ATOM     21  N   UNL A   1      36.058  22.707  25.532  1.00  0.00    -0.201 N 
ATOM     22  N   UNL A   1      37.223  20.876  25.701  1.00  0.00    -0.207 NA
ATOM     23  C   UNL A   1      34.951  23.517  25.299  1.00  0.00     0.227 A 
ATOM     24  N   UNL A   1      37.264  23.160  25.907  1.00  0.00    -0.145 NA
ENDBRANCH   7   8
ENDBRANCH   4   6
ENDBRANCH   3   4
ENDBRANCH   2   3
ENDBRANCH   1   2
BRANCH   1  25
ATOM     25  O   UNL A   1      43.689  19.673  24.672  1.00  0.00    -0.458 OA
BRANCH  25  26
ATOM     26  C   UNL A   1      44.879  19.842  24.065  1.00  0.00     0.338 C 
ATOM     27  O   UNL A   1      45.589  19.025  23.518  1.00  0.00    -0.246 OA
BRANCH  26  28
ATOM     28  C   UNL A   1      45.241  21.230  24.342  1.00  0.00     0.060 A 
ATOM     29  C   UNL A   1      46.102  21.436  25.415  1.00  0.00     0.016 A 
ATOM     30  C   UNL A   1      44.478  22.261  23.762  1.00  0.00     0.016 A 
ATOM     31  C   UNL A   1      45.986  22.623  26.086  1.00  0.00     0.010 A 
ATOM     32  C   UNL A   1      44.326  23.422  24.458  1.00  0.00     0.010 A 
ATOM     33  C   UNL A   1      45.017  23.537  25.656  1.00  0.00    -0.014 A 
BRANCH  33  34
ATOM     34  C   UNL A   1      44.756  24.666  26.498  1.00  0.00     0.031 A 
ATOM     35  C   UNL A   1      45.841  25.654  26.499  1.00  0.00     0.074 A 
ATOM     36  C   UNL A   1      43.592  24.834  27.139  1.00  0.00     0.049 A 
ATOM     37  N   UNL A   1      46.656  25.919  27.460  1.00  0.00    -0.248 NA
ATOM     38  C   UNL A   1      46.147  26.310  25.220  1.00  0.00     0.031 C 
ATOM     39  C   UNL A   1      42.321  24.134  26.949  1.00  0.00     0.029 A 
ATOM     40  N   UNL A   1      43.296  25.794  28.044  1.00  0.00    -0.354 N 
ATOM     41  C   UNL A   1      47.499  26.897  26.958  1.00  0.00     0.074 A 
ATOM     42  C   UNL A   1      47.252  26.978  25.540  1.00  0.00     0.031 C 
ATOM     43  C   UNL A   1      41.340  24.849  27.549  1.00  0.00     0.029 A 
ATOM     44  C   UNL A   1      41.945  25.961  28.268  1.00  0.00     0.049 A 
ATOM     45  H   UNL A   1      43.986  26.328  28.503  1.00  0.00     0.167 HD
ATOM     46  C   UNL A   1      48.182  27.740  27.772  1.00  0.00     0.031 A 
ATOM     47  C   UNL A   1      41.395  27.012  28.917  1.00  0.00     0.031 A 
ATOM     48  C   UNL A   1      48.215  27.287  29.134  1.00  0.00     0.049 A 
ATOM     49  C   UNL A   1      42.468  27.671  29.706  1.00  0.00     0.074 A 
ATOM     50  C   UNL A   1      48.729  26.176  29.773  1.00  0.00     0.029 A 
ATOM     51  N   UNL A   1      47.300  27.836  30.003  1.00  0.00    -0.354 N 
ATOM     52  N   UNL A   1      43.046  27.127  30.739  1.00  0.00    -0.248 NA
ATOM     53  C   UNL A   1      43.197  28.780  29.106  1.00  0.00     0.031 C 
ATOM     54  C   UNL A   1      47.783  25.861  30.794  1.00  0.00     0.029 A 
ATOM     55  C   UNL A   1      46.759  26.808  30.737  1.00  0.00     0.049 A 
ATOM     56  H   UNL A   1      47.074  28.790  30.083  1.00  0.00     0.167 HD
ATOM     57  C   UNL A   1      44.372  27.532  30.669  1.00  0.00     0.074 A 
ATOM     58  C   UNL A   1      44.376  28.642  29.720  1.00  0.00     0.031 C 
ATOM     59  C   UNL A   1      45.377  26.750  31.166  1.00  0.00     0.031 A 
BRANCH  46  60
ATOM     60  C   UNL A   1      48.496  29.145  27.362  1.00  0.00    -0.014 A 
ATOM     61  C   UNL A   1      49.830  29.569  27.317  1.00  0.00     0.009 A 
ATOM     62  C   UNL A   1      47.500  30.136  27.238  1.00  0.00     0.009 A 
ATOM     63  C   UNL A   1      50.146  30.923  27.164  1.00  0.00     0.001 A 
ATOM     64  C   UNL A   1      47.811  31.479  27.038  1.00  0.00     0.001 A 
ATOM     65  C   UNL A   1      49.139  31.875  27.019  1.00  0.00     0.000 A 
ENDBRANCH  46  60
BRANCH  47  66
ATOM     66  C   UNL A   1      40.109  27.675  28.631  1.00  0.00    -0.014 A 
ATOM     67  C   UNL A   1      39.131  27.769  29.630  1.00  0.00     0.009 A 
ATOM     68  C   UNL A   1      39.951  28.457  27.472  1.00  0.00     0.009 A 
ATOM     69  C   UNL A   1      38.057  28.656  29.496  1.00  0.00     0.001 A 
ATOM     70  C   UNL A   1      38.875  29.337  27.337  1.00  0.00     0.001 A 
ATOM     71  C   UNL A   1      37.938  29.450  28.358  1.00  0.00     0.000 A 
ENDBRANCH  47  66
BRANCH  59  72
ATOM     72  C   UNL A   1      44.973  25.556  32.001  1.00  0.00    -0.014 A 
ATOM     73  C   UNL A   1      44.495  24.360  31.434  1.00  0.00     0.009 A 
ATOM     74  C   UNL A   1      45.199  25.589  33.384  1.00  0.00     0.009 A 
ATOM     75  C   UNL A   1      44.208  23.249  32.232  1.00  0.00     0.001 A 
ATOM     76  C   UNL A   1      44.934  24.470  34.180  1.00  0.00     0.001 A 
ATOM     77  C   UNL A   1      44.430  23.304  33.605  1.00  0.00     0.000 A 
ENDBRANCH  59  72
ENDBRANCH  33  34
ENDBRANCH  26  28
ENDBRANCH  25  26
ENDBRANCH   1  25
TORSDOF 12
ENDMDL
MODEL 2
REMARK VINA RESULT:     -12.5      6.372     12.305
REMARK SMILES C[C@H]1CCc2sc3ncn4nc(/C=C\C(=O)OCCOC(=O)c5ccc(-c6c7nc(c(-c8ccccc8)c8ccc([nH]8)c(-c8ccccc8)c8nc(c(-c9ccccc9)c9ccc6[nH]9)C=C8)C=C7)cc5)nc4c3c2C1
REMARK SMILES IDX 19 1 18 2 17 3 15 4 16 5 14 6 13 7 12 8 1 9 2 10 3 11 75 12
REMARK SMILES IDX 4 13 74 14 5 15 73 16 6 17 7 18 72 19 8 20 10 21 71 22 9 23
REMARK SMILES IDX 11 24 20 25 21 26 22 27 23 28 24 29 70 30 25 31 69 32 26 33
REMARK SMILES IDX 27 34 28 35 63 36 29 37 68 38 62 39 64 40 30 41 67 42 61 43
REMARK SMILES IDX 60 44 31 46 53 47 38 48 52 49 39 50 42 51 51 52 65 53 40 54
REMARK SMILES IDX 41 55 50 57 66 58 43 59 32 60 33 61 37 62 34 63 36 64 35 65
REMARK SMILES IDX 54 66 55 67 59 68 56 69 58 70 57 71 44 72 45 73 49 74 46 75
REMARK SMILES IDX 48 76 47 77
REMARK H PARENT 64 45 42 56
REMARK Flexibility Score: inf
ROOT
ATOM      1  C   UNL A   1      33.699  33.504  28.070  1.00  0.00     0.275 C 
ENDROOT
BRANCH   1   2
ATOM      2  C   UNL A   1      33.654  34.565  29.153  1.00  0.00     0.275 C 
BRANCH   2   3
ATOM      3  O   UNL A   1      34.702  34.231  30.052  1.00  0.00    -0.459 OA
BRANCH   3   4
ATOM      4  C   UNL A   1      34.432  34.093  31.348  1.00  0.00     0.331 C 
ATOM      5  O   UNL A   1      33.938  34.922  32.091  1.00  0.00    -0.247 OA
BRANCH   4   6
ATOM      6  C   UNL A   1      34.755  32.716  31.746  1.00  0.00     0.097 C 
ATOM      7  C   UNL A   1      35.859  32.286  32.379  1.00  0.00     0.058 C 
BRANCH   7   8
ATOM      8  C   UNL A   1      37.022  32.965  32.881  1.00  0.00     0.175 A 
ATOM      9  C   UNL A   1      41.957  35.873  28.723  1.00  0.00     0.008 C 
ATOM     10  C   UNL A   1      42.165  34.506  29.375  1.00  0.00    -0.009 C 
ATOM     11  C   UNL A   1      43.541  34.381  30.056  1.00  0.00     0.009 C 
ATOM     12  C   UNL A   1      41.018  34.172  30.347  1.00  0.00     0.041 C 
ATOM     13  C   UNL A   1      43.659  35.218  31.341  1.00  0.00     0.047 C 
ATOM     14  C   UNL A   1      41.225  34.569  31.762  1.00  0.00    -0.020 A 
ATOM     15  C   UNL A   1      42.449  35.028  32.206  1.00  0.00     0.011 A 
ATOM     16  C   UNL A   1      40.317  34.418  32.847  1.00  0.00     0.060 A 
ATOM     17  S   UNL A   1      42.460  35.356  33.878  1.00  0.00    -0.120 S 
ATOM     18  C   UNL A   1      40.850  34.807  34.070  1.00  0.00     0.129 A 
ATOM     19  C   UNL A   1      38.935  33.877  32.951  1.00  0.00     0.168 A 
ATOM     20  N   UNL A   1      40.252  34.759  35.308  1.00  0.00    -0.225 NA
ATOM     21  N   UNL A   1      38.396  33.804  34.200  1.00  0.00    -0.201 N 
ATOM     22  N   UNL A   1      38.073  33.404  32.084  1.00  0.00    -0.207 NA
ATOM     23  C   UNL A   1      39.046  34.250  35.346  1.00  0.00     0.227 A 
ATOM     24  N   UNL A   1      37.180  33.235  34.190  1.00  0.00    -0.145 NA
ENDBRANCH   7   8
ENDBRANCH   4   6
ENDBRANCH   3   4
ENDBRANCH   2   3
ENDBRANCH   1   2
BRANCH   1  25
ATOM     25  O   UNL A   1      34.989  32.936  28.082  1.00  0.00    -0.458 OA
BRANCH  25  26
ATOM     26  C   UNL A   1      35.082  31.615  27.837  1.00  0.00     0.338 C 
ATOM     27  O   UNL A   1      34.400  30.912  27.122  1.00  0.00    -0.246 OA
BRANCH  26  28
ATOM     28  C   UNL A   1      36.110  31.140  28.761  1.00  0.00     0.060 A 
ATOM     29  C   UNL A   1      37.229  31.954  28.902  1.00  0.00     0.016 A 
ATOM     30  C   UNL A   1      36.081  29.797  29.182  1.00  0.00     0.016 A 
ATOM     31  C   UNL A   1      38.412  31.337  29.210  1.00  0.00     0.010 A 
ATOM     32  C   UNL A   1      37.265  29.175  29.439  1.00  0.00     0.010 A 
ATOM     33  C   UNL A   1      38.416  29.945  29.356  1.00  0.00    -0.014 A 
BRANCH  33  34
ATOM     34  C   UNL A   1      39.689  29.296  29.453  1.00  0.00     0.031 A 
ATOM     35  C   UNL A   1      40.089  29.004  30.835  1.00  0.00     0.074 A 
ATOM     36  C   UNL A   1      40.389  28.915  28.377  1.00  0.00     0.049 A 
ATOM     37  N   UNL A   1      41.028  29.568  31.513  1.00  0.00    -0.248 NA
ATOM     38  C   UNL A   1      39.234  28.082  31.596  1.00  0.00     0.031 C 
ATOM     39  C   UNL A   1      39.959  28.817  26.981  1.00  0.00     0.029 A 
ATOM     40  N   UNL A   1      41.643  28.410  28.362  1.00  0.00    -0.354 N 
ATOM     41  C   UNL A   1      40.986  28.962  32.757  1.00  0.00     0.074 A 
ATOM     42  C   UNL A   1      39.772  28.186  32.808  1.00  0.00     0.031 C 
ATOM     43  C   UNL A   1      40.862  28.069  26.303  1.00  0.00     0.029 A 
ATOM     44  C   UNL A   1      41.979  27.769  27.188  1.00  0.00     0.049 A 
ATOM     45  H   UNL A   1      42.262  28.493  29.124  1.00  0.00     0.167 HD
ATOM     46  C   UNL A   1      42.062  28.949  33.584  1.00  0.00     0.031 A 
ATOM     47  C   UNL A   1      43.058  26.970  27.027  1.00  0.00     0.031 A 
ATOM     48  C   UNL A   1      43.068  29.898  33.196  1.00  0.00     0.049 A 
ATOM     49  C   UNL A   1      44.011  27.266  28.128  1.00  0.00     0.074 A 
ATOM     50  C   UNL A   1      43.110  31.274  33.084  1.00  0.00     0.029 A 
ATOM     51  N   UNL A   1      44.131  29.425  32.463  1.00  0.00    -0.354 N 
ATOM     52  N   UNL A   1      44.658  28.391  28.244  1.00  0.00    -0.248 NA
ATOM     53  C   UNL A   1      43.946  26.465  29.343  1.00  0.00     0.031 C 
ATOM     54  C   UNL A   1      43.918  31.532  31.937  1.00  0.00     0.029 A 
ATOM     55  C   UNL A   1      44.344  30.303  31.428  1.00  0.00     0.049 A 
ATOM     56  H   UNL A   1      44.646  28.606  32.646  1.00  0.00     0.167 HD
ATOM     57  C   UNL A   1      44.719  28.636  29.609  1.00  0.00     0.074 A 
ATOM     58  C   UNL A   1      44.378  27.361  30.235  1.00  0.00     0.031 C 
ATOM     59  C   UNL A   1      44.762  29.912  30.097  1.00  0.00     0.031 A 
BRANCH  46  60
ATOM     60  C   UNL A   1      42.320  27.810  34.520  1.00  0.00    -0.014 A 
ATOM     61  C   UNL A   1      42.922  26.642  34.036  1.00  0.00     0.009 A 
ATOM     62  C   UNL A   1      41.778  27.764  35.821  1.00  0.00     0.009 A 
ATOM     63  C   UNL A   1      42.970  25.483  34.818  1.00  0.00     0.001 A 
ATOM     64  C   UNL A   1      41.865  26.627  36.621  1.00  0.00     0.001 A 
ATOM     65  C   UNL A   1      42.447  25.478  36.110  1.00  0.00     0.000 A 
ENDBRANCH  46  60
BRANCH  47  66
ATOM     66  C   UNL A   1      43.162  25.752  26.203  1.00  0.00    -0.014 A 
ATOM     67  C   UNL A   1      44.279  25.556  25.378  1.00  0.00     0.009 A 
ATOM     68  C   UNL A   1      42.309  24.658  26.434  1.00  0.00     0.009 A 
ATOM     69  C   UNL A   1      44.560  24.292  24.846  1.00  0.00     0.001 A 
ATOM     70  C   UNL A   1      42.586  23.399  25.897  1.00  0.00     0.001 A 
ATOM     71  C   UNL A   1      43.723  23.212  25.119  1.00  0.00     0.000 A 
ENDBRANCH  47  66
BRANCH  59  72
ATOM     72  C   UNL A   1      44.982  31.026  29.099  1.00  0.00    -0.014 A 
ATOM     73  C   UNL A   1      46.202  31.718  28.990  1.00  0.00     0.009 A 
ATOM     74  C   UNL A   1      43.979  31.300  28.158  1.00  0.00     0.009 A 
ATOM     75  C   UNL A   1      46.396  32.686  28.001  1.00  0.00     0.001 A 
ATOM     76  C   UNL A   1      44.180  32.253  27.154  1.00  0.00     0.001 A 
ATOM     77  C   UNL A   1      45.385  32.951  27.081  1.00  0.00     0.000 A 
ENDBRANCH  59  72
ENDBRANCH  33  34
ENDBRANCH  26  28
ENDBRANCH  25  26
ENDBRANCH   1  25
TORSDOF 12
ENDMDL
MODEL 3
REMARK VINA RESULT:     -12.3      1.302      2.890
REMARK SMILES C[C@H]1CCc2sc3ncn4nc(/C=C\C(=O)OCCOC(=O)c5ccc(-c6c7nc(c(-c8ccccc8)c8ccc([nH]8)c(-c8ccccc8)c8nc(c(-c9ccccc9)c9ccc6[nH]9)C=C8)C=C7)cc5)nc4c3c2C1
REMARK SMILES IDX 19 1 18 2 17 3 15 4 16 5 14 6 13 7 12 8 1 9 2 10 3 11 75 12
REMARK SMILES IDX 4 13 74 14 5 15 73 16 6 17 7 18 72 19 8 20 10 21 71 22 9 23
REMARK SMILES IDX 11 24 20 25 21 26 22 27 23 28 24 29 70 30 25 31 69 32 26 33
REMARK SMILES IDX 27 34 28 35 63 36 29 37 68 38 62 39 64 40 30 41 67 42 61 43
REMARK SMILES IDX 60 44 31 46 53 47 38 48 52 49 39 50 42 51 51 52 65 53 40 54
REMARK SMILES IDX 41 55 50 57 66 58 43 59 32 60 33 61 37 62 34 63 36 64 35 65
REMARK SMILES IDX 54 66 55 67 59 68 56 69 58 70 57 71 44 72 45 73 49 74 46 75
REMARK SMILES IDX 48 76 47 77
REMARK H PARENT 64 45 42 56
REMARK Flexibility Score: inf
ROOT
ATOM      1  C   UNL A   1      43.055  19.205  25.761  1.00  0.00     0.275 C 
ENDROOT
BRANCH   1   2
ATOM      2  C   UNL A   1      41.978  20.142  26.274  1.00  0.00     0.275 C 
BRANCH   2   3
ATOM      3  O   UNL A   1      40.762  19.419  26.155  1.00  0.00    -0.459 OA
BRANCH   3   4
ATOM      4  C   UNL A   1      39.671  20.046  25.720  1.00  0.00     0.331 C 
ATOM      5  O   UNL A   1      38.721  19.555  25.135  1.00  0.00    -0.247 OA
BRANCH   4   6
ATOM      6  C   UNL A   1      39.745  21.453  26.136  1.00  0.00     0.097 C 
ATOM      7  C   UNL A   1      38.754  22.360  26.133  1.00  0.00     0.058 C 
BRANCH   7   8
ATOM      8  C   UNL A   1      37.365  22.286  25.774  1.00  0.00     0.175 A 
ATOM      9  C   UNL A   1      33.353  27.963  24.446  1.00  0.00     0.008 C 
ATOM     10  C   UNL A   1      33.301  27.245  25.794  1.00  0.00    -0.009 C 
ATOM     11  C   UNL A   1      31.858  26.968  26.259  1.00  0.00     0.009 C 
ATOM     12  C   UNL A   1      34.148  25.959  25.774  1.00  0.00     0.041 C 
ATOM     13  C   UNL A   1      31.157  25.871  25.439  1.00  0.00     0.047 C 
ATOM     14  C   UNL A   1      33.434  24.713  25.396  1.00  0.00    -0.020 A 
ATOM     15  C   UNL A   1      32.060  24.685  25.266  1.00  0.00     0.011 A 
ATOM     16  C   UNL A   1      33.982  23.407  25.258  1.00  0.00     0.060 A 
ATOM     17  S   UNL A   1      31.466  23.132  24.893  1.00  0.00    -0.120 S 
ATOM     18  C   UNL A   1      33.028  22.435  24.983  1.00  0.00     0.129 A 
ATOM     19  C   UNL A   1      35.357  22.859  25.405  1.00  0.00     0.168 A 
ATOM     20  N   UNL A   1      33.219  21.082  24.824  1.00  0.00    -0.225 NA
ATOM     21  N   UNL A   1      35.497  21.509  25.286  1.00  0.00    -0.201 N 
ATOM     22  N   UNL A   1      36.528  23.389  25.661  1.00  0.00    -0.207 NA
ATOM     23  C   UNL A   1      34.443  20.650  24.990  1.00  0.00     0.227 A 
ATOM     24  N   UNL A   1      36.760  21.112  25.508  1.00  0.00    -0.145 NA
ENDBRANCH   7   8
ENDBRANCH   4   6
ENDBRANCH   3   4
ENDBRANCH   2   3
ENDBRANCH   1   2
BRANCH   1  25
ATOM     25  O   UNL A   1      43.463  19.674  24.496  1.00  0.00    -0.458 OA
BRANCH  25  26
ATOM     26  C   UNL A   1      44.788  19.780  24.278  1.00  0.00     0.338 C 
ATOM     27  O   UNL A   1      45.611  18.910  24.088  1.00  0.00    -0.246 OA
BRANCH  26  28
ATOM     28  C   UNL A   1      45.082  21.197  24.478  1.00  0.00     0.060 A 
ATOM     29  C   UNL A   1      46.036  21.494  25.447  1.00  0.00     0.016 A 
ATOM     30  C   UNL A   1      44.195  22.158  23.957  1.00  0.00     0.016 A 
ATOM     31  C   UNL A   1      45.912  22.693  26.096  1.00  0.00     0.010 A 
ATOM     32  C   UNL A   1      44.039  23.329  24.635  1.00  0.00     0.010 A 
ATOM     33  C   UNL A   1      44.842  23.527  25.749  1.00  0.00    -0.014 A 
BRANCH  33  34
ATOM     34  C   UNL A   1      44.596  24.664  26.584  1.00  0.00     0.031 A 
ATOM     35  C   UNL A   1      45.680  25.653  26.554  1.00  0.00     0.074 A 
ATOM     36  C   UNL A   1      43.445  24.837  27.246  1.00  0.00     0.049 A 
ATOM     37  N   UNL A   1      46.513  25.929  27.497  1.00  0.00    -0.248 NA
ATOM     38  C   UNL A   1      45.960  26.297  25.263  1.00  0.00     0.031 C 
ATOM     39  C   UNL A   1      42.172  24.133  27.087  1.00  0.00     0.029 A 
ATOM     40  N   UNL A   1      43.165  25.806  28.147  1.00  0.00    -0.354 N 
ATOM     41  C   UNL A   1      47.344  26.903  26.969  1.00  0.00     0.074 A 
ATOM     42  C   UNL A   1      47.070  26.970  25.555  1.00  0.00     0.031 C 
ATOM     43  C   UNL A   1      41.201  24.854  27.699  1.00  0.00     0.029 A 
ATOM     44  C   UNL A   1      41.818  25.973  28.395  1.00  0.00     0.049 A 
ATOM     45  H   UNL A   1      43.862  26.345  28.588  1.00  0.00     0.167 HD
ATOM     46  C   UNL A   1      48.042  27.755  27.761  1.00  0.00     0.031 A 
ATOM     47  C   UNL A   1      41.279  27.030  29.044  1.00  0.00     0.031 A 
ATOM     48  C   UNL A   1      48.101  27.316  29.128  1.00  0.00     0.049 A 
ATOM     49  C   UNL A   1      42.366  27.698  29.806  1.00  0.00     0.074 A 
ATOM     50  C   UNL A   1      48.629  26.212  29.768  1.00  0.00     0.029 A 
ATOM     51  N   UNL A   1      47.203  27.872  30.008  1.00  0.00    -0.354 N 
ATOM     52  N   UNL A   1      42.965  27.165  30.833  1.00  0.00    -0.248 NA
ATOM     53  C   UNL A   1      43.082  28.802  29.181  1.00  0.00     0.031 C 
ATOM     54  C   UNL A   1      47.704  25.905  30.810  1.00  0.00     0.029 A 
ATOM     55  C   UNL A   1      46.678  26.851  30.763  1.00  0.00     0.049 A 
ATOM     56  H   UNL A   1      46.977  28.827  30.084  1.00  0.00     0.167 HD
ATOM     57  C   UNL A   1      44.289  27.571  30.733  1.00  0.00     0.074 A 
ATOM     58  C   UNL A   1      44.273  28.672  29.774  1.00  0.00     0.031 C 
ATOM     59  C   UNL A   1      45.304  26.795  31.219  1.00  0.00     0.031 A 
BRANCH  46  60
ATOM     60  C   UNL A   1      48.346  29.156  27.332  1.00  0.00    -0.014 A 
ATOM     61  C   UNL A   1      49.675  29.598  27.308  1.00  0.00     0.009 A 
ATOM     62  C   UNL A   1      47.339  30.131  27.168  1.00  0.00     0.009 A 
ATOM     63  C   UNL A   1      49.976  30.953  27.136  1.00  0.00     0.001 A 
ATOM     64  C   UNL A   1      47.637  31.474  26.949  1.00  0.00     0.001 A 
ATOM     65  C   UNL A   1      48.959  31.888  26.951  1.00  0.00     0.000 A 
ENDBRANCH  46  60
BRANCH  47  66
ATOM     66  C   UNL A   1      39.987  27.688  28.777  1.00  0.00    -0.014 A 
ATOM     67  C   UNL A   1      39.010  27.750  29.780  1.00  0.00     0.009 A 
ATOM     68  C   UNL A   1      39.819  28.496  27.637  1.00  0.00     0.009 A 
ATOM     69  C   UNL A   1      37.928  28.631  29.669  1.00  0.00     0.001 A 
ATOM     70  C   UNL A   1      38.736  29.369  27.524  1.00  0.00     0.001 A 
ATOM     71  C   UNL A   1      37.801  29.451  28.550  1.00  0.00     0.000 A 
ENDBRANCH  47  66
BRANCH  59  72
ATOM     72  C   UNL A   1      44.918  25.609  32.073  1.00  0.00    -0.014 A 
ATOM     73  C   UNL A   1      44.795  25.690  33.473  1.00  0.00     0.009 A 
ATOM     74  C   UNL A   1      44.546  24.414  31.444  1.00  0.00     0.009 A 
ATOM     75  C   UNL A   1      44.358  24.594  34.222  1.00  0.00     0.001 A 
ATOM     76  C   UNL A   1      44.087  23.324  32.191  1.00  0.00     0.001 A 
ATOM     77  C   UNL A   1      44.002  23.412  33.580  1.00  0.00     0.000 A 
ENDBRANCH  59  72
ENDBRANCH  33  34
ENDBRANCH  26  28
ENDBRANCH  25  26
ENDBRANCH   1  25
TORSDOF 12
ENDMDL
