MODEL 1
REMARK VINA RESULT:     -10.6      0.000      0.000
REMARK SMILES Cc1ccc(S(=O)(=O)/C=C/C(=O)OCCOC(=O)c2ccc(-c3c4nc(c(-c5ccccc5)c5ccc([nH]5)c(-c5ccccc5)c5nc(c(-c6ccccc6)c6ccc3[nH]6)C=C5)C=C4)cc2)cc1
REMARK SMILES IDX 14 1 13 2 11 3 12 4 10 5 9 6 6 7 7 8 8 9 5 10 1 11 2 12 3 13
REMARK SMILES IDX 68 14 4 15 67 16 15 17 16 18 17 19 18 20 19 21 20 22 66 23
REMARK SMILES IDX 21 24 65 25 22 26 23 27 24 28 59 29 25 30 64 31 58 32 60 33
REMARK SMILES IDX 26 34 63 35 57 36 56 37 27 39 49 40 34 41 48 42 35 43 38 44
REMARK SMILES IDX 47 45 61 46 36 47 37 48 46 50 62 51 39 52 28 53 29 54 33 55
REMARK SMILES IDX 30 56 32 57 31 58 50 59 51 60 55 61 52 62 54 63 53 64 40 65
REMARK SMILES IDX 41 66 45 67 42 68 44 69 43 70
REMARK H PARENT 60 38 38 49
REMARK Flexibility Score: inf
ROOT
ATOM      1  C   UNL A   1      45.454  18.646  25.555  1.00  0.00     0.275 C 
ENDROOT
BRANCH   1   2
ATOM      2  O   UNL A   1      44.226  18.562  24.822  1.00  0.00    -0.459 OA
BRANCH   2   3
ATOM      3  C   UNL A   1      43.122  18.459  25.601  1.00  0.00     0.331 C 
ATOM      4  O   UNL A   1      42.518  17.434  25.868  1.00  0.00    -0.247 OA
BRANCH   3   5
ATOM      5  C   UNL A   1      42.758  19.796  26.103  1.00  0.00     0.106 C 
ATOM      6  C   UNL A   1      41.468  20.035  26.380  1.00  0.00     0.118 C 
BRANCH   6   7
ATOM      7  S   UNL A   1      40.906  21.652  26.610  1.00  0.00     0.200 S 
ATOM      8  O   UNL A   1      41.692  22.496  25.729  1.00  0.00    -0.219 OA
ATOM      9  O   UNL A   1      40.860  21.918  28.035  1.00  0.00    -0.219 OA
BRANCH   7  10
ATOM     10  C   UNL A   1      39.229  21.807  26.039  1.00  0.00     0.071 A 
ATOM     11  C   UNL A   1      35.240  21.912  24.415  1.00  0.00     0.044 C 
ATOM     12  C   UNL A   1      36.624  21.886  24.996  1.00  0.00    -0.051 A 
ATOM     13  C   UNL A   1      37.379  20.712  24.918  1.00  0.00     0.005 A 
ATOM     14  C   UNL A   1      37.181  23.015  25.614  1.00  0.00     0.005 A 
ATOM     15  C   UNL A   1      38.674  20.671  25.435  1.00  0.00     0.021 A 
ATOM     16  C   UNL A   1      38.480  22.976  26.140  1.00  0.00     0.021 A 
ENDBRANCH   7  10
ENDBRANCH   6   7
ENDBRANCH   3   5
ENDBRANCH   2   3
ENDBRANCH   1   2
BRANCH   1  17
ATOM     17  C   UNL A   1      46.454  19.592  24.872  1.00  0.00     0.275 C 
BRANCH  17  18
ATOM     18  O   UNL A   1      46.287  21.035  25.060  1.00  0.00    -0.458 OA
BRANCH  18  19
ATOM     19  C   UNL A   1      45.310  21.869  24.622  1.00  0.00     0.338 C 
ATOM     20  O   UNL A   1      44.711  21.686  23.568  1.00  0.00    -0.246 OA
BRANCH  19  21
ATOM     21  C   UNL A   1      44.941  22.999  25.481  1.00  0.00     0.060 A 
ATOM     22  C   UNL A   1      44.924  22.849  26.879  1.00  0.00     0.016 A 
ATOM     23  C   UNL A   1      44.700  24.226  24.890  1.00  0.00     0.016 A 
ATOM     24  C   UNL A   1      44.763  23.968  27.691  1.00  0.00     0.010 A 
ATOM     25  C   UNL A   1      44.762  25.341  25.674  1.00  0.00     0.010 A 
ATOM     26  C   UNL A   1      44.702  25.211  27.069  1.00  0.00    -0.014 A 
BRANCH  26  27
ATOM     27  C   UNL A   1      44.294  26.442  27.720  1.00  0.00     0.031 A 
ATOM     28  C   UNL A   1      42.932  26.968  27.621  1.00  0.00     0.074 A 
ATOM     29  C   UNL A   1      45.262  26.947  28.518  1.00  0.00     0.049 A 
ATOM     30  N   UNL A   1      42.643  28.219  27.707  1.00  0.00    -0.248 NA
ATOM     31  C   UNL A   1      41.762  26.126  27.381  1.00  0.00     0.031 C 
ATOM     32  C   UNL A   1      45.238  27.934  29.577  1.00  0.00     0.029 A 
ATOM     33  N   UNL A   1      46.621  26.647  28.383  1.00  0.00    -0.354 N 
ATOM     34  C   UNL A   1      41.288  28.280  27.948  1.00  0.00     0.074 A 
ATOM     35  C   UNL A   1      40.760  26.999  27.550  1.00  0.00     0.031 C 
ATOM     36  C   UNL A   1      46.503  28.361  29.789  1.00  0.00     0.029 A 
ATOM     37  C   UNL A   1      47.347  27.768  28.754  1.00  0.00     0.049 A 
ATOM     38  H   UNL A   1      46.997  25.789  28.080  1.00  0.00     0.167 HD
ATOM     39  C   UNL A   1      40.798  29.297  28.709  1.00  0.00     0.031 A 
ATOM     40  C   UNL A   1      47.992  28.434  27.750  1.00  0.00     0.031 A 
ATOM     41  C   UNL A   1      41.883  30.166  29.160  1.00  0.00     0.049 A 
ATOM     42  C   UNL A   1      47.376  29.795  27.536  1.00  0.00     0.074 A 
ATOM     43  C   UNL A   1      42.580  30.235  30.357  1.00  0.00     0.029 A 
ATOM     44  N   UNL A   1      42.660  30.829  28.219  1.00  0.00    -0.354 N 
ATOM     45  N   UNL A   1      46.138  30.103  27.809  1.00  0.00    -0.248 NA
ATOM     46  C   UNL A   1      48.138  30.925  27.030  1.00  0.00     0.031 C 
ATOM     47  C   UNL A   1      43.798  30.927  30.118  1.00  0.00     0.029 A 
ATOM     48  C   UNL A   1      43.839  31.281  28.781  1.00  0.00     0.049 A 
ATOM     49  H   UNL A   1      42.405  30.958  27.277  1.00  0.00     0.167 HD
ATOM     50  C   UNL A   1      45.949  31.451  27.640  1.00  0.00     0.074 A 
ATOM     51  C   UNL A   1      47.224  31.907  27.108  1.00  0.00     0.031 C 
ATOM     52  C   UNL A   1      44.772  32.068  27.978  1.00  0.00     0.031 A 
BRANCH  39  53
ATOM     53  C   UNL A   1      39.424  29.286  29.332  1.00  0.00    -0.014 A 
ATOM     54  C   UNL A   1      39.253  28.749  30.623  1.00  0.00     0.009 A 
ATOM     55  C   UNL A   1      38.266  29.782  28.708  1.00  0.00     0.009 A 
ATOM     56  C   UNL A   1      37.997  28.650  31.233  1.00  0.00     0.001 A 
ATOM     57  C   UNL A   1      36.999  29.669  29.307  1.00  0.00     0.001 A 
ATOM     58  C   UNL A   1      36.865  29.097  30.567  1.00  0.00     0.000 A 
ENDBRANCH  39  53
BRANCH  40  59
ATOM     59  C   UNL A   1      48.505  27.529  26.657  1.00  0.00    -0.014 A 
ATOM     60  C   UNL A   1      47.832  27.528  25.410  1.00  0.00     0.009 A 
ATOM     61  C   UNL A   1      49.787  26.963  26.699  1.00  0.00     0.009 A 
ATOM     62  C   UNL A   1      48.464  27.099  24.236  1.00  0.00     0.001 A 
ATOM     63  C   UNL A   1      50.406  26.502  25.523  1.00  0.00     0.001 A 
ATOM     64  C   UNL A   1      49.761  26.605  24.291  1.00  0.00     0.000 A 
ENDBRANCH  40  59
BRANCH  52  65
ATOM     65  C   UNL A   1      44.346  33.487  27.651  1.00  0.00    -0.014 A 
ATOM     66  C   UNL A   1      44.132  33.998  26.371  1.00  0.00     0.009 A 
ATOM     67  C   UNL A   1      44.075  34.381  28.719  1.00  0.00     0.009 A 
ATOM     68  C   UNL A   1      43.653  35.300  26.166  1.00  0.00     0.001 A 
ATOM     69  C   UNL A   1      43.563  35.665  28.527  1.00  0.00     0.001 A 
ATOM     70  C   UNL A   1      43.351  36.125  27.241  1.00  0.00     0.000 A 
ENDBRANCH  52  65
ENDBRANCH  26  27
ENDBRANCH  19  21
ENDBRANCH  18  19
ENDBRANCH  17  18
ENDBRANCH   1  17
TORSDOF 13
ENDMDL
MODEL 2
REMARK VINA RESULT:     -10.5      5.973     11.359
REMARK SMILES Cc1ccc(S(=O)(=O)/C=C/C(=O)OCCOC(=O)c2ccc(-c3c4nc(c(-c5ccccc5)c5ccc([nH]5)c(-c5ccccc5)c5nc(c(-c6ccccc6)c6ccc3[nH]6)C=C5)C=C4)cc2)cc1
REMARK SMILES IDX 14 1 13 2 11 3 12 4 10 5 9 6 6 7 7 8 8 9 5 10 1 11 2 12 3 13
REMARK SMILES IDX 68 14 4 15 67 16 15 17 16 18 17 19 18 20 19 21 20 22 66 23
REMARK SMILES IDX 21 24 65 25 22 26 23 27 24 28 59 29 25 30 64 31 58 32 60 33
REMARK SMILES IDX 26 34 63 35 57 36 56 37 27 39 49 40 34 41 48 42 35 43 38 44
REMARK SMILES IDX 47 45 61 46 36 47 37 48 46 50 62 51 39 52 28 53 29 54 33 55
REMARK SMILES IDX 30 56 32 57 31 58 50 59 51 60 55 61 52 62 54 63 53 64 40 65
REMARK SMILES IDX 41 66 45 67 42 68 44 69 43 70
REMARK H PARENT 60 38 38 49
REMARK Flexibility Score: inf
ROOT
ATOM      1  C   UNL A   1      31.898  30.586  26.374  1.00  0.00     0.275 C 
ENDROOT
BRANCH   1   2
ATOM      2  O   UNL A   1      33.324  30.454  26.339  1.00  0.00    -0.459 OA
BRANCH   2   3
ATOM      3  C   UNL A   1      33.772  29.205  26.611  1.00  0.00     0.331 C 
ATOM      4  O   UNL A   1      34.538  28.890  27.507  1.00  0.00    -0.247 OA
BRANCH   3   5
ATOM      5  C   UNL A   1      33.171  28.257  25.657  1.00  0.00     0.106 C 
ATOM      6  C   UNL A   1      33.746  28.126  24.453  1.00  0.00     0.118 C 
BRANCH   6   7
ATOM      7  S   UNL A   1      32.912  27.336  23.163  1.00  0.00     0.200 S 
ATOM      8  O   UNL A   1      32.854  25.926  23.506  1.00  0.00    -0.219 OA
ATOM      9  O   UNL A   1      33.505  27.763  21.909  1.00  0.00    -0.219 OA
BRANCH   7  10
ATOM     10  C   UNL A   1      31.219  27.877  23.102  1.00  0.00     0.071 A 
ATOM     11  C   UNL A   1      27.021  28.830  22.940  1.00  0.00     0.044 C 
ATOM     12  C   UNL A   1      28.488  28.516  23.003  1.00  0.00    -0.051 A 
ATOM     13  C   UNL A   1      28.904  27.280  23.507  1.00  0.00     0.005 A 
ATOM     14  C   UNL A   1      29.453  29.433  22.563  1.00  0.00     0.005 A 
ATOM     15  C   UNL A   1      30.261  26.961  23.557  1.00  0.00     0.021 A 
ATOM     16  C   UNL A   1      30.818  29.118  22.615  1.00  0.00     0.021 A 
ENDBRANCH   7  10
ENDBRANCH   6   7
ENDBRANCH   3   5
ENDBRANCH   2   3
ENDBRANCH   1   2
BRANCH   1  17
ATOM     17  C   UNL A   1      31.471  31.932  26.981  1.00  0.00     0.275 C 
BRANCH  17  18
ATOM     18  O   UNL A   1      32.477  32.990  27.107  1.00  0.00    -0.458 OA
BRANCH  18  19
ATOM     19  C   UNL A   1      33.140  33.443  28.200  1.00  0.00     0.338 C 
ATOM     20  O   UNL A   1      32.626  34.204  29.013  1.00  0.00    -0.246 OA
BRANCH  19  21
ATOM     21  C   UNL A   1      34.505  32.955  28.423  1.00  0.00     0.060 A 
ATOM     22  C   UNL A   1      35.607  33.728  28.017  1.00  0.00     0.016 A 
ATOM     23  C   UNL A   1      34.677  31.770  29.114  1.00  0.00     0.016 A 
ATOM     24  C   UNL A   1      36.891  33.354  28.401  1.00  0.00     0.010 A 
ATOM     25  C   UNL A   1      35.898  31.522  29.672  1.00  0.00     0.010 A 
ATOM     26  C   UNL A   1      37.015  32.256  29.247  1.00  0.00    -0.014 A 
BRANCH  26  27
ATOM     27  C   UNL A   1      38.264  31.579  29.545  1.00  0.00     0.031 A 
ATOM     28  C   UNL A   1      38.646  30.319  28.907  1.00  0.00     0.074 A 
ATOM     29  C   UNL A   1      39.064  32.311  30.354  1.00  0.00     0.049 A 
ATOM     30  N   UNL A   1      39.414  29.446  29.457  1.00  0.00    -0.248 NA
ATOM     31  C   UNL A   1      38.167  29.909  27.589  1.00  0.00     0.031 C 
ATOM     32  C   UNL A   1      40.474  32.223  30.671  1.00  0.00     0.029 A 
ATOM     33  N   UNL A   1      38.604  33.329  31.195  1.00  0.00    -0.354 N 
ATOM     34  C   UNL A   1      39.837  28.618  28.441  1.00  0.00     0.074 A 
ATOM     35  C   UNL A   1      38.905  28.816  27.359  1.00  0.00     0.031 C 
ATOM     36  C   UNL A   1      40.699  32.923  31.805  1.00  0.00     0.029 A 
ATOM     37  C   UNL A   1      39.401  33.342  32.328  1.00  0.00     0.049 A 
ATOM     38  H   UNL A   1      37.848  33.932  31.013  1.00  0.00     0.167 HD
ATOM     39  C   UNL A   1      41.078  28.062  28.516  1.00  0.00     0.031 A 
ATOM     40  C   UNL A   1      38.816  32.918  33.489  1.00  0.00     0.031 A 
ATOM     41  C   UNL A   1      41.760  28.498  29.733  1.00  0.00     0.049 A 
ATOM     42  C   UNL A   1      39.435  31.621  33.951  1.00  0.00     0.074 A 
ATOM     43  C   UNL A   1      42.705  29.487  29.962  1.00  0.00     0.029 A 
ATOM     44  N   UNL A   1      41.208  28.194  30.970  1.00  0.00    -0.354 N 
ATOM     45  N   UNL A   1      39.998  30.744  33.165  1.00  0.00    -0.248 NA
ATOM     46  C   UNL A   1      39.494  31.241  35.351  1.00  0.00     0.031 C 
ATOM     47  C   UNL A   1      42.697  29.790  31.350  1.00  0.00     0.029 A 
ATOM     48  C   UNL A   1      41.753  28.985  31.963  1.00  0.00     0.049 A 
ATOM     49  H   UNL A   1      40.520  27.506  31.118  1.00  0.00     0.167 HD
ATOM     50  C   UNL A   1      40.588  29.761  33.919  1.00  0.00     0.074 A 
ATOM     51  C   UNL A   1      40.202  30.101  35.280  1.00  0.00     0.031 C 
ATOM     52  C   UNL A   1      41.360  28.778  33.355  1.00  0.00     0.031 A 
BRANCH  39  53
ATOM     53  C   UNL A   1      41.788  27.442  27.337  1.00  0.00    -0.014 A 
ATOM     54  C   UNL A   1      41.474  26.124  26.954  1.00  0.00     0.009 A 
ATOM     55  C   UNL A   1      42.767  28.096  26.569  1.00  0.00     0.009 A 
ATOM     56  C   UNL A   1      42.138  25.468  25.911  1.00  0.00     0.001 A 
ATOM     57  C   UNL A   1      43.452  27.436  25.533  1.00  0.00     0.001 A 
ATOM     58  C   UNL A   1      43.140  26.120  25.208  1.00  0.00     0.000 A 
ENDBRANCH  39  53
BRANCH  40  59
ATOM     59  C   UNL A   1      37.352  33.268  33.590  1.00  0.00    -0.014 A 
ATOM     60  C   UNL A   1      36.989  34.634  33.674  1.00  0.00     0.009 A 
ATOM     61  C   UNL A   1      36.343  32.349  33.266  1.00  0.00     0.009 A 
ATOM     62  C   UNL A   1      35.706  35.075  33.322  1.00  0.00     0.001 A 
ATOM     63  C   UNL A   1      35.047  32.792  32.945  1.00  0.00     0.001 A 
ATOM     64  C   UNL A   1      34.740  34.152  32.936  1.00  0.00     0.000 A 
ENDBRANCH  40  59
BRANCH  52  65
ATOM     65  C   UNL A   1      41.887  27.521  34.022  1.00  0.00    -0.014 A 
ATOM     66  C   UNL A   1      41.176  26.709  34.905  1.00  0.00     0.009 A 
ATOM     67  C   UNL A   1      43.193  27.073  33.695  1.00  0.00     0.009 A 
ATOM     68  C   UNL A   1      41.715  25.515  35.407  1.00  0.00     0.001 A 
ATOM     69  C   UNL A   1      43.724  25.869  34.160  1.00  0.00     0.001 A 
ATOM     70  C   UNL A   1      42.978  25.086  35.020  1.00  0.00     0.000 A 
ENDBRANCH  52  65
ENDBRANCH  26  27
ENDBRANCH  19  21
ENDBRANCH  18  19
ENDBRANCH  17  18
ENDBRANCH   1  17
TORSDOF 13
ENDMDL
MODEL 3
REMARK VINA RESULT:     -10.3      5.724     11.004
REMARK SMILES Cc1ccc(S(=O)(=O)/C=C/C(=O)OCCOC(=O)c2ccc(-c3c4nc(c(-c5ccccc5)c5ccc([nH]5)c(-c5ccccc5)c5nc(c(-c6ccccc6)c6ccc3[nH]6)C=C5)C=C4)cc2)cc1
REMARK SMILES IDX 14 1 13 2 11 3 12 4 10 5 9 6 6 7 7 8 8 9 5 10 1 11 2 12 3 13
REMARK SMILES IDX 68 14 4 15 67 16 15 17 16 18 17 19 18 20 19 21 20 22 66 23
REMARK SMILES IDX 21 24 65 25 22 26 23 27 24 28 59 29 25 30 64 31 58 32 60 33
REMARK SMILES IDX 26 34 63 35 57 36 56 37 27 39 49 40 34 41 48 42 35 43 38 44
REMARK SMILES IDX 47 45 61 46 36 47 37 48 46 50 62 51 39 52 28 53 29 54 33 55
REMARK SMILES IDX 30 56 32 57 31 58 50 59 51 60 55 61 52 62 54 63 53 64 40 65
REMARK SMILES IDX 41 66 45 67 42 68 44 69 43 70
REMARK H PARENT 60 38 38 49
REMARK Flexibility Score: inf
ROOT
ATOM      1  C   UNL A   1      31.863  30.491  26.170  1.00  0.00     0.275 C 
ENDROOT
BRANCH   1   2
ATOM      2  O   UNL A   1      33.289  30.422  26.055  1.00  0.00    -0.459 OA
BRANCH   2   3
ATOM      3  C   UNL A   1      33.792  29.167  26.140  1.00  0.00     0.331 C 
ATOM      4  O   UNL A   1      34.674  28.789  26.893  1.00  0.00    -0.247 OA
BRANCH   3   5
ATOM      5  C   UNL A   1      33.090  28.299  25.178  1.00  0.00     0.106 C 
ATOM      6  C   UNL A   1      33.804  27.758  24.180  1.00  0.00     0.118 C 
BRANCH   6   7
ATOM      7  S   UNL A   1      33.012  27.048  22.819  1.00  0.00     0.200 S 
ATOM      8  O   UNL A   1      33.868  27.280  21.670  1.00  0.00    -0.219 OA
ATOM      9  O   UNL A   1      31.632  27.499  22.810  1.00  0.00    -0.219 OA
BRANCH   7  10
ATOM     10  C   UNL A   1      32.938  25.281  23.003  1.00  0.00     0.071 A 
ATOM     11  C   UNL A   1      32.420  21.044  23.591  1.00  0.00     0.044 C 
ATOM     12  C   UNL A   1      32.615  22.517  23.374  1.00  0.00    -0.051 A 
ATOM     13  C   UNL A   1      31.498  23.342  23.214  1.00  0.00     0.005 A 
ATOM     14  C   UNL A   1      33.896  23.088  23.332  1.00  0.00     0.005 A 
ATOM     15  C   UNL A   1      31.657  24.716  23.030  1.00  0.00     0.021 A 
ATOM     16  C   UNL A   1      34.059  24.468  23.143  1.00  0.00     0.021 A 
ENDBRANCH   7  10
ENDBRANCH   6   7
ENDBRANCH   3   5
ENDBRANCH   2   3
ENDBRANCH   1   2
BRANCH   1  17
ATOM     17  C   UNL A   1      31.414  31.812  26.815  1.00  0.00     0.275 C 
BRANCH  17  18
ATOM     18  O   UNL A   1      32.391  32.896  26.936  1.00  0.00    -0.458 OA
BRANCH  18  19
ATOM     19  C   UNL A   1      33.041  33.372  28.028  1.00  0.00     0.338 C 
ATOM     20  O   UNL A   1      32.514  34.140  28.826  1.00  0.00    -0.246 OA
BRANCH  19  21
ATOM     21  C   UNL A   1      34.408  32.900  28.269  1.00  0.00     0.060 A 
ATOM     22  C   UNL A   1      35.506  33.702  27.914  1.00  0.00     0.016 A 
ATOM     23  C   UNL A   1      34.585  31.696  28.928  1.00  0.00     0.016 A 
ATOM     24  C   UNL A   1      36.787  33.337  28.318  1.00  0.00     0.010 A 
ATOM     25  C   UNL A   1      35.796  31.452  29.508  1.00  0.00     0.010 A 
ATOM     26  C   UNL A   1      36.910  32.216  29.133  1.00  0.00    -0.014 A 
BRANCH  26  27
ATOM     27  C   UNL A   1      38.163  31.551  29.441  1.00  0.00     0.031 A 
ATOM     28  C   UNL A   1      38.547  30.279  28.828  1.00  0.00     0.074 A 
ATOM     29  C   UNL A   1      38.963  32.302  30.231  1.00  0.00     0.049 A 
ATOM     30  N   UNL A   1      39.320  29.420  29.394  1.00  0.00    -0.248 NA
ATOM     31  C   UNL A   1      38.065  29.839  27.520  1.00  0.00     0.031 C 
ATOM     32  C   UNL A   1      40.374  32.228  30.544  1.00  0.00     0.029 A 
ATOM     33  N   UNL A   1      38.502  33.336  31.051  1.00  0.00    -0.354 N 
ATOM     34  C   UNL A   1      39.744  28.573  28.394  1.00  0.00     0.074 A 
ATOM     35  C   UNL A   1      38.807  28.744  27.311  1.00  0.00     0.031 C 
ATOM     36  C   UNL A   1      40.600  32.952  31.662  1.00  0.00     0.029 A 
ATOM     37  C   UNL A   1      39.303  33.377  32.181  1.00  0.00     0.049 A 
ATOM     38  H   UNL A   1      37.742  33.933  30.859  1.00  0.00     0.167 HD
ATOM     39  C   UNL A   1      40.987  28.024  28.476  1.00  0.00     0.031 A 
ATOM     40  C   UNL A   1      38.724  32.975  33.352  1.00  0.00     0.031 A 
ATOM     41  C   UNL A   1      41.672  28.488  29.681  1.00  0.00     0.049 A 
ATOM     42  C   UNL A   1      39.349  31.691  33.840  1.00  0.00     0.074 A 
ATOM     43  C   UNL A   1      42.614  29.486  29.885  1.00  0.00     0.029 A 
ATOM     44  N   UNL A   1      41.126  28.208  30.926  1.00  0.00    -0.354 N 
ATOM     45  N   UNL A   1      39.914  30.799  33.071  1.00  0.00    -0.248 NA
ATOM     46  C   UNL A   1      39.416  31.341  35.248  1.00  0.00     0.031 C 
ATOM     47  C   UNL A   1      42.609  29.819  31.267  1.00  0.00     0.029 A 
ATOM     48  C   UNL A   1      41.671  29.023  31.900  1.00  0.00     0.049 A 
ATOM     49  H   UNL A   1      40.441  27.521  31.092  1.00  0.00     0.167 HD
ATOM     50  C   UNL A   1      40.510  29.836  33.843  1.00  0.00     0.074 A 
ATOM     51  C   UNL A   1      40.128  30.203  35.198  1.00  0.00     0.031 C 
ATOM     52  C   UNL A   1      41.284  28.844  33.297  1.00  0.00     0.031 A 
BRANCH  39  53
ATOM     53  C   UNL A   1      41.695  27.382  27.308  1.00  0.00    -0.014 A 
ATOM     54  C   UNL A   1      41.586  25.992  27.111  1.00  0.00     0.009 A 
ATOM     55  C   UNL A   1      42.478  28.082  26.374  1.00  0.00     0.009 A 
ATOM     56  C   UNL A   1      42.268  25.325  26.086  1.00  0.00     0.001 A 
ATOM     57  C   UNL A   1      43.180  27.416  25.354  1.00  0.00     0.001 A 
ATOM     58  C   UNL A   1      43.079  26.036  25.215  1.00  0.00     0.000 A 
ENDBRANCH  39  53
BRANCH  40  59
ATOM     59  C   UNL A   1      37.259  33.322  33.452  1.00  0.00    -0.014 A 
ATOM     60  C   UNL A   1      36.885  34.688  33.429  1.00  0.00     0.009 A 
ATOM     61  C   UNL A   1      36.253  32.372  33.224  1.00  0.00     0.009 A 
ATOM     62  C   UNL A   1      35.592  35.087  33.065  1.00  0.00     0.001 A 
ATOM     63  C   UNL A   1      34.947  32.776  32.892  1.00  0.00     0.001 A 
ATOM     64  C   UNL A   1      34.628  34.129  32.776  1.00  0.00     0.000 A 
ENDBRANCH  40  59
BRANCH  52  65
ATOM     65  C   UNL A   1      41.819  27.604  33.989  1.00  0.00    -0.014 A 
ATOM     66  C   UNL A   1      41.076  26.730  34.782  1.00  0.00     0.009 A 
ATOM     67  C   UNL A   1      43.175  27.240  33.785  1.00  0.00     0.009 A 
ATOM     68  C   UNL A   1      41.634  25.557  35.311  1.00  0.00     0.001 A 
ATOM     69  C   UNL A   1      43.730  26.059  34.276  1.00  0.00     0.001 A 
ATOM     70  C   UNL A   1      42.953  25.212  35.043  1.00  0.00     0.000 A 
ENDBRANCH  52  65
ENDBRANCH  26  27
ENDBRANCH  19  21
ENDBRANCH  18  19
ENDBRANCH  17  18
ENDBRANCH   1  17
TORSDOF 13
ENDMDL
