MODEL 1
REMARK VINA RESULT:     -11.2      0.000      0.000
REMARK SMILES O=C(OCCOC(=O)c1ccc(-c2c3nc(c(-c4ccccc4)c4ccc([nH]4)c(-c4ccccc4)c4nc(c(-c5ccccc5)c5ccc2[nH]5)C=C4)C=C3)cc1)c1ccc(Cc2nc3ccccc3s2)cc1
REMARK SMILES IDX 4 1 3 2 2 3 1 4 57 5 58 6 72 7 59 8 71 9 60 10 61 11 62 12
REMARK SMILES IDX 63 13 70 14 64 15 69 16 65 17 68 18 66 19 67 20 5 21 6 22
REMARK SMILES IDX 7 23 8 24 9 25 10 26 56 27 11 28 55 29 12 30 13 31 14 32
REMARK SMILES IDX 49 33 15 34 54 35 48 36 50 37 16 38 53 39 47 40 46 41 17 43
REMARK SMILES IDX 39 44 24 45 38 46 25 47 28 48 37 49 51 50 26 51 27 52 36 54
REMARK SMILES IDX 52 55 29 56 18 57 19 58 23 59 20 60 22 61 21 62 40 63 41 64
REMARK SMILES IDX 45 65 42 66 44 67 43 68 30 69 31 70 35 71 32 72 34 73 33 74
REMARK H PARENT 50 42 28 53
REMARK Flexibility Score: inf
ROOT
ATOM      1  C   UNL A   1      43.209  20.753  25.762  1.00  0.00     0.275 C 
ENDROOT
BRANCH   1   2
ATOM      2  O   UNL A   1      41.874  21.276  25.645  1.00  0.00    -0.458 OA
BRANCH   2   3
ATOM      3  C   UNL A   1      40.920  21.464  26.586  1.00  0.00     0.338 C 
ATOM      4  O   UNL A   1      41.103  20.956  27.694  1.00  0.00    -0.246 OA
BRANCH   3   5
ATOM      5  C   UNL A   1      39.601  22.148  26.350  1.00  0.00     0.060 A 
ATOM      6  C   UNL A   1      39.210  23.402  26.822  1.00  0.00     0.016 A 
ATOM      7  C   UNL A   1      38.687  21.462  25.528  1.00  0.00     0.016 A 
ATOM      8  C   UNL A   1      38.010  23.993  26.418  1.00  0.00     0.005 A 
ATOM      9  C   UNL A   1      37.454  22.021  25.175  1.00  0.00     0.005 A 
ATOM     10  C   UNL A   1      37.123  23.313  25.580  1.00  0.00    -0.041 A 
BRANCH  10  11
ATOM     11  C   UNL A   1      35.765  23.916  25.280  1.00  0.00     0.103 C 
BRANCH  11  12
ATOM     12  C   UNL A   1      34.742  22.822  25.173  1.00  0.00     0.098 A 
ATOM     13  N   UNL A   1      34.081  22.574  24.062  1.00  0.00    -0.241 NA
ATOM     14  S   UNL A   1      34.453  21.727  26.458  1.00  0.00    -0.118 S 
ATOM     15  C   UNL A   1      33.438  21.367  24.151  1.00  0.00     0.082 A 
ATOM     16  C   UNL A   1      33.500  20.749  25.400  1.00  0.00     0.055 A 
ATOM     17  C   UNL A   1      32.764  20.732  23.093  1.00  0.00     0.030 A 
ATOM     18  C   UNL A   1      32.870  19.519  25.637  1.00  0.00     0.021 A 
ATOM     19  C   UNL A   1      32.154  19.497  23.312  1.00  0.00     0.002 A 
ATOM     20  C   UNL A   1      32.200  18.905  24.571  1.00  0.00     0.002 A 
ENDBRANCH  11  12
ENDBRANCH  10  11
ENDBRANCH   3   5
ENDBRANCH   2   3
ENDBRANCH   1   2
BRANCH   1  21
ATOM     21  C   UNL A   1      44.267  21.741  25.250  1.00  0.00     0.275 C 
BRANCH  21  22
ATOM     22  O   UNL A   1      43.685  22.970  24.776  1.00  0.00    -0.458 OA
BRANCH  22  23
ATOM     23  C   UNL A   1      44.420  24.095  24.990  1.00  0.00     0.338 C 
ATOM     24  O   UNL A   1      45.422  24.425  24.386  1.00  0.00    -0.246 OA
BRANCH  23  25
ATOM     25  C   UNL A   1      43.750  24.965  25.995  1.00  0.00     0.060 A 
ATOM     26  C   UNL A   1      44.156  26.303  26.086  1.00  0.00     0.016 A 
ATOM     27  C   UNL A   1      42.724  24.501  26.823  1.00  0.00     0.016 A 
ATOM     28  C   UNL A   1      43.557  27.171  27.010  1.00  0.00     0.010 A 
ATOM     29  C   UNL A   1      42.112  25.374  27.732  1.00  0.00     0.010 A 
ATOM     30  C   UNL A   1      42.538  26.712  27.853  1.00  0.00    -0.014 A 
BRANCH  30  31
ATOM     31  C   UNL A   1      41.989  27.560  28.949  1.00  0.00     0.031 A 
ATOM     32  C   UNL A   1      42.640  27.512  30.303  1.00  0.00     0.074 A 
ATOM     33  C   UNL A   1      40.901  28.337  28.789  1.00  0.00     0.049 A 
ATOM     34  N   UNL A   1      42.273  28.088  31.421  1.00  0.00    -0.248 NA
ATOM     35  C   UNL A   1      43.870  26.712  30.408  1.00  0.00     0.031 C 
ATOM     36  C   UNL A   1      40.197  28.555  27.533  1.00  0.00     0.029 A 
ATOM     37  N   UNL A   1      40.176  29.063  29.705  1.00  0.00    -0.354 N 
ATOM     38  C   UNL A   1      43.228  27.725  32.359  1.00  0.00     0.074 A 
ATOM     39  C   UNL A   1      44.156  26.834  31.695  1.00  0.00     0.031 C 
ATOM     40  C   UNL A   1      39.096  29.291  27.763  1.00  0.00     0.029 A 
ATOM     41  C   UNL A   1      39.027  29.613  29.187  1.00  0.00     0.049 A 
ATOM     42  H   UNL A   1      40.453  29.179  30.643  1.00  0.00     0.167 HD
ATOM     43  C   UNL A   1      43.343  28.112  33.651  1.00  0.00     0.031 A 
ATOM     44  C   UNL A   1      38.026  30.290  29.784  1.00  0.00     0.031 A 
ATOM     45  C   UNL A   1      42.432  28.991  34.330  1.00  0.00     0.049 A 
ATOM     46  C   UNL A   1      38.111  30.623  31.249  1.00  0.00     0.074 A 
ATOM     47  C   UNL A   1      42.505  29.471  35.627  1.00  0.00     0.029 A 
ATOM     48  N   UNL A   1      41.273  29.508  33.777  1.00  0.00    -0.354 N 
ATOM     49  N   UNL A   1      39.055  30.326  32.108  1.00  0.00    -0.248 NA
ATOM     50  C   UNL A   1      37.009  31.414  31.818  1.00  0.00     0.031 C 
ATOM     51  C   UNL A   1      41.358  30.232  35.877  1.00  0.00     0.029 A 
ATOM     52  C   UNL A   1      40.601  30.271  34.718  1.00  0.00     0.049 A 
ATOM     53  H   UNL A   1      40.971  29.358  32.852  1.00  0.00     0.167 HD
ATOM     54  C   UNL A   1      38.686  30.934  33.303  1.00  0.00     0.074 A 
ATOM     55  C   UNL A   1      37.427  31.606  33.063  1.00  0.00     0.031 C 
ATOM     56  C   UNL A   1      39.350  30.945  34.485  1.00  0.00     0.031 A 
BRANCH  43  57
ATOM     57  C   UNL A   1      44.504  27.550  34.418  1.00  0.00    -0.014 A 
ATOM     58  C   UNL A   1      45.743  28.211  34.452  1.00  0.00     0.009 A 
ATOM     59  C   UNL A   1      44.358  26.337  35.105  1.00  0.00     0.009 A 
ATOM     60  C   UNL A   1      46.828  27.638  35.116  1.00  0.00     0.001 A 
ATOM     61  C   UNL A   1      45.437  25.781  35.793  1.00  0.00     0.001 A 
ATOM     62  C   UNL A   1      46.674  26.425  35.787  1.00  0.00     0.000 A 
ENDBRANCH  43  57
BRANCH  44  63
ATOM     63  C   UNL A   1      36.843  30.710  28.990  1.00  0.00    -0.014 A 
ATOM     64  C   UNL A   1      36.639  32.058  28.663  1.00  0.00     0.009 A 
ATOM     65  C   UNL A   1      35.903  29.757  28.568  1.00  0.00     0.009 A 
ATOM     66  C   UNL A   1      35.505  32.448  27.947  1.00  0.00     0.001 A 
ATOM     67  C   UNL A   1      34.780  30.147  27.834  1.00  0.00     0.001 A 
ATOM     68  C   UNL A   1      34.579  31.493  27.530  1.00  0.00     0.000 A 
ENDBRANCH  44  63
BRANCH  56  69
ATOM     69  C   UNL A   1      38.762  31.745  35.614  1.00  0.00    -0.014 A 
ATOM     70  C   UNL A   1      38.046  31.134  36.653  1.00  0.00     0.009 A 
ATOM     71  C   UNL A   1      38.996  33.129  35.673  1.00  0.00     0.009 A 
ATOM     72  C   UNL A   1      37.562  31.894  37.719  1.00  0.00     0.001 A 
ATOM     73  C   UNL A   1      38.534  33.883  36.754  1.00  0.00     0.001 A 
ATOM     74  C   UNL A   1      37.813  33.265  37.774  1.00  0.00     0.000 A 
ENDBRANCH  56  69
ENDBRANCH  30  31
ENDBRANCH  23  25
ENDBRANCH  22  23
ENDBRANCH  21  22
ENDBRANCH   1  21
TORSDOF 13
ENDMDL
MODEL 2
REMARK VINA RESULT:     -11.1      4.526      6.828
REMARK SMILES O=C(OCCOC(=O)c1ccc(-c2c3nc(c(-c4ccccc4)c4ccc([nH]4)c(-c4ccccc4)c4nc(c(-c5ccccc5)c5ccc2[nH]5)C=C4)C=C3)cc1)c1ccc(Cc2nc3ccccc3s2)cc1
REMARK SMILES IDX 4 1 3 2 2 3 1 4 57 5 58 6 72 7 59 8 71 9 60 10 61 11 62 12
REMARK SMILES IDX 63 13 70 14 64 15 69 16 65 17 68 18 66 19 67 20 5 21 6 22
REMARK SMILES IDX 7 23 8 24 9 25 10 26 56 27 11 28 55 29 12 30 13 31 14 32
REMARK SMILES IDX 49 33 15 34 54 35 48 36 50 37 16 38 53 39 47 40 46 41 17 43
REMARK SMILES IDX 39 44 24 45 38 46 25 47 28 48 37 49 51 50 26 51 27 52 36 54
REMARK SMILES IDX 52 55 29 56 18 57 19 58 23 59 20 60 22 61 21 62 40 63 41 64
REMARK SMILES IDX 45 65 42 66 44 67 43 68 30 69 31 70 35 71 32 72 34 73 33 74
REMARK H PARENT 50 42 28 53
REMARK Flexibility Score: inf
ROOT
ATOM      1  C   UNL A   1      42.228  19.049  26.437  1.00  0.00     0.275 C 
ENDROOT
BRANCH   1   2
ATOM      2  O   UNL A   1      41.779  20.292  25.867  1.00  0.00    -0.458 OA
BRANCH   2   3
ATOM      3  C   UNL A   1      41.546  21.489  26.452  1.00  0.00     0.338 C 
ATOM      4  O   UNL A   1      42.458  21.992  27.109  1.00  0.00    -0.246 OA
BRANCH   3   5
ATOM      5  C   UNL A   1      40.220  22.201  26.455  1.00  0.00     0.060 A 
ATOM      6  C   UNL A   1      39.932  23.437  27.037  1.00  0.00     0.016 A 
ATOM      7  C   UNL A   1      39.176  21.567  25.755  1.00  0.00     0.016 A 
ATOM      8  C   UNL A   1      38.696  24.062  26.852  1.00  0.00     0.005 A 
ATOM      9  C   UNL A   1      37.915  22.158  25.623  1.00  0.00     0.005 A 
ATOM     10  C   UNL A   1      37.677  23.433  26.133  1.00  0.00    -0.041 A 
BRANCH  10  11
ATOM     11  C   UNL A   1      36.301  24.068  26.075  1.00  0.00     0.103 C 
BRANCH  11  12
ATOM     12  C   UNL A   1      35.443  23.317  25.098  1.00  0.00     0.098 A 
ATOM     13  N   UNL A   1      34.956  22.121  25.354  1.00  0.00    -0.241 NA
ATOM     14  S   UNL A   1      34.925  24.020  23.624  1.00  0.00    -0.118 S 
ATOM     15  C   UNL A   1      33.991  21.795  24.437  1.00  0.00     0.082 A 
ATOM     16  C   UNL A   1      33.836  22.700  23.387  1.00  0.00     0.055 A 
ATOM     17  C   UNL A   1      33.168  20.657  24.502  1.00  0.00     0.030 A 
ATOM     18  C   UNL A   1      32.899  22.480  22.367  1.00  0.00     0.021 A 
ATOM     19  C   UNL A   1      32.215  20.442  23.507  1.00  0.00     0.002 A 
ATOM     20  C   UNL A   1      32.091  21.339  22.449  1.00  0.00     0.002 A 
ENDBRANCH  11  12
ENDBRANCH  10  11
ENDBRANCH   3   5
ENDBRANCH   2   3
ENDBRANCH   1   2
BRANCH   1  21
ATOM     21  C   UNL A   1      43.421  18.457  25.674  1.00  0.00     0.275 C 
BRANCH  21  22
ATOM     22  O   UNL A   1      43.628  19.096  24.400  1.00  0.00    -0.458 OA
BRANCH  22  23
ATOM     23  C   UNL A   1      44.900  19.504  24.141  1.00  0.00     0.338 C 
ATOM     24  O   UNL A   1      45.768  18.851  23.594  1.00  0.00    -0.246 OA
BRANCH  23  25
ATOM     25  C   UNL A   1      45.064  20.939  24.500  1.00  0.00     0.060 A 
ATOM     26  C   UNL A   1      45.617  21.249  25.750  1.00  0.00     0.016 A 
ATOM     27  C   UNL A   1      44.710  21.974  23.629  1.00  0.00     0.016 A 
ATOM     28  C   UNL A   1      45.800  22.583  26.139  1.00  0.00     0.010 A 
ATOM     29  C   UNL A   1      44.913  23.307  24.012  1.00  0.00     0.010 A 
ATOM     30  C   UNL A   1      45.437  23.627  25.280  1.00  0.00    -0.014 A 
BRANCH  30  31
ATOM     31  C   UNL A   1      45.471  25.051  25.721  1.00  0.00     0.031 A 
ATOM     32  C   UNL A   1      46.795  25.757  25.803  1.00  0.00     0.074 A 
ATOM     33  C   UNL A   1      44.364  25.720  26.095  1.00  0.00     0.049 A 
ATOM     34  N   UNL A   1      47.069  26.957  26.251  1.00  0.00    -0.248 NA
ATOM     35  C   UNL A   1      47.964  25.011  25.310  1.00  0.00     0.031 C 
ATOM     36  C   UNL A   1      43.002  25.214  26.008  1.00  0.00     0.029 A 
ATOM     37  N   UNL A   1      44.219  26.967  26.658  1.00  0.00    -0.354 N 
ATOM     38  C   UNL A   1      48.438  27.112  26.089  1.00  0.00     0.074 A 
ATOM     39  C   UNL A   1      48.946  25.864  25.558  1.00  0.00     0.031 C 
ATOM     40  C   UNL A   1      42.162  26.100  26.572  1.00  0.00     0.029 A 
ATOM     41  C   UNL A   1      42.930  27.249  27.045  1.00  0.00     0.049 A 
ATOM     42  H   UNL A   1      44.966  27.598  26.772  1.00  0.00     0.167 HD
ATOM     43  C   UNL A   1      49.207  28.198  26.335  1.00  0.00     0.031 A 
ATOM     44  C   UNL A   1      42.421  28.304  27.713  1.00  0.00     0.031 A 
ATOM     45  C   UNL A   1      48.725  29.443  26.867  1.00  0.00     0.049 A 
ATOM     46  C   UNL A   1      43.308  29.462  28.080  1.00  0.00     0.074 A 
ATOM     47  C   UNL A   1      49.433  30.610  27.100  1.00  0.00     0.029 A 
ATOM     48  N   UNL A   1      47.421  29.680  27.265  1.00  0.00    -0.354 N 
ATOM     49  N   UNL A   1      44.590  29.620  27.861  1.00  0.00    -0.248 NA
ATOM     50  C   UNL A   1      42.669  30.603  28.756  1.00  0.00     0.031 C 
ATOM     51  C   UNL A   1      48.568  31.535  27.695  1.00  0.00     0.029 A 
ATOM     52  C   UNL A   1      47.310  30.962  27.779  1.00  0.00     0.049 A 
ATOM     53  H   UNL A   1      46.681  29.035  27.191  1.00  0.00     0.167 HD
ATOM     54  C   UNL A   1      44.900  30.893  28.326  1.00  0.00     0.074 A 
ATOM     55  C   UNL A   1      43.677  31.462  28.850  1.00  0.00     0.031 C 
ATOM     56  C   UNL A   1      46.095  31.534  28.298  1.00  0.00     0.031 A 
BRANCH  43  57
ATOM     57  C   UNL A   1      50.673  28.061  26.047  1.00  0.00    -0.014 A 
ATOM     58  C   UNL A   1      51.196  28.356  24.777  1.00  0.00     0.009 A 
ATOM     59  C   UNL A   1      51.540  27.619  27.057  1.00  0.00     0.009 A 
ATOM     60  C   UNL A   1      52.552  28.158  24.510  1.00  0.00     0.001 A 
ATOM     61  C   UNL A   1      52.900  27.450  26.796  1.00  0.00     0.001 A 
ATOM     62  C   UNL A   1      53.402  27.707  25.520  1.00  0.00     0.000 A 
ENDBRANCH  43  57
BRANCH  44  63
ATOM     63  C   UNL A   1      40.981  28.319  28.078  1.00  0.00    -0.014 A 
ATOM     64  C   UNL A   1      40.039  28.957  27.259  1.00  0.00     0.009 A 
ATOM     65  C   UNL A   1      40.548  27.706  29.264  1.00  0.00     0.009 A 
ATOM     66  C   UNL A   1      38.693  28.998  27.629  1.00  0.00     0.001 A 
ATOM     67  C   UNL A   1      39.198  27.730  29.622  1.00  0.00     0.001 A 
ATOM     68  C   UNL A   1      38.273  28.382  28.808  1.00  0.00     0.000 A 
ENDBRANCH  44  63
BRANCH  56  69
ATOM     69  C   UNL A   1      46.146  32.948  28.806  1.00  0.00    -0.014 A 
ATOM     70  C   UNL A   1      46.476  33.239  30.138  1.00  0.00     0.009 A 
ATOM     71  C   UNL A   1      45.931  34.010  27.912  1.00  0.00     0.009 A 
ATOM     72  C   UNL A   1      46.575  34.564  30.567  1.00  0.00     0.001 A 
ATOM     73  C   UNL A   1      46.055  35.334  28.338  1.00  0.00     0.001 A 
ATOM     74  C   UNL A   1      46.372  35.610  29.667  1.00  0.00     0.000 A 
ENDBRANCH  56  69
ENDBRANCH  30  31
ENDBRANCH  23  25
ENDBRANCH  22  23
ENDBRANCH  21  22
ENDBRANCH   1  21
TORSDOF 13
ENDMDL
MODEL 3
REMARK VINA RESULT:     -11.1      4.770      8.771
REMARK SMILES O=C(OCCOC(=O)c1ccc(-c2c3nc(c(-c4ccccc4)c4ccc([nH]4)c(-c4ccccc4)c4nc(c(-c5ccccc5)c5ccc2[nH]5)C=C4)C=C3)cc1)c1ccc(Cc2nc3ccccc3s2)cc1
REMARK SMILES IDX 4 1 3 2 2 3 1 4 57 5 58 6 72 7 59 8 71 9 60 10 61 11 62 12
REMARK SMILES IDX 63 13 70 14 64 15 69 16 65 17 68 18 66 19 67 20 5 21 6 22
REMARK SMILES IDX 7 23 8 24 9 25 10 26 56 27 11 28 55 29 12 30 13 31 14 32
REMARK SMILES IDX 49 33 15 34 54 35 48 36 50 37 16 38 53 39 47 40 46 41 17 43
REMARK SMILES IDX 39 44 24 45 38 46 25 47 28 48 37 49 51 50 26 51 27 52 36 54
REMARK SMILES IDX 52 55 29 56 18 57 19 58 23 59 20 60 22 61 21 62 40 63 41 64
REMARK SMILES IDX 45 65 42 66 44 67 43 68 30 69 31 70 35 71 32 72 34 73 33 74
REMARK H PARENT 50 42 28 53
REMARK Flexibility Score: inf
ROOT
ATOM      1  C   UNL A   1      45.033  18.396  25.073  1.00  0.00     0.275 C 
ENDROOT
BRANCH   1   2
ATOM      2  O   UNL A   1      45.731  19.654  25.108  1.00  0.00    -0.458 OA
BRANCH   2   3
ATOM      3  C   UNL A   1      45.433  20.838  24.525  1.00  0.00     0.338 C 
ATOM      4  O   UNL A   1      44.888  20.810  23.421  1.00  0.00    -0.246 OA
BRANCH   3   5
ATOM      5  C   UNL A   1      45.819  22.186  25.071  1.00  0.00     0.060 A 
ATOM      6  C   UNL A   1      45.739  22.608  26.399  1.00  0.00     0.016 A 
ATOM      7  C   UNL A   1      46.358  23.098  24.143  1.00  0.00     0.016 A 
ATOM      8  C   UNL A   1      46.260  23.839  26.807  1.00  0.00     0.005 A 
ATOM      9  C   UNL A   1      46.820  24.358  24.536  1.00  0.00     0.005 A 
ATOM     10  C   UNL A   1      46.817  24.724  25.881  1.00  0.00    -0.041 A 
BRANCH  10  11
ATOM     11  C   UNL A   1      47.237  26.109  26.329  1.00  0.00     0.103 C 
BRANCH  11  12
ATOM     12  C   UNL A   1      46.080  27.057  26.184  1.00  0.00     0.098 A 
ATOM     13  N   UNL A   1      44.973  26.732  25.552  1.00  0.00    -0.241 NA
ATOM     14  S   UNL A   1      46.069  28.591  26.945  1.00  0.00    -0.118 S 
ATOM     15  C   UNL A   1      43.991  27.652  25.812  1.00  0.00     0.082 A 
ATOM     16  C   UNL A   1      44.398  28.768  26.544  1.00  0.00     0.055 A 
ATOM     17  C   UNL A   1      42.647  27.533  25.416  1.00  0.00     0.030 A 
ATOM     18  C   UNL A   1      43.500  29.797  26.864  1.00  0.00     0.021 A 
ATOM     19  C   UNL A   1      41.741  28.538  25.750  1.00  0.00     0.002 A 
ATOM     20  C   UNL A   1      42.168  29.660  26.458  1.00  0.00     0.002 A 
ENDBRANCH  11  12
ENDBRANCH  10  11
ENDBRANCH   3   5
ENDBRANCH   2   3
ENDBRANCH   1   2
BRANCH   1  21
ATOM     21  C   UNL A   1      43.535  18.556  25.364  1.00  0.00     0.275 C 
BRANCH  21  22
ATOM     22  O   UNL A   1      43.270  19.603  26.317  1.00  0.00    -0.458 OA
BRANCH  22  23
ATOM     23  C   UNL A   1      42.129  20.315  26.114  1.00  0.00     0.338 C 
ATOM     24  O   UNL A   1      41.130  19.926  25.540  1.00  0.00    -0.246 OA
BRANCH  23  25
ATOM     25  C   UNL A   1      42.205  21.624  26.820  1.00  0.00     0.060 A 
ATOM     26  C   UNL A   1      42.271  22.790  26.045  1.00  0.00     0.016 A 
ATOM     27  C   UNL A   1      42.189  21.725  28.214  1.00  0.00     0.016 A 
ATOM     28  C   UNL A   1      42.339  24.050  26.655  1.00  0.00     0.010 A 
ATOM     29  C   UNL A   1      42.236  22.986  28.822  1.00  0.00     0.010 A 
ATOM     30  C   UNL A   1      42.337  24.161  28.051  1.00  0.00    -0.014 A 
BRANCH  30  31
ATOM     31  C   UNL A   1      42.565  25.468  28.731  1.00  0.00     0.031 A 
ATOM     32  C   UNL A   1      41.451  26.476  28.765  1.00  0.00     0.074 A 
ATOM     33  C   UNL A   1      43.749  25.802  29.280  1.00  0.00     0.049 A 
ATOM     34  N   UNL A   1      41.460  27.707  29.215  1.00  0.00    -0.248 NA
ATOM     35  C   UNL A   1      40.156  26.037  28.224  1.00  0.00     0.031 C 
ATOM     36  C   UNL A   1      44.902  24.922  29.399  1.00  0.00     0.029 A 
ATOM     37  N   UNL A   1      44.184  26.993  29.812  1.00  0.00    -0.354 N 
ATOM     38  C   UNL A   1      40.173  28.186  29.016  1.00  0.00     0.074 A 
ATOM     39  C   UNL A   1      39.429  27.136  28.353  1.00  0.00     0.031 C 
ATOM     40  C   UNL A   1      45.943  25.617  29.891  1.00  0.00     0.029 A 
ATOM     41  C   UNL A   1      45.520  26.993  30.141  1.00  0.00     0.049 A 
ATOM     42  H   UNL A   1      43.596  27.771  29.947  1.00  0.00     0.167 HD
ATOM     43  C   UNL A   1      39.645  29.380  29.370  1.00  0.00     0.031 A 
ATOM     44  C   UNL A   1      46.319  27.985  30.582  1.00  0.00     0.031 A 
ATOM     45  C   UNL A   1      40.367  30.437  30.024  1.00  0.00     0.049 A 
ATOM     46  C   UNL A   1      45.743  29.344  30.871  1.00  0.00     0.074 A 
ATOM     47  C   UNL A   1      39.890  31.661  30.461  1.00  0.00     0.029 A 
ATOM     48  N   UNL A   1      41.719  30.406  30.319  1.00  0.00    -0.354 N 
ATOM     49  N   UNL A   1      44.509  29.762  30.737  1.00  0.00    -0.248 NA
ATOM     50  C   UNL A   1      46.665  30.360  31.405  1.00  0.00     0.031 C 
ATOM     51  C   UNL A   1      40.968  32.395  30.968  1.00  0.00     0.029 A 
ATOM     52  C   UNL A   1      42.103  31.604  30.896  1.00  0.00     0.049 A 
ATOM     53  H   UNL A   1      42.318  29.644  30.145  1.00  0.00     0.167 HD
ATOM     54  C   UNL A   1      44.495  31.067  31.215  1.00  0.00     0.074 A 
ATOM     55  C   UNL A   1      45.846  31.379  31.631  1.00  0.00     0.031 C 
ATOM     56  C   UNL A   1      43.445  31.919  31.315  1.00  0.00     0.031 A 
BRANCH  43  57
ATOM     57  C   UNL A   1      38.202  29.604  29.024  1.00  0.00    -0.014 A 
ATOM     58  C   UNL A   1      37.814  29.973  27.726  1.00  0.00     0.009 A 
ATOM     59  C   UNL A   1      37.220  29.456  30.014  1.00  0.00     0.009 A 
ATOM     60  C   UNL A   1      36.474  30.242  27.440  1.00  0.00     0.001 A 
ATOM     61  C   UNL A   1      35.878  29.698  29.719  1.00  0.00     0.001 A 
ATOM     62  C   UNL A   1      35.508  30.103  28.437  1.00  0.00     0.000 A 
ENDBRANCH  43  57
BRANCH  44  63
ATOM     63  C   UNL A   1      47.768  27.728  30.786  1.00  0.00    -0.014 A 
ATOM     64  C   UNL A   1      48.687  27.939  29.748  1.00  0.00     0.009 A 
ATOM     65  C   UNL A   1      48.233  27.254  32.022  1.00  0.00     0.009 A 
ATOM     66  C   UNL A   1      50.043  27.660  29.938  1.00  0.00     0.001 A 
ATOM     67  C   UNL A   1      49.593  26.995  32.216  1.00  0.00     0.001 A 
ATOM     68  C   UNL A   1      50.495  27.192  31.171  1.00  0.00     0.000 A 
ENDBRANCH  44  63
BRANCH  56  69
ATOM     69  C   UNL A   1      43.688  33.264  31.940  1.00  0.00    -0.014 A 
ATOM     70  C   UNL A   1      43.987  34.392  31.162  1.00  0.00     0.009 A 
ATOM     71  C   UNL A   1      43.541  33.417  33.329  1.00  0.00     0.009 A 
ATOM     72  C   UNL A   1      44.149  35.642  31.765  1.00  0.00     0.001 A 
ATOM     73  C   UNL A   1      43.678  34.672  33.925  1.00  0.00     0.001 A 
ATOM     74  C   UNL A   1      43.987  35.783  33.143  1.00  0.00     0.000 A 
ENDBRANCH  56  69
ENDBRANCH  30  31
ENDBRANCH  23  25
ENDBRANCH  22  23
ENDBRANCH  21  22
ENDBRANCH   1  21
TORSDOF 13
ENDMDL
