MODEL 1
REMARK VINA RESULT:     -10.8      0.000      0.000
REMARK SMILES CNC(=O)[C@H](C)S(=O)(=O)c1cc(C(=O)OCCOC(=O)c2ccc(-c3c4nc(c(-c5ccccc5)c5ccc([nH]5)c(-c5ccccc5)c5nc(c(-c6ccccc6)c6ccc3[nH]6)C=C5)C=C4)cc2)c(C)cc1C
REMARK SMILES IDX 16 1 15 2 13 3 14 4 12 5 10 6 11 7 72 8 71 9 73 10 69 11
REMARK SMILES IDX 70 12 7 13 8 14 9 15 5 16 6 17 3 18 1 19 2 20 4 22 17 23
REMARK SMILES IDX 18 24 19 25 20 26 21 27 22 28 68 29 23 30 67 31 24 32 25 33
REMARK SMILES IDX 26 34 61 35 27 36 66 37 60 38 62 39 28 40 65 41 59 42 58 43
REMARK SMILES IDX 29 45 51 46 36 47 50 48 37 49 40 50 49 51 63 52 38 53 39 54
REMARK SMILES IDX 48 56 64 57 41 58 30 59 31 60 35 61 32 62 34 63 33 64 52 65
REMARK SMILES IDX 53 66 57 67 54 68 56 69 55 70 42 71 43 72 47 73 44 74 46 75
REMARK SMILES IDX 45 76
REMARK H PARENT 2 21 62 44 40 55
REMARK Flexibility Score: inf
ROOT
ATOM      1  C   UNL A   1      31.573  29.382  24.788  1.00  0.00     0.275 C 
ENDROOT
BRANCH   1   2
ATOM      2  O   UNL A   1      32.817  28.678  24.981  1.00  0.00    -0.458 OA
BRANCH   2   3
ATOM      3  C   UNL A   1      33.416  28.188  23.866  1.00  0.00     0.338 C 
ATOM      4  O   UNL A   1      34.171  28.785  23.128  1.00  0.00    -0.246 OA
BRANCH   3   5
ATOM      5  C   UNL A   1      33.127  26.736  23.722  1.00  0.00     0.064 A 
ATOM      6  C   UNL A   1      33.786  24.469  24.388  1.00  0.00     0.071 A 
ATOM      7  C   UNL A   1      33.977  25.863  24.421  1.00  0.00     0.036 A 
ATOM      8  C   UNL A   1      32.772  23.922  23.588  1.00  0.00    -0.032 A 
ATOM      9  C   UNL A   1      31.959  24.810  22.854  1.00  0.00     0.009 A 
ATOM     10  C   UNL A   1      32.538  22.450  23.391  1.00  0.00     0.046 C 
ATOM     11  C   UNL A   1      32.112  26.210  22.911  1.00  0.00    -0.036 A 
ATOM     12  C   UNL A   1      31.202  27.031  22.038  1.00  0.00     0.045 C 
BRANCH   6  13
ATOM     13  S   UNL A   1      34.951  23.471  25.317  1.00  0.00     0.190 S 
ATOM     14  O   UNL A   1      34.144  22.724  26.273  1.00  0.00    -0.223 OA
ATOM     15  O   UNL A   1      35.986  24.345  25.834  1.00  0.00    -0.223 OA
BRANCH  13  16
ATOM     16  C   UNL A   1      35.671  22.295  24.207  1.00  0.00     0.199 C 
ATOM     17  C   UNL A   1      36.600  22.901  23.180  1.00  0.00     0.036 C 
BRANCH  16  18
ATOM     18  C   UNL A   1      36.190  21.056  24.884  1.00  0.00     0.238 C 
ATOM     19  C   UNL A   1      34.130  19.499  24.753  1.00  0.00     0.142 C 
ATOM     20  N   UNL A   1      35.456  19.941  25.131  1.00  0.00    -0.358 N 
ATOM     21  H   UNL A   1      35.932  19.288  25.694  1.00  0.00     0.163 HD
ATOM     22  O   UNL A   1      37.351  21.031  25.306  1.00  0.00    -0.274 OA
ENDBRANCH  16  18
ENDBRANCH  13  16
ENDBRANCH   6  13
ENDBRANCH   3   5
ENDBRANCH   2   3
ENDBRANCH   1   2
BRANCH   1  23
ATOM     23  C   UNL A   1      31.435  30.506  25.813  1.00  0.00     0.275 C 
BRANCH  23  24
ATOM     24  O   UNL A   1      32.406  30.323  26.858  1.00  0.00    -0.458 OA
BRANCH  24  25
ATOM     25  C   UNL A   1      33.072  31.434  27.231  1.00  0.00     0.338 C 
ATOM     26  O   UNL A   1      32.625  32.549  27.445  1.00  0.00    -0.246 OA
BRANCH  25  27
ATOM     27  C   UNL A   1      34.478  31.097  27.480  1.00  0.00     0.060 A 
ATOM     28  C   UNL A   1      34.814  29.752  27.571  1.00  0.00     0.016 A 
ATOM     29  C   UNL A   1      35.397  32.080  27.844  1.00  0.00     0.016 A 
ATOM     30  C   UNL A   1      36.015  29.390  28.177  1.00  0.00     0.010 A 
ATOM     31  C   UNL A   1      36.642  31.702  28.366  1.00  0.00     0.010 A 
ATOM     32  C   UNL A   1      36.934  30.353  28.636  1.00  0.00    -0.014 A 
BRANCH  32  33
ATOM     33  C   UNL A   1      38.090  29.956  29.515  1.00  0.00     0.031 A 
ATOM     34  C   UNL A   1      39.281  29.203  28.940  1.00  0.00     0.074 A 
ATOM     35  C   UNL A   1      38.171  30.348  30.805  1.00  0.00     0.049 A 
ATOM     36  N   UNL A   1      40.297  28.654  29.566  1.00  0.00    -0.248 NA
ATOM     37  C   UNL A   1      39.339  29.041  27.478  1.00  0.00     0.031 C 
ATOM     38  C   UNL A   1      37.176  31.149  31.520  1.00  0.00     0.029 A 
ATOM     39  N   UNL A   1      39.169  30.165  31.737  1.00  0.00    -0.354 N 
ATOM     40  C   UNL A   1      41.053  28.011  28.588  1.00  0.00     0.074 A 
ATOM     41  C   UNL A   1      40.392  28.251  27.325  1.00  0.00     0.031 C 
ATOM     42  C   UNL A   1      37.657  31.478  32.727  1.00  0.00     0.029 A 
ATOM     43  C   UNL A   1      38.931  30.800  32.933  1.00  0.00     0.049 A 
ATOM     44  H   UNL A   1      39.976  29.630  31.562  1.00  0.00     0.167 HD
ATOM     45  C   UNL A   1      42.189  27.283  28.721  1.00  0.00     0.031 A 
ATOM     46  C   UNL A   1      39.620  30.807  34.091  1.00  0.00     0.031 A 
ATOM     47  C   UNL A   1      42.914  27.105  29.951  1.00  0.00     0.049 A 
ATOM     48  C   UNL A   1      40.861  29.973  34.228  1.00  0.00     0.074 A 
ATOM     49  C   UNL A   1      44.070  26.372  30.173  1.00  0.00     0.029 A 
ATOM     50  N   UNL A   1      42.580  27.694  31.157  1.00  0.00    -0.354 N 
ATOM     51  N   UNL A   1      41.476  29.252  33.324  1.00  0.00    -0.248 NA
ATOM     52  C   UNL A   1      41.478  29.925  35.562  1.00  0.00     0.031 C 
ATOM     53  C   UNL A   1      44.415  26.490  31.523  1.00  0.00     0.029 A 
ATOM     54  C   UNL A   1      43.502  27.335  32.129  1.00  0.00     0.049 A 
ATOM     55  H   UNL A   1      41.803  28.280  31.305  1.00  0.00     0.167 HD
ATOM     56  C   UNL A   1      42.547  28.661  33.980  1.00  0.00     0.074 A 
ATOM     57  C   UNL A   1      42.519  29.132  35.348  1.00  0.00     0.031 C 
ATOM     58  C   UNL A   1      43.465  27.792  33.491  1.00  0.00     0.031 A 
BRANCH  45  59
ATOM     59  C   UNL A   1      42.702  26.562  27.502  1.00  0.00    -0.014 A 
ATOM     60  C   UNL A   1      42.257  25.279  27.152  1.00  0.00     0.009 A 
ATOM     61  C   UNL A   1      43.613  27.219  26.657  1.00  0.00     0.009 A 
ATOM     62  C   UNL A   1      42.737  24.658  25.996  1.00  0.00     0.001 A 
ATOM     63  C   UNL A   1      44.069  26.608  25.489  1.00  0.00     0.001 A 
ATOM     64  C   UNL A   1      43.637  25.324  25.163  1.00  0.00     0.000 A 
ENDBRANCH  45  59
BRANCH  46  65
ATOM     65  C   UNL A   1      39.099  31.574  35.254  1.00  0.00    -0.014 A 
ATOM     66  C   UNL A   1      38.281  30.959  36.213  1.00  0.00     0.009 A 
ATOM     67  C   UNL A   1      39.425  32.931  35.410  1.00  0.00     0.009 A 
ATOM     68  C   UNL A   1      37.796  31.689  37.301  1.00  0.00     0.001 A 
ATOM     69  C   UNL A   1      38.970  33.648  36.517  1.00  0.00     0.001 A 
ATOM     70  C   UNL A   1      38.150  33.029  37.458  1.00  0.00     0.000 A 
ENDBRANCH  46  65
BRANCH  58  71
ATOM     71  C   UNL A   1      44.523  27.307  34.440  1.00  0.00    -0.014 A 
ATOM     72  C   UNL A   1      44.347  26.126  35.178  1.00  0.00     0.009 A 
ATOM     73  C   UNL A   1      45.715  28.030  34.587  1.00  0.00     0.009 A 
ATOM     74  C   UNL A   1      45.331  25.699  36.072  1.00  0.00     0.001 A 
ATOM     75  C   UNL A   1      46.708  27.589  35.463  1.00  0.00     0.001 A 
ATOM     76  C   UNL A   1      46.510  26.430  36.213  1.00  0.00     0.000 A 
ENDBRANCH  58  71
ENDBRANCH  32  33
ENDBRANCH  25  27
ENDBRANCH  24  25
ENDBRANCH  23  24
ENDBRANCH   1  23
TORSDOF 14
ENDMDL
MODEL 2
REMARK VINA RESULT:     -10.6      3.626      8.756
REMARK SMILES CNC(=O)[C@H](C)S(=O)(=O)c1cc(C(=O)OCCOC(=O)c2ccc(-c3c4nc(c(-c5ccccc5)c5ccc([nH]5)c(-c5ccccc5)c5nc(c(-c6ccccc6)c6ccc3[nH]6)C=C5)C=C4)cc2)c(C)cc1C
REMARK SMILES IDX 16 1 15 2 13 3 14 4 12 5 10 6 11 7 72 8 71 9 73 10 69 11
REMARK SMILES IDX 70 12 7 13 8 14 9 15 5 16 6 17 3 18 1 19 2 20 4 22 17 23
REMARK SMILES IDX 18 24 19 25 20 26 21 27 22 28 68 29 23 30 67 31 24 32 25 33
REMARK SMILES IDX 26 34 61 35 27 36 66 37 60 38 62 39 28 40 65 41 59 42 58 43
REMARK SMILES IDX 29 45 51 46 36 47 50 48 37 49 40 50 49 51 63 52 38 53 39 54
REMARK SMILES IDX 48 56 64 57 41 58 30 59 31 60 35 61 32 62 34 63 33 64 52 65
REMARK SMILES IDX 53 66 57 67 54 68 56 69 55 70 42 71 43 72 47 73 44 74 46 75
REMARK SMILES IDX 45 76
REMARK H PARENT 2 21 62 44 40 55
REMARK Flexibility Score: inf
ROOT
ATOM      1  C   UNL A   1      35.537  21.423  24.683  1.00  0.00     0.275 C 
ENDROOT
BRANCH   1   2
ATOM      2  O   UNL A   1      35.394  22.532  25.595  1.00  0.00    -0.458 OA
BRANCH   2   3
ATOM      3  C   UNL A   1      34.348  22.477  26.457  1.00  0.00     0.338 C 
ATOM      4  O   UNL A   1      34.348  21.984  27.566  1.00  0.00    -0.246 OA
BRANCH   3   5
ATOM      5  C   UNL A   1      33.191  23.236  25.911  1.00  0.00     0.064 A 
ATOM      6  C   UNL A   1      32.242  25.462  25.512  1.00  0.00     0.071 A 
ATOM      7  C   UNL A   1      33.261  24.635  26.020  1.00  0.00     0.036 A 
ATOM      8  C   UNL A   1      31.093  24.889  24.947  1.00  0.00    -0.032 A 
ATOM      9  C   UNL A   1      31.017  23.482  24.891  1.00  0.00     0.009 A 
ATOM     10  C   UNL A   1      29.898  25.664  24.467  1.00  0.00     0.046 C 
ATOM     11  C   UNL A   1      32.049  22.642  25.356  1.00  0.00    -0.036 A 
ATOM     12  C   UNL A   1      31.809  21.159  25.274  1.00  0.00     0.045 C 
BRANCH   6  13
ATOM     13  S   UNL A   1      32.454  27.230  25.727  1.00  0.00     0.190 S 
ATOM     14  O   UNL A   1      33.884  27.429  25.916  1.00  0.00    -0.223 OA
ATOM     15  O   UNL A   1      31.559  27.669  26.780  1.00  0.00    -0.223 OA
BRANCH  13  16
ATOM     16  C   UNL A   1      32.011  28.023  24.207  1.00  0.00     0.199 C 
ATOM     17  C   UNL A   1      31.112  29.226  24.375  1.00  0.00     0.036 C 
BRANCH  16  18
ATOM     18  C   UNL A   1      33.165  28.216  23.261  1.00  0.00     0.238 C 
ATOM     19  C   UNL A   1      33.369  25.862  22.214  1.00  0.00     0.142 C 
ATOM     20  N   UNL A   1      33.719  27.237  22.502  1.00  0.00    -0.358 N 
ATOM     21  H   UNL A   1      34.541  27.527  22.046  1.00  0.00     0.163 HD
ATOM     22  O   UNL A   1      33.709  29.323  23.179  1.00  0.00    -0.274 OA
ENDBRANCH  16  18
ENDBRANCH  13  16
ENDBRANCH   6  13
ENDBRANCH   3   5
ENDBRANCH   2   3
ENDBRANCH   1   2
BRANCH   1  23
ATOM     23  C   UNL A   1      36.786  20.613  25.022  1.00  0.00     0.275 C 
BRANCH  23  24
ATOM     24  O   UNL A   1      37.947  21.456  24.914  1.00  0.00    -0.458 OA
BRANCH  24  25
ATOM     25  C   UNL A   1      38.956  21.163  25.758  1.00  0.00     0.338 C 
ATOM     26  O   UNL A   1      39.597  20.128  25.842  1.00  0.00    -0.246 OA
BRANCH  25  27
ATOM     27  C   UNL A   1      39.295  22.356  26.542  1.00  0.00     0.060 A 
ATOM     28  C   UNL A   1      38.650  23.544  26.223  1.00  0.00     0.016 A 
ATOM     29  C   UNL A   1      40.386  22.357  27.409  1.00  0.00     0.016 A 
ATOM     30  C   UNL A   1      39.196  24.752  26.651  1.00  0.00     0.010 A 
ATOM     31  C   UNL A   1      40.870  23.574  27.910  1.00  0.00     0.010 A 
ATOM     32  C   UNL A   1      40.348  24.799  27.460  1.00  0.00    -0.014 A 
BRANCH  32  33
ATOM     33  C   UNL A   1      41.072  26.100  27.693  1.00  0.00     0.031 A 
ATOM     34  C   UNL A   1      40.529  27.126  28.676  1.00  0.00     0.074 A 
ATOM     35  C   UNL A   1      42.275  26.353  27.134  1.00  0.00     0.049 A 
ATOM     36  N   UNL A   1      40.933  28.355  28.901  1.00  0.00    -0.248 NA
ATOM     37  C   UNL A   1      39.385  26.725  29.512  1.00  0.00     0.031 C 
ATOM     38  C   UNL A   1      43.005  25.462  26.232  1.00  0.00     0.029 A 
ATOM     39  N   UNL A   1      43.125  27.427  27.287  1.00  0.00    -0.354 N 
ATOM     40  C   UNL A   1      40.043  28.893  29.827  1.00  0.00     0.074 A 
ATOM     41  C   UNL A   1      39.086  27.854  30.138  1.00  0.00     0.031 C 
ATOM     42  C   UNL A   1      44.225  25.967  26.002  1.00  0.00     0.029 A 
ATOM     43  C   UNL A   1      44.320  27.284  26.621  1.00  0.00     0.049 A 
ATOM     44  H   UNL A   1      42.898  28.221  27.821  1.00  0.00     0.167 HD
ATOM     45  C   UNL A   1      40.012  30.136  30.369  1.00  0.00     0.031 A 
ATOM     46  C   UNL A   1      45.363  28.124  26.472  1.00  0.00     0.031 A 
ATOM     47  C   UNL A   1      41.003  31.156  30.145  1.00  0.00     0.049 A 
ATOM     48  C   UNL A   1      45.301  29.505  27.056  1.00  0.00     0.074 A 
ATOM     49  C   UNL A   1      41.040  32.447  30.650  1.00  0.00     0.029 A 
ATOM     50  N   UNL A   1      42.148  30.992  29.388  1.00  0.00    -0.354 N 
ATOM     51  N   UNL A   1      44.373  30.043  27.808  1.00  0.00    -0.248 NA
ATOM     52  C   UNL A   1      46.416  30.408  26.734  1.00  0.00     0.031 C 
ATOM     53  C   UNL A   1      42.193  33.075  30.167  1.00  0.00     0.029 A 
ATOM     54  C   UNL A   1      42.895  32.160  29.404  1.00  0.00     0.049 A 
ATOM     55  H   UNL A   1      42.396  30.169  28.907  1.00  0.00     0.167 HD
ATOM     56  C   UNL A   1      44.789  31.347  28.044  1.00  0.00     0.074 A 
ATOM     57  C   UNL A   1      46.067  31.509  27.384  1.00  0.00     0.031 C 
ATOM     58  C   UNL A   1      44.158  32.326  28.736  1.00  0.00     0.031 A 
BRANCH  45  59
ATOM     59  C   UNL A   1      38.828  30.495  31.226  1.00  0.00    -0.014 A 
ATOM     60  C   UNL A   1      38.854  30.374  32.623  1.00  0.00     0.009 A 
ATOM     61  C   UNL A   1      37.679  31.023  30.612  1.00  0.00     0.009 A 
ATOM     62  C   UNL A   1      37.743  30.746  33.383  1.00  0.00     0.001 A 
ATOM     63  C   UNL A   1      36.582  31.421  31.376  1.00  0.00     0.001 A 
ATOM     64  C   UNL A   1      36.611  31.275  32.762  1.00  0.00     0.000 A 
ENDBRANCH  45  59
BRANCH  46  65
ATOM     65  C   UNL A   1      46.535  27.707  25.656  1.00  0.00    -0.014 A 
ATOM     66  C   UNL A   1      47.629  27.059  26.247  1.00  0.00     0.009 A 
ATOM     67  C   UNL A   1      46.558  27.954  24.274  1.00  0.00     0.009 A 
ATOM     68  C   UNL A   1      48.725  26.673  25.471  1.00  0.00     0.001 A 
ATOM     69  C   UNL A   1      47.637  27.534  23.495  1.00  0.00     0.001 A 
ATOM     70  C   UNL A   1      48.723  26.901  24.095  1.00  0.00     0.000 A 
ENDBRANCH  46  65
BRANCH  58  71
ATOM     71  C   UNL A   1      44.848  33.656  28.826  1.00  0.00    -0.014 A 
ATOM     72  C   UNL A   1      44.601  34.665  27.883  1.00  0.00     0.009 A 
ATOM     73  C   UNL A   1      45.745  33.908  29.874  1.00  0.00     0.009 A 
ATOM     74  C   UNL A   1      45.267  35.890  27.968  1.00  0.00     0.001 A 
ATOM     75  C   UNL A   1      46.392  35.141  29.971  1.00  0.00     0.001 A 
ATOM     76  C   UNL A   1      46.160  36.126  29.012  1.00  0.00     0.000 A 
ENDBRANCH  58  71
ENDBRANCH  32  33
ENDBRANCH  25  27
ENDBRANCH  24  25
ENDBRANCH  23  24
ENDBRANCH   1  23
TORSDOF 14
ENDMDL
MODEL 3
REMARK VINA RESULT:     -10.5      3.740      6.899
REMARK SMILES CNC(=O)[C@H](C)S(=O)(=O)c1cc(C(=O)OCCOC(=O)c2ccc(-c3c4nc(c(-c5ccccc5)c5ccc([nH]5)c(-c5ccccc5)c5nc(c(-c6ccccc6)c6ccc3[nH]6)C=C5)C=C4)cc2)c(C)cc1C
REMARK SMILES IDX 16 1 15 2 13 3 14 4 12 5 10 6 11 7 72 8 71 9 73 10 69 11
REMARK SMILES IDX 70 12 7 13 8 14 9 15 5 16 6 17 3 18 1 19 2 20 4 22 17 23
REMARK SMILES IDX 18 24 19 25 20 26 21 27 22 28 68 29 23 30 67 31 24 32 25 33
REMARK SMILES IDX 26 34 61 35 27 36 66 37 60 38 62 39 28 40 65 41 59 42 58 43
REMARK SMILES IDX 29 45 51 46 36 47 50 48 37 49 40 50 49 51 63 52 38 53 39 54
REMARK SMILES IDX 48 56 64 57 41 58 30 59 31 60 35 61 32 62 34 63 33 64 52 65
REMARK SMILES IDX 53 66 57 67 54 68 56 69 55 70 42 71 43 72 47 73 44 74 46 75
REMARK SMILES IDX 45 76
REMARK H PARENT 2 21 62 44 40 55
REMARK Flexibility Score: inf
ROOT
ATOM      1  C   UNL A   1      36.133  20.301  25.013  1.00  0.00     0.275 C 
ENDROOT
BRANCH   1   2
ATOM      2  O   UNL A   1      35.603  21.639  25.111  1.00  0.00    -0.458 OA
BRANCH   2   3
ATOM      3  C   UNL A   1      34.536  21.811  25.931  1.00  0.00     0.338 C 
ATOM      4  O   UNL A   1      34.472  21.520  27.107  1.00  0.00    -0.246 OA
BRANCH   3   5
ATOM      5  C   UNL A   1      33.454  22.544  25.221  1.00  0.00     0.064 A 
ATOM      6  C   UNL A   1      32.358  24.715  24.901  1.00  0.00     0.071 A 
ATOM      7  C   UNL A   1      33.324  23.909  25.531  1.00  0.00     0.036 A 
ATOM      8  C   UNL A   1      31.452  24.143  23.996  1.00  0.00    -0.032 A 
ATOM      9  C   UNL A   1      31.565  22.762  23.733  1.00  0.00     0.009 A 
ATOM     10  C   UNL A   1      30.315  24.878  23.342  1.00  0.00     0.046 C 
ATOM     11  C   UNL A   1      32.555  21.950  24.324  1.00  0.00    -0.036 A 
ATOM     12  C   UNL A   1      32.526  20.485  23.986  1.00  0.00     0.045 C 
BRANCH   6  13
ATOM     13  S   UNL A   1      32.294  26.437  25.398  1.00  0.00     0.190 S 
ATOM     14  O   UNL A   1      33.300  26.577  26.441  1.00  0.00    -0.223 OA
ATOM     15  O   UNL A   1      30.919  26.763  25.727  1.00  0.00    -0.223 OA
BRANCH  13  16
ATOM     16  C   UNL A   1      32.822  27.422  24.025  1.00  0.00     0.199 C 
ATOM     17  C   UNL A   1      33.504  26.639  22.927  1.00  0.00     0.036 C 
BRANCH  16  18
ATOM     18  C   UNL A   1      31.793  28.414  23.555  1.00  0.00     0.238 C 
ATOM     19  C   UNL A   1      31.835  30.144  25.475  1.00  0.00     0.142 C 
ATOM     20  N   UNL A   1      31.388  29.504  24.256  1.00  0.00    -0.358 N 
ATOM     21  H   UNL A   1      30.619  29.959  23.843  1.00  0.00     0.163 HD
ATOM     22  O   UNL A   1      31.213  28.230  22.479  1.00  0.00    -0.274 OA
ENDBRANCH  16  18
ENDBRANCH  13  16
ENDBRANCH   6  13
ENDBRANCH   3   5
ENDBRANCH   2   3
ENDBRANCH   1   2
BRANCH   1  23
ATOM     23  C   UNL A   1      37.614  20.341  24.646  1.00  0.00     0.275 C 
BRANCH  23  24
ATOM     24  O   UNL A   1      38.225  21.497  25.246  1.00  0.00    -0.458 OA
BRANCH  24  25
ATOM     25  C   UNL A   1      39.298  21.248  26.022  1.00  0.00     0.338 C 
ATOM     26  O   UNL A   1      39.996  20.248  26.053  1.00  0.00    -0.246 OA
BRANCH  25  27
ATOM     27  C   UNL A   1      39.625  22.450  26.799  1.00  0.00     0.060 A 
ATOM     28  C   UNL A   1      38.919  23.613  26.517  1.00  0.00     0.016 A 
ATOM     29  C   UNL A   1      40.752  22.489  27.617  1.00  0.00     0.016 A 
ATOM     30  C   UNL A   1      39.436  24.839  26.929  1.00  0.00     0.010 A 
ATOM     31  C   UNL A   1      41.210  23.722  28.105  1.00  0.00     0.010 A 
ATOM     32  C   UNL A   1      40.620  24.928  27.686  1.00  0.00    -0.014 A 
BRANCH  32  33
ATOM     33  C   UNL A   1      41.302  26.255  27.896  1.00  0.00     0.031 A 
ATOM     34  C   UNL A   1      42.579  26.599  27.144  1.00  0.00     0.074 A 
ATOM     35  C   UNL A   1      40.752  27.225  28.659  1.00  0.00     0.049 A 
ATOM     36  N   UNL A   1      43.383  27.626  27.300  1.00  0.00    -0.248 NA
ATOM     37  C   UNL A   1      43.014  25.672  26.087  1.00  0.00     0.031 C 
ATOM     38  C   UNL A   1      39.490  27.124  29.392  1.00  0.00     0.029 A 
ATOM     39  N   UNL A   1      41.168  28.515  28.904  1.00  0.00    -0.354 N 
ATOM     40  C   UNL A   1      44.452  27.418  26.431  1.00  0.00     0.074 A 
ATOM     41  C   UNL A   1      44.189  26.176  25.737  1.00  0.00     0.031 C 
ATOM     42  C   UNL A   1      39.182  28.322  29.908  1.00  0.00     0.029 A 
ATOM     43  C   UNL A   1      40.286  29.244  29.666  1.00  0.00     0.049 A 
ATOM     44  H   UNL A   1      42.016  28.880  28.565  1.00  0.00     0.167 HD
ATOM     45  C   UNL A   1      45.555  28.178  26.228  1.00  0.00     0.031 A 
ATOM     46  C   UNL A   1      40.360  30.493  30.166  1.00  0.00     0.031 A 
ATOM     47  C   UNL A   1      45.796  29.460  26.838  1.00  0.00     0.049 A 
ATOM     48  C   UNL A   1      41.600  31.311  29.954  1.00  0.00     0.074 A 
ATOM     49  C   UNL A   1      46.895  30.291  26.692  1.00  0.00     0.029 A 
ATOM     50  N   UNL A   1      44.912  30.114  27.676  1.00  0.00    -0.354 N 
ATOM     51  N   UNL A   1      42.665  31.028  29.246  1.00  0.00    -0.248 NA
ATOM     52  C   UNL A   1      41.661  32.607  30.646  1.00  0.00     0.031 C 
ATOM     53  C   UNL A   1      46.690  31.434  27.472  1.00  0.00     0.029 A 
ATOM     54  C   UNL A   1      45.443  31.335  28.063  1.00  0.00     0.049 A 
ATOM     55  H   UNL A   1      44.035  29.764  27.958  1.00  0.00     0.167 HD
ATOM     56  C   UNL A   1      43.524  32.106  29.412  1.00  0.00     0.074 A 
ATOM     57  C   UNL A   1      42.845  33.063  30.259  1.00  0.00     0.031 C 
ATOM     58  C   UNL A   1      44.773  32.278  28.916  1.00  0.00     0.031 A 
BRANCH  45  59
ATOM     59  C   UNL A   1      46.634  27.620  25.339  1.00  0.00    -0.014 A 
ATOM     60  C   UNL A   1      46.783  28.022  24.003  1.00  0.00     0.009 A 
ATOM     61  C   UNL A   1      47.558  26.710  25.880  1.00  0.00     0.009 A 
ATOM     62  C   UNL A   1      47.817  27.501  23.222  1.00  0.00     0.001 A 
ATOM     63  C   UNL A   1      48.607  26.213  25.106  1.00  0.00     0.001 A 
ATOM     64  C   UNL A   1      48.731  26.603  23.773  1.00  0.00     0.000 A 
ENDBRANCH  45  59
BRANCH  46  65
ATOM     65  C   UNL A   1      39.246  31.021  30.999  1.00  0.00    -0.014 A 
ATOM     66  C   UNL A   1      39.206  30.782  32.380  1.00  0.00     0.009 A 
ATOM     67  C   UNL A   1      38.217  31.773  30.410  1.00  0.00     0.009 A 
ATOM     68  C   UNL A   1      38.155  31.281  33.153  1.00  0.00     0.001 A 
ATOM     69  C   UNL A   1      37.188  32.302  31.190  1.00  0.00     0.001 A 
ATOM     70  C   UNL A   1      37.154  32.050  32.560  1.00  0.00     0.000 A 
ENDBRANCH  46  65
BRANCH  58  71
ATOM     71  C   UNL A   1      45.479  33.557  29.265  1.00  0.00    -0.014 A 
ATOM     72  C   UNL A   1      46.304  33.643  30.397  1.00  0.00     0.009 A 
ATOM     73  C   UNL A   1      45.329  34.684  28.444  1.00  0.00     0.009 A 
ATOM     74  C   UNL A   1      46.937  34.845  30.720  1.00  0.00     0.001 A 
ATOM     75  C   UNL A   1      45.981  35.879  28.756  1.00  0.00     0.001 A 
ATOM     76  C   UNL A   1      46.776  35.960  29.899  1.00  0.00     0.000 A 
ENDBRANCH  58  71
ENDBRANCH  32  33
ENDBRANCH  25  27
ENDBRANCH  24  25
ENDBRANCH  23  24
ENDBRANCH   1  23
TORSDOF 14
ENDMDL
