MODEL 1
REMARK VINA RESULT:      -9.0      0.000      0.000
REMARK SMILES O=C(OCCOC(=O)c1ccc(CNc2ccccc2)nc1)c1ccc(-c2c3nc(c(-c4ccccc4)c4ccc([nH]4)c(-c4ccccc4)c4nc(c(-c5ccccc5)c5ccc2[nH]5)C=C4)C=C3)cc1
REMARK SMILES IDX 5 1 4 2 3 3 2 4 1 5 23 6 24 7 70 8 25 9 69 10 26 11 27 12
REMARK SMILES IDX 28 13 63 14 29 15 68 16 62 17 64 18 30 19 67 20 61 21 60 22
REMARK SMILES IDX 31 24 53 25 38 26 52 27 39 28 42 29 51 30 65 31 40 32 41 33
REMARK SMILES IDX 50 35 66 36 43 37 32 38 33 39 37 40 34 41 36 42 35 43 54 44
REMARK SMILES IDX 55 45 59 46 56 47 58 48 57 49 44 50 45 51 49 52 46 53 48 54
REMARK SMILES IDX 47 55 6 56 7 57 8 58 9 59 10 60 22 61 11 62 21 63 12 64
REMARK SMILES IDX 13 65 14 66 15 68 16 69 20 70 17 71 19 72 18 73
REMARK H PARENT 64 23 42 34 14 67
REMARK Flexibility Score: inf
ROOT
ATOM      1  C   UNL A   1      44.548  19.895  24.063  1.00  0.00     0.275 C 
ENDROOT
BRANCH   1   2
ATOM      2  C   UNL A   1      44.080  19.149  25.314  1.00  0.00     0.275 C 
BRANCH   2   3
ATOM      3  O   UNL A   1      42.686  18.790  25.313  1.00  0.00    -0.458 OA
BRANCH   3   4
ATOM      4  C   UNL A   1      41.627  19.419  25.875  1.00  0.00     0.338 C 
ATOM      5  O   UNL A   1      40.516  18.900  25.800  1.00  0.00    -0.246 OA
BRANCH   4   6
ATOM      6  C   UNL A   1      41.703  20.794  26.454  1.00  0.00     0.060 A 
ATOM      7  C   UNL A   1      41.440  21.981  25.769  1.00  0.00     0.016 A 
ATOM      8  C   UNL A   1      42.132  20.886  27.794  1.00  0.00     0.016 A 
ATOM      9  C   UNL A   1      41.552  23.218  26.407  1.00  0.00     0.010 A 
ATOM     10  C   UNL A   1      42.250  22.122  28.438  1.00  0.00     0.010 A 
ATOM     11  C   UNL A   1      41.974  23.297  27.737  1.00  0.00    -0.014 A 
BRANCH  11  12
ATOM     12  C   UNL A   1      42.283  24.625  28.307  1.00  0.00     0.031 A 
ATOM     13  C   UNL A   1      43.704  24.926  28.679  1.00  0.00     0.074 A 
ATOM     14  C   UNL A   1      41.335  25.573  28.404  1.00  0.00     0.049 A 
ATOM     15  N   UNL A   1      44.238  26.066  29.028  1.00  0.00    -0.248 NA
ATOM     16  C   UNL A   1      44.654  23.803  28.612  1.00  0.00     0.031 C 
ATOM     17  C   UNL A   1      39.941  25.414  27.998  1.00  0.00     0.029 A 
ATOM     18  N   UNL A   1      41.404  26.864  28.859  1.00  0.00    -0.354 N 
ATOM     19  C   UNL A   1      45.594  25.806  29.183  1.00  0.00     0.074 A 
ATOM     20  C   UNL A   1      45.790  24.393  28.949  1.00  0.00     0.031 C 
ATOM     21  C   UNL A   1      39.274  26.553  28.249  1.00  0.00     0.029 A 
ATOM     22  C   UNL A   1      40.204  27.528  28.811  1.00  0.00     0.049 A 
ATOM     23  H   UNL A   1      42.236  27.275  29.188  1.00  0.00     0.167 HD
ATOM     24  C   UNL A   1      46.590  26.674  29.471  1.00  0.00     0.031 A 
ATOM     25  C   UNL A   1      39.897  28.792  29.159  1.00  0.00     0.031 A 
ATOM     26  C   UNL A   1      46.382  28.065  29.758  1.00  0.00     0.049 A 
ATOM     27  C   UNL A   1      41.004  29.709  29.600  1.00  0.00     0.074 A 
ATOM     28  C   UNL A   1      47.315  29.032  30.083  1.00  0.00     0.029 A 
ATOM     29  N   UNL A   1      45.140  28.682  29.774  1.00  0.00    -0.354 N 
ATOM     30  N   UNL A   1      42.291  29.466  29.681  1.00  0.00    -0.248 NA
ATOM     31  C   UNL A   1      40.623  31.080  29.960  1.00  0.00     0.031 C 
ATOM     32  C   UNL A   1      46.630  30.224  30.346  1.00  0.00     0.029 A 
ATOM     33  C   UNL A   1      45.276  30.011  30.132  1.00  0.00     0.049 A 
ATOM     34  H   UNL A   1      44.286  28.239  29.562  1.00  0.00     0.167 HD
ATOM     35  C   UNL A   1      42.880  30.667  30.052  1.00  0.00     0.074 A 
ATOM     36  C   UNL A   1      41.807  31.634  30.183  1.00  0.00     0.031 C 
ATOM     37  C   UNL A   1      44.191  30.951  30.250  1.00  0.00     0.031 A 
BRANCH  24  38
ATOM     38  C   UNL A   1      47.978  26.105  29.524  1.00  0.00    -0.014 A 
ATOM     39  C   UNL A   1      48.551  25.709  30.744  1.00  0.00     0.009 A 
ATOM     40  C   UNL A   1      48.738  26.008  28.350  1.00  0.00     0.009 A 
ATOM     41  C   UNL A   1      49.876  25.270  30.792  1.00  0.00     0.001 A 
ATOM     42  C   UNL A   1      50.054  25.547  28.399  1.00  0.00     0.001 A 
ATOM     43  C   UNL A   1      50.627  25.191  29.619  1.00  0.00     0.000 A 
ENDBRANCH  24  38
BRANCH  25  44
ATOM     44  C   UNL A   1      38.495  29.275  29.062  1.00  0.00    -0.014 A 
ATOM     45  C   UNL A   1      37.657  29.284  30.187  1.00  0.00     0.009 A 
ATOM     46  C   UNL A   1      37.983  29.724  27.834  1.00  0.00     0.009 A 
ATOM     47  C   UNL A   1      36.329  29.708  30.079  1.00  0.00     0.001 A 
ATOM     48  C   UNL A   1      36.663  30.168  27.733  1.00  0.00     0.001 A 
ATOM     49  C   UNL A   1      35.835  30.152  28.854  1.00  0.00     0.000 A 
ENDBRANCH  25  44
BRANCH  37  50
ATOM     50  C   UNL A   1      44.537  32.374  30.579  1.00  0.00    -0.014 A 
ATOM     51  C   UNL A   1      44.759  33.326  29.572  1.00  0.00     0.009 A 
ATOM     52  C   UNL A   1      44.599  32.773  31.923  1.00  0.00     0.009 A 
ATOM     53  C   UNL A   1      45.068  34.644  29.908  1.00  0.00     0.001 A 
ATOM     54  C   UNL A   1      44.882  34.098  32.255  1.00  0.00     0.001 A 
ATOM     55  C   UNL A   1      45.125  35.030  31.248  1.00  0.00     0.000 A 
ENDBRANCH  37  50
ENDBRANCH  11  12
ENDBRANCH   4   6
ENDBRANCH   3   4
ENDBRANCH   2   3
ENDBRANCH   1   2
BRANCH   1  56
ATOM     56  O   UNL A   1      44.532  21.321  24.214  1.00  0.00    -0.458 OA
BRANCH  56  57
ATOM     57  C   UNL A   1      45.707  21.854  24.640  1.00  0.00     0.339 C 
ATOM     58  O   UNL A   1      46.792  21.298  24.680  1.00  0.00    -0.246 OA
BRANCH  57  59
ATOM     59  C   UNL A   1      45.530  23.282  24.925  1.00  0.00     0.078 A 
ATOM     60  C   UNL A   1      44.312  23.949  24.807  1.00  0.00     0.019 A 
ATOM     61  C   UNL A   1      46.646  24.004  25.311  1.00  0.00     0.127 A 
ATOM     62  C   UNL A   1      44.264  25.324  25.061  1.00  0.00     0.026 A 
ATOM     63  N   UNL A   1      46.626  25.336  25.535  1.00  0.00    -0.259 NA
ATOM     64  C   UNL A   1      45.439  25.989  25.400  1.00  0.00     0.059 A 
BRANCH  64  65
ATOM     65  C   UNL A   1      45.450  27.485  25.686  1.00  0.00     0.169 C 
BRANCH  65  66
ATOM     66  N   UNL A   1      46.803  27.872  26.071  1.00  0.00    -0.379 N 
ATOM     67  H   UNL A   1      47.519  27.197  26.086  1.00  0.00     0.160 HD
BRANCH  66  68
ATOM     68  C   UNL A   1      47.085  29.186  26.417  1.00  0.00     0.034 A 
ATOM     69  C   UNL A   1      46.047  30.128  26.392  1.00  0.00     0.025 A 
ATOM     70  C   UNL A   1      48.357  29.613  26.810  1.00  0.00     0.025 A 
ATOM     71  C   UNL A   1      46.265  31.456  26.756  1.00  0.00     0.002 A 
ATOM     72  C   UNL A   1      48.584  30.948  27.164  1.00  0.00     0.002 A 
ATOM     73  C   UNL A   1      47.538  31.868  27.140  1.00  0.00     0.000 A 
ENDBRANCH  66  68
ENDBRANCH  65  66
ENDBRANCH  64  65
ENDBRANCH  57  59
ENDBRANCH  56  57
ENDBRANCH   1  56
TORSDOF 14
ENDMDL
MODEL 2
REMARK VINA RESULT:      -8.5      5.001     10.947
REMARK SMILES O=C(OCCOC(=O)c1ccc(CNc2ccccc2)nc1)c1ccc(-c2c3nc(c(-c4ccccc4)c4ccc([nH]4)c(-c4ccccc4)c4nc(c(-c5ccccc5)c5ccc2[nH]5)C=C4)C=C3)cc1
REMARK SMILES IDX 5 1 4 2 3 3 2 4 1 5 23 6 24 7 70 8 25 9 69 10 26 11 27 12
REMARK SMILES IDX 28 13 63 14 29 15 68 16 62 17 64 18 30 19 67 20 61 21 60 22
REMARK SMILES IDX 31 24 53 25 38 26 52 27 39 28 42 29 51 30 65 31 40 32 41 33
REMARK SMILES IDX 50 35 66 36 43 37 32 38 33 39 37 40 34 41 36 42 35 43 54 44
REMARK SMILES IDX 55 45 59 46 56 47 58 48 57 49 44 50 45 51 49 52 46 53 48 54
REMARK SMILES IDX 47 55 6 56 7 57 8 58 9 59 10 60 22 61 11 62 21 63 12 64
REMARK SMILES IDX 13 65 14 66 15 68 16 69 20 70 17 71 19 72 18 73
REMARK H PARENT 64 23 42 34 14 67
REMARK Flexibility Score: inf
ROOT
ATOM      1  C   UNL A   1      34.205  34.042  29.881  1.00  0.00     0.275 C 
ENDROOT
BRANCH   1   2
ATOM      2  C   UNL A   1      34.466  33.995  31.388  1.00  0.00     0.275 C 
BRANCH   2   3
ATOM      3  O   UNL A   1      34.700  32.676  31.915  1.00  0.00    -0.458 OA
BRANCH   3   4
ATOM      4  C   UNL A   1      35.752  32.197  32.620  1.00  0.00     0.338 C 
ATOM      5  O   UNL A   1      35.822  32.435  33.824  1.00  0.00    -0.246 OA
BRANCH   4   6
ATOM      6  C   UNL A   1      36.923  31.519  31.987  1.00  0.00     0.060 A 
ATOM      7  C   UNL A   1      37.962  30.885  32.670  1.00  0.00     0.016 A 
ATOM      8  C   UNL A   1      36.999  31.583  30.581  1.00  0.00     0.016 A 
ATOM      9  C   UNL A   1      39.018  30.289  31.977  1.00  0.00     0.010 A 
ATOM     10  C   UNL A   1      38.056  30.992  29.881  1.00  0.00     0.010 A 
ATOM     11  C   UNL A   1      39.081  30.355  30.583  1.00  0.00    -0.014 A 
BRANCH  11  12
ATOM     12  C   UNL A   1      40.313  29.902  29.905  1.00  0.00     0.031 A 
ATOM     13  C   UNL A   1      40.323  28.539  29.281  1.00  0.00     0.074 A 
ATOM     14  C   UNL A   1      41.368  30.725  29.768  1.00  0.00     0.049 A 
ATOM     15  N   UNL A   1      41.217  28.002  28.493  1.00  0.00    -0.248 NA
ATOM     16  C   UNL A   1      39.156  27.683  29.550  1.00  0.00     0.031 C 
ATOM     17  C   UNL A   1      41.436  32.097  30.265  1.00  0.00     0.029 A 
ATOM     18  N   UNL A   1      42.578  30.534  29.154  1.00  0.00    -0.354 N 
ATOM     19  C   UNL A   1      40.700  26.762  28.140  1.00  0.00     0.074 A 
ATOM     20  C   UNL A   1      39.447  26.602  28.845  1.00  0.00     0.031 C 
ATOM     21  C   UNL A   1      42.637  32.617  29.966  1.00  0.00     0.029 A 
ATOM     22  C   UNL A   1      43.413  31.621  29.233  1.00  0.00     0.049 A 
ATOM     23  H   UNL A   1      42.826  29.695  28.701  1.00  0.00     0.167 HD
ATOM     24  C   UNL A   1      41.213  25.848  27.285  1.00  0.00     0.031 A 
ATOM     25  C   UNL A   1      44.655  31.798  28.745  1.00  0.00     0.031 A 
ATOM     26  C   UNL A   1      42.483  25.989  26.631  1.00  0.00     0.049 A 
ATOM     27  C   UNL A   1      45.260  30.713  27.899  1.00  0.00     0.074 A 
ATOM     28  C   UNL A   1      43.110  25.116  25.762  1.00  0.00     0.029 A 
ATOM     29  N   UNL A   1      43.333  27.072  26.799  1.00  0.00    -0.354 N 
ATOM     30  N   UNL A   1      44.734  29.573  27.522  1.00  0.00    -0.248 NA
ATOM     31  C   UNL A   1      46.612  30.957  27.380  1.00  0.00     0.031 C 
ATOM     32  C   UNL A   1      44.365  25.650  25.443  1.00  0.00     0.029 A 
ATOM     33  C   UNL A   1      44.493  26.880  26.073  1.00  0.00     0.049 A 
ATOM     34  H   UNL A   1      43.138  27.862  27.353  1.00  0.00     0.167 HD
ATOM     35  C   UNL A   1      45.669  28.983  26.682  1.00  0.00     0.074 A 
ATOM     36  C   UNL A   1      46.795  29.894  26.609  1.00  0.00     0.031 C 
ATOM     37  C   UNL A   1      45.596  27.805  26.015  1.00  0.00     0.031 A 
BRANCH  24  38
ATOM     38  C   UNL A   1      40.395  24.610  27.061  1.00  0.00    -0.014 A 
ATOM     39  C   UNL A   1      40.867  23.349  27.463  1.00  0.00     0.009 A 
ATOM     40  C   UNL A   1      39.163  24.697  26.399  1.00  0.00     0.009 A 
ATOM     41  C   UNL A   1      40.140  22.195  27.164  1.00  0.00     0.001 A 
ATOM     42  C   UNL A   1      38.428  23.543  26.122  1.00  0.00     0.001 A 
ATOM     43  C   UNL A   1      38.922  22.293  26.493  1.00  0.00     0.000 A 
ENDBRANCH  24  38
BRANCH  25  44
ATOM     44  C   UNL A   1      45.386  33.065  29.006  1.00  0.00    -0.014 A 
ATOM     45  C   UNL A   1      45.283  34.152  28.124  1.00  0.00     0.009 A 
ATOM     46  C   UNL A   1      46.205  33.190  30.141  1.00  0.00     0.009 A 
ATOM     47  C   UNL A   1      46.002  35.327  28.360  1.00  0.00     0.001 A 
ATOM     48  C   UNL A   1      46.905  34.374  30.385  1.00  0.00     0.001 A 
ATOM     49  C   UNL A   1      46.810  35.438  29.491  1.00  0.00     0.000 A 
ENDBRANCH  25  44
BRANCH  37  50
ATOM     50  C   UNL A   1      46.746  27.461  25.114  1.00  0.00    -0.014 A 
ATOM     51  C   UNL A   1      47.752  26.570  25.518  1.00  0.00     0.009 A 
ATOM     52  C   UNL A   1      46.795  28.008  23.822  1.00  0.00     0.009 A 
ATOM     53  C   UNL A   1      48.804  26.260  24.655  1.00  0.00     0.001 A 
ATOM     54  C   UNL A   1      47.834  27.674  22.952  1.00  0.00     0.001 A 
ATOM     55  C   UNL A   1      48.841  26.809  23.373  1.00  0.00     0.000 A 
ENDBRANCH  37  50
ENDBRANCH  11  12
ENDBRANCH   4   6
ENDBRANCH   3   4
ENDBRANCH   2   3
ENDBRANCH   1   2
BRANCH   1  56
ATOM     56  O   UNL A   1      33.972  32.750  29.305  1.00  0.00    -0.458 OA
BRANCH  56  57
ATOM     57  C   UNL A   1      34.635  32.526  28.141  1.00  0.00     0.339 C 
ATOM     58  O   UNL A   1      35.469  33.249  27.622  1.00  0.00    -0.246 OA
BRANCH  57  59
ATOM     59  C   UNL A   1      34.312  31.188  27.635  1.00  0.00     0.078 A 
ATOM     60  C   UNL A   1      35.247  30.161  27.513  1.00  0.00     0.019 A 
ATOM     61  C   UNL A   1      33.009  30.946  27.238  1.00  0.00     0.127 A 
ATOM     62  C   UNL A   1      34.843  28.934  26.977  1.00  0.00     0.026 A 
ATOM     63  N   UNL A   1      32.604  29.778  26.693  1.00  0.00    -0.259 NA
ATOM     64  C   UNL A   1      33.523  28.783  26.557  1.00  0.00     0.059 A 
BRANCH  64  65
ATOM     65  C   UNL A   1      33.024  27.473  25.964  1.00  0.00     0.169 C 
BRANCH  65  66
ATOM     66  N   UNL A   1      33.911  27.094  24.869  1.00  0.00    -0.379 N 
ATOM     67  H   UNL A   1      34.416  27.787  24.387  1.00  0.00     0.160 HD
BRANCH  66  68
ATOM     68  C   UNL A   1      34.044  25.761  24.503  1.00  0.00     0.034 A 
ATOM     69  C   UNL A   1      34.711  24.887  25.372  1.00  0.00     0.025 A 
ATOM     70  C   UNL A   1      33.527  25.244  23.312  1.00  0.00     0.025 A 
ATOM     71  C   UNL A   1      34.851  23.533  25.070  1.00  0.00     0.002 A 
ATOM     72  C   UNL A   1      33.677  23.889  22.998  1.00  0.00     0.002 A 
ATOM     73  C   UNL A   1      34.336  23.033  23.878  1.00  0.00     0.000 A 
ENDBRANCH  66  68
ENDBRANCH  65  66
ENDBRANCH  64  65
ENDBRANCH  57  59
ENDBRANCH  56  57
ENDBRANCH   1  56
TORSDOF 14
ENDMDL
MODEL 3
REMARK VINA RESULT:      -8.5      3.171      6.363
REMARK SMILES O=C(OCCOC(=O)c1ccc(CNc2ccccc2)nc1)c1ccc(-c2c3nc(c(-c4ccccc4)c4ccc([nH]4)c(-c4ccccc4)c4nc(c(-c5ccccc5)c5ccc2[nH]5)C=C4)C=C3)cc1
REMARK SMILES IDX 5 1 4 2 3 3 2 4 1 5 23 6 24 7 70 8 25 9 69 10 26 11 27 12
REMARK SMILES IDX 28 13 63 14 29 15 68 16 62 17 64 18 30 19 67 20 61 21 60 22
REMARK SMILES IDX 31 24 53 25 38 26 52 27 39 28 42 29 51 30 65 31 40 32 41 33
REMARK SMILES IDX 50 35 66 36 43 37 32 38 33 39 37 40 34 41 36 42 35 43 54 44
REMARK SMILES IDX 55 45 59 46 56 47 58 48 57 49 44 50 45 51 49 52 46 53 48 54
REMARK SMILES IDX 47 55 6 56 7 57 8 58 9 59 10 60 22 61 11 62 21 63 12 64
REMARK SMILES IDX 13 65 14 66 15 68 16 69 20 70 17 71 19 72 18 73
REMARK H PARENT 64 23 42 34 14 67
REMARK Flexibility Score: inf
ROOT
ATOM      1  C   UNL A   1      37.853  21.062  25.230  1.00  0.00     0.275 C 
ENDROOT
BRANCH   1   2
ATOM      2  C   UNL A   1      38.532  19.759  24.805  1.00  0.00     0.275 C 
BRANCH   2   3
ATOM      3  O   UNL A   1      39.473  19.232  25.759  1.00  0.00    -0.458 OA
BRANCH   3   4
ATOM      4  C   UNL A   1      40.789  19.503  25.920  1.00  0.00     0.338 C 
ATOM      5  O   UNL A   1      41.616  18.634  25.649  1.00  0.00    -0.246 OA
BRANCH   4   6
ATOM      6  C   UNL A   1      41.298  20.756  26.557  1.00  0.00     0.060 A 
ATOM      7  C   UNL A   1      41.163  21.095  27.904  1.00  0.00     0.016 A 
ATOM      8  C   UNL A   1      41.913  21.689  25.698  1.00  0.00     0.016 A 
ATOM      9  C   UNL A   1      41.668  22.302  28.393  1.00  0.00     0.010 A 
ATOM     10  C   UNL A   1      42.418  22.900  26.181  1.00  0.00     0.010 A 
ATOM     11  C   UNL A   1      42.281  23.217  27.534  1.00  0.00    -0.014 A 
BRANCH  11  12
ATOM     12  C   UNL A   1      42.608  24.564  28.047  1.00  0.00     0.031 A 
ATOM     13  C   UNL A   1      44.052  24.921  28.240  1.00  0.00     0.074 A 
ATOM     14  C   UNL A   1      41.645  25.480  28.247  1.00  0.00     0.049 A 
ATOM     15  N   UNL A   1      44.582  26.085  28.508  1.00  0.00    -0.248 NA
ATOM     16  C   UNL A   1      45.028  23.831  28.072  1.00  0.00     0.031 C 
ATOM     17  C   UNL A   1      40.219  25.266  28.015  1.00  0.00     0.029 A 
ATOM     18  N   UNL A   1      41.720  26.780  28.674  1.00  0.00    -0.354 N 
ATOM     19  C   UNL A   1      45.955  25.875  28.501  1.00  0.00     0.074 A 
ATOM     20  C   UNL A   1      46.173  24.465  28.262  1.00  0.00     0.031 C 
ATOM     21  C   UNL A   1      39.546  26.385  28.331  1.00  0.00     0.029 A 
ATOM     22  C   UNL A   1      40.500  27.401  28.764  1.00  0.00     0.049 A 
ATOM     23  H   UNL A   1      42.570  27.226  28.896  1.00  0.00     0.167 HD
ATOM     24  C   UNL A   1      46.947  26.782  28.657  1.00  0.00     0.031 A 
ATOM     25  C   UNL A   1      40.191  28.659  29.132  1.00  0.00     0.031 A 
ATOM     26  C   UNL A   1      46.723  28.169  28.950  1.00  0.00     0.049 A 
ATOM     27  C   UNL A   1      41.309  29.620  29.425  1.00  0.00     0.074 A 
ATOM     28  C   UNL A   1      47.653  29.173  29.148  1.00  0.00     0.029 A 
ATOM     29  N   UNL A   1      45.470  28.742  29.109  1.00  0.00    -0.354 N 
ATOM     30  N   UNL A   1      42.604  29.424  29.352  1.00  0.00    -0.248 NA
ATOM     31  C   UNL A   1      40.924  30.984  29.812  1.00  0.00     0.031 C 
ATOM     32  C   UNL A   1      46.961  30.344  29.478  1.00  0.00     0.029 A 
ATOM     33  C   UNL A   1      45.599  30.080  29.432  1.00  0.00     0.049 A 
ATOM     34  H   UNL A   1      44.614  28.266  29.007  1.00  0.00     0.167 HD
ATOM     35  C   UNL A   1      43.189  30.651  29.635  1.00  0.00     0.074 A 
ATOM     36  C   UNL A   1      42.105  31.582  29.884  1.00  0.00     0.031 C 
ATOM     37  C   UNL A   1      44.503  30.984  29.669  1.00  0.00     0.031 A 
BRANCH  24  38
ATOM     38  C   UNL A   1      48.351  26.263  28.548  1.00  0.00    -0.014 A 
ATOM     39  C   UNL A   1      49.039  25.796  29.680  1.00  0.00     0.009 A 
ATOM     40  C   UNL A   1      49.009  26.284  27.310  1.00  0.00     0.009 A 
ATOM     41  C   UNL A   1      50.376  25.405  29.581  1.00  0.00     0.001 A 
ATOM     42  C   UNL A   1      50.338  25.869  27.211  1.00  0.00     0.001 A 
ATOM     43  C   UNL A   1      51.024  25.443  28.348  1.00  0.00     0.000 A 
ENDBRANCH  24  38
BRANCH  25  44
ATOM     44  C   UNL A   1      38.771  29.091  29.200  1.00  0.00    -0.014 A 
ATOM     45  C   UNL A   1      38.037  28.969  30.390  1.00  0.00     0.009 A 
ATOM     46  C   UNL A   1      38.137  29.622  28.065  1.00  0.00     0.009 A 
ATOM     47  C   UNL A   1      36.692  29.346  30.435  1.00  0.00     0.001 A 
ATOM     48  C   UNL A   1      36.798  30.018  28.119  1.00  0.00     0.001 A 
ATOM     49  C   UNL A   1      36.075  29.873  29.301  1.00  0.00     0.000 A 
ENDBRANCH  25  44
BRANCH  37  50
ATOM     50  C   UNL A   1      44.834  32.424  29.937  1.00  0.00    -0.014 A 
ATOM     51  C   UNL A   1      45.072  32.890  31.239  1.00  0.00     0.009 A 
ATOM     52  C   UNL A   1      44.951  33.315  28.859  1.00  0.00     0.009 A 
ATOM     53  C   UNL A   1      45.388  34.231  31.458  1.00  0.00     0.001 A 
ATOM     54  C   UNL A   1      45.293  34.649  29.079  1.00  0.00     0.001 A 
ATOM     55  C   UNL A   1      45.503  35.108  30.378  1.00  0.00     0.000 A 
ENDBRANCH  37  50
ENDBRANCH  11  12
ENDBRANCH   4   6
ENDBRANCH   3   4
ENDBRANCH   2   3
ENDBRANCH   1   2
BRANCH   1  56
ATOM     56  O   UNL A   1      37.021  21.627  24.208  1.00  0.00    -0.458 OA
BRANCH  56  57
ATOM     57  C   UNL A   1      35.692  21.602  24.488  1.00  0.00     0.339 C 
ATOM     58  O   UNL A   1      35.060  20.672  24.960  1.00  0.00    -0.246 OA
BRANCH  57  59
ATOM     59  C   UNL A   1      35.115  22.934  24.276  1.00  0.00     0.078 A 
ATOM     60  C   UNL A   1      35.060  23.919  25.260  1.00  0.00     0.019 A 
ATOM     61  C   UNL A   1      34.577  23.211  23.032  1.00  0.00     0.127 A 
ATOM     62  C   UNL A   1      34.448  25.141  24.964  1.00  0.00     0.026 A 
ATOM     63  N   UNL A   1      33.958  24.375  22.734  1.00  0.00    -0.259 NA
ATOM     64  C   UNL A   1      33.889  25.328  23.703  1.00  0.00     0.059 A 
BRANCH  64  65
ATOM     65  C   UNL A   1      33.206  26.636  23.323  1.00  0.00     0.169 C 
BRANCH  65  66
ATOM     66  N   UNL A   1      33.936  27.735  23.944  1.00  0.00    -0.379 N 
ATOM     67  H   UNL A   1      34.855  27.938  23.655  1.00  0.00     0.160 HD
BRANCH  66  68
ATOM     68  C   UNL A   1      33.343  28.496  24.942  1.00  0.00     0.034 A 
ATOM     69  C   UNL A   1      32.215  29.265  24.622  1.00  0.00     0.025 A 
ATOM     70  C   UNL A   1      33.807  28.518  26.260  1.00  0.00     0.025 A 
ATOM     71  C   UNL A   1      31.561  30.028  25.590  1.00  0.00     0.002 A 
ATOM     72  C   UNL A   1      33.162  29.292  27.231  1.00  0.00     0.002 A 
ATOM     73  C   UNL A   1      32.037  30.044  26.897  1.00  0.00     0.000 A 
ENDBRANCH  66  68
ENDBRANCH  65  66
ENDBRANCH  64  65
ENDBRANCH  57  59
ENDBRANCH  56  57
ENDBRANCH   1  56
TORSDOF 14
ENDMDL
