MODEL 1
REMARK VINA RESULT:     -10.3      0.000      0.000
REMARK SMILES CCc1nc(N2CC[N@H+](CC=C(C)C)[C@H](C(=O)OCCOC(=O)c3ccc(-c4c5nc(c(-c6ccccc6)c6ccc([nH]6)c(-c6ccccc6)c6nc(c(-c7ccccc7)c7ccc4[nH]7)C=C6)C=C5)cc3)C2)no1
REMARK SMILES IDX 19 1 18 2 16 3 17 4 15 5 6 6 7 7 72 8 8 9 9 10 5 12 3 13
REMARK SMILES IDX 4 14 74 15 73 16 2 17 1 18 10 19 11 20 12 21 13 22 14 23
REMARK SMILES IDX 20 24 21 25 22 26 23 27 24 28 25 29 71 30 26 31 70 32 27 33
REMARK SMILES IDX 28 34 29 35 64 36 30 37 69 38 63 39 65 40 31 41 68 42 62 43
REMARK SMILES IDX 61 44 32 46 54 47 39 48 53 49 40 50 43 51 52 52 66 53 41 54
REMARK SMILES IDX 42 55 51 57 67 58 44 59 33 60 34 61 38 62 35 63 37 64 36 65
REMARK SMILES IDX 55 66 56 67 60 68 57 69 59 70 58 71 45 72 46 73 50 74 47 75
REMARK SMILES IDX 49 76 48 77
REMARK H PARENT 9 11 65 45 43 56
REMARK Flexibility Score: inf
ROOT
ATOM      1  C   UNL A   1      36.067  21.800  24.607  1.00  0.00     0.274 C 
ENDROOT
BRANCH   1   2
ATOM      2  O   UNL A   1      35.349  23.044  24.679  1.00  0.00    -0.458 OA
BRANCH   2   3
ATOM      3  C   UNL A   1      34.627  23.401  23.578  1.00  0.00     0.366 C 
ATOM      4  O   UNL A   1      35.009  23.249  22.423  1.00  0.00    -0.245 OA
BRANCH   3   5
ATOM      5  C   UNL A   1      33.249  23.946  23.960  1.00  0.00     0.315 C 
ATOM      6  N   UNL A   1      32.070  25.274  25.718  1.00  0.00    -0.326 N 
ATOM      7  C   UNL A   1      30.980  24.301  25.747  1.00  0.00     0.181 C 
ATOM      8  C   UNL A   1      33.371  24.765  25.276  1.00  0.00     0.197 C 
ATOM      9  C   UNL A   1      30.895  23.543  24.401  1.00  0.00     0.285 C 
ATOM     10  N   UNL A   1      32.148  22.942  23.900  1.00  0.00    -0.317 N 
ATOM     11  H   UNL A   1      32.050  22.721  22.908  1.00  0.00     0.349 HD
BRANCH   6  12
ATOM     12  C   UNL A   1      31.983  26.399  26.462  1.00  0.00     0.266 A 
ATOM     13  C   UNL A   1      32.570  28.296  27.135  1.00  0.00     0.227 A 
ATOM     14  N   UNL A   1      33.063  27.243  26.519  1.00  0.00    -0.176 NA
ATOM     15  O   UNL A   1      31.277  28.125  27.532  1.00  0.00    -0.337 OA
ATOM     16  N   UNL A   1      30.891  26.871  27.077  1.00  0.00    -0.038 NA
BRANCH  13  17
ATOM     17  C   UNL A   1      33.156  29.650  27.295  1.00  0.00     0.097 C 
ATOM     18  C   UNL A   1      34.675  29.662  27.351  1.00  0.00     0.014 C 
ENDBRANCH  13  17
ENDBRANCH   6  12
BRANCH  10  19
ATOM     19  C   UNL A   1      32.414  21.602  24.414  1.00  0.00     0.291 C 
BRANCH  19  20
ATOM     20  C   UNL A   1      32.337  20.492  23.412  1.00  0.00     0.032 C 
ATOM     21  C   UNL A   1      32.488  19.175  23.651  1.00  0.00    -0.075 C 
ATOM     22  C   UNL A   1      32.496  18.191  22.513  1.00  0.00     0.039 C 
ATOM     23  C   UNL A   1      32.717  18.599  25.018  1.00  0.00     0.039 C 
ENDBRANCH  19  20
ENDBRANCH  10  19
ENDBRANCH   3   5
ENDBRANCH   2   3
ENDBRANCH   1   2
BRANCH   1  24
ATOM     24  C   UNL A   1      37.144  21.737  25.692  1.00  0.00     0.275 C 
BRANCH  24  25
ATOM     25  O   UNL A   1      37.872  22.978  25.779  1.00  0.00    -0.458 OA
BRANCH  25  26
ATOM     26  C   UNL A   1      39.151  22.868  26.219  1.00  0.00     0.338 C 
ATOM     27  O   UNL A   1      39.910  21.930  26.056  1.00  0.00    -0.246 OA
BRANCH  26  28
ATOM     28  C   UNL A   1      39.579  24.155  26.796  1.00  0.00     0.060 A 
ATOM     29  C   UNL A   1      39.145  24.462  28.090  1.00  0.00     0.016 A 
ATOM     30  C   UNL A   1      40.378  25.055  26.089  1.00  0.00     0.016 A 
ATOM     31  C   UNL A   1      39.557  25.635  28.709  1.00  0.00     0.010 A 
ATOM     32  C   UNL A   1      40.762  26.255  26.697  1.00  0.00     0.010 A 
ATOM     33  C   UNL A   1      40.364  26.541  28.015  1.00  0.00    -0.014 A 
BRANCH  33  34
ATOM     34  C   UNL A   1      40.758  27.804  28.670  1.00  0.00     0.031 A 
ATOM     35  C   UNL A   1      39.757  28.906  28.822  1.00  0.00     0.074 A 
ATOM     36  C   UNL A   1      42.002  27.936  29.163  1.00  0.00     0.049 A 
ATOM     37  N   UNL A   1      39.921  30.105  29.317  1.00  0.00    -0.248 NA
ATOM     38  C   UNL A   1      38.388  28.618  28.366  1.00  0.00     0.031 C 
ATOM     39  C   UNL A   1      43.032  26.897  29.147  1.00  0.00     0.029 A 
ATOM     40  N   UNL A   1      42.609  29.006  29.769  1.00  0.00    -0.354 N 
ATOM     41  C   UNL A   1      38.679  30.720  29.229  1.00  0.00     0.074 A 
ATOM     42  C   UNL A   1      37.775  29.765  28.622  1.00  0.00     0.031 C 
ATOM     43  C   UNL A   1      44.153  27.387  29.702  1.00  0.00     0.029 A 
ATOM     44  C   UNL A   1      43.931  28.783  30.070  1.00  0.00     0.049 A 
ATOM     45  H   UNL A   1      42.144  29.849  29.969  1.00  0.00     0.167 HD
ATOM     46  C   UNL A   1      38.331  31.969  29.615  1.00  0.00     0.031 A 
ATOM     47  C   UNL A   1      44.864  29.624  30.552  1.00  0.00     0.031 A 
ATOM     48  C   UNL A   1      39.242  32.922  30.190  1.00  0.00     0.049 A 
ATOM     49  C   UNL A   1      44.480  31.048  30.850  1.00  0.00     0.074 A 
ATOM     50  C   UNL A   1      38.986  34.213  30.616  1.00  0.00     0.029 A 
ATOM     51  N   UNL A   1      40.593  32.689  30.402  1.00  0.00    -0.354 N 
ATOM     52  N   UNL A   1      43.303  31.619  30.770  1.00  0.00    -0.248 NA
ATOM     53  C   UNL A   1      45.558  31.943  31.294  1.00  0.00     0.031 C 
ATOM     54  C   UNL A   1      40.195  34.781  31.033  1.00  0.00     0.029 A 
ATOM     55  C   UNL A   1      41.192  33.826  30.916  1.00  0.00     0.049 A 
ATOM     56  H   UNL A   1      41.056  31.841  30.215  1.00  0.00     0.167 HD
ATOM     57  C   UNL A   1      43.494  32.937  31.163  1.00  0.00     0.074 A 
ATOM     58  C   UNL A   1      44.897  33.074  31.503  1.00  0.00     0.031 C 
ATOM     59  C   UNL A   1      42.592  33.946  31.233  1.00  0.00     0.031 A 
BRANCH  46  60
ATOM     60  C   UNL A   1      36.910  32.392  29.376  1.00  0.00    -0.014 A 
ATOM     61  C   UNL A   1      36.525  33.017  28.179  1.00  0.00     0.009 A 
ATOM     62  C   UNL A   1      35.938  32.137  30.355  1.00  0.00     0.009 A 
ATOM     63  C   UNL A   1      35.197  33.404  27.982  1.00  0.00     0.001 A 
ATOM     64  C   UNL A   1      34.608  32.505  30.145  1.00  0.00     0.001 A 
ATOM     65  C   UNL A   1      34.240  33.144  28.963  1.00  0.00     0.000 A 
ENDBRANCH  46  60
BRANCH  47  66
ATOM     66  C   UNL A   1      46.265  29.163  30.724  1.00  0.00    -0.014 A 
ATOM     67  C   UNL A   1      46.715  28.676  31.959  1.00  0.00     0.009 A 
ATOM     68  C   UNL A   1      47.167  29.223  29.649  1.00  0.00     0.009 A 
ATOM     69  C   UNL A   1      48.044  28.276  32.120  1.00  0.00     0.001 A 
ATOM     70  C   UNL A   1      48.487  28.799  29.804  1.00  0.00     0.001 A 
ATOM     71  C   UNL A   1      48.928  28.333  31.042  1.00  0.00     0.000 A 
ENDBRANCH  47  66
BRANCH  59  72
ATOM     72  C   UNL A   1      43.095  35.281  31.703  1.00  0.00    -0.014 A 
ATOM     73  C   UNL A   1      43.628  36.211  30.798  1.00  0.00     0.009 A 
ATOM     74  C   UNL A   1      42.996  35.627  33.060  1.00  0.00     0.009 A 
ATOM     75  C   UNL A   1      44.077  37.455  31.247  1.00  0.00     0.001 A 
ATOM     76  C   UNL A   1      43.423  36.880  33.502  1.00  0.00     0.001 A 
ATOM     77  C   UNL A   1      43.970  37.789  32.597  1.00  0.00     0.000 A 
ENDBRANCH  59  72
ENDBRANCH  33  34
ENDBRANCH  26  28
ENDBRANCH  25  26
ENDBRANCH  24  25
ENDBRANCH   1  24
TORSDOF 15
ENDMDL
MODEL 2
REMARK VINA RESULT:     -10.3      2.577      7.891
REMARK SMILES CCc1nc(N2CC[N@H+](CC=C(C)C)[C@H](C(=O)OCCOC(=O)c3ccc(-c4c5nc(c(-c6ccccc6)c6ccc([nH]6)c(-c6ccccc6)c6nc(c(-c7ccccc7)c7ccc4[nH]7)C=C6)C=C5)cc3)C2)no1
REMARK SMILES IDX 19 1 18 2 16 3 17 4 15 5 6 6 7 7 72 8 8 9 9 10 5 12 3 13
REMARK SMILES IDX 4 14 74 15 73 16 2 17 1 18 10 19 11 20 12 21 13 22 14 23
REMARK SMILES IDX 20 24 21 25 22 26 23 27 24 28 25 29 71 30 26 31 70 32 27 33
REMARK SMILES IDX 28 34 29 35 64 36 30 37 69 38 63 39 65 40 31 41 68 42 62 43
REMARK SMILES IDX 61 44 32 46 54 47 39 48 53 49 40 50 43 51 52 52 66 53 41 54
REMARK SMILES IDX 42 55 51 57 67 58 44 59 33 60 34 61 38 62 35 63 37 64 36 65
REMARK SMILES IDX 55 66 56 67 60 68 57 69 59 70 58 71 45 72 46 73 50 74 47 75
REMARK SMILES IDX 49 76 48 77
REMARK H PARENT 9 11 65 45 43 56
REMARK Flexibility Score: inf
ROOT
ATOM      1  C   UNL A   1      31.912  28.404  27.278  1.00  0.00     0.274 C 
ENDROOT
BRANCH   1   2
ATOM      2  O   UNL A   1      32.357  27.252  26.541  1.00  0.00    -0.458 OA
BRANCH   2   3
ATOM      3  C   UNL A   1      31.409  26.326  26.216  1.00  0.00     0.366 C 
ATOM      4  O   UNL A   1      30.339  26.200  26.802  1.00  0.00    -0.245 OA
BRANCH   3   5
ATOM      5  C   UNL A   1      31.813  25.514  24.983  1.00  0.00     0.315 C 
ATOM      6  N   UNL A   1      33.811  24.727  23.706  1.00  0.00    -0.326 N 
ATOM      7  C   UNL A   1      33.182  25.116  22.447  1.00  0.00     0.181 C 
ATOM      8  C   UNL A   1      33.364  25.454  24.897  1.00  0.00     0.197 C 
ATOM      9  C   UNL A   1      31.641  25.127  22.592  1.00  0.00     0.285 C 
ATOM     10  N   UNL A   1      31.090  25.887  23.733  1.00  0.00    -0.317 N 
ATOM     11  H   UNL A   1      30.123  25.605  23.897  1.00  0.00     0.349 HD
BRANCH   6  12
ATOM     12  C   UNL A   1      35.003  24.091  23.690  1.00  0.00     0.266 A 
ATOM     13  C   UNL A   1      36.719  23.225  24.527  1.00  0.00     0.227 A 
ATOM     14  N   UNL A   1      35.765  24.078  24.831  1.00  0.00    -0.176 NA
ATOM     15  O   UNL A   1      36.642  22.772  23.244  1.00  0.00    -0.337 OA
ATOM     16  N   UNL A   1      35.500  23.341  22.697  1.00  0.00    -0.038 NA
BRANCH  13  17
ATOM     17  C   UNL A   1      37.727  22.589  25.413  1.00  0.00     0.097 C 
ATOM     18  C   UNL A   1      37.829  21.081  25.248  1.00  0.00     0.014 C 
ENDBRANCH  13  17
ENDBRANCH   6  12
BRANCH  10  19
ATOM     19  C   UNL A   1      30.880  27.305  23.460  1.00  0.00     0.291 C 
BRANCH  19  20
ATOM     20  C   UNL A   1      29.452  27.750  23.388  1.00  0.00     0.032 C 
ATOM     21  C   UNL A   1      28.979  28.854  22.778  1.00  0.00    -0.075 C 
ATOM     22  C   UNL A   1      27.526  29.224  22.893  1.00  0.00     0.039 C 
ATOM     23  C   UNL A   1      29.841  29.814  22.011  1.00  0.00     0.039 C 
ENDBRANCH  19  20
ENDBRANCH  10  19
ENDBRANCH   3   5
ENDBRANCH   2   3
ENDBRANCH   1   2
BRANCH   1  24
ATOM     24  C   UNL A   1      32.529  29.681  26.702  1.00  0.00     0.275 C 
BRANCH  24  25
ATOM     25  O   UNL A   1      33.963  29.678  26.842  1.00  0.00    -0.458 OA
BRANCH  25  26
ATOM     26  C   UNL A   1      34.458  30.564  27.743  1.00  0.00     0.338 C 
ATOM     27  O   UNL A   1      33.883  31.521  28.230  1.00  0.00    -0.246 OA
BRANCH  26  28
ATOM     28  C   UNL A   1      35.779  30.101  28.204  1.00  0.00     0.060 A 
ATOM     29  C   UNL A   1      36.821  30.079  27.273  1.00  0.00     0.016 A 
ATOM     30  C   UNL A   1      36.000  29.683  29.519  1.00  0.00     0.016 A 
ATOM     31  C   UNL A   1      38.101  29.703  27.659  1.00  0.00     0.010 A 
ATOM     32  C   UNL A   1      37.279  29.267  29.899  1.00  0.00     0.010 A 
ATOM     33  C   UNL A   1      38.337  29.291  28.974  1.00  0.00    -0.014 A 
BRANCH  33  34
ATOM     34  C   UNL A   1      39.693  28.852  29.358  1.00  0.00     0.031 A 
ATOM     35  C   UNL A   1      40.198  27.517  28.911  1.00  0.00     0.074 A 
ATOM     36  C   UNL A   1      40.479  29.676  30.074  1.00  0.00     0.049 A 
ATOM     37  N   UNL A   1      41.333  26.929  29.187  1.00  0.00    -0.248 NA
ATOM     38  C   UNL A   1      39.313  26.743  28.026  1.00  0.00     0.031 C 
ATOM     39  C   UNL A   1      40.123  31.032  30.491  1.00  0.00     0.029 A 
ATOM     40  N   UNL A   1      41.740  29.487  30.579  1.00  0.00    -0.354 N 
ATOM     41  C   UNL A   1      41.300  25.714  28.516  1.00  0.00     0.074 A 
ATOM     42  C   UNL A   1      40.028  25.644  27.828  1.00  0.00     0.031 C 
ATOM     43  C   UNL A   1      41.137  31.548  31.207  1.00  0.00     0.029 A 
ATOM     44  C   UNL A   1      42.190  30.543  31.331  1.00  0.00     0.049 A 
ATOM     45  H   UNL A   1      42.271  28.674  30.417  1.00  0.00     0.167 HD
ATOM     46  C   UNL A   1      42.245  24.746  28.484  1.00  0.00     0.031 A 
ATOM     47  C   UNL A   1      43.308  30.669  32.070  1.00  0.00     0.031 A 
ATOM     48  C   UNL A   1      43.494  24.812  29.194  1.00  0.00     0.049 A 
ATOM     49  C   UNL A   1      44.281  29.523  32.121  1.00  0.00     0.074 A 
ATOM     50  C   UNL A   1      44.520  23.883  29.224  1.00  0.00     0.029 A 
ATOM     51  N   UNL A   1      43.879  25.861  30.014  1.00  0.00    -0.354 N 
ATOM     52  N   UNL A   1      44.246  28.381  31.479  1.00  0.00    -0.248 NA
ATOM     53  C   UNL A   1      45.443  29.682  33.008  1.00  0.00     0.031 C 
ATOM     54  C   UNL A   1      45.500  24.346  30.109  1.00  0.00     0.029 A 
ATOM     55  C   UNL A   1      45.109  25.586  30.588  1.00  0.00     0.049 A 
ATOM     56  H   UNL A   1      43.355  26.681  30.166  1.00  0.00     0.167 HD
ATOM     57  C   UNL A   1      45.382  27.688  31.875  1.00  0.00     0.074 A 
ATOM     58  C   UNL A   1      46.099  28.549  32.796  1.00  0.00     0.031 C 
ATOM     59  C   UNL A   1      45.796  26.449  31.513  1.00  0.00     0.031 A 
BRANCH  46  60
ATOM     60  C   UNL A   1      41.935  23.509  27.693  1.00  0.00    -0.014 A 
ATOM     61  C   UNL A   1      42.378  23.357  26.370  1.00  0.00     0.009 A 
ATOM     62  C   UNL A   1      41.207  22.468  28.291  1.00  0.00     0.009 A 
ATOM     63  C   UNL A   1      42.073  22.197  25.653  1.00  0.00     0.001 A 
ATOM     64  C   UNL A   1      40.924  21.301  27.579  1.00  0.00     0.001 A 
ATOM     65  C   UNL A   1      41.351  21.170  26.259  1.00  0.00     0.000 A 
ENDBRANCH  46  60
BRANCH  47  66
ATOM     66  C   UNL A   1      43.539  31.899  32.870  1.00  0.00    -0.014 A 
ATOM     67  C   UNL A   1      44.197  33.004  32.314  1.00  0.00     0.009 A 
ATOM     68  C   UNL A   1      43.111  31.964  34.206  1.00  0.00     0.009 A 
ATOM     69  C   UNL A   1      44.440  34.144  33.085  1.00  0.00     0.001 A 
ATOM     70  C   UNL A   1      43.332  33.114  34.966  1.00  0.00     0.001 A 
ATOM     71  C   UNL A   1      44.003  34.199  34.409  1.00  0.00     0.000 A 
ENDBRANCH  47  66
BRANCH  59  72
ATOM     72  C   UNL A   1      47.085  25.958  32.108  1.00  0.00    -0.014 A 
ATOM     73  C   UNL A   1      48.318  26.261  31.511  1.00  0.00     0.009 A 
ATOM     74  C   UNL A   1      47.066  25.217  33.300  1.00  0.00     0.009 A 
ATOM     75  C   UNL A   1      49.508  25.810  32.084  1.00  0.00     0.001 A 
ATOM     76  C   UNL A   1      48.259  24.789  33.885  1.00  0.00     0.001 A 
ATOM     77  C   UNL A   1      49.478  25.079  33.272  1.00  0.00     0.000 A 
ENDBRANCH  59  72
ENDBRANCH  33  34
ENDBRANCH  26  28
ENDBRANCH  25  26
ENDBRANCH  24  25
ENDBRANCH   1  24
TORSDOF 15
ENDMDL
MODEL 3
REMARK VINA RESULT:     -10.2      2.562      7.763
REMARK SMILES CCc1nc(N2CC[N@H+](CC=C(C)C)[C@H](C(=O)OCCOC(=O)c3ccc(-c4c5nc(c(-c6ccccc6)c6ccc([nH]6)c(-c6ccccc6)c6nc(c(-c7ccccc7)c7ccc4[nH]7)C=C6)C=C5)cc3)C2)no1
REMARK SMILES IDX 19 1 18 2 16 3 17 4 15 5 6 6 7 7 72 8 8 9 9 10 5 12 3 13
REMARK SMILES IDX 4 14 74 15 73 16 2 17 1 18 10 19 11 20 12 21 13 22 14 23
REMARK SMILES IDX 20 24 21 25 22 26 23 27 24 28 25 29 71 30 26 31 70 32 27 33
REMARK SMILES IDX 28 34 29 35 64 36 30 37 69 38 63 39 65 40 31 41 68 42 62 43
REMARK SMILES IDX 61 44 32 46 54 47 39 48 53 49 40 50 43 51 52 52 66 53 41 54
REMARK SMILES IDX 42 55 51 57 67 58 44 59 33 60 34 61 38 62 35 63 37 64 36 65
REMARK SMILES IDX 55 66 56 67 60 68 57 69 59 70 58 71 45 72 46 73 50 74 47 75
REMARK SMILES IDX 49 76 48 77
REMARK H PARENT 9 11 65 45 43 56
REMARK Flexibility Score: inf
ROOT
ATOM      1  C   UNL A   1      32.047  30.473  25.975  1.00  0.00     0.274 C 
ENDROOT
BRANCH   1   2
ATOM      2  O   UNL A   1      31.481  29.440  25.150  1.00  0.00    -0.458 OA
BRANCH   2   3
ATOM      3  C   UNL A   1      32.350  28.537  24.612  1.00  0.00     0.366 C 
ATOM      4  O   UNL A   1      33.302  28.836  23.899  1.00  0.00    -0.245 OA
BRANCH   3   5
ATOM      5  C   UNL A   1      32.037  27.111  25.072  1.00  0.00     0.315 C 
ATOM      6  N   UNL A   1      32.978  24.797  25.102  1.00  0.00    -0.326 N 
ATOM      7  C   UNL A   1      31.694  24.250  24.672  1.00  0.00     0.181 C 
ATOM      8  C   UNL A   1      33.240  26.188  24.726  1.00  0.00     0.197 C 
ATOM      9  C   UNL A   1      30.540  25.199  25.073  1.00  0.00     0.285 C 
ATOM     10  N   UNL A   1      30.686  26.617  24.683  1.00  0.00    -0.317 N 
ATOM     11  H   UNL A   1      30.034  27.189  25.223  1.00  0.00     0.349 HD
BRANCH   6  12
ATOM     12  C   UNL A   1      33.995  23.959  25.405  1.00  0.00     0.266 A 
ATOM     13  C   UNL A   1      35.838  23.004  25.111  1.00  0.00     0.227 A 
ATOM     14  N   UNL A   1      34.910  23.644  24.433  1.00  0.00    -0.176 NA
ATOM     15  O   UNL A   1      35.517  22.832  26.424  1.00  0.00    -0.337 OA
ATOM     16  N   UNL A   1      34.300  23.473  26.616  1.00  0.00    -0.038 NA
BRANCH  13  17
ATOM     17  C   UNL A   1      37.205  22.610  24.689  1.00  0.00     0.097 C 
ATOM     18  C   UNL A   1      38.194  22.487  25.836  1.00  0.00     0.014 C 
ENDBRANCH  13  17
ENDBRANCH   6  12
BRANCH  10  19
ATOM     19  C   UNL A   1      30.206  26.919  23.339  1.00  0.00     0.291 C 
BRANCH  19  20
ATOM     20  C   UNL A   1      28.965  27.753  23.261  1.00  0.00     0.032 C 
ATOM     21  C   UNL A   1      28.848  28.980  22.717  1.00  0.00    -0.075 C 
ATOM     22  C   UNL A   1      27.553  29.738  22.820  1.00  0.00     0.039 C 
ATOM     23  C   UNL A   1      29.978  29.701  22.040  1.00  0.00     0.039 C 
ENDBRANCH  19  20
ENDBRANCH  10  19
ENDBRANCH   3   5
ENDBRANCH   2   3
ENDBRANCH   1   2
BRANCH   1  24
ATOM     24  C   UNL A   1      32.507  29.897  27.317  1.00  0.00     0.275 C 
BRANCH  24  25
ATOM     25  O   UNL A   1      33.938  29.730  27.352  1.00  0.00    -0.458 OA
BRANCH  25  26
ATOM     26  C   UNL A   1      34.611  30.661  28.073  1.00  0.00     0.338 C 
ATOM     27  O   UNL A   1      34.156  31.666  28.588  1.00  0.00    -0.246 OA
BRANCH  26  28
ATOM     28  C   UNL A   1      35.988  30.193  28.307  1.00  0.00     0.060 A 
ATOM     29  C   UNL A   1      36.300  29.701  29.578  1.00  0.00     0.016 A 
ATOM     30  C   UNL A   1      36.966  30.241  27.311  1.00  0.00     0.016 A 
ATOM     31  C   UNL A   1      37.566  29.195  29.845  1.00  0.00     0.010 A 
ATOM     32  C   UNL A   1      38.252  29.769  27.590  1.00  0.00     0.010 A 
ATOM     33  C   UNL A   1      38.551  29.231  28.854  1.00  0.00    -0.014 A 
BRANCH  33  34
ATOM     34  C   UNL A   1      39.905  28.731  29.167  1.00  0.00     0.031 A 
ATOM     35  C   UNL A   1      40.875  29.612  29.889  1.00  0.00     0.074 A 
ATOM     36  C   UNL A   1      40.240  27.472  28.835  1.00  0.00     0.049 A 
ATOM     37  N   UNL A   1      42.122  29.379  30.206  1.00  0.00    -0.248 NA
ATOM     38  C   UNL A   1      40.373  30.926  30.322  1.00  0.00     0.031 C 
ATOM     39  C   UNL A   1      39.348  26.498  28.206  1.00  0.00     0.029 A 
ATOM     40  N   UNL A   1      41.427  26.800  28.980  1.00  0.00    -0.354 N 
ATOM     41  C   UNL A   1      42.558  30.517  30.871  1.00  0.00     0.074 A 
ATOM     42  C   UNL A   1      41.446  31.444  30.902  1.00  0.00     0.031 C 
ATOM     43  C   UNL A   1      40.025  25.356  28.001  1.00  0.00     0.029 A 
ATOM     44  C   UNL A   1      41.405  25.535  28.445  1.00  0.00     0.049 A 
ATOM     45  H   UNL A   1      42.216  27.185  29.424  1.00  0.00     0.167 HD
ATOM     46  C   UNL A   1      43.779  30.765  31.401  1.00  0.00     0.031 A 
ATOM     47  C   UNL A   1      42.399  24.640  28.294  1.00  0.00     0.031 A 
ATOM     48  C   UNL A   1      44.887  29.850  31.341  1.00  0.00     0.049 A 
ATOM     49  C   UNL A   1      43.779  24.993  28.776  1.00  0.00     0.074 A 
ATOM     50  C   UNL A   1      46.165  30.006  31.849  1.00  0.00     0.029 A 
ATOM     51  N   UNL A   1      44.853  28.612  30.716  1.00  0.00    -0.354 N 
ATOM     52  N   UNL A   1      44.182  26.068  29.409  1.00  0.00    -0.248 NA
ATOM     53  C   UNL A   1      44.843  24.014  28.512  1.00  0.00     0.031 C 
ATOM     54  C   UNL A   1      46.919  28.887  31.482  1.00  0.00     0.029 A 
ATOM     55  C   UNL A   1      46.097  28.010  30.792  1.00  0.00     0.049 A 
ATOM     56  H   UNL A   1      44.060  28.219  30.284  1.00  0.00     0.167 HD
ATOM     57  C   UNL A   1      45.542  25.891  29.629  1.00  0.00     0.074 A 
ATOM     58  C   UNL A   1      45.890  24.594  29.081  1.00  0.00     0.031 C 
ATOM     59  C   UNL A   1      46.425  26.727  30.226  1.00  0.00     0.031 A 
BRANCH  46  60
ATOM     60  C   UNL A   1      43.990  32.103  32.047  1.00  0.00    -0.014 A 
ATOM     61  C   UNL A   1      43.765  32.296  33.419  1.00  0.00     0.009 A 
ATOM     62  C   UNL A   1      44.443  33.182  31.272  1.00  0.00     0.009 A 
ATOM     63  C   UNL A   1      43.965  33.553  33.996  1.00  0.00     0.001 A 
ATOM     64  C   UNL A   1      44.663  34.431  31.856  1.00  0.00     0.001 A 
ATOM     65  C   UNL A   1      44.417  34.617  33.215  1.00  0.00     0.000 A 
ENDBRANCH  46  60
BRANCH  47  66
ATOM     66  C   UNL A   1      42.142  23.350  27.605  1.00  0.00    -0.014 A 
ATOM     67  C   UNL A   1      41.625  22.251  28.306  1.00  0.00     0.009 A 
ATOM     68  C   UNL A   1      42.428  23.209  26.238  1.00  0.00     0.009 A 
ATOM     69  C   UNL A   1      41.419  21.032  27.656  1.00  0.00     0.001 A 
ATOM     70  C   UNL A   1      42.197  21.997  25.585  1.00  0.00     0.001 A 
ATOM     71  C   UNL A   1      41.700  20.907  26.296  1.00  0.00     0.000 A 
ENDBRANCH  47  66
BRANCH  59  72
ATOM     72  C   UNL A   1      47.850  26.259  30.325  1.00  0.00    -0.014 A 
ATOM     73  C   UNL A   1      48.745  26.441  29.260  1.00  0.00     0.009 A 
ATOM     74  C   UNL A   1      48.310  25.667  31.512  1.00  0.00     0.009 A 
ATOM     75  C   UNL A   1      50.070  26.015  29.373  1.00  0.00     0.001 A 
ATOM     76  C   UNL A   1      49.641  25.265  31.631  1.00  0.00     0.001 A 
ATOM     77  C   UNL A   1      50.517  25.432  30.559  1.00  0.00     0.000 A 
ENDBRANCH  59  72
ENDBRANCH  33  34
ENDBRANCH  26  28
ENDBRANCH  25  26
ENDBRANCH  24  25
ENDBRANCH   1  24
TORSDOF 15
ENDMDL
