MODEL 1
REMARK VINA RESULT:     -11.1      0.000      0.000
REMARK SMILES C[NH+]1CCC(NC(=O)N[C@H]2C=C[C@H](C(=O)OCCOC(=O)c3ccc(-c4c5nc(c(-c6ccccc6)c6ccc([nH]6)c(-c6ccccc6)c6nc(c(-c7ccccc7)c7ccc4[nH]7)C=C6)C=C5)cc3)C2)CC1
REMARK SMILES IDX 17 1 16 2 14 3 15 4 13 5 10 6 11 7 70 8 12 9 9 10 6 11 7 12
REMARK SMILES IDX 8 14 5 16 1 17 2 18 3 19 72 20 4 22 71 23 18 24 19 25 20 26
REMARK SMILES IDX 21 27 22 28 23 29 69 30 24 31 68 32 25 33 26 34 27 35 62 36
REMARK SMILES IDX 28 37 67 38 61 39 63 40 29 41 66 42 60 43 59 44 30 46 52 47
REMARK SMILES IDX 37 48 51 49 38 50 41 51 50 52 64 53 39 54 40 55 49 57 65 58
REMARK SMILES IDX 42 59 31 60 32 61 36 62 33 63 35 64 34 65 53 66 54 67 58 68
REMARK SMILES IDX 55 69 57 70 56 71 43 72 44 73 48 74 45 75 47 76 46 77
REMARK H PARENT 6 13 9 15 2 21 63 45 41 56
REMARK Flexibility Score: inf
ROOT
ATOM      1  C   UNL A   1      32.108  30.107  26.793  1.00  0.00     0.274 C 
ENDROOT
BRANCH   1   2
ATOM      2  O   UNL A   1      32.172  29.986  25.357  1.00  0.00    -0.462 OA
BRANCH   2   3
ATOM      3  C   UNL A   1      32.389  28.732  24.862  1.00  0.00     0.312 C 
ATOM      4  O   UNL A   1      33.263  28.429  24.063  1.00  0.00    -0.252 OA
BRANCH   3   5
ATOM      5  C   UNL A   1      31.325  27.785  25.395  1.00  0.00     0.124 C 
ATOM      6  C   UNL A   1      30.983  25.341  25.396  1.00  0.00     0.107 C 
ATOM      7  C   UNL A   1      30.096  26.023  24.416  1.00  0.00    -0.006 C 
ATOM      8  C   UNL A   1      31.830  26.463  26.017  1.00  0.00     0.048 C 
ATOM      9  C   UNL A   1      30.320  27.341  24.370  1.00  0.00    -0.014 C 
BRANCH   6  10
ATOM     10  N   UNL A   1      30.250  24.411  26.245  1.00  0.00    -0.332 N 
ATOM     11  N   UNL A   1      31.467  22.526  27.053  1.00  0.00    -0.335 N 
ATOM     12  C   UNL A   1      30.386  23.307  26.981  1.00  0.00     0.315 C 
ATOM     13  H   UNL A   1      31.411  21.829  27.745  1.00  0.00     0.165 HD
ATOM     14  O   UNL A   1      29.410  22.977  27.664  1.00  0.00    -0.249 OA
ATOM     15  H   UNL A   1      29.311  24.705  26.295  1.00  0.00     0.165 HD
BRANCH  11  16
ATOM     16  C   UNL A   1      32.698  22.513  26.308  1.00  0.00     0.095 C 
ATOM     17  C   UNL A   1      36.202  22.259  24.062  1.00  0.00     0.332 C 
ATOM     18  N   UNL A   1      35.049  21.726  24.801  1.00  0.00    -0.337 N 
ATOM     19  C   UNL A   1      33.808  22.104  24.112  1.00  0.00     0.264 C 
ATOM     20  C   UNL A   1      35.139  22.117  26.218  1.00  0.00     0.264 C 
ATOM     21  H   UNL A   1      35.049  20.707  24.812  1.00  0.00     0.347 HD
ATOM     22  C   UNL A   1      32.541  21.873  24.933  1.00  0.00     0.086 C 
ATOM     23  C   UNL A   1      33.862  21.850  27.023  1.00  0.00     0.086 C 
ENDBRANCH  11  16
ENDBRANCH   6  10
ENDBRANCH   3   5
ENDBRANCH   2   3
ENDBRANCH   1   2
BRANCH   1  24
ATOM     24  C   UNL A   1      33.476  29.832  27.409  1.00  0.00     0.275 C 
BRANCH  24  25
ATOM     25  O   UNL A   1      34.178  31.079  27.543  1.00  0.00    -0.458 OA
BRANCH  25  26
ATOM     26  C   UNL A   1      34.890  31.233  28.680  1.00  0.00     0.338 C 
ATOM     27  O   UNL A   1      34.582  31.874  29.674  1.00  0.00    -0.246 OA
BRANCH  26  28
ATOM     28  C   UNL A   1      36.107  30.408  28.614  1.00  0.00     0.060 A 
ATOM     29  C   UNL A   1      36.528  29.736  29.757  1.00  0.00     0.016 A 
ATOM     30  C   UNL A   1      36.926  30.443  27.490  1.00  0.00     0.016 A 
ATOM     31  C   UNL A   1      37.817  29.233  29.839  1.00  0.00     0.010 A 
ATOM     32  C   UNL A   1      38.167  29.798  27.526  1.00  0.00     0.010 A 
ATOM     33  C   UNL A   1      38.652  29.224  28.717  1.00  0.00    -0.014 A 
BRANCH  33  34
ATOM     34  C   UNL A   1      40.030  28.664  28.809  1.00  0.00     0.031 A 
ATOM     35  C   UNL A   1      41.171  29.542  29.251  1.00  0.00     0.074 A 
ATOM     36  C   UNL A   1      40.276  27.367  28.528  1.00  0.00     0.049 A 
ATOM     37  N   UNL A   1      42.459  29.346  29.125  1.00  0.00    -0.248 NA
ATOM     38  C   UNL A   1      40.821  30.817  29.900  1.00  0.00     0.031 C 
ATOM     39  C   UNL A   1      39.275  26.362  28.159  1.00  0.00     0.029 A 
ATOM     40  N   UNL A   1      41.456  26.663  28.525  1.00  0.00    -0.354 N 
ATOM     41  C   UNL A   1      43.064  30.512  29.579  1.00  0.00     0.074 A 
ATOM     42  C   UNL A   1      42.007  31.398  30.017  1.00  0.00     0.031 C 
ATOM     43  C   UNL A   1      39.868  25.167  28.042  1.00  0.00     0.029 A 
ATOM     44  C   UNL A   1      41.306  25.340  28.183  1.00  0.00     0.049 A 
ATOM     45  H   UNL A   1      42.326  27.067  28.749  1.00  0.00     0.167 HD
ATOM     46  C   UNL A   1      44.383  30.820  29.601  1.00  0.00     0.031 A 
ATOM     47  C   UNL A   1      42.219  24.384  27.933  1.00  0.00     0.031 A 
ATOM     48  C   UNL A   1      45.431  29.903  29.241  1.00  0.00     0.049 A 
ATOM     49  C   UNL A   1      43.674  24.745  27.959  1.00  0.00     0.074 A 
ATOM     50  C   UNL A   1      46.798  30.118  29.224  1.00  0.00     0.029 A 
ATOM     51  N   UNL A   1      45.226  28.586  28.866  1.00  0.00    -0.354 N 
ATOM     52  N   UNL A   1      44.232  25.893  28.258  1.00  0.00    -0.248 NA
ATOM     53  C   UNL A   1      44.621  23.693  27.570  1.00  0.00     0.031 C 
ATOM     54  C   UNL A   1      47.421  28.934  28.813  1.00  0.00     0.029 A 
ATOM     55  C   UNL A   1      46.441  27.974  28.612  1.00  0.00     0.049 A 
ATOM     56  H   UNL A   1      44.347  28.149  28.792  1.00  0.00     0.167 HD
ATOM     57  C   UNL A   1      45.594  25.705  28.080  1.00  0.00     0.074 A 
ATOM     58  C   UNL A   1      45.781  24.325  27.683  1.00  0.00     0.031 C 
ATOM     59  C   UNL A   1      46.601  26.602  28.213  1.00  0.00     0.031 A 
BRANCH  46  60
ATOM     60  C   UNL A   1      44.763  32.227  29.962  1.00  0.00    -0.014 A 
ATOM     61  C   UNL A   1      45.087  32.598  31.275  1.00  0.00     0.009 A 
ATOM     62  C   UNL A   1      44.836  33.192  28.944  1.00  0.00     0.009 A 
ATOM     63  C   UNL A   1      45.454  33.915  31.563  1.00  0.00     0.001 A 
ATOM     64  C   UNL A   1      45.225  34.502  29.231  1.00  0.00     0.001 A 
ATOM     65  C   UNL A   1      45.527  34.863  30.542  1.00  0.00     0.000 A 
ENDBRANCH  46  60
BRANCH  47  66
ATOM     66  C   UNL A   1      41.776  23.024  27.528  1.00  0.00    -0.014 A 
ATOM     67  C   UNL A   1      41.409  22.755  26.203  1.00  0.00     0.009 A 
ATOM     68  C   UNL A   1      41.736  21.980  28.470  1.00  0.00     0.009 A 
ATOM     69  C   UNL A   1      41.004  21.470  25.830  1.00  0.00     0.001 A 
ATOM     70  C   UNL A   1      41.365  20.691  28.086  1.00  0.00     0.001 A 
ATOM     71  C   UNL A   1      40.992  20.439  26.769  1.00  0.00     0.000 A 
ENDBRANCH  47  66
BRANCH  59  72
ATOM     72  C   UNL A   1      47.987  26.105  27.939  1.00  0.00    -0.014 A 
ATOM     73  C   UNL A   1      48.768  25.549  28.965  1.00  0.00     0.009 A 
ATOM     74  C   UNL A   1      48.508  26.170  26.638  1.00  0.00     0.009 A 
ATOM     75  C   UNL A   1      50.059  25.095  28.697  1.00  0.00     0.001 A 
ATOM     76  C   UNL A   1      49.792  25.695  26.370  1.00  0.00     0.001 A 
ATOM     77  C   UNL A   1      50.569  25.165  27.400  1.00  0.00     0.000 A 
ENDBRANCH  59  72
ENDBRANCH  33  34
ENDBRANCH  26  28
ENDBRANCH  25  26
ENDBRANCH  24  25
ENDBRANCH   1  24
TORSDOF 13
ENDMDL
MODEL 2
REMARK VINA RESULT:     -11.1      3.813      7.063
REMARK SMILES C[NH+]1CCC(NC(=O)N[C@H]2C=C[C@H](C(=O)OCCOC(=O)c3ccc(-c4c5nc(c(-c6ccccc6)c6ccc([nH]6)c(-c6ccccc6)c6nc(c(-c7ccccc7)c7ccc4[nH]7)C=C6)C=C5)cc3)C2)CC1
REMARK SMILES IDX 17 1 16 2 14 3 15 4 13 5 10 6 11 7 70 8 12 9 9 10 6 11 7 12
REMARK SMILES IDX 8 14 5 16 1 17 2 18 3 19 72 20 4 22 71 23 18 24 19 25 20 26
REMARK SMILES IDX 21 27 22 28 23 29 69 30 24 31 68 32 25 33 26 34 27 35 62 36
REMARK SMILES IDX 28 37 67 38 61 39 63 40 29 41 66 42 60 43 59 44 30 46 52 47
REMARK SMILES IDX 37 48 51 49 38 50 41 51 50 52 64 53 39 54 40 55 49 57 65 58
REMARK SMILES IDX 42 59 31 60 32 61 36 62 33 63 35 64 34 65 53 66 54 67 58 68
REMARK SMILES IDX 55 69 57 70 56 71 43 72 44 73 48 74 45 75 47 76 46 77
REMARK H PARENT 6 13 9 15 2 21 63 45 41 56
REMARK Flexibility Score: inf
ROOT
ATOM      1  C   UNL A   1      32.435  28.506  24.959  1.00  0.00     0.274 C 
ENDROOT
BRANCH   1   2
ATOM      2  O   UNL A   1      32.846  27.691  26.076  1.00  0.00    -0.462 OA
BRANCH   2   3
ATOM      3  C   UNL A   1      31.921  26.807  26.555  1.00  0.00     0.312 C 
ATOM      4  O   UNL A   1      31.044  27.070  27.365  1.00  0.00    -0.252 OA
BRANCH   3   5
ATOM      5  C   UNL A   1      32.201  25.423  25.988  1.00  0.00     0.124 C 
ATOM      6  C   UNL A   1      32.541  23.170  26.932  1.00  0.00     0.107 C 
ATOM      7  C   UNL A   1      33.820  23.776  26.476  1.00  0.00    -0.006 C 
ATOM      8  C   UNL A   1      31.473  24.242  26.669  1.00  0.00     0.048 C 
ATOM      9  C   UNL A   1      33.648  25.021  26.018  1.00  0.00    -0.014 C 
BRANCH   6  10
ATOM     10  N   UNL A   1      32.367  21.812  26.429  1.00  0.00    -0.332 N 
ATOM     11  N   UNL A   1      32.323  21.556  24.059  1.00  0.00    -0.335 N 
ATOM     12  C   UNL A   1      32.325  21.088  25.311  1.00  0.00     0.315 C 
ATOM     13  H   UNL A   1      32.412  20.857  23.372  1.00  0.00     0.165 HD
ATOM     14  O   UNL A   1      32.284  19.861  25.450  1.00  0.00    -0.249 OA
ATOM     15  H   UNL A   1      32.232  21.210  27.196  1.00  0.00     0.165 HD
BRANCH  11  16
ATOM     16  C   UNL A   1      32.213  22.888  23.528  1.00  0.00     0.095 C 
ATOM     17  C   UNL A   1      31.713  26.674  21.853  1.00  0.00     0.332 C 
ATOM     18  N   UNL A   1      31.631  25.207  21.884  1.00  0.00    -0.337 N 
ATOM     19  C   UNL A   1      30.706  24.790  22.947  1.00  0.00     0.264 C 
ATOM     20  C   UNL A   1      32.985  24.631  21.951  1.00  0.00     0.264 C 
ATOM     21  H   UNL A   1      31.233  24.835  21.022  1.00  0.00     0.347 HD
ATOM     22  C   UNL A   1      30.767  23.300  23.280  1.00  0.00     0.086 C 
ATOM     23  C   UNL A   1      33.013  23.130  22.260  1.00  0.00     0.086 C 
ENDBRANCH  11  16
ENDBRANCH   6  10
ENDBRANCH   3   5
ENDBRANCH   2   3
ENDBRANCH   1   2
BRANCH   1  24
ATOM     24  C   UNL A   1      31.982  29.879  25.445  1.00  0.00     0.275 C 
BRANCH  24  25
ATOM     25  O   UNL A   1      32.411  30.050  26.806  1.00  0.00    -0.458 OA
BRANCH  25  26
ATOM     26  C   UNL A   1      32.988  31.236  27.096  1.00  0.00     0.338 C 
ATOM     27  O   UNL A   1      32.469  32.342  27.086  1.00  0.00    -0.246 OA
BRANCH  26  28
ATOM     28  C   UNL A   1      34.371  31.012  27.546  1.00  0.00     0.060 A 
ATOM     29  C   UNL A   1      34.787  29.713  27.822  1.00  0.00     0.016 A 
ATOM     30  C   UNL A   1      35.193  32.086  27.872  1.00  0.00     0.016 A 
ATOM     31  C   UNL A   1      35.943  29.488  28.554  1.00  0.00     0.010 A 
ATOM     32  C   UNL A   1      36.433  31.843  28.473  1.00  0.00     0.010 A 
ATOM     33  C   UNL A   1      36.805  30.543  28.867  1.00  0.00    -0.014 A 
BRANCH  33  34
ATOM     34  C   UNL A   1      38.055  30.290  29.639  1.00  0.00     0.031 A 
ATOM     35  C   UNL A   1      39.185  29.518  29.009  1.00  0.00     0.074 A 
ATOM     36  C   UNL A   1      38.208  30.765  30.893  1.00  0.00     0.049 A 
ATOM     37  N   UNL A   1      40.214  28.949  29.583  1.00  0.00    -0.248 NA
ATOM     38  C   UNL A   1      39.142  29.345  27.547  1.00  0.00     0.031 C 
ATOM     39  C   UNL A   1      37.245  31.595  31.623  1.00  0.00     0.029 A 
ATOM     40  N   UNL A   1      39.252  30.628  31.777  1.00  0.00    -0.354 N 
ATOM     41  C   UNL A   1      40.878  28.264  28.572  1.00  0.00     0.074 A 
ATOM     42  C   UNL A   1      40.158  28.518  27.342  1.00  0.00     0.031 C 
ATOM     43  C   UNL A   1      37.771  31.952  32.802  1.00  0.00     0.029 A 
ATOM     44  C   UNL A   1      39.042  31.265  32.977  1.00  0.00     0.049 A 
ATOM     45  H   UNL A   1      40.072  30.125  31.570  1.00  0.00     0.167 HD
ATOM     46  C   UNL A   1      41.974  27.476  28.670  1.00  0.00     0.031 A 
ATOM     47  C   UNL A   1      39.747  31.244  34.123  1.00  0.00     0.031 A 
ATOM     48  C   UNL A   1      42.731  27.296  29.881  1.00  0.00     0.049 A 
ATOM     49  C   UNL A   1      40.956  30.362  34.215  1.00  0.00     0.074 A 
ATOM     50  C   UNL A   1      43.854  26.515  30.089  1.00  0.00     0.029 A 
ATOM     51  N   UNL A   1      42.457  27.933  31.079  1.00  0.00    -0.354 N 
ATOM     52  N   UNL A   1      41.499  29.610  33.288  1.00  0.00    -0.248 NA
ATOM     53  C   UNL A   1      41.623  30.292  35.521  1.00  0.00     0.031 C 
ATOM     54  C   UNL A   1      44.247  26.661  31.424  1.00  0.00     0.029 A 
ATOM     55  C   UNL A   1      43.388  27.562  32.034  1.00  0.00     0.049 A 
ATOM     56  H   UNL A   1      41.712  28.559  31.230  1.00  0.00     0.167 HD
ATOM     57  C   UNL A   1      42.562  28.967  33.903  1.00  0.00     0.074 A 
ATOM     58  C   UNL A   1      42.611  29.444  35.270  1.00  0.00     0.031 C 
ATOM     59  C   UNL A   1      43.412  28.046  33.388  1.00  0.00     0.031 A 
BRANCH  46  60
ATOM     60  C   UNL A   1      42.381  26.693  27.456  1.00  0.00    -0.014 A 
ATOM     61  C   UNL A   1      43.317  27.183  26.533  1.00  0.00     0.009 A 
ATOM     62  C   UNL A   1      41.838  25.412  27.260  1.00  0.00     0.009 A 
ATOM     63  C   UNL A   1      43.681  26.413  25.425  1.00  0.00     0.001 A 
ATOM     64  C   UNL A   1      42.221  24.636  26.165  1.00  0.00     0.001 A 
ATOM     65  C   UNL A   1      43.137  25.141  25.245  1.00  0.00     0.000 A 
ENDBRANCH  46  60
BRANCH  47  66
ATOM     66  C   UNL A   1      39.260  32.000  35.307  1.00  0.00    -0.014 A 
ATOM     67  C   UNL A   1      38.374  31.410  36.218  1.00  0.00     0.009 A 
ATOM     68  C   UNL A   1      39.698  33.315  35.539  1.00  0.00     0.009 A 
ATOM     69  C   UNL A   1      37.930  32.125  37.334  1.00  0.00     0.001 A 
ATOM     70  C   UNL A   1      39.281  34.014  36.673  1.00  0.00     0.001 A 
ATOM     71  C   UNL A   1      38.391  33.421  37.565  1.00  0.00     0.000 A 
ENDBRANCH  47  66
BRANCH  59  72
ATOM     72  C   UNL A   1      44.467  27.513  34.308  1.00  0.00    -0.014 A 
ATOM     73  C   UNL A   1      45.706  28.161  34.433  1.00  0.00     0.009 A 
ATOM     74  C   UNL A   1      44.211  26.366  35.074  1.00  0.00     0.009 A 
ATOM     75  C   UNL A   1      46.681  27.651  35.289  1.00  0.00     0.001 A 
ATOM     76  C   UNL A   1      45.181  25.872  35.946  1.00  0.00     0.001 A 
ATOM     77  C   UNL A   1      46.418  26.510  36.047  1.00  0.00     0.000 A 
ENDBRANCH  59  72
ENDBRANCH  33  34
ENDBRANCH  26  28
ENDBRANCH  25  26
ENDBRANCH  24  25
ENDBRANCH   1  24
TORSDOF 13
ENDMDL
MODEL 3
REMARK VINA RESULT:     -11.1      3.866      8.585
REMARK SMILES C[NH+]1CCC(NC(=O)N[C@H]2C=C[C@H](C(=O)OCCOC(=O)c3ccc(-c4c5nc(c(-c6ccccc6)c6ccc([nH]6)c(-c6ccccc6)c6nc(c(-c7ccccc7)c7ccc4[nH]7)C=C6)C=C5)cc3)C2)CC1
REMARK SMILES IDX 17 1 16 2 14 3 15 4 13 5 10 6 11 7 70 8 12 9 9 10 6 11 7 12
REMARK SMILES IDX 8 14 5 16 1 17 2 18 3 19 72 20 4 22 71 23 18 24 19 25 20 26
REMARK SMILES IDX 21 27 22 28 23 29 69 30 24 31 68 32 25 33 26 34 27 35 62 36
REMARK SMILES IDX 28 37 67 38 61 39 63 40 29 41 66 42 60 43 59 44 30 46 52 47
REMARK SMILES IDX 37 48 51 49 38 50 41 51 50 52 64 53 39 54 40 55 49 57 65 58
REMARK SMILES IDX 42 59 31 60 32 61 36 62 33 63 35 64 34 65 53 66 54 67 58 68
REMARK SMILES IDX 55 69 57 70 56 71 43 72 44 73 48 74 45 75 47 76 46 77
REMARK H PARENT 6 13 9 15 2 21 63 45 41 56
REMARK Flexibility Score: inf
ROOT
ATOM      1  C   UNL A   1      35.461  23.641  24.776  1.00  0.00     0.274 C 
ENDROOT
BRANCH   1   2
ATOM      2  O   UNL A   1      34.954  24.840  25.396  1.00  0.00    -0.462 OA
BRANCH   2   3
ATOM      3  C   UNL A   1      33.693  24.769  25.915  1.00  0.00     0.312 C 
ATOM      4  O   UNL A   1      33.186  23.771  26.407  1.00  0.00    -0.252 OA
BRANCH   3   5
ATOM      5  C   UNL A   1      32.985  26.099  25.713  1.00  0.00     0.124 C 
ATOM      6  C   UNL A   1      32.462  28.050  27.130  1.00  0.00     0.107 C 
ATOM      7  C   UNL A   1      31.262  27.206  26.888  1.00  0.00    -0.006 C 
ATOM      8  C   UNL A   1      33.612  27.326  26.414  1.00  0.00     0.048 C 
ATOM      9  C   UNL A   1      31.553  26.116  26.168  1.00  0.00    -0.014 C 
BRANCH   6  10
ATOM     10  N   UNL A   1      32.202  29.461  26.874  1.00  0.00    -0.332 N 
ATOM     11  N   UNL A   1      31.533  30.032  24.658  1.00  0.00    -0.335 N 
ATOM     12  C   UNL A   1      31.780  30.314  25.940  1.00  0.00     0.315 C 
ATOM     13  H   UNL A   1      31.112  30.770  24.161  1.00  0.00     0.165 HD
ATOM     14  O   UNL A   1      31.600  31.482  26.302  1.00  0.00    -0.249 OA
ATOM     15  H   UNL A   1      32.416  29.971  27.689  1.00  0.00     0.165 HD
BRANCH  11  16
ATOM     16  C   UNL A   1      31.767  28.853  23.868  1.00  0.00     0.095 C 
ATOM     17  C   UNL A   1      32.528  25.578  21.402  1.00  0.00     0.332 C 
ATOM     18  N   UNL A   1      32.221  26.984  21.695  1.00  0.00    -0.337 N 
ATOM     19  C   UNL A   1      33.351  27.596  22.408  1.00  0.00     0.264 C 
ATOM     20  C   UNL A   1      30.913  27.082  22.366  1.00  0.00     0.264 C 
ATOM     21  H   UNL A   1      32.115  27.531  20.841  1.00  0.00     0.347 HD
ATOM     22  C   UNL A   1      33.037  28.954  23.031  1.00  0.00     0.086 C 
ATOM     23  C   UNL A   1      30.614  28.463  22.958  1.00  0.00     0.086 C 
ENDBRANCH  11  16
ENDBRANCH   6  10
ENDBRANCH   3   5
ENDBRANCH   2   3
ENDBRANCH   1   2
BRANCH   1  24
ATOM     24  C   UNL A   1      36.548  23.015  25.644  1.00  0.00     0.275 C 
BRANCH  24  25
ATOM     25  O   UNL A   1      37.785  23.704  25.401  1.00  0.00    -0.458 OA
BRANCH  25  26
ATOM     26  C   UNL A   1      38.844  23.286  26.127  1.00  0.00     0.338 C 
ATOM     27  O   UNL A   1      39.395  22.197  26.086  1.00  0.00    -0.246 OA
BRANCH  26  28
ATOM     28  C   UNL A   1      39.344  24.398  26.951  1.00  0.00     0.060 A 
ATOM     29  C   UNL A   1      38.964  24.471  28.287  1.00  0.00     0.016 A 
ATOM     30  C   UNL A   1      40.028  25.460  26.368  1.00  0.00     0.016 A 
ATOM     31  C   UNL A   1      39.126  25.649  29.000  1.00  0.00     0.010 A 
ATOM     32  C   UNL A   1      40.328  26.589  27.138  1.00  0.00     0.010 A 
ATOM     33  C   UNL A   1      39.838  26.720  28.452  1.00  0.00    -0.014 A 
BRANCH  33  34
ATOM     34  C   UNL A   1      40.024  27.977  29.232  1.00  0.00     0.031 A 
ATOM     35  C   UNL A   1      41.239  28.148  30.105  1.00  0.00     0.074 A 
ATOM     36  C   UNL A   1      39.131  28.986  29.151  1.00  0.00     0.049 A 
ATOM     37  N   UNL A   1      41.448  29.012  31.066  1.00  0.00    -0.248 NA
ATOM     38  C   UNL A   1      42.356  27.214  29.886  1.00  0.00     0.031 C 
ATOM     39  C   UNL A   1      37.941  29.016  28.296  1.00  0.00     0.029 A 
ATOM     40  N   UNL A   1      39.098  30.201  29.793  1.00  0.00    -0.354 N 
ATOM     41  C   UNL A   1      42.668  28.658  31.632  1.00  0.00     0.074 A 
ATOM     42  C   UNL A   1      43.171  27.525  30.885  1.00  0.00     0.031 C 
ATOM     43  C   UNL A   1      37.342  30.208  28.409  1.00  0.00     0.029 A 
ATOM     44  C   UNL A   1      38.016  30.975  29.446  1.00  0.00     0.049 A 
ATOM     45  H   UNL A   1      39.783  30.490  30.437  1.00  0.00     0.167 HD
ATOM     46  C   UNL A   1      43.295  29.216  32.694  1.00  0.00     0.031 A 
ATOM     47  C   UNL A   1      37.565  32.137  29.953  1.00  0.00     0.031 A 
ATOM     48  C   UNL A   1      42.828  30.393  33.378  1.00  0.00     0.049 A 
ATOM     49  C   UNL A   1      38.269  32.738  31.131  1.00  0.00     0.074 A 
ATOM     50  C   UNL A   1      43.386  31.036  34.469  1.00  0.00     0.029 A 
ATOM     51  N   UNL A   1      41.708  31.120  33.012  1.00  0.00    -0.354 N 
ATOM     52  N   UNL A   1      39.348  32.319  31.746  1.00  0.00    -0.248 NA
ATOM     53  C   UNL A   1      37.669  33.946  31.713  1.00  0.00     0.031 C 
ATOM     54  C   UNL A   1      42.587  32.142  34.780  1.00  0.00     0.029 A 
ATOM     55  C   UNL A   1      41.554  32.205  33.858  1.00  0.00     0.049 A 
ATOM     56  H   UNL A   1      41.110  30.899  32.262  1.00  0.00     0.167 HD
ATOM     57  C   UNL A   1      39.548  33.204  32.796  1.00  0.00     0.074 A 
ATOM     58  C   UNL A   1      38.502  34.202  32.712  1.00  0.00     0.031 C 
ATOM     59  C   UNL A   1      40.502  33.180  33.757  1.00  0.00     0.031 A 
BRANCH  46  60
ATOM     60  C   UNL A   1      44.514  28.522  33.227  1.00  0.00    -0.014 A 
ATOM     61  C   UNL A   1      45.810  28.882  32.830  1.00  0.00     0.009 A 
ATOM     62  C   UNL A   1      44.353  27.507  34.186  1.00  0.00     0.009 A 
ATOM     63  C   UNL A   1      46.919  28.221  33.366  1.00  0.00     0.001 A 
ATOM     64  C   UNL A   1      45.463  26.864  34.735  1.00  0.00     0.001 A 
ATOM     65  C   UNL A   1      46.745  27.218  34.320  1.00  0.00     0.000 A 
ENDBRANCH  46  60
BRANCH  47  66
ATOM     66  C   UNL A   1      36.319  32.746  29.414  1.00  0.00    -0.014 A 
ATOM     67  C   UNL A   1      36.372  33.689  28.379  1.00  0.00     0.009 A 
ATOM     68  C   UNL A   1      35.065  32.368  29.926  1.00  0.00     0.009 A 
ATOM     69  C   UNL A   1      35.195  34.247  27.872  1.00  0.00     0.001 A 
ATOM     70  C   UNL A   1      33.890  32.901  29.394  1.00  0.00     0.001 A 
ATOM     71  C   UNL A   1      33.957  33.846  28.373  1.00  0.00     0.000 A 
ENDBRANCH  47  66
BRANCH  59  72
ATOM     72  C   UNL A   1      40.457  34.275  34.779  1.00  0.00    -0.014 A 
ATOM     73  C   UNL A   1      39.696  34.136  35.950  1.00  0.00     0.009 A 
ATOM     74  C   UNL A   1      41.202  35.447  34.580  1.00  0.00     0.009 A 
ATOM     75  C   UNL A   1      39.659  35.165  36.890  1.00  0.00     0.001 A 
ATOM     76  C   UNL A   1      41.180  36.465  35.533  1.00  0.00     0.001 A 
ATOM     77  C   UNL A   1      40.403  36.327  36.683  1.00  0.00     0.000 A 
ENDBRANCH  59  72
ENDBRANCH  33  34
ENDBRANCH  26  28
ENDBRANCH  25  26
ENDBRANCH  24  25
ENDBRANCH   1  24
TORSDOF 13
ENDMDL
