MODEL 1
REMARK VINA RESULT:     -12.0      0.000      0.000
REMARK SMILES CC1(C)[C@@]2(C(=O)OCCOC(=O)c3ccc(-c4c5nc(c(-c6ccccc6)c6ccc([nH]6)c(-c6ccccc6)c6nc(c(-c7ccccc7)c7ccc4[nH]7)C=C6)C=C5)cc3)CC[C@]1(C)/C(=N/NC(=O)c1ccc(Cl)cc1)C2
REMARK SMILES IDX 8 1 7 2 5 3 6 4 4 5 1 6 2 7 3 8 63 9 61 10 77 11 62 12 64 13
REMARK SMILES IDX 65 14 66 15 67 16 68 17 69 19 70 20 71 21 76 22 72 23 75 24
REMARK SMILES IDX 73 25 74 26 9 27 10 28 11 29 12 30 13 31 14 32 60 33 15 34
REMARK SMILES IDX 59 35 16 36 17 37 18 38 53 39 19 40 58 41 52 42 54 43 20 44
REMARK SMILES IDX 57 45 51 46 50 47 21 49 43 50 28 51 42 52 29 53 32 54 41 55
REMARK SMILES IDX 55 56 30 57 31 58 40 60 56 61 33 62 22 63 23 64 27 65 24 66
REMARK SMILES IDX 26 67 25 68 44 69 45 70 49 71 46 72 48 73 47 74 34 75 35 76
REMARK SMILES IDX 39 77 36 78 38 79 37 80
REMARK H PARENT 67 18 54 48 32 59
REMARK Flexibility Score: inf
ROOT
ATOM      1  C   UNL A   1      38.874  21.257  25.838  1.00  0.00     0.274 C 
ENDROOT
BRANCH   1   2
ATOM      2  O   UNL A   1      37.540  21.317  25.284  1.00  0.00    -0.462 OA
BRANCH   2   3
ATOM      3  C   UNL A   1      36.853  22.492  25.366  1.00  0.00     0.313 C 
ATOM      4  O   UNL A   1      37.294  23.529  25.840  1.00  0.00    -0.252 OA
BRANCH   3   5
ATOM      5  C   UNL A   1      35.412  22.314  24.920  1.00  0.00     0.079 C 
ATOM      6  C   UNL A   1      34.275  22.072  27.252  1.00  0.00     0.013 C 
ATOM      7  C   UNL A   1      34.226  22.716  25.851  1.00  0.00    -0.008 C 
ATOM      8  C   UNL A   1      33.998  24.237  26.023  1.00  0.00     0.013 C 
ATOM      9  C   UNL A   1      33.174  22.086  24.869  1.00  0.00     0.014 C 
ATOM     10  C   UNL A   1      35.173  20.784  24.687  1.00  0.00     0.021 C 
ATOM     11  C   UNL A   1      35.071  23.062  23.613  1.00  0.00     0.073 C 
ATOM     12  C   UNL A   1      33.644  20.635  24.710  1.00  0.00     0.014 C 
ATOM     13  C   UNL A   1      31.712  22.245  25.237  1.00  0.00     0.018 C 
ATOM     14  C   UNL A   1      33.598  22.773  23.546  1.00  0.00     0.046 C 
ATOM     15  N   UNL A   1      32.718  23.053  22.640  1.00  0.00    -0.181 NA
BRANCH  15  16
ATOM     16  N   UNL A   1      32.943  23.791  21.521  1.00  0.00    -0.243 N 
ATOM     17  C   UNL A   1      32.843  25.120  21.177  1.00  0.00     0.271 C 
ATOM     18  H   UNL A   1      33.253  23.236  20.769  1.00  0.00     0.194 HD
ATOM     19  O   UNL A   1      32.988  25.456  20.000  1.00  0.00    -0.267 OA
BRANCH  17  20
ATOM     20  C   UNL A   1      32.599  26.186  22.158  1.00  0.00     0.041 A 
ATOM     21  C   UNL A   1      31.332  26.794  22.155  1.00  0.00     0.015 A 
ATOM     22  C   UNL A   1      33.566  26.567  23.095  1.00  0.00     0.015 A 
ATOM     23  C   UNL A   1      31.000  27.716  23.148  1.00  0.00     0.021 A 
ATOM     24  C   UNL A   1      33.231  27.501  24.081  1.00  0.00     0.021 A 
ATOM     25  C   UNL A   1      31.946  28.052  24.117  1.00  0.00     0.041 A 
ATOM     26  Cl  UNL A   1      31.508  29.122  25.390  1.00  0.00    -0.084 Cl
ENDBRANCH  17  20
ENDBRANCH  15  16
ENDBRANCH   3   5
ENDBRANCH   2   3
ENDBRANCH   1   2
BRANCH   1  27
ATOM     27  C   UNL A   1      39.480  19.876  25.584  1.00  0.00     0.275 C 
BRANCH  27  28
ATOM     28  O   UNL A   1      40.585  19.728  26.488  1.00  0.00    -0.458 OA
BRANCH  28  29
ATOM     29  C   UNL A   1      41.827  19.930  25.996  1.00  0.00     0.338 C 
ATOM     30  O   UNL A   1      42.462  19.196  25.258  1.00  0.00    -0.246 OA
BRANCH  29  31
ATOM     31  C   UNL A   1      42.266  21.283  26.408  1.00  0.00     0.060 A 
ATOM     32  C   UNL A   1      42.317  21.585  27.767  1.00  0.00     0.016 A 
ATOM     33  C   UNL A   1      42.502  22.291  25.477  1.00  0.00     0.016 A 
ATOM     34  C   UNL A   1      42.488  22.893  28.197  1.00  0.00     0.010 A 
ATOM     35  C   UNL A   1      42.805  23.589  25.922  1.00  0.00     0.010 A 
ATOM     36  C   UNL A   1      42.767  23.917  27.291  1.00  0.00    -0.014 A 
BRANCH  36  37
ATOM     37  C   UNL A   1      42.959  25.315  27.782  1.00  0.00     0.031 A 
ATOM     38  C   UNL A   1      44.348  25.863  27.975  1.00  0.00     0.074 A 
ATOM     39  C   UNL A   1      41.910  26.134  28.008  1.00  0.00     0.049 A 
ATOM     40  N   UNL A   1      44.732  26.912  28.657  1.00  0.00    -0.248 NA
ATOM     41  C   UNL A   1      45.450  25.130  27.332  1.00  0.00     0.031 C 
ATOM     42  C   UNL A   1      40.499  25.815  27.775  1.00  0.00     0.029 A 
ATOM     43  N   UNL A   1      41.876  27.432  28.460  1.00  0.00    -0.354 N 
ATOM     44  C   UNL A   1      46.121  26.897  28.621  1.00  0.00     0.074 A 
ATOM     45  C   UNL A   1      46.512  25.763  27.813  1.00  0.00     0.031 C 
ATOM     46  C   UNL A   1      39.754  26.909  27.988  1.00  0.00     0.029 A 
ATOM     47  C   UNL A   1      40.608  27.959  28.524  1.00  0.00     0.049 A 
ATOM     48  H   UNL A   1      42.682  27.936  28.715  1.00  0.00     0.167 HD
ATOM     49  C   UNL A   1      46.986  27.740  29.233  1.00  0.00     0.031 A 
ATOM     50  C   UNL A   1      40.159  29.125  29.024  1.00  0.00     0.031 A 
ATOM     51  C   UNL A   1      46.591  28.915  29.964  1.00  0.00     0.049 A 
ATOM     52  C   UNL A   1      41.122  30.031  29.730  1.00  0.00     0.074 A 
ATOM     53  C   UNL A   1      47.386  29.827  30.637  1.00  0.00     0.029 A 
ATOM     54  N   UNL A   1      45.284  29.361  30.082  1.00  0.00    -0.354 N 
ATOM     55  N   UNL A   1      42.420  29.915  29.856  1.00  0.00    -0.248 NA
ATOM     56  C   UNL A   1      40.546  31.195  30.418  1.00  0.00     0.031 C 
ATOM     57  C   UNL A   1      46.556  30.812  31.184  1.00  0.00     0.029 A 
ATOM     58  C   UNL A   1      45.249  30.531  30.821  1.00  0.00     0.049 A 
ATOM     59  H   UNL A   1      44.496  28.912  29.698  1.00  0.00     0.167 HD
ATOM     60  C   UNL A   1      42.815  30.974  30.660  1.00  0.00     0.074 A 
ATOM     61  C   UNL A   1      41.624  31.744  30.959  1.00  0.00     0.031 C 
ATOM     62  C   UNL A   1      44.053  31.269  31.126  1.00  0.00     0.031 A 
BRANCH  49  63
ATOM     63  C   UNL A   1      48.441  27.372  29.207  1.00  0.00    -0.014 A 
ATOM     64  C   UNL A   1      49.318  27.861  28.229  1.00  0.00     0.009 A 
ATOM     65  C   UNL A   1      48.942  26.523  30.209  1.00  0.00     0.009 A 
ATOM     66  C   UNL A   1      50.663  27.481  28.238  1.00  0.00     0.001 A 
ATOM     67  C   UNL A   1      50.291  26.163  30.228  1.00  0.00     0.001 A 
ATOM     68  C   UNL A   1      51.148  26.635  29.236  1.00  0.00     0.000 A 
ENDBRANCH  49  63
BRANCH  50  69
ATOM     69  C   UNL A   1      38.708  29.440  28.974  1.00  0.00    -0.014 A 
ATOM     70  C   UNL A   1      38.134  29.956  27.804  1.00  0.00     0.009 A 
ATOM     71  C   UNL A   1      37.884  29.190  30.083  1.00  0.00     0.009 A 
ATOM     72  C   UNL A   1      36.761  30.209  27.744  1.00  0.00     0.001 A 
ATOM     73  C   UNL A   1      36.508  29.414  30.010  1.00  0.00     0.001 A 
ATOM     74  C   UNL A   1      35.948  29.926  28.842  1.00  0.00     0.000 A 
ENDBRANCH  50  69
BRANCH  62  75
ATOM     75  C   UNL A   1      44.168  32.473  32.010  1.00  0.00    -0.014 A 
ATOM     76  C   UNL A   1      44.382  33.746  31.460  1.00  0.00     0.009 A 
ATOM     77  C   UNL A   1      44.048  32.337  33.400  1.00  0.00     0.009 A 
ATOM     78  C   UNL A   1      44.500  34.860  32.291  1.00  0.00     0.001 A 
ATOM     79  C   UNL A   1      44.150  33.456  34.228  1.00  0.00     0.001 A 
ATOM     80  C   UNL A   1      44.383  34.714  33.674  1.00  0.00     0.000 A 
ENDBRANCH  62  75
ENDBRANCH  36  37
ENDBRANCH  29  31
ENDBRANCH  28  29
ENDBRANCH  27  28
ENDBRANCH   1  27
TORSDOF 13
ENDMDL
MODEL 2
REMARK VINA RESULT:     -12.0      1.979      2.499
REMARK SMILES CC1(C)[C@@]2(C(=O)OCCOC(=O)c3ccc(-c4c5nc(c(-c6ccccc6)c6ccc([nH]6)c(-c6ccccc6)c6nc(c(-c7ccccc7)c7ccc4[nH]7)C=C6)C=C5)cc3)CC[C@]1(C)/C(=N/NC(=O)c1ccc(Cl)cc1)C2
REMARK SMILES IDX 8 1 7 2 5 3 6 4 4 5 1 6 2 7 3 8 63 9 61 10 77 11 62 12 64 13
REMARK SMILES IDX 65 14 66 15 67 16 68 17 69 19 70 20 71 21 76 22 72 23 75 24
REMARK SMILES IDX 73 25 74 26 9 27 10 28 11 29 12 30 13 31 14 32 60 33 15 34
REMARK SMILES IDX 59 35 16 36 17 37 18 38 53 39 19 40 58 41 52 42 54 43 20 44
REMARK SMILES IDX 57 45 51 46 50 47 21 49 43 50 28 51 42 52 29 53 32 54 41 55
REMARK SMILES IDX 55 56 30 57 31 58 40 60 56 61 33 62 22 63 23 64 27 65 24 66
REMARK SMILES IDX 26 67 25 68 44 69 45 70 49 71 46 72 48 73 47 74 34 75 35 76
REMARK SMILES IDX 39 77 36 78 38 79 37 80
REMARK H PARENT 67 18 54 48 32 59
REMARK Flexibility Score: inf
ROOT
ATOM      1  C   UNL A   1      37.779  20.029  24.639  1.00  0.00     0.274 C 
ENDROOT
BRANCH   1   2
ATOM      2  O   UNL A   1      36.544  20.322  25.332  1.00  0.00    -0.462 OA
BRANCH   2   3
ATOM      3  C   UNL A   1      36.163  21.625  25.460  1.00  0.00     0.313 C 
ATOM      4  O   UNL A   1      36.845  22.509  25.958  1.00  0.00    -0.252 OA
BRANCH   3   5
ATOM      5  C   UNL A   1      34.718  21.815  25.031  1.00  0.00     0.079 C 
ATOM      6  C   UNL A   1      33.574  21.770  27.372  1.00  0.00     0.013 C 
ATOM      7  C   UNL A   1      33.671  22.457  25.994  1.00  0.00    -0.008 C 
ATOM      8  C   UNL A   1      33.818  23.980  26.219  1.00  0.00     0.013 C 
ATOM      9  C   UNL A   1      32.491  22.134  25.009  1.00  0.00     0.014 C 
ATOM     10  C   UNL A   1      34.116  20.397  24.751  1.00  0.00     0.021 C 
ATOM     11  C   UNL A   1      34.557  22.670  23.755  1.00  0.00     0.073 C 
ATOM     12  C   UNL A   1      32.596  20.619  24.794  1.00  0.00     0.014 C 
ATOM     13  C   UNL A   1      31.114  22.627  25.405  1.00  0.00     0.018 C 
ATOM     14  C   UNL A   1      33.058  22.746  23.703  1.00  0.00     0.046 C 
ATOM     15  N   UNL A   1      32.265  23.262  22.821  1.00  0.00    -0.181 NA
BRANCH  15  16
ATOM     16  N   UNL A   1      32.652  23.963  21.723  1.00  0.00    -0.243 N 
ATOM     17  C   UNL A   1      32.742  25.295  21.382  1.00  0.00     0.271 C 
ATOM     18  H   UNL A   1      32.939  23.373  20.989  1.00  0.00     0.194 HD
ATOM     19  O   UNL A   1      33.004  25.607  20.219  1.00  0.00    -0.267 OA
BRANCH  17  20
ATOM     20  C   UNL A   1      32.570  26.384  22.352  1.00  0.00     0.041 A 
ATOM     21  C   UNL A   1      31.365  27.106  22.310  1.00  0.00     0.015 A 
ATOM     22  C   UNL A   1      33.541  26.680  23.315  1.00  0.00     0.015 A 
ATOM     23  C   UNL A   1      31.092  28.061  23.290  1.00  0.00     0.021 A 
ATOM     24  C   UNL A   1      33.266  27.647  24.287  1.00  0.00     0.021 A 
ATOM     25  C   UNL A   1      32.037  28.315  24.284  1.00  0.00     0.041 A 
ATOM     26  Cl  UNL A   1      31.664  29.428  25.541  1.00  0.00    -0.084 Cl
ENDBRANCH  17  20
ENDBRANCH  15  16
ENDBRANCH   3   5
ENDBRANCH   2   3
ENDBRANCH   1   2
BRANCH   1  27
ATOM     27  C   UNL A   1      38.550  18.941  25.390  1.00  0.00     0.275 C 
BRANCH  27  28
ATOM     28  O   UNL A   1      39.266  19.589  26.452  1.00  0.00    -0.458 OA
BRANCH  28  29
ATOM     29  C   UNL A   1      40.585  19.810  26.273  1.00  0.00     0.338 C 
ATOM     30  O   UNL A   1      41.402  19.059  25.767  1.00  0.00    -0.246 OA
BRANCH  29  31
ATOM     31  C   UNL A   1      40.876  21.201  26.689  1.00  0.00     0.060 A 
ATOM     32  C   UNL A   1      40.074  22.228  26.195  1.00  0.00     0.016 A 
ATOM     33  C   UNL A   1      41.997  21.519  27.451  1.00  0.00     0.016 A 
ATOM     34  C   UNL A   1      40.442  23.556  26.358  1.00  0.00     0.010 A 
ATOM     35  C   UNL A   1      42.292  22.865  27.723  1.00  0.00     0.010 A 
ATOM     36  C   UNL A   1      41.536  23.907  27.150  1.00  0.00    -0.014 A 
BRANCH  36  37
ATOM     37  C   UNL A   1      41.904  25.345  27.318  1.00  0.00     0.031 A 
ATOM     38  C   UNL A   1      43.107  25.905  26.607  1.00  0.00     0.074 A 
ATOM     39  C   UNL A   1      41.148  26.185  28.056  1.00  0.00     0.049 A 
ATOM     40  N   UNL A   1      43.761  27.014  26.844  1.00  0.00    -0.248 NA
ATOM     41  C   UNL A   1      43.656  25.110  25.498  1.00  0.00     0.031 C 
ATOM     42  C   UNL A   1      39.890  25.849  28.731  1.00  0.00     0.029 A 
ATOM     43  N   UNL A   1      41.315  27.521  28.337  1.00  0.00    -0.354 N 
ATOM     44  C   UNL A   1      44.860  26.992  25.994  1.00  0.00     0.074 A 
ATOM     45  C   UNL A   1      44.760  25.784  25.204  1.00  0.00     0.031 C 
ATOM     46  C   UNL A   1      39.356  26.961  29.256  1.00  0.00     0.029 A 
ATOM     47  C   UNL A   1      40.303  28.055  29.097  1.00  0.00     0.049 A 
ATOM     48  H   UNL A   1      42.087  28.044  28.023  1.00  0.00     0.167 HD
ATOM     49  C   UNL A   1      45.872  27.887  25.905  1.00  0.00     0.031 A 
ATOM     50  C   UNL A   1      40.172  29.265  29.672  1.00  0.00     0.031 A 
ATOM     51  C   UNL A   1      45.920  29.128  26.632  1.00  0.00     0.049 A 
ATOM     52  C   UNL A   1      41.314  30.232  29.596  1.00  0.00     0.074 A 
ATOM     53  C   UNL A   1      46.908  30.099  26.628  1.00  0.00     0.029 A 
ATOM     54  N   UNL A   1      44.912  29.587  27.466  1.00  0.00    -0.354 N 
ATOM     55  N   UNL A   1      42.441  30.125  28.937  1.00  0.00    -0.248 NA
ATOM     56  C   UNL A   1      41.192  31.458  30.396  1.00  0.00     0.031 C 
ATOM     57  C   UNL A   1      46.507  31.134  27.481  1.00  0.00     0.029 A 
ATOM     58  C   UNL A   1      45.256  30.823  27.986  1.00  0.00     0.049 A 
ATOM     59  H   UNL A   1      44.076  29.105  27.660  1.00  0.00     0.167 HD
ATOM     60  C   UNL A   1      43.176  31.255  29.263  1.00  0.00     0.074 A 
ATOM     61  C   UNL A   1      42.350  32.054  30.147  1.00  0.00     0.031 C 
ATOM     62  C   UNL A   1      44.432  31.591  28.880  1.00  0.00     0.031 A 
BRANCH  49  63
ATOM     63  C   UNL A   1      47.049  27.515  25.051  1.00  0.00    -0.014 A 
ATOM     64  C   UNL A   1      48.113  26.745  25.541  1.00  0.00     0.009 A 
ATOM     65  C   UNL A   1      47.074  27.938  23.712  1.00  0.00     0.009 A 
ATOM     66  C   UNL A   1      49.195  26.434  24.712  1.00  0.00     0.001 A 
ATOM     67  C   UNL A   1      48.145  27.606  22.880  1.00  0.00     0.001 A 
ATOM     68  C   UNL A   1      49.209  26.862  23.385  1.00  0.00     0.000 A 
ENDBRANCH  49  63
BRANCH  50  69
ATOM     69  C   UNL A   1      38.955  29.577  30.466  1.00  0.00    -0.014 A 
ATOM     70  C   UNL A   1      37.840  30.166  29.854  1.00  0.00     0.009 A 
ATOM     71  C   UNL A   1      38.891  29.254  31.830  1.00  0.00     0.009 A 
ATOM     72  C   UNL A   1      36.681  30.417  30.592  1.00  0.00     0.001 A 
ATOM     73  C   UNL A   1      37.722  29.478  32.558  1.00  0.00     0.001 A 
ATOM     74  C   UNL A   1      36.619  30.062  31.940  1.00  0.00     0.000 A 
ENDBRANCH  50  69
BRANCH  62  75
ATOM     75  C   UNL A   1      44.979  32.873  29.426  1.00  0.00    -0.014 A 
ATOM     76  C   UNL A   1      45.780  32.876  30.579  1.00  0.00     0.009 A 
ATOM     77  C   UNL A   1      44.705  34.086  28.777  1.00  0.00     0.009 A 
ATOM     78  C   UNL A   1      46.275  34.077  31.087  1.00  0.00     0.001 A 
ATOM     79  C   UNL A   1      45.216  35.283  29.279  1.00  0.00     0.001 A 
ATOM     80  C   UNL A   1      45.994  35.279  30.436  1.00  0.00     0.000 A 
ENDBRANCH  62  75
ENDBRANCH  36  37
ENDBRANCH  29  31
ENDBRANCH  28  29
ENDBRANCH  27  28
ENDBRANCH   1  27
TORSDOF 13
ENDMDL
MODEL 3
REMARK VINA RESULT:     -11.9      3.935      8.733
REMARK SMILES CC1(C)[C@@]2(C(=O)OCCOC(=O)c3ccc(-c4c5nc(c(-c6ccccc6)c6ccc([nH]6)c(-c6ccccc6)c6nc(c(-c7ccccc7)c7ccc4[nH]7)C=C6)C=C5)cc3)CC[C@]1(C)/C(=N/NC(=O)c1ccc(Cl)cc1)C2
REMARK SMILES IDX 8 1 7 2 5 3 6 4 4 5 1 6 2 7 3 8 63 9 61 10 77 11 62 12 64 13
REMARK SMILES IDX 65 14 66 15 67 16 68 17 69 19 70 20 71 21 76 22 72 23 75 24
REMARK SMILES IDX 73 25 74 26 9 27 10 28 11 29 12 30 13 31 14 32 60 33 15 34
REMARK SMILES IDX 59 35 16 36 17 37 18 38 53 39 19 40 58 41 52 42 54 43 20 44
REMARK SMILES IDX 57 45 51 46 50 47 21 49 43 50 28 51 42 52 29 53 32 54 41 55
REMARK SMILES IDX 55 56 30 57 31 58 40 60 56 61 33 62 22 63 23 64 27 65 24 66
REMARK SMILES IDX 26 67 25 68 44 69 45 70 49 71 46 72 48 73 47 74 34 75 35 76
REMARK SMILES IDX 39 77 36 78 38 79 37 80
REMARK H PARENT 67 18 54 48 32 59
REMARK Flexibility Score: inf
ROOT
ATOM      1  C   UNL A   1      33.507  31.366  27.370  1.00  0.00     0.274 C 
ENDROOT
BRANCH   1   2
ATOM      2  O   UNL A   1      32.776  30.134  27.169  1.00  0.00    -0.462 OA
BRANCH   2   3
ATOM      3  C   UNL A   1      33.419  29.085  26.582  1.00  0.00     0.313 C 
ATOM      4  O   UNL A   1      34.617  28.859  26.672  1.00  0.00    -0.252 OA
BRANCH   3   5
ATOM      5  C   UNL A   1      32.479  28.304  25.680  1.00  0.00     0.079 C 
ATOM      6  C   UNL A   1      33.753  28.558  23.422  1.00  0.00     0.013 C 
ATOM      7  C   UNL A   1      32.999  27.614  24.381  1.00  0.00    -0.008 C 
ATOM      8  C   UNL A   1      33.862  26.349  24.597  1.00  0.00     0.013 C 
ATOM      9  C   UNL A   1      31.539  27.243  23.932  1.00  0.00     0.014 C 
ATOM     10  C   UNL A   1      31.401  29.304  25.140  1.00  0.00     0.021 C 
ATOM     11  C   UNL A   1      31.750  27.147  26.397  1.00  0.00     0.073 C 
ATOM     12  C   UNL A   1      30.807  28.591  23.916  1.00  0.00     0.014 C 
ATOM     13  C   UNL A   1      31.400  26.427  22.663  1.00  0.00     0.018 C 
ATOM     14  C   UNL A   1      31.033  26.548  25.221  1.00  0.00     0.046 C 
ATOM     15  N   UNL A   1      30.177  25.580  25.152  1.00  0.00    -0.181 NA
BRANCH  15  16
ATOM     16  N   UNL A   1      29.785  24.796  26.190  1.00  0.00    -0.243 N 
ATOM     17  C   UNL A   1      30.211  23.612  26.751  1.00  0.00     0.271 C 
ATOM     18  H   UNL A   1      29.001  25.166  26.657  1.00  0.00     0.194 HD
ATOM     19  O   UNL A   1      29.529  23.074  27.626  1.00  0.00    -0.267 OA
BRANCH  17  20
ATOM     20  C   UNL A   1      31.471  22.958  26.379  1.00  0.00     0.041 A 
ATOM     21  C   UNL A   1      31.404  21.890  25.468  1.00  0.00     0.015 A 
ATOM     22  C   UNL A   1      32.707  23.393  26.871  1.00  0.00     0.015 A 
ATOM     23  C   UNL A   1      32.579  21.319  24.977  1.00  0.00     0.021 A 
ATOM     24  C   UNL A   1      33.881  22.807  26.385  1.00  0.00     0.021 A 
ATOM     25  C   UNL A   1      33.812  21.792  25.426  1.00  0.00     0.041 A 
ATOM     26  Cl  UNL A   1      35.260  21.147  24.756  1.00  0.00    -0.084 Cl
ENDBRANCH  17  20
ENDBRANCH  15  16
ENDBRANCH   3   5
ENDBRANCH   2   3
ENDBRANCH   1   2
BRANCH   1  27
ATOM     27  C   UNL A   1      32.527  32.519  27.594  1.00  0.00     0.275 C 
BRANCH  27  28
ATOM     28  O   UNL A   1      33.311  33.708  27.776  1.00  0.00    -0.458 OA
BRANCH  28  29
ATOM     29  C   UNL A   1      33.392  34.219  29.023  1.00  0.00     0.338 C 
ATOM     30  O   UNL A   1      32.529  34.827  29.634  1.00  0.00    -0.246 OA
BRANCH  29  31
ATOM     31  C   UNL A   1      34.692  33.809  29.601  1.00  0.00     0.060 A 
ATOM     32  C   UNL A   1      35.863  34.318  29.042  1.00  0.00     0.016 A 
ATOM     33  C   UNL A   1      34.778  32.837  30.594  1.00  0.00     0.016 A 
ATOM     34  C   UNL A   1      37.099  33.789  29.383  1.00  0.00     0.010 A 
ATOM     35  C   UNL A   1      36.040  32.399  31.028  1.00  0.00     0.010 A 
ATOM     36  C   UNL A   1      37.221  32.844  30.402  1.00  0.00    -0.014 A 
BRANCH  36  37
ATOM     37  C   UNL A   1      38.566  32.300  30.757  1.00  0.00     0.031 A 
ATOM     38  C   UNL A   1      39.115  31.106  30.023  1.00  0.00     0.074 A 
ATOM     39  C   UNL A   1      39.342  32.888  31.693  1.00  0.00     0.049 A 
ATOM     40  N   UNL A   1      40.097  30.310  30.363  1.00  0.00    -0.248 NA
ATOM     41  C   UNL A   1      38.467  30.749  28.751  1.00  0.00     0.031 C 
ATOM     42  C   UNL A   1      39.024  34.114  32.432  1.00  0.00     0.029 A 
ATOM     43  N   UNL A   1      40.588  32.544  32.161  1.00  0.00    -0.354 N 
ATOM     44  C   UNL A   1      40.109  29.297  29.411  1.00  0.00     0.074 A 
ATOM     45  C   UNL A   1      39.067  29.603  28.455  1.00  0.00     0.031 C 
ATOM     46  C   UNL A   1      40.080  34.469  33.178  1.00  0.00     0.029 A 
ATOM     47  C   UNL A   1      41.085  33.420  33.097  1.00  0.00     0.049 A 
ATOM     48  H   UNL A   1      41.077  31.746  31.856  1.00  0.00     0.167 HD
ATOM     49  C   UNL A   1      40.901  28.200  29.361  1.00  0.00     0.031 A 
ATOM     50  C   UNL A   1      42.188  33.360  33.866  1.00  0.00     0.031 A 
ATOM     51  C   UNL A   1      41.991  27.948  30.266  1.00  0.00     0.049 A 
ATOM     52  C   UNL A   1      43.035  32.125  33.826  1.00  0.00     0.074 A 
ATOM     53  C   UNL A   1      42.844  26.858  30.313  1.00  0.00     0.029 A 
ATOM     54  N   UNL A   1      42.402  28.820  31.261  1.00  0.00    -0.354 N 
ATOM     55  N   UNL A   1      42.928  31.078  33.046  1.00  0.00    -0.248 NA
ATOM     56  C   UNL A   1      44.115  32.036  34.818  1.00  0.00     0.031 C 
ATOM     57  C   UNL A   1      43.757  27.062  31.356  1.00  0.00     0.029 A 
ATOM     58  C   UNL A   1      43.491  28.293  31.932  1.00  0.00     0.049 A 
ATOM     59  H   UNL A   1      41.980  29.687  31.462  1.00  0.00     0.167 HD
ATOM     60  C   UNL A   1      43.908  30.193  33.469  1.00  0.00     0.074 A 
ATOM     61  C   UNL A   1      44.625  30.842  34.548  1.00  0.00     0.031 C 
ATOM     62  C   UNL A   1      44.176  28.943  33.016  1.00  0.00     0.031 A 
BRANCH  49  63
ATOM     63  C   UNL A   1      40.561  27.151  28.342  1.00  0.00    -0.014 A 
ATOM     64  C   UNL A   1      41.138  27.136  27.065  1.00  0.00     0.009 A 
ATOM     65  C   UNL A   1      39.648  26.141  28.690  1.00  0.00     0.009 A 
ATOM     66  C   UNL A   1      40.781  26.146  26.145  1.00  0.00     0.001 A 
ATOM     67  C   UNL A   1      39.311  25.141  27.777  1.00  0.00     0.001 A 
ATOM     68  C   UNL A   1      39.871  25.151  26.501  1.00  0.00     0.000 A 
ENDBRANCH  49  63
BRANCH  50  69
ATOM     69  C   UNL A   1      42.482  34.460  34.820  1.00  0.00    -0.014 A 
ATOM     70  C   UNL A   1      43.264  35.554  34.424  1.00  0.00     0.009 A 
ATOM     71  C   UNL A   1      41.952  34.439  36.120  1.00  0.00     0.009 A 
ATOM     72  C   UNL A   1      43.501  36.609  35.309  1.00  0.00     0.001 A 
ATOM     73  C   UNL A   1      42.165  35.507  36.991  1.00  0.00     0.001 A 
ATOM     74  C   UNL A   1      42.942  36.590  36.587  1.00  0.00     0.000 A 
ENDBRANCH  50  69
BRANCH  62  75
ATOM     75  C   UNL A   1      45.287  28.207  33.698  1.00  0.00    -0.014 A 
ATOM     76  C   UNL A   1      46.614  28.351  33.262  1.00  0.00     0.009 A 
ATOM     77  C   UNL A   1      45.011  27.374  34.791  1.00  0.00     0.009 A 
ATOM     78  C   UNL A   1      47.641  27.651  33.895  1.00  0.00     0.001 A 
ATOM     79  C   UNL A   1      46.043  26.688  35.432  1.00  0.00     0.001 A 
ATOM     80  C   UNL A   1      47.355  26.822  34.980  1.00  0.00     0.000 A 
ENDBRANCH  62  75
ENDBRANCH  36  37
ENDBRANCH  29  31
ENDBRANCH  28  29
ENDBRANCH  27  28
ENDBRANCH   1  27
TORSDOF 13
ENDMDL
