MODEL 1
REMARK VINA RESULT:     -10.4      0.000      0.000
REMARK SMILES Cc1ccc(NC(=O)C[C@@H](C(=O)OCCOC(=O)c2ccc(-c3c4nc(c(-c5ccccc5)c5ccc([nH]5)c(-c5ccccc5)c5nc(c(-c6ccccc6)c6ccc3[nH]6)C=C5)C=C4)cc2)[NH+](C)C)cc1Cl
REMARK SMILES IDX 14 1 13 2 11 3 12 4 10 5 9 6 7 7 6 8 8 10 5 11 1 12 2 13
REMARK SMILES IDX 3 14 71 15 4 16 70 17 72 18 67 19 68 20 69 21 15 23 16 24
REMARK SMILES IDX 17 25 18 26 19 27 20 28 66 29 21 30 65 31 22 32 23 33 24 34
REMARK SMILES IDX 59 35 25 36 64 37 58 38 60 39 26 40 63 41 57 42 56 43 27 45
REMARK SMILES IDX 49 46 34 47 48 48 35 49 38 50 47 51 61 52 36 53 37 54 46 56
REMARK SMILES IDX 62 57 39 58 28 59 29 60 33 61 30 62 32 63 31 64 50 65 51 66
REMARK SMILES IDX 55 67 52 68 54 69 53 70 40 71 41 72 45 73 42 74 44 75 43 76
REMARK H PARENT 6 9 67 22 60 44 38 55
REMARK Flexibility Score: inf
ROOT
ATOM      1  C   UNL A   1      36.630  22.205  23.833  1.00  0.00     0.274 C 
ENDROOT
BRANCH   1   2
ATOM      2  O   UNL A   1      35.539  22.776  24.577  1.00  0.00    -0.458 OA
BRANCH   2   3
ATOM      3  C   UNL A   1      34.617  23.484  23.876  1.00  0.00     0.365 C 
ATOM      4  O   UNL A   1      34.861  23.988  22.784  1.00  0.00    -0.245 OA
BRANCH   3   5
ATOM      5  C   UNL A   1      33.250  23.615  24.614  1.00  0.00     0.304 C 
BRANCH   5   6
ATOM      6  C   UNL A   1      33.412  24.006  26.115  1.00  0.00     0.177 C 
BRANCH   6   7
ATOM      7  C   UNL A   1      32.084  23.946  26.840  1.00  0.00     0.231 C 
ATOM      8  N   UNL A   1      31.054  24.816  26.639  1.00  0.00    -0.326 N 
ATOM      9  H   UNL A   1      30.246  24.575  27.149  1.00  0.00     0.169 HD
ATOM     10  O   UNL A   1      31.863  23.008  27.617  1.00  0.00    -0.274 OA
BRANCH   8  11
ATOM     11  C   UNL A   1      30.885  25.980  25.871  1.00  0.00     0.042 A 
ATOM     12  C   UNL A   1      30.650  29.040  22.835  1.00  0.00     0.046 C 
ATOM     13  C   UNL A   1      30.609  28.089  24.001  1.00  0.00    -0.032 A 
ATOM     14  C   UNL A   1      29.866  26.910  23.866  1.00  0.00     0.007 A 
ATOM     15  C   UNL A   1      31.393  28.243  25.156  1.00  0.00     0.046 A 
ATOM     16  C   UNL A   1      29.980  25.884  24.808  1.00  0.00     0.026 A 
ATOM     17  C   UNL A   1      31.533  27.191  26.085  1.00  0.00     0.047 A 
ATOM     18  Cl  UNL A   1      32.282  29.703  25.448  1.00  0.00    -0.084 Cl
ENDBRANCH   8  11
ENDBRANCH   6   7
ENDBRANCH   5   6
BRANCH   5  19
ATOM     19  N   UNL A   1      32.333  22.444  24.371  1.00  0.00    -0.328 N 
ATOM     20  C   UNL A   1      31.575  22.452  23.124  1.00  0.00     0.333 C 
ATOM     21  C   UNL A   1      32.822  21.126  24.734  1.00  0.00     0.333 C 
ATOM     22  H   UNL A   1      31.639  22.646  25.091  1.00  0.00     0.348 HD
ENDBRANCH   5  19
ENDBRANCH   3   5
ENDBRANCH   2   3
ENDBRANCH   1   2
BRANCH   1  23
ATOM     23  C   UNL A   1      37.285  21.076  24.625  1.00  0.00     0.275 C 
BRANCH  23  24
ATOM     24  O   UNL A   1      37.682  21.490  25.944  1.00  0.00    -0.458 OA
BRANCH  24  25
ATOM     25  C   UNL A   1      39.015  21.448  26.138  1.00  0.00     0.338 C 
ATOM     26  O   UNL A   1      39.760  20.491  26.044  1.00  0.00    -0.246 OA
BRANCH  25  27
ATOM     27  C   UNL A   1      39.553  22.727  26.543  1.00  0.00     0.060 A 
ATOM     28  C   UNL A   1      40.669  22.755  27.371  1.00  0.00     0.016 A 
ATOM     29  C   UNL A   1      38.831  23.882  26.230  1.00  0.00     0.016 A 
ATOM     30  C   UNL A   1      41.074  23.965  27.900  1.00  0.00     0.010 A 
ATOM     31  C   UNL A   1      39.307  25.108  26.667  1.00  0.00     0.010 A 
ATOM     32  C   UNL A   1      40.444  25.152  27.485  1.00  0.00    -0.014 A 
BRANCH  32  33
ATOM     33  C   UNL A   1      41.107  26.437  27.770  1.00  0.00     0.031 A 
ATOM     34  C   UNL A   1      40.485  27.448  28.675  1.00  0.00     0.074 A 
ATOM     35  C   UNL A   1      42.288  26.649  27.159  1.00  0.00     0.049 A 
ATOM     36  N   UNL A   1      40.924  28.637  28.990  1.00  0.00    -0.248 NA
ATOM     37  C   UNL A   1      39.193  27.097  29.287  1.00  0.00     0.031 C 
ATOM     38  C   UNL A   1      42.931  25.711  26.228  1.00  0.00     0.029 A 
ATOM     39  N   UNL A   1      43.181  27.677  27.252  1.00  0.00    -0.354 N 
ATOM     40  C   UNL A   1      39.943  29.199  29.795  1.00  0.00     0.074 A 
ATOM     41  C   UNL A   1      38.885  28.220  29.922  1.00  0.00     0.031 C 
ATOM     42  C   UNL A   1      44.156  26.155  25.925  1.00  0.00     0.029 A 
ATOM     43  C   UNL A   1      44.345  27.450  26.559  1.00  0.00     0.049 A 
ATOM     44  H   UNL A   1      43.008  28.499  27.766  1.00  0.00     0.167 HD
ATOM     45  C   UNL A   1      39.935  30.432  30.355  1.00  0.00     0.031 A 
ATOM     46  C   UNL A   1      45.444  28.214  26.439  1.00  0.00     0.031 A 
ATOM     47  C   UNL A   1      41.016  31.372  30.205  1.00  0.00     0.049 A 
ATOM     48  C   UNL A   1      45.434  29.541  27.129  1.00  0.00     0.074 A 
ATOM     49  C   UNL A   1      41.131  32.654  30.709  1.00  0.00     0.029 A 
ATOM     50  N   UNL A   1      42.185  31.112  29.498  1.00  0.00    -0.354 N 
ATOM     51  N   UNL A   1      44.489  30.072  27.869  1.00  0.00    -0.248 NA
ATOM     52  C   UNL A   1      46.624  30.380  26.959  1.00  0.00     0.031 C 
ATOM     53  C   UNL A   1      42.359  33.178  30.284  1.00  0.00     0.029 A 
ATOM     54  C   UNL A   1      43.028  32.208  29.552  1.00  0.00     0.049 A 
ATOM     55  H   UNL A   1      42.385  30.270  29.028  1.00  0.00     0.167 HD
ATOM     56  C   UNL A   1      44.958  31.319  28.241  1.00  0.00     0.074 A 
ATOM     57  C   UNL A   1      46.294  31.443  27.681  1.00  0.00     0.031 C 
ATOM     58  C   UNL A   1      44.340  32.285  28.964  1.00  0.00     0.031 A 
BRANCH  45  59
ATOM     59  C   UNL A   1      38.706  30.835  31.121  1.00  0.00    -0.014 A 
ATOM     60  C   UNL A   1      38.592  30.610  32.502  1.00  0.00     0.009 A 
ATOM     61  C   UNL A   1      37.635  31.446  30.447  1.00  0.00     0.009 A 
ATOM     62  C   UNL A   1      37.417  30.948  33.182  1.00  0.00     0.001 A 
ATOM     63  C   UNL A   1      36.473  31.807  31.134  1.00  0.00     0.001 A 
ATOM     64  C   UNL A   1      36.360  31.547  32.499  1.00  0.00     0.000 A 
ENDBRANCH  45  59
BRANCH  46  65
ATOM     65  C   UNL A   1      46.598  27.729  25.640  1.00  0.00    -0.014 A 
ATOM     66  C   UNL A   1      47.580  26.917  26.224  1.00  0.00     0.009 A 
ATOM     67  C   UNL A   1      46.683  28.009  24.265  1.00  0.00     0.009 A 
ATOM     68  C   UNL A   1      48.624  26.400  25.451  1.00  0.00     0.001 A 
ATOM     69  C   UNL A   1      47.708  27.465  23.489  1.00  0.00     0.001 A 
ATOM     70  C   UNL A   1      48.681  26.666  24.084  1.00  0.00     0.000 A 
ENDBRANCH  46  65
BRANCH  58  71
ATOM     71  C   UNL A   1      45.121  33.547  29.171  1.00  0.00    -0.014 A 
ATOM     72  C   UNL A   1      45.975  33.688  30.276  1.00  0.00     0.009 A 
ATOM     73  C   UNL A   1      45.011  34.593  28.244  1.00  0.00     0.009 A 
ATOM     74  C   UNL A   1      46.682  34.875  30.466  1.00  0.00     0.001 A 
ATOM     75  C   UNL A   1      45.737  35.768  28.426  1.00  0.00     0.001 A 
ATOM     76  C   UNL A   1      46.564  35.912  29.540  1.00  0.00     0.000 A 
ENDBRANCH  58  71
ENDBRANCH  32  33
ENDBRANCH  25  27
ENDBRANCH  24  25
ENDBRANCH  23  24
ENDBRANCH   1  23
TORSDOF 15
ENDMDL
MODEL 2
REMARK VINA RESULT:     -10.4      4.210      6.285
REMARK SMILES Cc1ccc(NC(=O)C[C@@H](C(=O)OCCOC(=O)c2ccc(-c3c4nc(c(-c5ccccc5)c5ccc([nH]5)c(-c5ccccc5)c5nc(c(-c6ccccc6)c6ccc3[nH]6)C=C5)C=C4)cc2)[NH+](C)C)cc1Cl
REMARK SMILES IDX 14 1 13 2 11 3 12 4 10 5 9 6 7 7 6 8 8 10 5 11 1 12 2 13
REMARK SMILES IDX 3 14 71 15 4 16 70 17 72 18 67 19 68 20 69 21 15 23 16 24
REMARK SMILES IDX 17 25 18 26 19 27 20 28 66 29 21 30 65 31 22 32 23 33 24 34
REMARK SMILES IDX 59 35 25 36 64 37 58 38 60 39 26 40 63 41 57 42 56 43 27 45
REMARK SMILES IDX 49 46 34 47 48 48 35 49 38 50 47 51 61 52 36 53 37 54 46 56
REMARK SMILES IDX 62 57 39 58 28 59 29 60 33 61 30 62 32 63 31 64 50 65 51 66
REMARK SMILES IDX 55 67 52 68 54 69 53 70 40 71 41 72 45 73 42 74 44 75 43 76
REMARK H PARENT 6 9 67 22 60 44 38 55
REMARK Flexibility Score: inf
ROOT
ATOM      1  C   UNL A   1      38.548  21.591  25.626  1.00  0.00     0.274 C 
ENDROOT
BRANCH   1   2
ATOM      2  O   UNL A   1      37.165  21.954  25.791  1.00  0.00    -0.458 OA
BRANCH   2   3
ATOM      3  C   UNL A   1      36.250  21.229  25.098  1.00  0.00     0.365 C 
ATOM      4  O   UNL A   1      36.449  20.067  24.756  1.00  0.00    -0.245 OA
BRANCH   3   5
ATOM      5  C   UNL A   1      34.959  22.033  24.758  1.00  0.00     0.304 C 
BRANCH   5   6
ATOM      6  C   UNL A   1      35.265  23.448  24.179  1.00  0.00     0.177 C 
BRANCH   6   7
ATOM      7  C   UNL A   1      34.165  23.906  23.245  1.00  0.00     0.231 C 
ATOM      8  N   UNL A   1      33.271  24.895  23.530  1.00  0.00    -0.326 N 
ATOM      9  H   UNL A   1      32.677  25.102  22.772  1.00  0.00     0.169 HD
ATOM     10  O   UNL A   1      34.097  23.419  22.108  1.00  0.00    -0.274 OA
BRANCH   8  11
ATOM     11  C   UNL A   1      33.006  25.685  24.660  1.00  0.00     0.042 A 
ATOM     12  C   UNL A   1      31.498  28.405  27.654  1.00  0.00     0.046 C 
ATOM     13  C   UNL A   1      32.124  27.369  26.760  1.00  0.00    -0.032 A 
ATOM     14  C   UNL A   1      31.315  26.328  26.287  1.00  0.00     0.007 A 
ATOM     15  C   UNL A   1      33.430  27.469  26.251  1.00  0.00     0.046 A 
ATOM     16  C   UNL A   1      31.766  25.478  25.274  1.00  0.00     0.026 A 
ATOM     17  C   UNL A   1      33.867  26.632  25.204  1.00  0.00     0.047 A 
ATOM     18  Cl  UNL A   1      34.530  28.674  26.837  1.00  0.00    -0.084 Cl
ENDBRANCH   8  11
ENDBRANCH   6   7
ENDBRANCH   5   6
BRANCH   5  19
ATOM     19  N   UNL A   1      33.945  22.024  25.874  1.00  0.00    -0.328 N 
ATOM     20  C   UNL A   1      34.063  23.078  26.876  1.00  0.00     0.333 C 
ATOM     21  C   UNL A   1      32.570  21.720  25.523  1.00  0.00     0.333 C 
ATOM     22  H   UNL A   1      34.260  21.181  26.353  1.00  0.00     0.348 HD
ENDBRANCH   5  19
ENDBRANCH   3   5
ENDBRANCH   2   3
ENDBRANCH   1   2
BRANCH   1  23
ATOM     23  C   UNL A   1      39.436  22.437  26.536  1.00  0.00     0.275 C 
BRANCH  23  24
ATOM     24  O   UNL A   1      39.199  23.847  26.377  1.00  0.00    -0.458 OA
BRANCH  24  25
ATOM     25  C   UNL A   1      40.317  24.591  26.491  1.00  0.00     0.338 C 
ATOM     26  O   UNL A   1      41.390  24.429  25.941  1.00  0.00    -0.246 OA
BRANCH  25  27
ATOM     27  C   UNL A   1      40.160  25.679  27.432  1.00  0.00     0.060 A 
ATOM     28  C   UNL A   1      39.347  25.494  28.543  1.00  0.00     0.016 A 
ATOM     29  C   UNL A   1      40.692  26.927  27.099  1.00  0.00     0.016 A 
ATOM     30  C   UNL A   1      39.056  26.583  29.341  1.00  0.00     0.010 A 
ATOM     31  C   UNL A   1      40.494  27.991  27.964  1.00  0.00     0.010 A 
ATOM     32  C   UNL A   1      39.694  27.813  29.100  1.00  0.00    -0.014 A 
BRANCH  32  33
ATOM     33  C   UNL A   1      39.655  28.844  30.152  1.00  0.00     0.031 A 
ATOM     34  C   UNL A   1      38.633  29.932  30.138  1.00  0.00     0.074 A 
ATOM     35  C   UNL A   1      40.597  28.755  31.111  1.00  0.00     0.049 A 
ATOM     36  N   UNL A   1      38.497  30.931  30.968  1.00  0.00    -0.248 NA
ATOM     37  C   UNL A   1      37.653  29.918  29.039  1.00  0.00     0.031 C 
ATOM     38  C   UNL A   1      41.652  27.733  31.157  1.00  0.00     0.029 A 
ATOM     39  N   UNL A   1      40.804  29.487  32.244  1.00  0.00    -0.354 N 
ATOM     40  C   UNL A   1      37.451  31.694  30.469  1.00  0.00     0.074 A 
ATOM     41  C   UNL A   1      36.986  31.043  29.263  1.00  0.00     0.031 C 
ATOM     42  C   UNL A   1      42.320  27.837  32.312  1.00  0.00     0.029 A 
ATOM     43  C   UNL A   1      41.807  28.988  33.038  1.00  0.00     0.049 A 
ATOM     44  H   UNL A   1      40.285  30.293  32.471  1.00  0.00     0.167 HD
ATOM     45  C   UNL A   1      36.948  32.845  30.975  1.00  0.00     0.031 A 
ATOM     46  C   UNL A   1      42.272  29.422  34.222  1.00  0.00     0.031 A 
ATOM     47  C   UNL A   1      37.440  33.455  32.184  1.00  0.00     0.049 A 
ATOM     48  C   UNL A   1      41.647  30.655  34.792  1.00  0.00     0.074 A 
ATOM     49  C   UNL A   1      37.029  34.621  32.801  1.00  0.00     0.029 A 
ATOM     50  N   UNL A   1      38.457  32.923  32.969  1.00  0.00    -0.354 N 
ATOM     51  N   UNL A   1      40.673  31.383  34.298  1.00  0.00    -0.248 NA
ATOM     52  C   UNL A   1      42.188  31.140  36.065  1.00  0.00     0.031 C 
ATOM     53  C   UNL A   1      37.816  34.809  33.944  1.00  0.00     0.029 A 
ATOM     54  C   UNL A   1      38.688  33.737  34.065  1.00  0.00     0.049 A 
ATOM     55  H   UNL A   1      38.943  32.089  32.775  1.00  0.00     0.167 HD
ATOM     56  C   UNL A   1      40.492  32.426  35.189  1.00  0.00     0.074 A 
ATOM     57  C   UNL A   1      41.430  32.207  36.277  1.00  0.00     0.031 C 
ATOM     58  C   UNL A   1      39.644  33.481  35.111  1.00  0.00     0.031 A 
BRANCH  45  59
ATOM     59  C   UNL A   1      35.860  33.528  30.193  1.00  0.00    -0.014 A 
ATOM     60  C   UNL A   1      34.597  33.779  30.753  1.00  0.00     0.009 A 
ATOM     61  C   UNL A   1      36.099  33.920  28.866  1.00  0.00     0.009 A 
ATOM     62  C   UNL A   1      33.586  34.369  29.988  1.00  0.00     0.001 A 
ATOM     63  C   UNL A   1      35.095  34.533  28.112  1.00  0.00     0.001 A 
ATOM     64  C   UNL A   1      33.836  34.747  28.670  1.00  0.00     0.000 A 
ENDBRANCH  45  59
BRANCH  46  65
ATOM     65  C   UNL A   1      43.365  28.684  34.903  1.00  0.00    -0.014 A 
ATOM     66  C   UNL A   1      44.706  29.021  34.672  1.00  0.00     0.009 A 
ATOM     67  C   UNL A   1      43.073  27.689  35.852  1.00  0.00     0.009 A 
ATOM     68  C   UNL A   1      45.730  28.376  35.373  1.00  0.00     0.001 A 
ATOM     69  C   UNL A   1      44.096  27.069  36.573  1.00  0.00     0.001 A 
ATOM     70  C   UNL A   1      45.423  27.409  36.328  1.00  0.00     0.000 A 
ENDBRANCH  46  65
BRANCH  58  71
ATOM     71  C   UNL A   1      39.715  34.461  36.242  1.00  0.00    -0.014 A 
ATOM     72  C   UNL A   1      39.031  34.219  37.443  1.00  0.00     0.009 A 
ATOM     73  C   UNL A   1      40.484  35.625  36.106  1.00  0.00     0.009 A 
ATOM     74  C   UNL A   1      39.091  35.149  38.481  1.00  0.00     0.001 A 
ATOM     75  C   UNL A   1      40.559  36.540  37.154  1.00  0.00     0.001 A 
ATOM     76  C   UNL A   1      39.857  36.307  38.336  1.00  0.00     0.000 A 
ENDBRANCH  58  71
ENDBRANCH  32  33
ENDBRANCH  25  27
ENDBRANCH  24  25
ENDBRANCH  23  24
ENDBRANCH   1  23
TORSDOF 15
ENDMDL
MODEL 3
REMARK VINA RESULT:     -10.3      0.773      6.171
REMARK SMILES Cc1ccc(NC(=O)C[C@@H](C(=O)OCCOC(=O)c2ccc(-c3c4nc(c(-c5ccccc5)c5ccc([nH]5)c(-c5ccccc5)c5nc(c(-c6ccccc6)c6ccc3[nH]6)C=C5)C=C4)cc2)[NH+](C)C)cc1Cl
REMARK SMILES IDX 14 1 13 2 11 3 12 4 10 5 9 6 7 7 6 8 8 10 5 11 1 12 2 13
REMARK SMILES IDX 3 14 71 15 4 16 70 17 72 18 67 19 68 20 69 21 15 23 16 24
REMARK SMILES IDX 17 25 18 26 19 27 20 28 66 29 21 30 65 31 22 32 23 33 24 34
REMARK SMILES IDX 59 35 25 36 64 37 58 38 60 39 26 40 63 41 57 42 56 43 27 45
REMARK SMILES IDX 49 46 34 47 48 48 35 49 38 50 47 51 61 52 36 53 37 54 46 56
REMARK SMILES IDX 62 57 39 58 28 59 29 60 33 61 30 62 32 63 31 64 50 65 51 66
REMARK SMILES IDX 55 67 52 68 54 69 53 70 40 71 41 72 45 73 42 74 44 75 43 76
REMARK H PARENT 6 9 67 22 60 44 38 55
REMARK Flexibility Score: inf
ROOT
ATOM      1  C   UNL A   1      35.497  20.877  24.977  1.00  0.00     0.274 C 
ENDROOT
BRANCH   1   2
ATOM      2  O   UNL A   1      35.066  22.209  25.308  1.00  0.00    -0.458 OA
BRANCH   2   3
ATOM      3  C   UNL A   1      34.588  22.974  24.293  1.00  0.00     0.365 C 
ATOM      4  O   UNL A   1      35.101  22.989  23.179  1.00  0.00    -0.245 OA
BRANCH   3   5
ATOM      5  C   UNL A   1      33.361  23.844  24.704  1.00  0.00     0.304 C 
BRANCH   5   6
ATOM      6  C   UNL A   1      33.382  24.240  26.212  1.00  0.00     0.177 C 
BRANCH   6   7
ATOM      7  C   UNL A   1      31.978  24.319  26.775  1.00  0.00     0.231 C 
ATOM      8  N   UNL A   1      31.211  25.447  26.783  1.00  0.00    -0.326 N 
ATOM      9  H   UNL A   1      30.301  25.286  27.124  1.00  0.00     0.169 HD
ATOM     10  O   UNL A   1      31.436  23.287  27.190  1.00  0.00    -0.274 OA
BRANCH   8  11
ATOM     11  C   UNL A   1      31.427  26.785  26.417  1.00  0.00     0.042 A 
ATOM     12  C   UNL A   1      31.527  31.077  25.962  1.00  0.00     0.046 C 
ATOM     13  C   UNL A   1      31.662  29.579  26.015  1.00  0.00    -0.032 A 
ATOM     14  C   UNL A   1      32.054  28.994  27.225  1.00  0.00     0.007 A 
ATOM     15  C   UNL A   1      31.273  28.726  24.968  1.00  0.00     0.046 A 
ATOM     16  C   UNL A   1      31.968  27.611  27.409  1.00  0.00     0.026 A 
ATOM     17  C   UNL A   1      31.153  27.336  25.170  1.00  0.00     0.047 A 
ATOM     18  Cl  UNL A   1      30.851  29.356  23.408  1.00  0.00    -0.084 Cl
ENDBRANCH   8  11
ENDBRANCH   6   7
ENDBRANCH   5   6
BRANCH   5  19
ATOM     19  N   UNL A   1      32.049  23.276  24.227  1.00  0.00    -0.328 N 
ATOM     20  C   UNL A   1      31.327  24.048  23.220  1.00  0.00     0.333 C 
ATOM     21  C   UNL A   1      31.983  21.843  24.004  1.00  0.00     0.333 C 
ATOM     22  H   UNL A   1      31.509  23.408  25.083  1.00  0.00     0.348 HD
ENDBRANCH   5  19
ENDBRANCH   3   5
ENDBRANCH   2   3
ENDBRANCH   1   2
BRANCH   1  23
ATOM     23  C   UNL A   1      37.021  20.796  24.961  1.00  0.00     0.275 C 
BRANCH  23  24
ATOM     24  O   UNL A   1      37.612  21.341  26.153  1.00  0.00    -0.458 OA
BRANCH  24  25
ATOM     25  C   UNL A   1      38.960  21.314  26.141  1.00  0.00     0.338 C 
ATOM     26  O   UNL A   1      39.692  20.376  25.888  1.00  0.00    -0.246 OA
BRANCH  25  27
ATOM     27  C   UNL A   1      39.540  22.583  26.523  1.00  0.00     0.060 A 
ATOM     28  C   UNL A   1      40.624  22.590  27.392  1.00  0.00     0.016 A 
ATOM     29  C   UNL A   1      38.883  23.755  26.143  1.00  0.00     0.016 A 
ATOM     30  C   UNL A   1      41.063  23.800  27.896  1.00  0.00     0.010 A 
ATOM     31  C   UNL A   1      39.397  24.974  26.556  1.00  0.00     0.010 A 
ATOM     32  C   UNL A   1      40.503  24.998  27.416  1.00  0.00    -0.014 A 
BRANCH  32  33
ATOM     33  C   UNL A   1      41.212  26.262  27.683  1.00  0.00     0.031 A 
ATOM     34  C   UNL A   1      42.519  26.573  27.031  1.00  0.00     0.074 A 
ATOM     35  C   UNL A   1      40.623  27.106  28.552  1.00  0.00     0.049 A 
ATOM     36  N   UNL A   1      43.280  27.621  27.196  1.00  0.00    -0.248 NA
ATOM     37  C   UNL A   1      43.057  25.572  26.096  1.00  0.00     0.031 C 
ATOM     38  C   UNL A   1      39.360  26.839  29.254  1.00  0.00     0.029 A 
ATOM     39  N   UNL A   1      40.965  28.361  28.963  1.00  0.00    -0.354 N 
ATOM     40  C   UNL A   1      44.412  27.387  26.427  1.00  0.00     0.074 A 
ATOM     41  C   UNL A   1      44.237  26.098  25.793  1.00  0.00     0.031 C 
ATOM     42  C   UNL A   1      38.981  27.937  29.918  1.00  0.00     0.029 A 
ATOM     43  C   UNL A   1      40.018  28.945  29.770  1.00  0.00     0.049 A 
ATOM     44  H   UNL A   1      41.806  28.805  28.707  1.00  0.00     0.167 HD
ATOM     45  C   UNL A   1      45.499  28.182  26.288  1.00  0.00     0.031 A 
ATOM     46  C   UNL A   1      39.997  30.162  30.338  1.00  0.00     0.031 A 
ATOM     47  C   UNL A   1      45.626  29.462  26.936  1.00  0.00     0.049 A 
ATOM     48  C   UNL A   1      41.181  31.047  30.107  1.00  0.00     0.074 A 
ATOM     49  C   UNL A   1      46.675  30.361  26.888  1.00  0.00     0.029 A 
ATOM     50  N   UNL A   1      44.648  30.030  27.745  1.00  0.00    -0.354 N 
ATOM     51  N   UNL A   1      42.257  30.805  29.397  1.00  0.00    -0.248 NA
ATOM     52  C   UNL A   1      41.162  32.357  30.764  1.00  0.00     0.031 C 
ATOM     53  C   UNL A   1      46.342  31.460  27.691  1.00  0.00     0.029 A 
ATOM     54  C   UNL A   1      45.068  31.266  28.204  1.00  0.00     0.049 A 
ATOM     55  H   UNL A   1      43.783  29.612  27.960  1.00  0.00     0.167 HD
ATOM     56  C   UNL A   1      43.058  31.925  29.532  1.00  0.00     0.074 A 
ATOM     57  C   UNL A   1      42.318  32.864  30.358  1.00  0.00     0.031 C 
ATOM     58  C   UNL A   1      44.299  32.154  29.037  1.00  0.00     0.031 A 
BRANCH  45  59
ATOM     59  C   UNL A   1      46.637  27.659  25.455  1.00  0.00    -0.014 A 
ATOM     60  C   UNL A   1      47.621  26.817  25.998  1.00  0.00     0.009 A 
ATOM     61  C   UNL A   1      46.732  28.021  24.102  1.00  0.00     0.009 A 
ATOM     62  C   UNL A   1      48.696  26.386  25.216  1.00  0.00     0.001 A 
ATOM     63  C   UNL A   1      47.793  27.568  23.315  1.00  0.00     0.001 A 
ATOM     64  C   UNL A   1      48.781  26.760  23.875  1.00  0.00     0.000 A 
ENDBRANCH  45  59
BRANCH  46  65
ATOM     65  C   UNL A   1      38.831  30.574  31.160  1.00  0.00    -0.014 A 
ATOM     66  C   UNL A   1      37.708  31.164  30.563  1.00  0.00     0.009 A 
ATOM     67  C   UNL A   1      38.799  30.306  32.540  1.00  0.00     0.009 A 
ATOM     68  C   UNL A   1      36.582  31.481  31.329  1.00  0.00     0.001 A 
ATOM     69  C   UNL A   1      37.661  30.594  33.296  1.00  0.00     0.001 A 
ATOM     70  C   UNL A   1      36.556  31.187  32.691  1.00  0.00     0.000 A 
ENDBRANCH  46  65
BRANCH  58  71
ATOM     71  C   UNL A   1      44.910  33.475  29.392  1.00  0.00    -0.014 A 
ATOM     72  C   UNL A   1      45.652  33.628  30.573  1.00  0.00     0.009 A 
ATOM     73  C   UNL A   1      44.752  34.569  28.528  1.00  0.00     0.009 A 
ATOM     74  C   UNL A   1      46.199  34.868  30.900  1.00  0.00     0.001 A 
ATOM     75  C   UNL A   1      45.319  35.800  28.848  1.00  0.00     0.001 A 
ATOM     76  C   UNL A   1      46.034  35.952  30.036  1.00  0.00     0.000 A 
ENDBRANCH  58  71
ENDBRANCH  32  33
ENDBRANCH  25  27
ENDBRANCH  24  25
ENDBRANCH  23  24
ENDBRANCH   1  23
TORSDOF 15
ENDMDL
