MODEL 1
REMARK VINA RESULT:     -10.7      0.000      0.000
REMARK SMILES N#Cc1cccc(-c2ccnc(C(=O)OCCOC(=O)c3ccc(-c4c5nc(c(-c6ccccc6)c6ccc([nH]6)c(-c6ccccc6)c6nc(c(-c7ccccc7)c7ccc4[nH]7)C=C6)C=C5)cc3)c2)c1F
REMARK SMILES IDX 16 1 15 2 13 3 14 4 12 5 8 6 9 7 69 8 10 9 11 10 7 11 3 12
REMARK SMILES IDX 4 13 70 14 5 15 71 16 6 17 2 18 1 19 17 20 18 21 19 22 20 23
REMARK SMILES IDX 21 24 22 25 68 26 23 27 67 28 24 29 25 30 26 31 61 32 27 33
REMARK SMILES IDX 66 34 60 35 62 36 28 37 65 38 59 39 58 40 29 42 51 43 36 44
REMARK SMILES IDX 50 45 37 46 40 47 49 48 63 49 38 50 39 51 48 53 64 54 41 55
REMARK SMILES IDX 30 56 31 57 35 58 32 59 34 60 33 61 52 62 53 63 57 64 54 65
REMARK SMILES IDX 56 66 55 67 42 68 43 69 47 70 44 71 46 72 45 73
REMARK H PARENT 62 41 40 52
REMARK Flexibility Score: inf
ROOT
ATOM      1  C   UNL A   1      33.881  35.206  28.613  1.00  0.00     0.275 C 
ENDROOT
BRANCH   1   2
ATOM      2  O   UNL A   1      33.794  33.788  28.862  1.00  0.00    -0.457 OA
BRANCH   2   3
ATOM      3  C   UNL A   1      33.103  33.067  27.937  1.00  0.00     0.357 C 
ATOM      4  O   UNL A   1      32.125  33.462  27.320  1.00  0.00    -0.244 OA
BRANCH   3   5
ATOM      5  C   UNL A   1      33.776  31.752  27.677  1.00  0.00     0.148 A 
ATOM      6  C   UNL A   1      33.784  29.450  27.020  1.00  0.00    -0.011 A 
ATOM      7  C   UNL A   1      35.145  29.401  27.342  1.00  0.00     0.029 A 
ATOM      8  C   UNL A   1      33.075  30.640  27.250  1.00  0.00     0.045 A 
ATOM      9  C   UNL A   1      35.763  30.559  27.763  1.00  0.00     0.112 A 
ATOM     10  N   UNL A   1      35.120  31.732  27.882  1.00  0.00    -0.249 NA
BRANCH   6  11
ATOM     11  C   UNL A   1      33.143  28.324  26.337  1.00  0.00     0.019 A 
ATOM     12  C   UNL A   1      32.981  26.924  24.344  1.00  0.00     0.088 A 
ATOM     13  C   UNL A   1      32.043  26.114  24.988  1.00  0.00     0.022 A 
ATOM     14  C   UNL A   1      33.520  28.012  25.019  1.00  0.00     0.148 A 
ATOM     15  C   UNL A   1      31.656  26.403  26.299  1.00  0.00     0.002 A 
ATOM     16  F   UNL A   1      34.441  28.773  24.402  1.00  0.00    -0.205 F 
ATOM     17  C   UNL A   1      32.203  27.500  26.971  1.00  0.00     0.012 A 
BRANCH  12  18
ATOM     18  C   UNL A   1      33.402  26.647  23.004  1.00  0.00     0.102 C 
ATOM     19  N   UNL A   1      33.753  26.425  21.924  1.00  0.00    -0.192 NA
ENDBRANCH  12  18
ENDBRANCH   6  11
ENDBRANCH   3   5
ENDBRANCH   2   3
ENDBRANCH   1   2
BRANCH   1  20
ATOM     20  C   UNL A   1      32.942  36.009  29.521  1.00  0.00     0.275 C 
BRANCH  20  21
ATOM     21  O   UNL A   1      32.457  35.229  30.632  1.00  0.00    -0.458 OA
BRANCH  21  22
ATOM     22  C   UNL A   1      32.771  35.729  31.849  1.00  0.00     0.338 C 
ATOM     23  O   UNL A   1      32.179  36.606  32.459  1.00  0.00    -0.246 OA
BRANCH  22  24
ATOM     24  C   UNL A   1      33.876  34.975  32.458  1.00  0.00     0.060 A 
ATOM     25  C   UNL A   1      35.129  35.568  32.404  1.00  0.00     0.016 A 
ATOM     26  C   UNL A   1      33.754  33.664  32.906  1.00  0.00     0.016 A 
ATOM     27  C   UNL A   1      36.279  34.855  32.691  1.00  0.00     0.010 A 
ATOM     28  C   UNL A   1      34.911  32.960  33.285  1.00  0.00     0.010 A 
ATOM     29  C   UNL A   1      36.188  33.540  33.149  1.00  0.00    -0.014 A 
BRANCH  29  30
ATOM     30  C   UNL A   1      37.447  32.804  33.447  1.00  0.00     0.031 A 
ATOM     31  C   UNL A   1      38.159  33.008  34.756  1.00  0.00     0.074 A 
ATOM     32  C   UNL A   1      37.912  31.894  32.567  1.00  0.00     0.049 A 
ATOM     33  N   UNL A   1      39.285  32.484  35.175  1.00  0.00    -0.248 NA
ATOM     34  C   UNL A   1      37.529  33.921  35.724  1.00  0.00     0.031 C 
ATOM     35  C   UNL A   1      37.284  31.555  31.286  1.00  0.00     0.029 A 
ATOM     36  N   UNL A   1      39.009  31.071  32.621  1.00  0.00    -0.354 N 
ATOM     37  C   UNL A   1      39.517  33.033  36.431  1.00  0.00     0.074 A 
ATOM     38  C   UNL A   1      38.426  33.944  36.700  1.00  0.00     0.031 C 
ATOM     39  C   UNL A   1      37.982  30.574  30.696  1.00  0.00     0.029 A 
ATOM     40  C   UNL A   1      39.152  30.273  31.512  1.00  0.00     0.049 A 
ATOM     41  H   UNL A   1      39.634  31.055  33.382  1.00  0.00     0.167 HD
ATOM     42  C   UNL A   1      40.546  32.798  37.280  1.00  0.00     0.031 A 
ATOM     43  C   UNL A   1      40.133  29.418  31.164  1.00  0.00     0.031 A 
ATOM     44  C   UNL A   1      41.626  31.883  37.011  1.00  0.00     0.049 A 
ATOM     45  C   UNL A   1      41.297  29.233  32.095  1.00  0.00     0.074 A 
ATOM     46  C   UNL A   1      42.707  31.566  37.817  1.00  0.00     0.029 A 
ATOM     47  N   UNL A   1      41.763  31.138  35.849  1.00  0.00    -0.354 N 
ATOM     48  N   UNL A   1      41.505  29.763  33.276  1.00  0.00    -0.248 NA
ATOM     49  C   UNL A   1      42.364  28.331  31.642  1.00  0.00     0.031 C 
ATOM     50  C   UNL A   1      43.534  30.686  37.113  1.00  0.00     0.029 A 
ATOM     51  C   UNL A   1      42.929  30.390  35.902  1.00  0.00     0.049 A 
ATOM     52  H   UNL A   1      41.127  31.141  35.099  1.00  0.00     0.167 HD
ATOM     53  C   UNL A   1      42.713  29.240  33.718  1.00  0.00     0.074 A 
ATOM     54  C   UNL A   1      43.174  28.329  32.690  1.00  0.00     0.031 C 
ATOM     55  C   UNL A   1      43.381  29.493  34.870  1.00  0.00     0.031 A 
BRANCH  42  56
ATOM     56  C   UNL A   1      40.587  33.589  38.562  1.00  0.00    -0.014 A 
ATOM     57  C   UNL A   1      41.217  34.841  38.641  1.00  0.00     0.009 A 
ATOM     58  C   UNL A   1      39.943  33.083  39.703  1.00  0.00     0.009 A 
ATOM     59  C   UNL A   1      41.231  35.550  39.844  1.00  0.00     0.001 A 
ATOM     60  C   UNL A   1      39.929  33.809  40.895  1.00  0.00     0.001 A 
ATOM     61  C   UNL A   1      40.582  35.038  40.968  1.00  0.00     0.000 A 
ENDBRANCH  42  56
BRANCH  43  62
ATOM     62  C   UNL A   1      40.084  28.714  29.853  1.00  0.00    -0.014 A 
ATOM     63  C   UNL A   1      40.577  29.321  28.689  1.00  0.00     0.009 A 
ATOM     64  C   UNL A   1      39.522  27.430  29.761  1.00  0.00     0.009 A 
ATOM     65  C   UNL A   1      40.476  28.672  27.456  1.00  0.00     0.001 A 
ATOM     66  C   UNL A   1      39.459  26.768  28.534  1.00  0.00     0.001 A 
ATOM     67  C   UNL A   1      39.923  27.394  27.380  1.00  0.00     0.000 A 
ENDBRANCH  43  62
BRANCH  55  68
ATOM     68  C   UNL A   1      44.663  28.738  35.093  1.00  0.00    -0.014 A 
ATOM     69  C   UNL A   1      45.903  29.256  34.685  1.00  0.00     0.009 A 
ATOM     70  C   UNL A   1      44.627  27.488  35.732  1.00  0.00     0.009 A 
ATOM     71  C   UNL A   1      47.072  28.514  34.867  1.00  0.00     0.001 A 
ATOM     72  C   UNL A   1      45.802  26.767  35.948  1.00  0.00     0.001 A 
ATOM     73  C   UNL A   1      47.021  27.273  35.502  1.00  0.00     0.000 A 
ENDBRANCH  55  68
ENDBRANCH  29  30
ENDBRANCH  22  24
ENDBRANCH  21  22
ENDBRANCH  20  21
ENDBRANCH   1  20
TORSDOF 13
ENDMDL
MODEL 2
REMARK VINA RESULT:     -10.5      5.031      9.415
REMARK SMILES N#Cc1cccc(-c2ccnc(C(=O)OCCOC(=O)c3ccc(-c4c5nc(c(-c6ccccc6)c6ccc([nH]6)c(-c6ccccc6)c6nc(c(-c7ccccc7)c7ccc4[nH]7)C=C6)C=C5)cc3)c2)c1F
REMARK SMILES IDX 16 1 15 2 13 3 14 4 12 5 8 6 9 7 69 8 10 9 11 10 7 11 3 12
REMARK SMILES IDX 4 13 70 14 5 15 71 16 6 17 2 18 1 19 17 20 18 21 19 22 20 23
REMARK SMILES IDX 21 24 22 25 68 26 23 27 67 28 24 29 25 30 26 31 61 32 27 33
REMARK SMILES IDX 66 34 60 35 62 36 28 37 65 38 59 39 58 40 29 42 51 43 36 44
REMARK SMILES IDX 50 45 37 46 40 47 49 48 63 49 38 50 39 51 48 53 64 54 41 55
REMARK SMILES IDX 30 56 31 57 35 58 32 59 34 60 33 61 52 62 53 63 57 64 54 65
REMARK SMILES IDX 56 66 55 67 42 68 43 69 47 70 44 71 46 72 45 73
REMARK H PARENT 62 41 40 52
REMARK Flexibility Score: inf
ROOT
ATOM      1  C   UNL A   1      42.339  20.394  26.068  1.00  0.00     0.275 C 
ENDROOT
BRANCH   1   2
ATOM      2  O   UNL A   1      41.108  21.024  26.480  1.00  0.00    -0.457 OA
BRANCH   2   3
ATOM      3  C   UNL A   1      39.973  20.527  25.916  1.00  0.00     0.357 C 
ATOM      4  O   UNL A   1      39.776  19.352  25.642  1.00  0.00    -0.244 OA
BRANCH   3   5
ATOM      5  C   UNL A   1      38.933  21.598  25.781  1.00  0.00     0.148 A 
ATOM      6  C   UNL A   1      36.872  22.482  24.942  1.00  0.00    -0.011 A 
ATOM      7  C   UNL A   1      37.179  23.694  25.570  1.00  0.00     0.029 A 
ATOM      8  C   UNL A   1      37.802  21.432  25.004  1.00  0.00     0.045 A 
ATOM      9  C   UNL A   1      38.329  23.771  26.325  1.00  0.00     0.112 A 
ATOM     10  N   UNL A   1      39.173  22.738  26.483  1.00  0.00    -0.249 NA
BRANCH   6  11
ATOM     11  C   UNL A   1      35.553  22.270  24.342  1.00  0.00     0.019 A 
ATOM     12  C   UNL A   1      33.501  20.951  24.248  1.00  0.00     0.088 A 
ATOM     13  C   UNL A   1      32.965  21.849  23.324  1.00  0.00     0.022 A 
ATOM     14  C   UNL A   1      34.780  21.168  24.747  1.00  0.00     0.148 A 
ATOM     15  C   UNL A   1      33.713  22.953  22.909  1.00  0.00     0.002 A 
ATOM     16  F   UNL A   1      35.282  20.314  25.656  1.00  0.00    -0.205 F 
ATOM     17  C   UNL A   1      34.998  23.166  23.416  1.00  0.00     0.012 A 
BRANCH  12  18
ATOM     18  C   UNL A   1      32.754  19.814  24.696  1.00  0.00     0.102 C 
ATOM     19  N   UNL A   1      32.153  18.899  25.070  1.00  0.00    -0.192 NA
ENDBRANCH  12  18
ENDBRANCH   6  11
ENDBRANCH   3   5
ENDBRANCH   2   3
ENDBRANCH   1   2
BRANCH   1  20
ATOM     20  C   UNL A   1      43.309  21.393  25.425  1.00  0.00     0.275 C 
BRANCH  20  21
ATOM     21  O   UNL A   1      42.651  22.610  25.020  1.00  0.00    -0.458 OA
BRANCH  21  22
ATOM     22  C   UNL A   1      43.370  23.736  25.234  1.00  0.00     0.338 C 
ATOM     23  O   UNL A   1      44.373  24.093  24.637  1.00  0.00    -0.246 OA
BRANCH  22  24
ATOM     24  C   UNL A   1      42.709  24.602  26.221  1.00  0.00     0.060 A 
ATOM     25  C   UNL A   1      43.003  25.956  26.146  1.00  0.00     0.016 A 
ATOM     26  C   UNL A   1      41.975  24.116  27.298  1.00  0.00     0.016 A 
ATOM     27  C   UNL A   1      42.667  26.826  27.168  1.00  0.00     0.010 A 
ATOM     28  C   UNL A   1      41.553  25.011  28.297  1.00  0.00     0.010 A 
ATOM     29  C   UNL A   1      41.924  26.369  28.257  1.00  0.00    -0.014 A 
BRANCH  29  30
ATOM     30  C   UNL A   1      41.583  27.334  29.337  1.00  0.00     0.031 A 
ATOM     31  C   UNL A   1      42.432  27.426  30.576  1.00  0.00     0.074 A 
ATOM     32  C   UNL A   1      40.548  28.183  29.171  1.00  0.00     0.049 A 
ATOM     33  N   UNL A   1      42.268  28.179  31.636  1.00  0.00    -0.248 NA
ATOM     34  C   UNL A   1      43.619  26.559  30.637  1.00  0.00     0.031 C 
ATOM     35  C   UNL A   1      39.680  28.241  27.990  1.00  0.00     0.029 A 
ATOM     36  N   UNL A   1      40.060  29.176  29.984  1.00  0.00    -0.354 N 
ATOM     37  C   UNL A   1      43.304  27.847  32.502  1.00  0.00     0.074 A 
ATOM     38  C   UNL A   1      44.079  26.813  31.853  1.00  0.00     0.031 C 
ATOM     39  C   UNL A   1      38.795  29.237  28.141  1.00  0.00     0.029 A 
ATOM     40  C   UNL A   1      38.974  29.832  29.460  1.00  0.00     0.049 A 
ATOM     41  H   UNL A   1      40.452  29.395  30.862  1.00  0.00     0.167 HD
ATOM     42  C   UNL A   1      43.579  28.358  33.726  1.00  0.00     0.031 A 
ATOM     43  C   UNL A   1      38.181  30.782  29.989  1.00  0.00     0.031 A 
ATOM     44  C   UNL A   1      42.809  29.394  34.364  1.00  0.00     0.049 A 
ATOM     45  C   UNL A   1      38.470  31.278  31.377  1.00  0.00     0.074 A 
ATOM     46  C   UNL A   1      43.019  29.988  35.597  1.00  0.00     0.029 A 
ATOM     47  N   UNL A   1      41.680  29.991  33.822  1.00  0.00    -0.354 N 
ATOM     48  N   UNL A   1      39.449  30.951  32.185  1.00  0.00    -0.248 NA
ATOM     49  C   UNL A   1      37.542  32.275  31.926  1.00  0.00     0.031 C 
ATOM     50  C   UNL A   1      41.977  30.892  35.831  1.00  0.00     0.029 A 
ATOM     51  C   UNL A   1      41.163  30.921  34.710  1.00  0.00     0.049 A 
ATOM     52  H   UNL A   1      41.303  29.784  32.937  1.00  0.00     0.167 HD
ATOM     53  C   UNL A   1      39.269  31.719  33.328  1.00  0.00     0.074 A 
ATOM     54  C   UNL A   1      38.105  32.549  33.093  1.00  0.00     0.031 C 
ATOM     55  C   UNL A   1      40.000  31.735  34.469  1.00  0.00     0.031 A 
BRANCH  42  56
ATOM     56  C   UNL A   1      44.736  27.762  34.486  1.00  0.00    -0.014 A 
ATOM     57  C   UNL A   1      44.586  26.619  35.288  1.00  0.00     0.009 A 
ATOM     58  C   UNL A   1      46.012  28.337  34.361  1.00  0.00     0.009 A 
ATOM     59  C   UNL A   1      45.681  26.089  35.975  1.00  0.00     0.001 A 
ATOM     60  C   UNL A   1      47.110  27.785  35.021  1.00  0.00     0.001 A 
ATOM     61  C   UNL A   1      46.943  26.668  35.836  1.00  0.00     0.000 A 
ENDBRANCH  42  56
BRANCH  43  62
ATOM     62  C   UNL A   1      37.006  31.289  29.227  1.00  0.00    -0.014 A 
ATOM     63  C   UNL A   1      35.898  30.466  28.976  1.00  0.00     0.009 A 
ATOM     64  C   UNL A   1      37.000  32.602  28.727  1.00  0.00     0.009 A 
ATOM     65  C   UNL A   1      34.826  30.936  28.214  1.00  0.00     0.001 A 
ATOM     66  C   UNL A   1      35.909  33.081  28.000  1.00  0.00     0.001 A 
ATOM     67  C   UNL A   1      34.829  32.245  27.732  1.00  0.00     0.000 A 
ENDBRANCH  43  62
BRANCH  55  68
ATOM     68  C   UNL A   1      39.582  32.713  35.533  1.00  0.00    -0.014 A 
ATOM     69  C   UNL A   1      38.728  32.338  36.583  1.00  0.00     0.009 A 
ATOM     70  C   UNL A   1      40.059  34.033  35.485  1.00  0.00     0.009 A 
ATOM     71  C   UNL A   1      38.322  33.278  37.532  1.00  0.00     0.001 A 
ATOM     72  C   UNL A   1      39.682  34.959  36.458  1.00  0.00     0.001 A 
ATOM     73  C   UNL A   1      38.803  34.586  37.471  1.00  0.00     0.000 A 
ENDBRANCH  55  68
ENDBRANCH  29  30
ENDBRANCH  22  24
ENDBRANCH  21  22
ENDBRANCH  20  21
ENDBRANCH   1  20
TORSDOF 13
ENDMDL
MODEL 3
REMARK VINA RESULT:     -10.5      0.216      6.100
REMARK SMILES N#Cc1cccc(-c2ccnc(C(=O)OCCOC(=O)c3ccc(-c4c5nc(c(-c6ccccc6)c6ccc([nH]6)c(-c6ccccc6)c6nc(c(-c7ccccc7)c7ccc4[nH]7)C=C6)C=C5)cc3)c2)c1F
REMARK SMILES IDX 16 1 15 2 13 3 14 4 12 5 8 6 9 7 69 8 10 9 11 10 7 11 3 12
REMARK SMILES IDX 4 13 70 14 5 15 71 16 6 17 2 18 1 19 17 20 18 21 19 22 20 23
REMARK SMILES IDX 21 24 22 25 68 26 23 27 67 28 24 29 25 30 26 31 61 32 27 33
REMARK SMILES IDX 66 34 60 35 62 36 28 37 65 38 59 39 58 40 29 42 51 43 36 44
REMARK SMILES IDX 50 45 37 46 40 47 49 48 63 49 38 50 39 51 48 53 64 54 41 55
REMARK SMILES IDX 30 56 31 57 35 58 32 59 34 60 33 61 52 62 53 63 57 64 54 65
REMARK SMILES IDX 56 66 55 67 42 68 43 69 47 70 44 71 46 72 45 73
REMARK H PARENT 62 41 40 52
REMARK Flexibility Score: inf
ROOT
ATOM      1  C   UNL A   1      33.904  35.167  28.474  1.00  0.00     0.275 C 
ENDROOT
BRANCH   1   2
ATOM      2  O   UNL A   1      33.813  33.760  28.779  1.00  0.00    -0.457 OA
BRANCH   2   3
ATOM      3  C   UNL A   1      33.081  33.013  27.906  1.00  0.00     0.357 C 
ATOM      4  O   UNL A   1      32.077  33.392  27.322  1.00  0.00    -0.244 OA
BRANCH   3   5
ATOM      5  C   UNL A   1      33.740  31.690  27.656  1.00  0.00     0.148 A 
ATOM      6  C   UNL A   1      33.730  29.390  26.992  1.00  0.00    -0.011 A 
ATOM      7  C   UNL A   1      35.083  29.321  27.341  1.00  0.00     0.029 A 
ATOM      8  C   UNL A   1      33.034  30.589  27.211  1.00  0.00     0.045 A 
ATOM      9  C   UNL A   1      35.709  30.469  27.778  1.00  0.00     0.112 A 
ATOM     10  N   UNL A   1      35.079  31.650  27.888  1.00  0.00    -0.249 NA
BRANCH   6  11
ATOM     11  C   UNL A   1      33.088  28.276  26.292  1.00  0.00     0.019 A 
ATOM     12  C   UNL A   1      32.952  26.878  24.295  1.00  0.00     0.088 A 
ATOM     13  C   UNL A   1      31.985  26.085  24.914  1.00  0.00     0.022 A 
ATOM     14  C   UNL A   1      33.492  27.957  24.983  1.00  0.00     0.148 A 
ATOM     15  C   UNL A   1      31.569  26.380  26.214  1.00  0.00     0.002 A 
ATOM     16  F   UNL A   1      34.443  28.703  24.391  1.00  0.00    -0.205 F 
ATOM     17  C   UNL A   1      32.117  27.467  26.901  1.00  0.00     0.012 A 
BRANCH  12  18
ATOM     18  C   UNL A   1      33.403  26.594  22.965  1.00  0.00     0.102 C 
ATOM     19  N   UNL A   1      33.777  26.360  21.896  1.00  0.00    -0.192 NA
ENDBRANCH  12  18
ENDBRANCH   6  11
ENDBRANCH   3   5
ENDBRANCH   2   3
ENDBRANCH   1   2
BRANCH   1  20
ATOM     20  C   UNL A   1      33.187  36.030  29.520  1.00  0.00     0.275 C 
BRANCH  20  21
ATOM     21  O   UNL A   1      32.590  35.237  30.565  1.00  0.00    -0.458 OA
BRANCH  21  22
ATOM     22  C   UNL A   1      32.829  35.689  31.818  1.00  0.00     0.338 C 
ATOM     23  O   UNL A   1      32.179  36.515  32.439  1.00  0.00    -0.246 OA
BRANCH  22  24
ATOM     24  C   UNL A   1      33.931  34.944  32.444  1.00  0.00     0.060 A 
ATOM     25  C   UNL A   1      35.170  35.569  32.454  1.00  0.00     0.016 A 
ATOM     26  C   UNL A   1      33.827  33.616  32.846  1.00  0.00     0.016 A 
ATOM     27  C   UNL A   1      36.327  34.877  32.762  1.00  0.00     0.010 A 
ATOM     28  C   UNL A   1      34.988  32.930  33.245  1.00  0.00     0.010 A 
ATOM     29  C   UNL A   1      36.254  33.546  33.175  1.00  0.00    -0.014 A 
BRANCH  29  30
ATOM     30  C   UNL A   1      37.520  32.833  33.496  1.00  0.00     0.031 A 
ATOM     31  C   UNL A   1      38.127  31.873  32.511  1.00  0.00     0.074 A 
ATOM     32  C   UNL A   1      38.165  33.107  34.649  1.00  0.00     0.049 A 
ATOM     33  N   UNL A   1      39.203  31.134  32.632  1.00  0.00    -0.248 NA
ATOM     34  C   UNL A   1      37.437  31.716  31.220  1.00  0.00     0.031 C 
ATOM     35  C   UNL A   1      37.717  34.064  35.665  1.00  0.00     0.029 A 
ATOM     36  N   UNL A   1      39.347  32.623  35.153  1.00  0.00    -0.354 N 
ATOM     37  C   UNL A   1      39.294  30.399  31.455  1.00  0.00     0.074 A 
ATOM     38  C   UNL A   1      38.157  30.766  30.641  1.00  0.00     0.031 C 
ATOM     39  C   UNL A   1      38.627  34.123  36.649  1.00  0.00     0.029 A 
ATOM     40  C   UNL A   1      39.678  33.150  36.378  1.00  0.00     0.049 A 
ATOM     41  H   UNL A   1      39.904  31.961  34.681  1.00  0.00     0.167 HD
ATOM     42  C   UNL A   1      40.240  29.500  31.091  1.00  0.00     0.031 A 
ATOM     43  C   UNL A   1      40.693  32.861  37.214  1.00  0.00     0.031 A 
ATOM     44  C   UNL A   1      41.377  29.145  31.902  1.00  0.00     0.049 A 
ATOM     45  C   UNL A   1      41.686  31.808  36.813  1.00  0.00     0.074 A 
ATOM     46  C   UNL A   1      42.398  28.256  31.612  1.00  0.00     0.029 A 
ATOM     47  N   UNL A   1      41.642  29.660  33.163  1.00  0.00    -0.354 N 
ATOM     48  N   UNL A   1      41.756  31.119  35.700  1.00  0.00    -0.248 NA
ATOM     49  C   UNL A   1      42.741  31.495  37.785  1.00  0.00     0.031 C 
ATOM     50  C   UNL A   1      43.241  28.180  32.726  1.00  0.00     0.029 A 
ATOM     51  C   UNL A   1      42.792  29.080  33.677  1.00  0.00     0.049 A 
ATOM     52  H   UNL A   1      41.095  30.336  33.623  1.00  0.00     0.167 HD
ATOM     53  C   UNL A   1      42.876  30.307  35.829  1.00  0.00     0.074 A 
ATOM     54  C   UNL A   1      43.468  30.615  37.114  1.00  0.00     0.031 C 
ATOM     55  C   UNL A   1      43.367  29.389  34.961  1.00  0.00     0.031 A 
BRANCH  42  56
ATOM     56  C   UNL A   1      40.058  28.791  29.774  1.00  0.00    -0.014 A 
ATOM     57  C   UNL A   1      40.524  29.337  28.568  1.00  0.00     0.009 A 
ATOM     58  C   UNL A   1      39.441  27.529  29.752  1.00  0.00     0.009 A 
ATOM     59  C   UNL A   1      40.344  28.650  27.365  1.00  0.00     0.001 A 
ATOM     60  C   UNL A   1      39.293  26.830  28.553  1.00  0.00     0.001 A 
ATOM     61  C   UNL A   1      39.735  27.395  27.358  1.00  0.00     0.000 A 
ENDBRANCH  42  56
BRANCH  43  62
ATOM     62  C   UNL A   1      40.791  33.538  38.537  1.00  0.00    -0.014 A 
ATOM     63  C   UNL A   1      40.057  33.077  39.640  1.00  0.00     0.009 A 
ATOM     64  C   UNL A   1      41.609  34.668  38.694  1.00  0.00     0.009 A 
ATOM     65  C   UNL A   1      40.116  33.752  40.861  1.00  0.00     0.001 A 
ATOM     66  C   UNL A   1      41.696  35.318  39.927  1.00  0.00     0.001 A 
ATOM     67  C   UNL A   1      40.940  34.868  41.005  1.00  0.00     0.000 A 
ENDBRANCH  43  62
BRANCH  55  68
ATOM     68  C   UNL A   1      44.634  28.683  35.362  1.00  0.00    -0.014 A 
ATOM     69  C   UNL A   1      44.614  27.550  36.193  1.00  0.00     0.009 A 
ATOM     70  C   UNL A   1      45.869  29.157  34.892  1.00  0.00     0.009 A 
ATOM     71  C   UNL A   1      45.808  26.940  36.583  1.00  0.00     0.001 A 
ATOM     72  C   UNL A   1      47.057  28.521  35.253  1.00  0.00     0.001 A 
ATOM     73  C   UNL A   1      47.027  27.423  36.110  1.00  0.00     0.000 A 
ENDBRANCH  55  68
ENDBRANCH  29  30
ENDBRANCH  22  24
ENDBRANCH  21  22
ENDBRANCH  20  21
ENDBRANCH   1  20
TORSDOF 13
ENDMDL
