MODEL 1
REMARK VINA RESULT:     -10.4      0.000      0.000
REMARK SMILES Nc1cccc(C(=O)N[C@@H]2C=C[C@@H](C(=O)OCCOC(=O)c3ccc(-c4c5nc(c(-c6ccccc6)c6ccc([nH]6)c(-c6ccccc6)c6nc(c(-c7ccccc7)c7ccc4[nH]7)C=C6)C=C5)cc3)C2)c1
REMARK SMILES IDX 17 1 16 2 14 3 15 4 13 5 10 6 11 7 70 8 12 9 9 10 7 11 8 12
REMARK SMILES IDX 6 14 2 15 3 16 71 17 4 18 5 19 1 20 18 23 19 24 20 25 21 26
REMARK SMILES IDX 22 27 23 28 69 29 24 30 68 31 25 32 26 33 27 34 62 35 28 36
REMARK SMILES IDX 67 37 61 38 63 39 29 40 66 41 60 42 59 43 30 45 52 46 37 47
REMARK SMILES IDX 51 48 38 49 41 50 50 51 64 52 39 53 40 54 49 56 65 57 42 58
REMARK SMILES IDX 31 59 32 60 36 61 33 62 35 63 34 64 53 65 54 66 58 67 55 68
REMARK SMILES IDX 57 69 56 70 43 71 44 72 48 73 45 74 47 75 46 76
REMARK H PARENT 9 13 1 21 1 22 63 44 41 55
REMARK Flexibility Score: inf
ROOT
ATOM      1  C   UNL A   1      42.251  19.344  27.232  1.00  0.00     0.274 C 
ENDROOT
BRANCH   1   2
ATOM      2  O   UNL A   1      40.942  19.926  27.385  1.00  0.00    -0.462 OA
BRANCH   2   3
ATOM      3  C   UNL A   1      40.911  21.278  27.514  1.00  0.00     0.312 C 
ATOM      4  O   UNL A   1      41.424  21.892  28.445  1.00  0.00    -0.252 OA
BRANCH   3   5
ATOM      5  C   UNL A   1      40.313  21.968  26.291  1.00  0.00     0.124 C 
ATOM      6  C   UNL A   1      37.943  22.243  25.669  1.00  0.00     0.106 C 
ATOM      7  C   UNL A   1      38.485  23.434  26.384  1.00  0.00    -0.006 C 
ATOM      8  C   UNL A   1      39.140  21.283  25.585  1.00  0.00     0.048 C 
ATOM      9  C   UNL A   1      39.768  23.297  26.710  1.00  0.00    -0.014 C 
BRANCH   6  10
ATOM     10  N   UNL A   1      37.435  22.641  24.367  1.00  0.00    -0.346 N 
ATOM     11  C   UNL A   1      36.132  22.788  23.941  1.00  0.00     0.251 C 
ATOM     12  O   UNL A   1      35.895  23.173  22.800  1.00  0.00    -0.269 OA
ATOM     13  H   UNL A   1      38.122  22.835  23.689  1.00  0.00     0.164 HD
BRANCH  11  14
ATOM     14  C   UNL A   1      35.022  22.589  24.899  1.00  0.00     0.041 A 
ATOM     15  C   UNL A   1      33.678  21.100  26.253  1.00  0.00     0.032 A 
ATOM     16  C   UNL A   1      33.250  22.201  27.000  1.00  0.00     0.025 A 
ATOM     17  C   UNL A   1      34.487  21.321  25.141  1.00  0.00     0.039 A 
ATOM     18  C   UNL A   1      33.691  23.491  26.693  1.00  0.00     0.003 A 
ATOM     19  C   UNL A   1      34.595  23.687  25.652  1.00  0.00     0.014 A 
BRANCH  15  20
ATOM     20  N   UNL A   1      33.239  19.821  26.553  1.00  0.00    -0.399 N 
ATOM     21  H   UNL A   1      32.436  19.460  26.111  1.00  0.00     0.156 HD
ATOM     22  H   UNL A   1      33.728  19.273  27.209  1.00  0.00     0.156 HD
ENDBRANCH  15  20
ENDBRANCH  11  14
ENDBRANCH   6  10
ENDBRANCH   3   5
ENDBRANCH   2   3
ENDBRANCH   1   2
BRANCH   1  23
ATOM     23  C   UNL A   1      42.607  19.194  25.751  1.00  0.00     0.275 C 
BRANCH  23  24
ATOM     24  O   UNL A   1      44.027  19.026  25.553  1.00  0.00    -0.458 OA
BRANCH  24  25
ATOM     25  C   UNL A   1      44.514  19.593  24.433  1.00  0.00     0.338 C 
ATOM     26  O   UNL A   1      44.579  19.092  23.310  1.00  0.00    -0.246 OA
BRANCH  25  27
ATOM     27  C   UNL A   1      44.908  20.981  24.675  1.00  0.00     0.060 A 
ATOM     28  C   UNL A   1      45.514  21.300  25.890  1.00  0.00     0.016 A 
ATOM     29  C   UNL A   1      44.507  21.991  23.802  1.00  0.00     0.016 A 
ATOM     30  C   UNL A   1      45.624  22.626  26.289  1.00  0.00     0.010 A 
ATOM     31  C   UNL A   1      44.707  23.328  24.165  1.00  0.00     0.010 A 
ATOM     32  C   UNL A   1      45.233  23.658  25.428  1.00  0.00    -0.014 A 
BRANCH  32  33
ATOM     33  C   UNL A   1      45.364  25.071  25.864  1.00  0.00     0.031 A 
ATOM     34  C   UNL A   1      46.686  25.782  25.752  1.00  0.00     0.074 A 
ATOM     35  C   UNL A   1      44.291  25.726  26.348  1.00  0.00     0.049 A 
ATOM     36  N   UNL A   1      47.035  26.950  26.226  1.00  0.00    -0.248 NA
ATOM     37  C   UNL A   1      47.758  25.086  25.022  1.00  0.00     0.031 C 
ATOM     38  C   UNL A   1      42.939  25.172  26.466  1.00  0.00     0.029 A 
ATOM     39  N   UNL A   1      44.167  27.006  26.827  1.00  0.00    -0.354 N 
ATOM     40  C   UNL A   1      48.379  27.102  25.909  1.00  0.00     0.074 A 
ATOM     41  C   UNL A   1      48.782  25.912  25.190  1.00  0.00     0.031 C 
ATOM     42  C   UNL A   1      42.119  26.113  26.957  1.00  0.00     0.029 A 
ATOM     43  C   UNL A   1      42.899  27.306  27.263  1.00  0.00     0.049 A 
ATOM     44  H   UNL A   1      44.914  27.646  26.855  1.00  0.00     0.167 HD
ATOM     45  C   UNL A   1      49.203  28.135  26.202  1.00  0.00     0.031 A 
ATOM     46  C   UNL A   1      42.423  28.399  27.885  1.00  0.00     0.031 A 
ATOM     47  C   UNL A   1      48.790  29.340  26.870  1.00  0.00     0.049 A 
ATOM     48  C   UNL A   1      43.360  29.525  28.208  1.00  0.00     0.074 A 
ATOM     49  C   UNL A   1      49.548  30.454  27.188  1.00  0.00     0.029 A 
ATOM     50  N   UNL A   1      47.499  29.595  27.306  1.00  0.00    -0.354 N 
ATOM     51  N   UNL A   1      44.639  29.634  27.940  1.00  0.00    -0.248 NA
ATOM     52  C   UNL A   1      42.793  30.669  28.934  1.00  0.00     0.031 C 
ATOM     53  C   UNL A   1      48.722  31.370  27.847  1.00  0.00     0.029 A 
ATOM     54  C   UNL A   1      47.444  30.841  27.906  1.00  0.00     0.049 A 
ATOM     55  H   UNL A   1      46.736  28.981  27.204  1.00  0.00     0.167 HD
ATOM     56  C   UNL A   1      45.029  30.858  28.463  1.00  0.00     0.074 A 
ATOM     57  C   UNL A   1      43.847  31.467  29.040  1.00  0.00     0.031 C 
ATOM     58  C   UNL A   1      46.258  31.425  28.473  1.00  0.00     0.031 A 
BRANCH  45  59
ATOM     59  C   UNL A   1      50.654  27.990  25.844  1.00  0.00    -0.014 A 
ATOM     60  C   UNL A   1      51.156  28.430  24.611  1.00  0.00     0.009 A 
ATOM     61  C   UNL A   1      51.542  27.449  26.789  1.00  0.00     0.009 A 
ATOM     62  C   UNL A   1      52.517  28.309  24.322  1.00  0.00     0.001 A 
ATOM     63  C   UNL A   1      52.905  27.349  26.505  1.00  0.00     0.001 A 
ATOM     64  C   UNL A   1      53.391  27.774  25.270  1.00  0.00     0.000 A 
ENDBRANCH  45  59
BRANCH  46  65
ATOM     65  C   UNL A   1      41.000  28.450  28.306  1.00  0.00    -0.014 A 
ATOM     66  C   UNL A   1      40.594  27.895  29.528  1.00  0.00     0.009 A 
ATOM     67  C   UNL A   1      40.040  29.059  27.481  1.00  0.00     0.009 A 
ATOM     68  C   UNL A   1      39.250  27.935  29.908  1.00  0.00     0.001 A 
ATOM     69  C   UNL A   1      38.703  29.121  27.876  1.00  0.00     0.001 A 
ATOM     70  C   UNL A   1      38.308  28.553  29.086  1.00  0.00     0.000 A 
ENDBRANCH  46  65
BRANCH  58  71
ATOM     71  C   UNL A   1      46.376  32.776  29.112  1.00  0.00    -0.014 A 
ATOM     72  C   UNL A   1      46.706  32.903  30.469  1.00  0.00     0.009 A 
ATOM     73  C   UNL A   1      46.182  33.932  28.342  1.00  0.00     0.009 A 
ATOM     74  C   UNL A   1      46.813  34.167  31.052  1.00  0.00     0.001 A 
ATOM     75  C   UNL A   1      46.309  35.194  28.922  1.00  0.00     0.001 A 
ATOM     76  C   UNL A   1      46.617  35.310  30.277  1.00  0.00     0.000 A 
ENDBRANCH  58  71
ENDBRANCH  32  33
ENDBRANCH  25  27
ENDBRANCH  24  25
ENDBRANCH  23  24
ENDBRANCH   1  23
TORSDOF 14
ENDMDL
MODEL 2
REMARK VINA RESULT:     -10.3      5.429      9.684
REMARK SMILES Nc1cccc(C(=O)N[C@@H]2C=C[C@@H](C(=O)OCCOC(=O)c3ccc(-c4c5nc(c(-c6ccccc6)c6ccc([nH]6)c(-c6ccccc6)c6nc(c(-c7ccccc7)c7ccc4[nH]7)C=C6)C=C5)cc3)C2)c1
REMARK SMILES IDX 17 1 16 2 14 3 15 4 13 5 10 6 11 7 70 8 12 9 9 10 7 11 8 12
REMARK SMILES IDX 6 14 2 15 3 16 71 17 4 18 5 19 1 20 18 23 19 24 20 25 21 26
REMARK SMILES IDX 22 27 23 28 69 29 24 30 68 31 25 32 26 33 27 34 62 35 28 36
REMARK SMILES IDX 67 37 61 38 63 39 29 40 66 41 60 42 59 43 30 45 52 46 37 47
REMARK SMILES IDX 51 48 38 49 41 50 50 51 64 52 39 53 40 54 49 56 65 57 42 58
REMARK SMILES IDX 31 59 32 60 36 61 33 62 35 63 34 64 53 65 54 66 58 67 55 68
REMARK SMILES IDX 57 69 56 70 43 71 44 72 48 73 45 74 47 75 46 76
REMARK H PARENT 9 13 1 21 1 22 63 44 41 55
REMARK Flexibility Score: inf
ROOT
ATOM      1  C   UNL A   1      34.024  28.516  26.008  1.00  0.00     0.274 C 
ENDROOT
BRANCH   1   2
ATOM      2  O   UNL A   1      33.334  27.251  25.985  1.00  0.00    -0.462 OA
BRANCH   2   3
ATOM      3  C   UNL A   1      33.126  26.717  24.754  1.00  0.00     0.312 C 
ATOM      4  O   UNL A   1      34.022  26.315  24.017  1.00  0.00    -0.252 OA
BRANCH   3   5
ATOM      5  C   UNL A   1      31.644  26.515  24.448  1.00  0.00     0.124 C 
ATOM      6  C   UNL A   1      30.053  28.068  23.383  1.00  0.00     0.106 C 
ATOM      7  C   UNL A   1      30.640  27.101  22.412  1.00  0.00    -0.006 C 
ATOM      8  C   UNL A   1      30.690  27.680  24.726  1.00  0.00     0.048 C 
ATOM      9  C   UNL A   1      31.489  26.250  22.984  1.00  0.00    -0.014 C 
BRANCH   6  10
ATOM     10  N   UNL A   1      28.605  27.950  23.379  1.00  0.00    -0.346 N 
ATOM     11  C   UNL A   1      27.648  28.900  23.093  1.00  0.00     0.251 C 
ATOM     12  O   UNL A   1      26.458  28.602  23.107  1.00  0.00    -0.269 OA
ATOM     13  H   UNL A   1      28.256  27.061  23.616  1.00  0.00     0.164 HD
BRANCH  11  14
ATOM     14  C   UNL A   1      28.065  30.252  22.657  1.00  0.00     0.041 A 
ATOM     15  C   UNL A   1      28.084  31.984  20.968  1.00  0.00     0.032 A 
ATOM     16  C   UNL A   1      28.444  32.909  21.952  1.00  0.00     0.025 A 
ATOM     17  C   UNL A   1      27.995  30.639  21.316  1.00  0.00     0.039 A 
ATOM     18  C   UNL A   1      28.629  32.509  23.279  1.00  0.00     0.003 A 
ATOM     19  C   UNL A   1      28.421  31.181  23.639  1.00  0.00     0.014 A 
BRANCH  15  20
ATOM     20  N   UNL A   1      27.905  32.378  19.652  1.00  0.00    -0.399 N 
ATOM     21  H   UNL A   1      27.006  32.359  19.250  1.00  0.00     0.156 HD
ATOM     22  H   UNL A   1      28.675  32.677  19.118  1.00  0.00     0.156 HD
ENDBRANCH  15  20
ENDBRANCH  11  14
ENDBRANCH   6  10
ENDBRANCH   3   5
ENDBRANCH   2   3
ENDBRANCH   1   2
BRANCH   1  23
ATOM     23  C   UNL A   1      33.534  29.379  27.173  1.00  0.00     0.275 C 
BRANCH  23  24
ATOM     24  O   UNL A   1      34.124  30.696  27.152  1.00  0.00    -0.458 OA
BRANCH  24  25
ATOM     25  C   UNL A   1      34.779  31.042  28.277  1.00  0.00     0.338 C 
ATOM     26  O   UNL A   1      34.404  31.828  29.147  1.00  0.00    -0.246 OA
BRANCH  25  27
ATOM     27  C   UNL A   1      36.020  30.280  28.418  1.00  0.00     0.060 A 
ATOM     28  C   UNL A   1      36.285  29.653  29.635  1.00  0.00     0.016 A 
ATOM     29  C   UNL A   1      37.005  30.347  27.433  1.00  0.00     0.016 A 
ATOM     30  C   UNL A   1      37.561  29.188  29.919  1.00  0.00     0.010 A 
ATOM     31  C   UNL A   1      38.263  29.790  27.685  1.00  0.00     0.010 A 
ATOM     32  C   UNL A   1      38.565  29.239  28.944  1.00  0.00    -0.014 A 
BRANCH  32  33
ATOM     33  C   UNL A   1      39.924  28.729  29.259  1.00  0.00     0.031 A 
ATOM     34  C   UNL A   1      40.899  29.585  30.021  1.00  0.00     0.074 A 
ATOM     35  C   UNL A   1      40.280  27.487  28.876  1.00  0.00     0.049 A 
ATOM     36  N   UNL A   1      42.172  29.381  30.246  1.00  0.00    -0.248 NA
ATOM     37  C   UNL A   1      40.381  30.838  30.593  1.00  0.00     0.031 C 
ATOM     38  C   UNL A   1      39.416  26.534  28.174  1.00  0.00     0.029 A 
ATOM     39  N   UNL A   1      41.464  26.811  29.027  1.00  0.00    -0.354 N 
ATOM     40  C   UNL A   1      42.620  30.505  30.929  1.00  0.00     0.074 A 
ATOM     41  C   UNL A   1      41.481  31.383  31.094  1.00  0.00     0.031 C 
ATOM     42  C   UNL A   1      40.089  25.390  27.982  1.00  0.00     0.029 A 
ATOM     43  C   UNL A   1      41.452  25.556  28.471  1.00  0.00     0.049 A 
ATOM     44  H   UNL A   1      42.246  27.190  29.490  1.00  0.00     0.167 HD
ATOM     45  C   UNL A   1      43.871  30.782  31.367  1.00  0.00     0.031 A 
ATOM     46  C   UNL A   1      42.439  24.652  28.325  1.00  0.00     0.031 A 
ATOM     47  C   UNL A   1      44.990  29.886  31.250  1.00  0.00     0.049 A 
ATOM     48  C   UNL A   1      43.817  24.989  28.810  1.00  0.00     0.074 A 
ATOM     49  C   UNL A   1      46.290  30.068  31.688  1.00  0.00     0.029 A 
ATOM     50  N   UNL A   1      44.935  28.630  30.667  1.00  0.00    -0.354 N 
ATOM     51  N   UNL A   1      44.235  26.075  29.415  1.00  0.00    -0.248 NA
ATOM     52  C   UNL A   1      44.864  23.985  28.576  1.00  0.00     0.031 C 
ATOM     53  C   UNL A   1      47.031  28.934  31.339  1.00  0.00     0.029 A 
ATOM     54  C   UNL A   1      46.182  28.033  30.718  1.00  0.00     0.049 A 
ATOM     55  H   UNL A   1      44.128  28.223  30.275  1.00  0.00     0.167 HD
ATOM     56  C   UNL A   1      45.591  25.884  29.635  1.00  0.00     0.074 A 
ATOM     57  C   UNL A   1      45.921  24.569  29.123  1.00  0.00     0.031 C 
ATOM     58  C   UNL A   1      46.487  26.725  30.203  1.00  0.00     0.031 A 
BRANCH  45  59
ATOM     59  C   UNL A   1      44.111  32.133  31.976  1.00  0.00    -0.014 A 
ATOM     60  C   UNL A   1      43.917  32.370  33.344  1.00  0.00     0.009 A 
ATOM     61  C   UNL A   1      44.593  33.174  31.164  1.00  0.00     0.009 A 
ATOM     62  C   UNL A   1      44.181  33.631  33.884  1.00  0.00     0.001 A 
ATOM     63  C   UNL A   1      44.875  34.427  31.710  1.00  0.00     0.001 A 
ATOM     64  C   UNL A   1      44.663  34.656  33.069  1.00  0.00     0.000 A 
ENDBRANCH  45  59
BRANCH  46  65
ATOM     65  C   UNL A   1      42.170  23.370  27.627  1.00  0.00    -0.014 A 
ATOM     66  C   UNL A   1      41.574  22.297  28.304  1.00  0.00     0.009 A 
ATOM     67  C   UNL A   1      42.508  23.218  26.272  1.00  0.00     0.009 A 
ATOM     68  C   UNL A   1      41.338  21.090  27.642  1.00  0.00     0.001 A 
ATOM     69  C   UNL A   1      42.247  22.019  25.607  1.00  0.00     0.001 A 
ATOM     70  C   UNL A   1      41.668  20.954  26.294  1.00  0.00     0.000 A 
ENDBRANCH  46  65
BRANCH  58  71
ATOM     71  C   UNL A   1      47.900  26.237  30.313  1.00  0.00    -0.014 A 
ATOM     72  C   UNL A   1      48.381  25.692  31.512  1.00  0.00     0.009 A 
ATOM     73  C   UNL A   1      48.747  26.297  29.197  1.00  0.00     0.009 A 
ATOM     74  C   UNL A   1      49.699  25.240  31.600  1.00  0.00     0.001 A 
ATOM     75  C   UNL A   1      50.058  25.826  29.282  1.00  0.00     0.001 A 
ATOM     76  C   UNL A   1      50.534  25.305  30.485  1.00  0.00     0.000 A 
ENDBRANCH  58  71
ENDBRANCH  32  33
ENDBRANCH  25  27
ENDBRANCH  24  25
ENDBRANCH  23  24
ENDBRANCH   1  23
TORSDOF 14
ENDMDL
MODEL 3
REMARK VINA RESULT:     -10.3      5.728     11.147
REMARK SMILES Nc1cccc(C(=O)N[C@@H]2C=C[C@@H](C(=O)OCCOC(=O)c3ccc(-c4c5nc(c(-c6ccccc6)c6ccc([nH]6)c(-c6ccccc6)c6nc(c(-c7ccccc7)c7ccc4[nH]7)C=C6)C=C5)cc3)C2)c1
REMARK SMILES IDX 17 1 16 2 14 3 15 4 13 5 10 6 11 7 70 8 12 9 9 10 7 11 8 12
REMARK SMILES IDX 6 14 2 15 3 16 71 17 4 18 5 19 1 20 18 23 19 24 20 25 21 26
REMARK SMILES IDX 22 27 23 28 69 29 24 30 68 31 25 32 26 33 27 34 62 35 28 36
REMARK SMILES IDX 67 37 61 38 63 39 29 40 66 41 60 42 59 43 30 45 52 46 37 47
REMARK SMILES IDX 51 48 38 49 41 50 50 51 64 52 39 53 40 54 49 56 65 57 42 58
REMARK SMILES IDX 31 59 32 60 36 61 33 62 35 63 34 64 53 65 54 66 58 67 55 68
REMARK SMILES IDX 57 69 56 70 43 71 44 72 48 73 45 74 47 75 46 76
REMARK H PARENT 9 13 1 21 1 22 63 44 41 55
REMARK Flexibility Score: inf
ROOT
ATOM      1  C   UNL A   1      33.767  34.071  28.293  1.00  0.00     0.274 C 
ENDROOT
BRANCH   1   2
ATOM      2  O   UNL A   1      34.111  35.258  29.034  1.00  0.00    -0.462 OA
BRANCH   2   3
ATOM      3  C   UNL A   1      33.073  35.901  29.630  1.00  0.00     0.312 C 
ATOM      4  O   UNL A   1      32.200  36.511  29.020  1.00  0.00    -0.252 OA
BRANCH   3   5
ATOM      5  C   UNL A   1      33.011  35.643  31.134  1.00  0.00     0.124 C 
ATOM      6  C   UNL A   1      34.827  35.735  32.799  1.00  0.00     0.106 C 
ATOM      7  C   UNL A   1      34.050  37.005  32.734  1.00  0.00    -0.006 C 
ATOM      8  C   UNL A   1      34.141  34.826  31.767  1.00  0.00     0.048 C 
ATOM      9  C   UNL A   1      33.059  36.957  31.847  1.00  0.00    -0.014 C 
BRANCH   6  10
ATOM     10  N   UNL A   1      34.784  35.201  34.150  1.00  0.00    -0.346 N 
ATOM     11  C   UNL A   1      35.542  34.202  34.723  1.00  0.00     0.251 C 
ATOM     12  O   UNL A   1      35.385  33.908  35.904  1.00  0.00    -0.269 OA
ATOM     13  H   UNL A   1      34.117  35.614  34.744  1.00  0.00     0.164 HD
BRANCH  11  14
ATOM     14  C   UNL A   1      36.621  33.561  33.939  1.00  0.00     0.041 A 
ATOM     15  C   UNL A   1      38.969  33.389  33.377  1.00  0.00     0.032 A 
ATOM     16  C   UNL A   1      38.723  32.126  32.831  1.00  0.00     0.025 A 
ATOM     17  C   UNL A   1      37.890  34.139  33.838  1.00  0.00     0.039 A 
ATOM     18  C   UNL A   1      37.433  31.586  32.824  1.00  0.00     0.003 A 
ATOM     19  C   UNL A   1      36.381  32.295  33.397  1.00  0.00     0.014 A 
BRANCH  15  20
ATOM     20  N   UNL A   1      40.245  33.927  33.380  1.00  0.00    -0.399 N 
ATOM     21  H   UNL A   1      40.952  33.522  32.826  1.00  0.00     0.156 HD
ATOM     22  H   UNL A   1      40.447  34.714  33.936  1.00  0.00     0.156 HD
ENDBRANCH  15  20
ENDBRANCH  11  14
ENDBRANCH   6  10
ENDBRANCH   3   5
ENDBRANCH   2   3
ENDBRANCH   1   2
BRANCH   1  23
ATOM     23  C   UNL A   1      34.974  33.138  28.177  1.00  0.00     0.275 C 
BRANCH  23  24
ATOM     24  O   UNL A   1      34.813  31.948  28.979  1.00  0.00    -0.458 OA
BRANCH  24  25
ATOM     25  C   UNL A   1      34.775  30.796  28.283  1.00  0.00     0.338 C 
ATOM     26  O   UNL A   1      33.857  30.381  27.576  1.00  0.00    -0.246 OA
BRANCH  25  27
ATOM     27  C   UNL A   1      36.046  30.078  28.386  1.00  0.00     0.060 A 
ATOM     28  C   UNL A   1      36.407  29.533  29.618  1.00  0.00     0.016 A 
ATOM     29  C   UNL A   1      36.963  30.112  27.336  1.00  0.00     0.016 A 
ATOM     30  C   UNL A   1      37.712  29.119  29.844  1.00  0.00     0.010 A 
ATOM     31  C   UNL A   1      38.252  29.605  27.538  1.00  0.00     0.010 A 
ATOM     32  C   UNL A   1      38.650  29.138  28.804  1.00  0.00    -0.014 A 
BRANCH  32  33
ATOM     33  C   UNL A   1      40.041  28.685  29.058  1.00  0.00     0.031 A 
ATOM     34  C   UNL A   1      41.033  29.607  29.714  1.00  0.00     0.074 A 
ATOM     35  C   UNL A   1      40.412  27.436  28.716  1.00  0.00     0.049 A 
ATOM     36  N   UNL A   1      42.323  29.452  29.869  1.00  0.00    -0.248 NA
ATOM     37  C   UNL A   1      40.511  30.872  30.255  1.00  0.00     0.031 C 
ATOM     38  C   UNL A   1      39.538  26.423  28.118  1.00  0.00     0.029 A 
ATOM     39  N   UNL A   1      41.625  26.803  28.827  1.00  0.00    -0.354 N 
ATOM     40  C   UNL A   1      42.776  30.622  30.466  1.00  0.00     0.074 A 
ATOM     41  C   UNL A   1      41.622  31.474  30.657  1.00  0.00     0.031 C 
ATOM     42  C   UNL A   1      40.235  25.290  27.941  1.00  0.00     0.029 A 
ATOM     43  C   UNL A   1      41.619  25.520  28.335  1.00  0.00     0.049 A 
ATOM     44  H   UNL A   1      42.421  27.228  29.220  1.00  0.00     0.167 HD
ATOM     45  C   UNL A   1      44.041  30.957  30.810  1.00  0.00     0.031 A 
ATOM     46  C   UNL A   1      42.623  24.640  28.173  1.00  0.00     0.031 A 
ATOM     47  C   UNL A   1      45.179  30.089  30.668  1.00  0.00     0.049 A 
ATOM     48  C   UNL A   1      44.017  25.041  28.554  1.00  0.00     0.074 A 
ATOM     49  C   UNL A   1      46.498  30.331  31.014  1.00  0.00     0.029 A 
ATOM     50  N   UNL A   1      45.129  28.803  30.154  1.00  0.00    -0.354 N 
ATOM     51  N   UNL A   1      44.436  26.168  29.076  1.00  0.00    -0.248 NA
ATOM     52  C   UNL A   1      45.079  24.057  28.305  1.00  0.00     0.031 C 
ATOM     53  C   UNL A   1      47.252  29.202  30.677  1.00  0.00     0.029 A 
ATOM     54  C   UNL A   1      46.396  28.246  30.156  1.00  0.00     0.049 A 
ATOM     55  H   UNL A   1      44.313  28.354  29.833  1.00  0.00     0.167 HD
ATOM     56  C   UNL A   1      45.809  26.027  29.221  1.00  0.00     0.074 A 
ATOM     57  C   UNL A   1      46.148  24.698  28.755  1.00  0.00     0.031 C 
ATOM     58  C   UNL A   1      46.710  26.923  29.688  1.00  0.00     0.031 A 
BRANCH  45  59
ATOM     59  C   UNL A   1      44.275  32.344  31.335  1.00  0.00    -0.014 A 
ATOM     60  C   UNL A   1      44.530  33.423  30.476  1.00  0.00     0.009 A 
ATOM     61  C   UNL A   1      44.185  32.579  32.717  1.00  0.00     0.009 A 
ATOM     62  C   UNL A   1      44.711  34.707  30.995  1.00  0.00     0.001 A 
ATOM     63  C   UNL A   1      44.346  33.866  33.230  1.00  0.00     0.001 A 
ATOM     64  C   UNL A   1      44.614  34.929  32.369  1.00  0.00     0.000 A 
ENDBRANCH  45  59
BRANCH  46  65
ATOM     65  C   UNL A   1      42.353  23.316  27.558  1.00  0.00    -0.014 A 
ATOM     66  C   UNL A   1      42.577  23.102  26.190  1.00  0.00     0.009 A 
ATOM     67  C   UNL A   1      41.871  22.256  28.344  1.00  0.00     0.009 A 
ATOM     68  C   UNL A   1      42.306  21.857  25.619  1.00  0.00     0.001 A 
ATOM     69  C   UNL A   1      41.627  21.006  27.775  1.00  0.00     0.001 A 
ATOM     70  C   UNL A   1      41.838  20.809  26.412  1.00  0.00     0.000 A 
ENDBRANCH  46  65
BRANCH  58  71
ATOM     71  C   UNL A   1      48.142  26.482  29.734  1.00  0.00    -0.014 A 
ATOM     72  C   UNL A   1      48.666  25.858  30.875  1.00  0.00     0.009 A 
ATOM     73  C   UNL A   1      48.965  26.667  28.613  1.00  0.00     0.009 A 
ATOM     74  C   UNL A   1      50.001  25.451  30.903  1.00  0.00     0.001 A 
ATOM     75  C   UNL A   1      50.293  26.241  28.637  1.00  0.00     0.001 A 
ATOM     76  C   UNL A   1      50.811  25.641  29.784  1.00  0.00     0.000 A 
ENDBRANCH  58  71
ENDBRANCH  32  33
ENDBRANCH  25  27
ENDBRANCH  24  25
ENDBRANCH  23  24
ENDBRANCH   1  23
TORSDOF 14
ENDMDL
