MODEL 1
REMARK VINA RESULT:     -11.2      0.000      0.000
REMARK SMILES COc1ccc(NC(=O)[C@@H]2[C@@H](C(=O)OCCOC(=O)c3ccc(-c4c5nc(c(-c6ccccc6)c6ccc([nH]6)c(-c6ccccc6)c6nc(c(-c7ccccc7)c7ccc4[nH]7)C=C6)C=C5)cc3)[C@H]3C=C[C@@H]2C3)cc1O
REMARK SMILES IDX 15 1 14 2 12 3 13 4 11 5 10 6 71 7 68 8 70 9 72 10 69 11
REMARK SMILES IDX 8 12 7 13 9 15 6 16 3 17 4 18 74 19 5 20 73 21 2 22 1 23
REMARK SMILES IDX 75 24 16 26 17 27 18 28 19 29 20 30 21 31 67 32 22 33 66 34
REMARK SMILES IDX 23 35 24 36 25 37 60 38 26 39 65 40 59 41 61 42 27 43 64 44
REMARK SMILES IDX 58 45 57 46 28 48 50 49 35 50 49 51 36 52 39 53 48 54 62 55
REMARK SMILES IDX 37 56 38 57 47 59 63 60 40 61 29 62 30 63 34 64 31 65 33 66
REMARK SMILES IDX 32 67 51 68 52 69 56 70 53 71 55 72 54 73 41 74 42 75 46 76
REMARK SMILES IDX 43 77 45 78 44 79
REMARK H PARENT 7 14 75 25 61 47 39 58
REMARK Flexibility Score: inf
ROOT
ATOM      1  C   UNL A   1      38.334  20.963  25.346  1.00  0.00     0.274 C 
ENDROOT
BRANCH   1   2
ATOM      2  O   UNL A   1      36.997  20.774  24.841  1.00  0.00    -0.462 OA
BRANCH   2   3
ATOM      3  C   UNL A   1      36.426  21.829  24.188  1.00  0.00     0.310 C 
ATOM      4  O   UNL A   1      36.949  22.463  23.285  1.00  0.00    -0.252 OA
BRANCH   3   5
ATOM      5  C   UNL A   1      35.008  22.025  24.707  1.00  0.00     0.119 C 
ATOM      6  C   UNL A   1      34.137  23.015  23.903  1.00  0.00     0.100 C 
ATOM      7  C   UNL A   1      33.840  24.143  24.930  1.00  0.00     0.025 C 
ATOM      8  C   UNL A   1      34.964  22.633  26.133  1.00  0.00     0.027 C 
ATOM      9  C   UNL A   1      35.136  24.789  25.370  1.00  0.00    -0.027 C 
ATOM     10  C   UNL A   1      33.582  23.308  26.182  1.00  0.00     0.017 C 
ATOM     11  C   UNL A   1      35.794  23.896  26.127  1.00  0.00    -0.027 C 
BRANCH   6  12
ATOM     12  C   UNL A   1      32.814  22.582  23.256  1.00  0.00     0.228 C 
ATOM     13  N   UNL A   1      32.273  21.350  23.097  1.00  0.00    -0.326 N 
ATOM     14  H   UNL A   1      31.508  21.403  22.480  1.00  0.00     0.169 HD
ATOM     15  O   UNL A   1      32.158  23.483  22.699  1.00  0.00    -0.274 OA
BRANCH  13  16
ATOM     16  C   UNL A   1      32.446  20.021  23.525  1.00  0.00     0.045 A 
ATOM     17  C   UNL A   1      32.562  17.436  24.647  1.00  0.00     0.160 A 
ATOM     18  C   UNL A   1      32.507  17.590  23.270  1.00  0.00     0.052 A 
ATOM     19  C   UNL A   1      32.653  18.566  25.453  1.00  0.00     0.159 A 
ATOM     20  C   UNL A   1      32.499  18.882  22.720  1.00  0.00     0.030 A 
ATOM     21  C   UNL A   1      32.614  19.844  24.906  1.00  0.00     0.076 A 
BRANCH  17  22
ATOM     22  O   UNL A   1      32.442  16.228  25.271  1.00  0.00    -0.493 OA
ATOM     23  C   UNL A   1      33.668  15.509  25.350  1.00  0.00     0.278 C 
ENDBRANCH  17  22
BRANCH  19  24
ATOM     24  O   UNL A   1      32.771  18.432  26.808  1.00  0.00    -0.504 OA
ATOM     25  H   UNL A   1      32.343  19.041  27.378  1.00  0.00     0.293 HD
ENDBRANCH  19  24
ENDBRANCH  13  16
ENDBRANCH   6  12
ENDBRANCH   3   5
ENDBRANCH   2   3
ENDBRANCH   1   2
BRANCH   1  26
ATOM     26  C   UNL A   1      39.138  19.662  25.289  1.00  0.00     0.275 C 
BRANCH  26  27
ATOM     27  O   UNL A   1      40.100  19.616  26.359  1.00  0.00    -0.458 OA
BRANCH  27  28
ATOM     28  C   UNL A   1      41.390  19.807  26.000  1.00  0.00     0.338 C 
ATOM     29  O   UNL A   1      42.068  19.121  25.258  1.00  0.00    -0.246 OA
BRANCH  28  30
ATOM     30  C   UNL A   1      41.831  21.118  26.500  1.00  0.00     0.060 A 
ATOM     31  C   UNL A   1      41.708  21.338  27.869  1.00  0.00     0.016 A 
ATOM     32  C   UNL A   1      42.276  22.136  25.660  1.00  0.00     0.016 A 
ATOM     33  C   UNL A   1      42.028  22.572  28.423  1.00  0.00     0.010 A 
ATOM     34  C   UNL A   1      42.610  23.380  26.216  1.00  0.00     0.010 A 
ATOM     35  C   UNL A   1      42.480  23.609  27.600  1.00  0.00    -0.014 A 
BRANCH  35  36
ATOM     36  C   UNL A   1      42.741  24.944  28.194  1.00  0.00     0.031 A 
ATOM     37  C   UNL A   1      44.138  25.325  28.593  1.00  0.00     0.074 A 
ATOM     38  C   UNL A   1      41.743  25.841  28.322  1.00  0.00     0.049 A 
ATOM     39  N   UNL A   1      44.560  26.403  29.205  1.00  0.00    -0.248 NA
ATOM     40  C   UNL A   1      45.201  24.366  28.257  1.00  0.00     0.031 C 
ATOM     41  C   UNL A   1      40.358  25.635  27.896  1.00  0.00     0.029 A 
ATOM     42  N   UNL A   1      41.750  27.114  28.837  1.00  0.00    -0.354 N 
ATOM     43  C   UNL A   1      45.930  26.237  29.358  1.00  0.00     0.074 A 
ATOM     44  C   UNL A   1      46.268  24.953  28.781  1.00  0.00     0.031 C 
ATOM     45  C   UNL A   1      39.653  26.749  28.152  1.00  0.00     0.029 A 
ATOM     46  C   UNL A   1      40.518  27.722  28.813  1.00  0.00     0.049 A 
ATOM     47  H   UNL A   1      42.559  27.549  29.190  1.00  0.00     0.167 HD
ATOM     48  C   UNL A   1      46.825  27.075  29.933  1.00  0.00     0.031 A 
ATOM     49  C   UNL A   1      40.122  28.915  29.298  1.00  0.00     0.031 A 
ATOM     50  C   UNL A   1      46.496  28.359  30.492  1.00  0.00     0.049 A 
ATOM     51  C   UNL A   1      41.120  29.797  29.994  1.00  0.00     0.074 A 
ATOM     52  C   UNL A   1      47.335  29.275  31.104  1.00  0.00     0.029 A 
ATOM     53  N   UNL A   1      45.225  28.912  30.503  1.00  0.00    -0.354 N 
ATOM     54  N   UNL A   1      42.405  29.608  30.177  1.00  0.00    -0.248 NA
ATOM     55  C   UNL A   1      40.610  31.051  30.565  1.00  0.00     0.031 C 
ATOM     56  C   UNL A   1      46.563  30.363  31.525  1.00  0.00     0.029 A 
ATOM     57  C   UNL A   1      45.253  30.146  31.131  1.00  0.00     0.049 A 
ATOM     58  H   UNL A   1      44.422  28.490  30.120  1.00  0.00     0.167 HD
ATOM     59  C   UNL A   1      42.858  30.723  30.871  1.00  0.00     0.074 A 
ATOM     60  C   UNL A   1      41.715  31.593  31.059  1.00  0.00     0.031 C 
ATOM     61  C   UNL A   1      44.107  30.997  31.317  1.00  0.00     0.031 A 
BRANCH  48  62
ATOM     62  C   UNL A   1      48.246  26.596  30.035  1.00  0.00    -0.014 A 
ATOM     63  C   UNL A   1      48.683  25.814  31.113  1.00  0.00     0.009 A 
ATOM     64  C   UNL A   1      49.156  26.928  29.019  1.00  0.00     0.009 A 
ATOM     65  C   UNL A   1      50.015  25.401  31.189  1.00  0.00     0.001 A 
ATOM     66  C   UNL A   1      50.480  26.491  29.084  1.00  0.00     0.001 A 
ATOM     67  C   UNL A   1      50.911  25.736  30.174  1.00  0.00     0.000 A 
ENDBRANCH  48  62
BRANCH  49  68
ATOM     68  C   UNL A   1      38.697  29.323  29.192  1.00  0.00    -0.014 A 
ATOM     69  C   UNL A   1      38.213  29.956  28.037  1.00  0.00     0.009 A 
ATOM     70  C   UNL A   1      37.814  29.090  30.258  1.00  0.00     0.009 A 
ATOM     71  C   UNL A   1      36.879  30.363  27.961  1.00  0.00     0.001 A 
ATOM     72  C   UNL A   1      36.474  29.471  30.168  1.00  0.00     0.001 A 
ATOM     73  C   UNL A   1      36.010  30.115  29.022  1.00  0.00     0.000 A 
ENDBRANCH  49  68
BRANCH  61  74
ATOM     74  C   UNL A   1      44.307  32.302  32.034  1.00  0.00    -0.014 A 
ATOM     75  C   UNL A   1      44.622  33.475  31.331  1.00  0.00     0.009 A 
ATOM     76  C   UNL A   1      44.143  32.365  33.427  1.00  0.00     0.009 A 
ATOM     77  C   UNL A   1      44.799  34.681  32.014  1.00  0.00     0.001 A 
ATOM     78  C   UNL A   1      44.296  33.576  34.103  1.00  0.00     0.001 A 
ATOM     79  C   UNL A   1      44.633  34.731  33.398  1.00  0.00     0.000 A 
ENDBRANCH  61  74
ENDBRANCH  35  36
ENDBRANCH  28  30
ENDBRANCH  27  28
ENDBRANCH  26  27
ENDBRANCH   1  26
TORSDOF 15
ENDMDL
MODEL 2
REMARK VINA RESULT:     -11.2      0.542      5.977
REMARK SMILES COc1ccc(NC(=O)[C@@H]2[C@@H](C(=O)OCCOC(=O)c3ccc(-c4c5nc(c(-c6ccccc6)c6ccc([nH]6)c(-c6ccccc6)c6nc(c(-c7ccccc7)c7ccc4[nH]7)C=C6)C=C5)cc3)[C@H]3C=C[C@@H]2C3)cc1O
REMARK SMILES IDX 15 1 14 2 12 3 13 4 11 5 10 6 71 7 68 8 70 9 72 10 69 11
REMARK SMILES IDX 8 12 7 13 9 15 6 16 3 17 4 18 74 19 5 20 73 21 2 22 1 23
REMARK SMILES IDX 75 24 16 26 17 27 18 28 19 29 20 30 21 31 67 32 22 33 66 34
REMARK SMILES IDX 23 35 24 36 25 37 60 38 26 39 65 40 59 41 61 42 27 43 64 44
REMARK SMILES IDX 58 45 57 46 28 48 50 49 35 50 49 51 36 52 39 53 48 54 62 55
REMARK SMILES IDX 37 56 38 57 47 59 63 60 40 61 29 62 30 63 34 64 31 65 33 66
REMARK SMILES IDX 32 67 51 68 52 69 56 70 53 71 55 72 54 73 41 74 42 75 46 76
REMARK SMILES IDX 43 77 45 78 44 79
REMARK H PARENT 7 14 75 25 61 47 39 58
REMARK Flexibility Score: inf
ROOT
ATOM      1  C   UNL A   1      38.251  20.869  25.362  1.00  0.00     0.274 C 
ENDROOT
BRANCH   1   2
ATOM      2  O   UNL A   1      36.963  20.742  24.728  1.00  0.00    -0.462 OA
BRANCH   2   3
ATOM      3  C   UNL A   1      36.418  21.875  24.195  1.00  0.00     0.310 C 
ATOM      4  O   UNL A   1      36.963  22.597  23.373  1.00  0.00    -0.252 OA
BRANCH   3   5
ATOM      5  C   UNL A   1      35.002  22.043  24.726  1.00  0.00     0.119 C 
ATOM      6  C   UNL A   1      34.114  23.040  23.947  1.00  0.00     0.100 C 
ATOM      7  C   UNL A   1      33.808  24.140  25.001  1.00  0.00     0.025 C 
ATOM      8  C   UNL A   1      34.958  22.618  26.165  1.00  0.00     0.027 C 
ATOM      9  C   UNL A   1      35.099  24.793  25.449  1.00  0.00    -0.027 C 
ATOM     10  C   UNL A   1      33.568  23.276  26.236  1.00  0.00     0.017 C 
ATOM     11  C   UNL A   1      35.771  23.892  26.182  1.00  0.00    -0.027 C 
BRANCH   6  12
ATOM     12  C   UNL A   1      32.793  22.604  23.298  1.00  0.00     0.228 C 
ATOM     13  N   UNL A   1      32.254  21.371  23.139  1.00  0.00    -0.326 N 
ATOM     14  H   UNL A   1      31.491  21.422  22.520  1.00  0.00     0.169 HD
ATOM     15  O   UNL A   1      32.137  23.504  22.739  1.00  0.00    -0.274 OA
BRANCH  13  16
ATOM     16  C   UNL A   1      32.428  20.042  23.568  1.00  0.00     0.045 A 
ATOM     17  C   UNL A   1      32.549  17.461  24.696  1.00  0.00     0.160 A 
ATOM     18  C   UNL A   1      32.476  17.611  23.319  1.00  0.00     0.052 A 
ATOM     19  C   UNL A   1      32.655  18.592  25.497  1.00  0.00     0.159 A 
ATOM     20  C   UNL A   1      32.465  18.901  22.766  1.00  0.00     0.030 A 
ATOM     21  C   UNL A   1      32.614  19.869  24.947  1.00  0.00     0.076 A 
BRANCH  17  22
ATOM     22  O   UNL A   1      32.433  16.254  25.324  1.00  0.00    -0.493 OA
ATOM     23  C   UNL A   1      33.624  15.476  25.277  1.00  0.00     0.278 C 
ENDBRANCH  17  22
BRANCH  19  24
ATOM     24  O   UNL A   1      32.791  18.462  26.850  1.00  0.00    -0.504 OA
ATOM     25  H   UNL A   1      32.378  19.077  27.424  1.00  0.00     0.293 HD
ENDBRANCH  19  24
ENDBRANCH  13  16
ENDBRANCH   6  12
ENDBRANCH   3   5
ENDBRANCH   2   3
ENDBRANCH   1   2
BRANCH   1  26
ATOM     26  C   UNL A   1      39.106  19.619  25.138  1.00  0.00     0.275 C 
BRANCH  26  27
ATOM     27  O   UNL A   1      40.016  19.425  26.237  1.00  0.00    -0.458 OA
BRANCH  27  28
ATOM     28  C   UNL A   1      41.300  19.784  26.007  1.00  0.00     0.338 C 
ATOM     29  O   UNL A   1      42.108  19.239  25.278  1.00  0.00    -0.246 OA
BRANCH  28  30
ATOM     30  C   UNL A   1      41.547  21.088  26.641  1.00  0.00     0.060 A 
ATOM     31  C   UNL A   1      41.883  22.140  25.794  1.00  0.00     0.016 A 
ATOM     32  C   UNL A   1      41.533  21.271  28.021  1.00  0.00     0.016 A 
ATOM     33  C   UNL A   1      42.208  23.390  26.307  1.00  0.00     0.010 A 
ATOM     34  C   UNL A   1      41.851  22.534  28.543  1.00  0.00     0.010 A 
ATOM     35  C   UNL A   1      42.198  23.600  27.690  1.00  0.00    -0.014 A 
BRANCH  35  36
ATOM     36  C   UNL A   1      42.626  24.916  28.227  1.00  0.00     0.031 A 
ATOM     37  C   UNL A   1      41.603  25.986  28.485  1.00  0.00     0.074 A 
ATOM     38  C   UNL A   1      43.916  25.139  28.541  1.00  0.00     0.049 A 
ATOM     39  N   UNL A   1      41.779  27.225  28.867  1.00  0.00    -0.248 NA
ATOM     40  C   UNL A   1      40.195  25.608  28.289  1.00  0.00     0.031 C 
ATOM     41  C   UNL A   1      44.999  24.162  28.422  1.00  0.00     0.029 A 
ATOM     42  N   UNL A   1      44.531  26.261  29.039  1.00  0.00    -0.354 N 
ATOM     43  C   UNL A   1      40.510  27.786  28.924  1.00  0.00     0.074 A 
ATOM     44  C   UNL A   1      39.573  26.754  28.532  1.00  0.00     0.031 C 
ATOM     45  C   UNL A   1      46.142  24.721  28.852  1.00  0.00     0.029 A 
ATOM     46  C   UNL A   1      45.885  26.111  29.218  1.00  0.00     0.049 A 
ATOM     47  H   UNL A   1      44.049  27.093  29.248  1.00  0.00     0.167 HD
ATOM     48  C   UNL A   1      40.156  29.048  29.266  1.00  0.00     0.031 A 
ATOM     49  C   UNL A   1      46.821  27.002  29.602  1.00  0.00     0.031 A 
ATOM     50  C   UNL A   1      41.081  30.071  29.673  1.00  0.00     0.049 A 
ATOM     51  C   UNL A   1      46.412  28.416  29.908  1.00  0.00     0.074 A 
ATOM     52  C   UNL A   1      40.817  31.382  30.030  1.00  0.00     0.029 A 
ATOM     53  N   UNL A   1      42.452  29.896  29.782  1.00  0.00    -0.354 N 
ATOM     54  N   UNL A   1      45.214  28.948  29.912  1.00  0.00    -0.248 NA
ATOM     55  C   UNL A   1      47.489  29.356  30.251  1.00  0.00     0.031 C 
ATOM     56  C   UNL A   1      42.034  32.013  30.312  1.00  0.00     0.029 A 
ATOM     57  C   UNL A   1      43.049  31.082  30.178  1.00  0.00     0.049 A 
ATOM     58  H   UNL A   1      42.931  29.054  29.604  1.00  0.00     0.167 HD
ATOM     59  C   UNL A   1      45.391  30.279  30.268  1.00  0.00     0.074 A 
ATOM     60  C   UNL A   1      46.809  30.469  30.492  1.00  0.00     0.031 C 
ATOM     61  C   UNL A   1      44.462  31.257  30.391  1.00  0.00     0.031 A 
BRANCH  48  62
ATOM     62  C   UNL A   1      38.701  29.406  29.158  1.00  0.00    -0.014 A 
ATOM     63  C   UNL A   1      38.145  29.870  27.957  1.00  0.00     0.009 A 
ATOM     64  C   UNL A   1      37.872  29.259  30.281  1.00  0.00     0.009 A 
ATOM     65  C   UNL A   1      36.792  30.214  27.894  1.00  0.00     0.001 A 
ATOM     66  C   UNL A   1      36.515  29.577  30.208  1.00  0.00     0.001 A 
ATOM     67  C   UNL A   1      35.979  30.063  29.017  1.00  0.00     0.000 A 
ENDBRANCH  48  62
BRANCH  49  68
ATOM     68  C   UNL A   1      48.249  26.597  29.665  1.00  0.00    -0.014 A 
ATOM     69  C   UNL A   1      49.080  26.710  28.540  1.00  0.00     0.009 A 
ATOM     70  C   UNL A   1      48.787  26.082  30.855  1.00  0.00     0.009 A 
ATOM     71  C   UNL A   1      50.413  26.298  28.602  1.00  0.00     0.001 A 
ATOM     72  C   UNL A   1      50.127  25.699  30.923  1.00  0.00     0.001 A 
ATOM     73  C   UNL A   1      50.937  25.800  29.793  1.00  0.00     0.000 A 
ENDBRANCH  49  68
BRANCH  61  74
ATOM     74  C   UNL A   1      44.949  32.616  30.807  1.00  0.00    -0.014 A 
ATOM     75  C   UNL A   1      45.065  32.961  32.162  1.00  0.00     0.009 A 
ATOM     76  C   UNL A   1      45.331  33.549  29.831  1.00  0.00     0.009 A 
ATOM     77  C   UNL A   1      45.524  34.227  32.531  1.00  0.00     0.001 A 
ATOM     78  C   UNL A   1      45.813  34.805  30.203  1.00  0.00     0.001 A 
ATOM     79  C   UNL A   1      45.901  35.146  31.552  1.00  0.00     0.000 A 
ENDBRANCH  61  74
ENDBRANCH  35  36
ENDBRANCH  28  30
ENDBRANCH  27  28
ENDBRANCH  26  27
ENDBRANCH   1  26
TORSDOF 15
ENDMDL
MODEL 3
REMARK VINA RESULT:     -11.1      4.600      9.432
REMARK SMILES COc1ccc(NC(=O)[C@@H]2[C@@H](C(=O)OCCOC(=O)c3ccc(-c4c5nc(c(-c6ccccc6)c6ccc([nH]6)c(-c6ccccc6)c6nc(c(-c7ccccc7)c7ccc4[nH]7)C=C6)C=C5)cc3)[C@H]3C=C[C@@H]2C3)cc1O
REMARK SMILES IDX 15 1 14 2 12 3 13 4 11 5 10 6 71 7 68 8 70 9 72 10 69 11
REMARK SMILES IDX 8 12 7 13 9 15 6 16 3 17 4 18 74 19 5 20 73 21 2 22 1 23
REMARK SMILES IDX 75 24 16 26 17 27 18 28 19 29 20 30 21 31 67 32 22 33 66 34
REMARK SMILES IDX 23 35 24 36 25 37 60 38 26 39 65 40 59 41 61 42 27 43 64 44
REMARK SMILES IDX 58 45 57 46 28 48 50 49 35 50 49 51 36 52 39 53 48 54 62 55
REMARK SMILES IDX 37 56 38 57 47 59 63 60 40 61 29 62 30 63 34 64 31 65 33 66
REMARK SMILES IDX 32 67 51 68 52 69 56 70 53 71 55 72 54 73 41 74 42 75 46 76
REMARK SMILES IDX 43 77 45 78 44 79
REMARK H PARENT 7 14 75 25 61 47 39 58
REMARK Flexibility Score: inf
ROOT
ATOM      1  C   UNL A   1      31.574  31.540  26.847  1.00  0.00     0.274 C 
ENDROOT
BRANCH   1   2
ATOM      2  O   UNL A   1      32.025  30.467  25.996  1.00  0.00    -0.462 OA
BRANCH   2   3
ATOM      3  C   UNL A   1      31.760  29.193  26.411  1.00  0.00     0.310 C 
ATOM      4  O   UNL A   1      31.469  28.872  27.554  1.00  0.00    -0.252 OA
BRANCH   3   5
ATOM      5  C   UNL A   1      31.804  28.260  25.210  1.00  0.00     0.119 C 
ATOM      6  C   UNL A   1      31.449  26.784  25.501  1.00  0.00     0.100 C 
ATOM      7  C   UNL A   1      32.763  26.028  25.157  1.00  0.00     0.025 C 
ATOM      8  C   UNL A   1      33.220  28.140  24.587  1.00  0.00     0.027 C 
ATOM      9  C   UNL A   1      33.881  26.509  26.057  1.00  0.00    -0.027 C 
ATOM     10  C   UNL A   1      33.178  26.769  23.888  1.00  0.00     0.017 C 
ATOM     11  C   UNL A   1      34.183  27.763  25.688  1.00  0.00    -0.027 C 
BRANCH   6  12
ATOM     12  C   UNL A   1      30.282  26.082  24.793  1.00  0.00     0.228 C 
ATOM     13  N   UNL A   1      29.280  26.588  24.034  1.00  0.00    -0.326 N 
ATOM     14  H   UNL A   1      28.596  25.896  23.887  1.00  0.00     0.169 HD
ATOM     15  O   UNL A   1      30.164  24.863  25.014  1.00  0.00    -0.274 OA
BRANCH  13  16
ATOM     16  C   UNL A   1      28.898  27.777  23.385  1.00  0.00     0.045 A 
ATOM     17  C   UNL A   1      28.321  30.041  21.806  1.00  0.00     0.160 A 
ATOM     18  C   UNL A   1      27.326  29.470  22.584  1.00  0.00     0.052 A 
ATOM     19  C   UNL A   1      29.616  29.542  21.887  1.00  0.00     0.159 A 
ATOM     20  C   UNL A   1      27.636  28.373  23.405  1.00  0.00     0.030 A 
ATOM     21  C   UNL A   1      29.913  28.436  22.677  1.00  0.00     0.076 A 
BRANCH  17  22
ATOM     22  O   UNL A   1      28.081  31.020  20.885  1.00  0.00    -0.493 OA
ATOM     23  C   UNL A   1      28.072  32.330  21.443  1.00  0.00     0.278 C 
ENDBRANCH  17  22
BRANCH  19  24
ATOM     24  O   UNL A   1      30.622  30.131  21.174  1.00  0.00    -0.504 OA
ATOM     25  H   UNL A   1      31.514  29.894  21.338  1.00  0.00     0.293 HD
ENDBRANCH  19  24
ENDBRANCH  13  16
ENDBRANCH   6  12
ENDBRANCH   3   5
ENDBRANCH   2   3
ENDBRANCH   1   2
BRANCH   1  26
ATOM     26  C   UNL A   1      32.753  32.249  27.517  1.00  0.00     0.275 C 
BRANCH  26  27
ATOM     27  O   UNL A   1      32.519  33.669  27.580  1.00  0.00    -0.458 OA
BRANCH  27  28
ATOM     28  C   UNL A   1      33.096  34.315  28.618  1.00  0.00     0.338 C 
ATOM     29  O   UNL A   1      32.594  35.148  29.350  1.00  0.00    -0.246 OA
BRANCH  28  30
ATOM     30  C   UNL A   1      34.414  33.716  28.876  1.00  0.00     0.060 A 
ATOM     31  C   UNL A   1      34.532  32.935  30.023  1.00  0.00     0.016 A 
ATOM     32  C   UNL A   1      35.526  33.964  28.075  1.00  0.00     0.016 A 
ATOM     33  C   UNL A   1      35.756  32.389  30.389  1.00  0.00     0.010 A 
ATOM     34  C   UNL A   1      36.762  33.406  28.436  1.00  0.00     0.010 A 
ATOM     35  C   UNL A   1      36.887  32.622  29.599  1.00  0.00    -0.014 A 
BRANCH  35  36
ATOM     36  C   UNL A   1      38.203  32.100  30.046  1.00  0.00     0.031 A 
ATOM     37  C   UNL A   1      38.714  30.797  29.501  1.00  0.00     0.074 A 
ATOM     38  C   UNL A   1      38.971  32.817  30.890  1.00  0.00     0.049 A 
ATOM     39  N   UNL A   1      39.791  30.129  29.827  1.00  0.00    -0.248 NA
ATOM     40  C   UNL A   1      37.905  30.163  28.450  1.00  0.00     0.031 C 
ATOM     41  C   UNL A   1      38.636  34.136  31.428  1.00  0.00     0.029 A 
ATOM     42  N   UNL A   1      40.201  32.536  31.431  1.00  0.00    -0.354 N 
ATOM     43  C   UNL A   1      39.773  28.980  29.047  1.00  0.00     0.074 A 
ATOM     44  C   UNL A   1      38.575  29.039  28.237  1.00  0.00     0.031 C 
ATOM     45  C   UNL A   1      39.644  34.558  32.208  1.00  0.00     0.029 A 
ATOM     46  C   UNL A   1      40.666  33.516  32.275  1.00  0.00     0.049 A 
ATOM     47  H   UNL A   1      40.702  31.712  31.235  1.00  0.00     0.167 HD
ATOM     48  C   UNL A   1      40.669  27.965  29.013  1.00  0.00     0.031 A 
ATOM     49  C   UNL A   1      41.773  33.557  33.042  1.00  0.00     0.031 A 
ATOM     50  C   UNL A   1      41.870  27.911  29.804  1.00  0.00     0.049 A 
ATOM     51  C   UNL A   1      42.716  32.387  33.039  1.00  0.00     0.074 A 
ATOM     52  C   UNL A   1      42.834  26.919  29.843  1.00  0.00     0.029 A 
ATOM     53  N   UNL A   1      42.273  28.896  30.693  1.00  0.00    -0.354 N 
ATOM     54  N   UNL A   1      42.664  31.283  32.333  1.00  0.00    -0.248 NA
ATOM     55  C   UNL A   1      43.866  32.462  33.952  1.00  0.00     0.031 C 
ATOM     56  C   UNL A   1      43.799  27.283  30.789  1.00  0.00     0.029 A 
ATOM     57  C   UNL A   1      43.460  28.525  31.302  1.00  0.00     0.049 A 
ATOM     58  H   UNL A   1      41.788  29.735  30.865  1.00  0.00     0.167 HD
ATOM     59  C   UNL A   1      43.777  30.540  32.706  1.00  0.00     0.074 A 
ATOM     60  C   UNL A   1      44.497  31.327  33.686  1.00  0.00     0.031 C 
ATOM     61  C   UNL A   1      44.162  29.314  32.279  1.00  0.00     0.031 A 
BRANCH  48  62
ATOM     62  C   UNL A   1      40.349  26.797  28.124  1.00  0.00    -0.014 A 
ATOM     63  C   UNL A   1      40.847  26.711  26.815  1.00  0.00     0.009 A 
ATOM     64  C   UNL A   1      39.545  25.759  28.618  1.00  0.00     0.009 A 
ATOM     65  C   UNL A   1      40.515  25.620  26.007  1.00  0.00     0.001 A 
ATOM     66  C   UNL A   1      39.237  24.658  27.816  1.00  0.00     0.001 A 
ATOM     67  C   UNL A   1      39.715  24.595  26.509  1.00  0.00     0.000 A 
ENDBRANCH  48  62
BRANCH  49  68
ATOM     68  C   UNL A   1      42.023  34.728  33.923  1.00  0.00    -0.014 A 
ATOM     69  C   UNL A   1      42.770  35.824  33.468  1.00  0.00     0.009 A 
ATOM     70  C   UNL A   1      41.521  34.746  35.233  1.00  0.00     0.009 A 
ATOM     71  C   UNL A   1      43.025  36.906  34.315  1.00  0.00     0.001 A 
ATOM     72  C   UNL A   1      41.751  35.841  36.068  1.00  0.00     0.001 A 
ATOM     73  C   UNL A   1      42.510  36.916  35.610  1.00  0.00     0.000 A 
ENDBRANCH  49  68
BRANCH  61  74
ATOM     74  C   UNL A   1      45.433  28.757  32.855  1.00  0.00    -0.014 A 
ATOM     75  C   UNL A   1      45.417  27.950  34.002  1.00  0.00     0.009 A 
ATOM     76  C   UNL A   1      46.658  29.016  32.219  1.00  0.00     0.009 A 
ATOM     77  C   UNL A   1      46.608  27.436  34.521  1.00  0.00     0.001 A 
ATOM     78  C   UNL A   1      47.844  28.481  32.725  1.00  0.00     0.001 A 
ATOM     79  C   UNL A   1      47.819  27.699  33.880  1.00  0.00     0.000 A 
ENDBRANCH  61  74
ENDBRANCH  35  36
ENDBRANCH  28  30
ENDBRANCH  27  28
ENDBRANCH  26  27
ENDBRANCH   1  26
TORSDOF 15
ENDMDL
