MODEL 1
REMARK VINA RESULT:     -11.6      0.000      0.000
REMARK SMILES CC[C@@H](C)[C@H](C(=O)OCCOC(=O)c1ccc(-c2c3nc(c(-c4ccccc4)c4ccc([nH]4)c(-c4ccccc4)c4nc(c(-c5ccccc5)c5ccc2[nH]5)C=C4)C=C3)cc1)N1C(=O)/C(=C/c2ccc3c(c2)OCO3)SC1=S
REMARK SMILES IDX 9 1 8 2 6 3 7 4 5 5 3 6 4 7 2 8 1 9 62 10 63 11 77 12 64 13
REMARK SMILES IDX 65 14 76 15 78 16 66 17 67 18 68 19 72 20 69 21 71 22 70 23
REMARK SMILES IDX 73 24 75 25 74 26 10 27 11 28 12 29 13 30 14 31 15 32 61 33
REMARK SMILES IDX 16 34 60 35 17 36 18 37 19 38 54 39 20 40 59 41 53 42 55 43
REMARK SMILES IDX 21 44 58 45 52 46 51 47 22 49 44 50 29 51 43 52 30 53 33 54
REMARK SMILES IDX 42 55 56 56 31 57 32 58 41 60 57 61 34 62 23 63 24 64 28 65
REMARK SMILES IDX 25 66 27 67 26 68 45 69 46 70 50 71 47 72 49 73 48 74 35 75
REMARK SMILES IDX 36 76 40 77 37 78 39 79 38 80
REMARK H PARENT 55 48 33 59
REMARK Flexibility Score: inf
ROOT
ATOM      1  C   UNL A   1      36.234  21.654  24.607  1.00  0.00     0.274 C 
ENDROOT
BRANCH   1   2
ATOM      2  O   UNL A   1      35.573  21.634  25.892  1.00  0.00    -0.461 OA
BRANCH   2   3
ATOM      3  C   UNL A   1      34.250  21.309  25.875  1.00  0.00     0.329 C 
ATOM      4  O   UNL A   1      33.618  20.935  26.854  1.00  0.00    -0.250 OA
BRANCH   3   5
ATOM      5  C   UNL A   1      33.661  21.344  24.443  1.00  0.00     0.204 C 
BRANCH   5   6
ATOM      6  C   UNL A   1      33.092  19.893  24.258  1.00  0.00     0.020 C 
ATOM      7  C   UNL A   1      34.114  18.824  24.649  1.00  0.00     0.010 C 
BRANCH   6   8
ATOM      8  C   UNL A   1      32.267  19.716  22.948  1.00  0.00     0.002 C 
ATOM      9  C   UNL A   1      32.306  18.361  22.266  1.00  0.00     0.004 C 
ENDBRANCH   6   8
ENDBRANCH   5   6
BRANCH   5  10
ATOM     10  N   UNL A   1      32.790  22.552  24.214  1.00  0.00    -0.278 N 
ATOM     11  C   UNL A   1      33.204  23.386  23.161  1.00  0.00     0.267 C 
ATOM     12  C   UNL A   1      31.531  22.874  24.704  1.00  0.00     0.149 C 
ATOM     13  O   UNL A   1      34.174  23.214  22.441  1.00  0.00    -0.268 OA
ATOM     14  C   UNL A   1      32.322  24.578  23.082  1.00  0.00     0.081 C 
ATOM     15  S   UNL A   1      30.803  24.148  23.725  1.00  0.00    -0.054 SA
ATOM     16  S   UNL A   1      30.618  22.351  25.993  1.00  0.00    -0.052 S 
ATOM     17  C   UNL A   1      32.744  25.817  22.781  1.00  0.00     0.029 C 
BRANCH  17  18
ATOM     18  C   UNL A   1      31.973  27.026  23.126  1.00  0.00    -0.020 A 
ATOM     19  C   UNL A   1      32.106  27.656  24.375  1.00  0.00     0.012 A 
ATOM     20  C   UNL A   1      31.078  27.561  22.180  1.00  0.00     0.058 A 
ATOM     21  C   UNL A   1      31.377  28.820  24.667  1.00  0.00     0.051 A 
ATOM     22  C   UNL A   1      30.368  28.692  22.497  1.00  0.00     0.166 A 
ATOM     23  C   UNL A   1      30.510  29.309  23.710  1.00  0.00     0.165 A 
ATOM     24  O   UNL A   1      29.486  29.320  21.678  1.00  0.00    -0.454 OA
ATOM     25  O   UNL A   1      29.715  30.408  23.818  1.00  0.00    -0.454 OA
ATOM     26  C   UNL A   1      28.992  30.343  22.565  1.00  0.00     0.468 C 
ENDBRANCH  17  18
ENDBRANCH   5  10
ENDBRANCH   3   5
ENDBRANCH   2   3
ENDBRANCH   1   2
BRANCH   1  27
ATOM     27  C   UNL A   1      37.692  21.184  24.655  1.00  0.00     0.275 C 
BRANCH  27  28
ATOM     28  O   UNL A   1      38.173  21.188  26.011  1.00  0.00    -0.458 OA
BRANCH  28  29
ATOM     29  C   UNL A   1      39.511  21.287  26.167  1.00  0.00     0.338 C 
ATOM     30  O   UNL A   1      40.367  20.514  25.774  1.00  0.00    -0.246 OA
BRANCH  29  31
ATOM     31  C   UNL A   1      39.841  22.517  26.909  1.00  0.00     0.060 A 
ATOM     32  C   UNL A   1      39.213  23.713  26.573  1.00  0.00     0.016 A 
ATOM     33  C   UNL A   1      40.902  22.523  27.813  1.00  0.00     0.016 A 
ATOM     34  C   UNL A   1      39.678  24.921  27.078  1.00  0.00     0.010 A 
ATOM     35  C   UNL A   1      41.361  23.738  28.337  1.00  0.00     0.010 A 
ATOM     36  C   UNL A   1      40.793  24.955  27.923  1.00  0.00    -0.014 A 
BRANCH  36  37
ATOM     37  C   UNL A   1      41.441  26.268  28.204  1.00  0.00     0.031 A 
ATOM     38  C   UNL A   1      42.778  26.589  27.577  1.00  0.00     0.074 A 
ATOM     39  C   UNL A   1      40.784  27.227  28.886  1.00  0.00     0.049 A 
ATOM     40  N   UNL A   1      43.535  27.649  27.732  1.00  0.00    -0.248 NA
ATOM     41  C   UNL A   1      43.334  25.590  26.648  1.00  0.00     0.031 C 
ATOM     42  C   UNL A   1      39.455  27.089  29.482  1.00  0.00     0.029 A 
ATOM     43  N   UNL A   1      41.136  28.527  29.158  1.00  0.00    -0.354 N 
ATOM     44  C   UNL A   1      44.646  27.441  26.921  1.00  0.00     0.074 A 
ATOM     45  C   UNL A   1      44.496  26.134  26.319  1.00  0.00     0.031 C 
ATOM     46  C   UNL A   1      39.088  28.266  30.014  1.00  0.00     0.029 A 
ATOM     47  C   UNL A   1      40.174  29.225  29.847  1.00  0.00     0.049 A 
ATOM     48  H   UNL A   1      41.996  28.920  28.884  1.00  0.00     0.167 HD
ATOM     49  C   UNL A   1      45.670  28.282  26.642  1.00  0.00     0.031 A 
ATOM     50  C   UNL A   1      40.173  30.489  30.311  1.00  0.00     0.031 A 
ATOM     51  C   UNL A   1      45.781  29.628  27.126  1.00  0.00     0.049 A 
ATOM     52  C   UNL A   1      41.367  31.368  30.060  1.00  0.00     0.074 A 
ATOM     53  C   UNL A   1      46.740  30.575  26.814  1.00  0.00     0.029 A 
ATOM     54  N   UNL A   1      44.882  30.233  27.986  1.00  0.00    -0.354 N 
ATOM     55  N   UNL A   1      42.457  31.110  29.379  1.00  0.00    -0.248 NA
ATOM     56  C   UNL A   1      41.328  32.716  30.646  1.00  0.00     0.031 C 
ATOM     57  C   UNL A   1      46.389  31.773  27.445  1.00  0.00     0.029 A 
ATOM     58  C   UNL A   1      45.208  31.569  28.138  1.00  0.00     0.049 A 
ATOM     59  H   UNL A   1      44.124  29.782  28.422  1.00  0.00     0.167 HD
ATOM     60  C   UNL A   1      43.222  32.268  29.439  1.00  0.00     0.074 A 
ATOM     61  C   UNL A   1      42.465  33.235  30.207  1.00  0.00     0.031 C 
ATOM     62  C   UNL A   1      44.441  32.513  28.902  1.00  0.00     0.031 A 
BRANCH  49  63
ATOM     63  C   UNL A   1      46.708  27.803  25.672  1.00  0.00    -0.014 A 
ATOM     64  C   UNL A   1      47.786  27.031  26.130  1.00  0.00     0.009 A 
ATOM     65  C   UNL A   1      46.589  28.064  24.302  1.00  0.00     0.009 A 
ATOM     66  C   UNL A   1      48.749  26.557  25.241  1.00  0.00     0.001 A 
ATOM     67  C   UNL A   1      47.543  27.571  23.409  1.00  0.00     0.001 A 
ATOM     68  C   UNL A   1      48.627  26.827  23.879  1.00  0.00     0.000 A 
ENDBRANCH  49  63
BRANCH  50  69
ATOM     69  C   UNL A   1      39.022  30.991  31.108  1.00  0.00    -0.014 A 
ATOM     70  C   UNL A   1      38.078  31.866  30.550  1.00  0.00     0.009 A 
ATOM     71  C   UNL A   1      38.887  30.618  32.455  1.00  0.00     0.009 A 
ATOM     72  C   UNL A   1      37.040  32.378  31.332  1.00  0.00     0.001 A 
ATOM     73  C   UNL A   1      37.831  31.106  33.226  1.00  0.00     0.001 A 
ATOM     74  C   UNL A   1      36.914  31.995  32.667  1.00  0.00     0.000 A 
ENDBRANCH  50  69
BRANCH  62  75
ATOM     75  C   UNL A   1      44.993  33.896  29.077  1.00  0.00    -0.014 A 
ATOM     76  C   UNL A   1      45.839  34.205  30.151  1.00  0.00     0.009 A 
ATOM     77  C   UNL A   1      44.670  34.896  28.147  1.00  0.00     0.009 A 
ATOM     78  C   UNL A   1      46.331  35.502  30.306  1.00  0.00     0.001 A 
ATOM     79  C   UNL A   1      45.182  36.187  28.292  1.00  0.00     0.001 A 
ATOM     80  C   UNL A   1      46.004  36.490  29.377  1.00  0.00     0.000 A 
ENDBRANCH  62  75
ENDBRANCH  36  37
ENDBRANCH  29  31
ENDBRANCH  28  29
ENDBRANCH  27  28
ENDBRANCH   1  27
TORSDOF 15
ENDMDL
MODEL 2
REMARK VINA RESULT:     -11.5      2.180      5.752
REMARK SMILES CC[C@@H](C)[C@H](C(=O)OCCOC(=O)c1ccc(-c2c3nc(c(-c4ccccc4)c4ccc([nH]4)c(-c4ccccc4)c4nc(c(-c5ccccc5)c5ccc2[nH]5)C=C4)C=C3)cc1)N1C(=O)/C(=C/c2ccc3c(c2)OCO3)SC1=S
REMARK SMILES IDX 9 1 8 2 6 3 7 4 5 5 3 6 4 7 2 8 1 9 62 10 63 11 77 12 64 13
REMARK SMILES IDX 65 14 76 15 78 16 66 17 67 18 68 19 72 20 69 21 71 22 70 23
REMARK SMILES IDX 73 24 75 25 74 26 10 27 11 28 12 29 13 30 14 31 15 32 61 33
REMARK SMILES IDX 16 34 60 35 17 36 18 37 19 38 54 39 20 40 59 41 53 42 55 43
REMARK SMILES IDX 21 44 58 45 52 46 51 47 22 49 44 50 29 51 43 52 30 53 33 54
REMARK SMILES IDX 42 55 56 56 31 57 32 58 41 60 57 61 34 62 23 63 24 64 28 65
REMARK SMILES IDX 25 66 27 67 26 68 45 69 46 70 50 71 47 72 49 73 48 74 35 75
REMARK SMILES IDX 36 76 40 77 37 78 39 79 38 80
REMARK H PARENT 55 48 33 59
REMARK Flexibility Score: inf
ROOT
ATOM      1  C   UNL A   1      36.719  21.786  24.818  1.00  0.00     0.274 C 
ENDROOT
BRANCH   1   2
ATOM      2  O   UNL A   1      36.066  21.896  26.103  1.00  0.00    -0.461 OA
BRANCH   2   3
ATOM      3  C   UNL A   1      34.753  21.536  26.136  1.00  0.00     0.329 C 
ATOM      4  O   UNL A   1      34.151  21.215  27.152  1.00  0.00    -0.250 OA
BRANCH   3   5
ATOM      5  C   UNL A   1      34.136  21.456  24.718  1.00  0.00     0.204 C 
BRANCH   5   6
ATOM      6  C   UNL A   1      33.622  19.976  24.638  1.00  0.00     0.020 C 
ATOM      7  C   UNL A   1      34.774  18.969  24.636  1.00  0.00     0.010 C 
BRANCH   6   8
ATOM      8  C   UNL A   1      32.442  19.785  23.638  1.00  0.00     0.002 C 
ATOM      9  C   UNL A   1      32.370  18.477  22.871  1.00  0.00     0.004 C 
ENDBRANCH   6   8
ENDBRANCH   5   6
BRANCH   5  10
ATOM     10  N   UNL A   1      33.214  22.612  24.431  1.00  0.00    -0.278 N 
ATOM     11  C   UNL A   1      33.623  23.446  23.375  1.00  0.00     0.267 C 
ATOM     12  C   UNL A   1      31.922  22.879  24.868  1.00  0.00     0.149 C 
ATOM     13  O   UNL A   1      34.627  23.310  22.694  1.00  0.00    -0.268 OA
ATOM     14  C   UNL A   1      32.685  24.589  23.238  1.00  0.00     0.081 C 
ATOM     15  S   UNL A   1      31.167  24.093  23.836  1.00  0.00    -0.054 SA
ATOM     16  S   UNL A   1      30.991  22.335  26.136  1.00  0.00    -0.052 S 
ATOM     17  C   UNL A   1      33.054  25.841  22.924  1.00  0.00     0.029 C 
BRANCH  17  18
ATOM     18  C   UNL A   1      32.210  27.016  23.215  1.00  0.00    -0.020 A 
ATOM     19  C   UNL A   1      32.272  27.683  24.450  1.00  0.00     0.012 A 
ATOM     20  C   UNL A   1      31.315  27.476  22.230  1.00  0.00     0.058 A 
ATOM     21  C   UNL A   1      31.474  28.813  24.689  1.00  0.00     0.051 A 
ATOM     22  C   UNL A   1      30.538  28.576  22.496  1.00  0.00     0.166 A 
ATOM     23  C   UNL A   1      30.611  29.230  23.695  1.00  0.00     0.165 A 
ATOM     24  O   UNL A   1      29.648  29.134  21.636  1.00  0.00    -0.454 OA
ATOM     25  O   UNL A   1      29.756  30.287  23.751  1.00  0.00    -0.454 OA
ATOM     26  C   UNL A   1      29.074  30.151  22.480  1.00  0.00     0.468 C 
ENDBRANCH  17  18
ENDBRANCH   5  10
ENDBRANCH   3   5
ENDBRANCH   2   3
ENDBRANCH   1   2
BRANCH   1  27
ATOM     27  C   UNL A   1      37.890  20.798  24.803  1.00  0.00     0.275 C 
BRANCH  27  28
ATOM     28  O   UNL A   1      38.596  20.842  26.056  1.00  0.00    -0.458 OA
BRANCH  28  29
ATOM     29  C   UNL A   1      39.857  20.358  26.045  1.00  0.00     0.338 C 
ATOM     30  O   UNL A   1      40.231  19.259  25.676  1.00  0.00    -0.246 OA
BRANCH  29  31
ATOM     31  C   UNL A   1      40.791  21.377  26.558  1.00  0.00     0.060 A 
ATOM     32  C   UNL A   1      40.827  21.653  27.922  1.00  0.00     0.016 A 
ATOM     33  C   UNL A   1      41.498  22.184  25.669  1.00  0.00     0.016 A 
ATOM     34  C   UNL A   1      41.507  22.766  28.399  1.00  0.00     0.010 A 
ATOM     35  C   UNL A   1      42.200  23.298  26.151  1.00  0.00     0.010 A 
ATOM     36  C   UNL A   1      42.156  23.635  27.514  1.00  0.00    -0.014 A 
BRANCH  36  37
ATOM     37  C   UNL A   1      42.616  24.961  28.018  1.00  0.00     0.031 A 
ATOM     38  C   UNL A   1      41.609  26.067  28.230  1.00  0.00     0.074 A 
ATOM     39  C   UNL A   1      43.888  25.139  28.425  1.00  0.00     0.049 A 
ATOM     40  N   UNL A   1      41.805  27.308  28.609  1.00  0.00    -0.248 NA
ATOM     41  C   UNL A   1      40.194  25.734  27.990  1.00  0.00     0.031 C 
ATOM     42  C   UNL A   1      44.952  24.136  28.356  1.00  0.00     0.029 A 
ATOM     43  N   UNL A   1      44.490  26.221  29.019  1.00  0.00    -0.354 N 
ATOM     44  C   UNL A   1      40.544  27.892  28.655  1.00  0.00     0.074 A 
ATOM     45  C   UNL A   1      39.595  26.894  28.212  1.00  0.00     0.031 C 
ATOM     46  C   UNL A   1      46.063  24.636  28.920  1.00  0.00     0.029 A 
ATOM     47  C   UNL A   1      45.809  26.010  29.341  1.00  0.00     0.049 A 
ATOM     48  H   UNL A   1      44.020  27.068  29.197  1.00  0.00     0.167 HD
ATOM     49  C   UNL A   1      40.188  29.124  29.089  1.00  0.00     0.031 A 
ATOM     50  C   UNL A   1      46.719  26.834  29.894  1.00  0.00     0.031 A 
ATOM     51  C   UNL A   1      41.090  30.089  29.650  1.00  0.00     0.049 A 
ATOM     52  C   UNL A   1      46.311  28.228  30.282  1.00  0.00     0.074 A 
ATOM     53  C   UNL A   1      40.794  31.324  30.199  1.00  0.00     0.029 A 
ATOM     54  N   UNL A   1      42.456  29.910  29.775  1.00  0.00    -0.354 N 
ATOM     55  N   UNL A   1      45.131  28.796  30.214  1.00  0.00    -0.248 NA
ATOM     56  C   UNL A   1      47.367  29.097  30.823  1.00  0.00     0.031 C 
ATOM     57  C   UNL A   1      41.977  31.869  30.707  1.00  0.00     0.029 A 
ATOM     58  C   UNL A   1      43.003  30.967  30.481  1.00  0.00     0.049 A 
ATOM     59  H   UNL A   1      42.963  29.145  29.418  1.00  0.00     0.167 HD
ATOM     60  C   UNL A   1      45.299  30.078  30.721  1.00  0.00     0.074 A 
ATOM     61  C   UNL A   1      46.690  30.200  31.109  1.00  0.00     0.031 C 
ATOM     62  C   UNL A   1      44.385  31.067  30.859  1.00  0.00     0.031 A 
BRANCH  49  63
ATOM     63  C   UNL A   1      38.727  29.462  29.079  1.00  0.00    -0.014 A 
ATOM     64  C   UNL A   1      38.140  29.980  27.914  1.00  0.00     0.009 A 
ATOM     65  C   UNL A   1      37.921  29.213  30.196  1.00  0.00     0.009 A 
ATOM     66  C   UNL A   1      36.779  30.279  27.878  1.00  0.00     0.001 A 
ATOM     67  C   UNL A   1      36.554  29.493  30.151  1.00  0.00     0.001 A 
ATOM     68  C   UNL A   1      35.985  30.034  28.997  1.00  0.00     0.000 A 
ENDBRANCH  49  63
BRANCH  50  69
ATOM     69  C   UNL A   1      48.125  26.383  30.070  1.00  0.00    -0.014 A 
ATOM     70  C   UNL A   1      49.066  26.520  29.038  1.00  0.00     0.009 A 
ATOM     71  C   UNL A   1      48.522  25.776  31.272  1.00  0.00     0.009 A 
ATOM     72  C   UNL A   1      50.366  26.032  29.198  1.00  0.00     0.001 A 
ATOM     73  C   UNL A   1      49.829  25.318  31.441  1.00  0.00     0.001 A 
ATOM     74  C   UNL A   1      50.747  25.437  30.400  1.00  0.00     0.000 A 
ENDBRANCH  50  69
BRANCH  62  75
ATOM     75  C   UNL A   1      44.850  32.335  31.510  1.00  0.00    -0.014 A 
ATOM     76  C   UNL A   1      45.331  33.406  30.744  1.00  0.00     0.009 A 
ATOM     77  C   UNL A   1      44.794  32.460  32.907  1.00  0.00     0.009 A 
ATOM     78  C   UNL A   1      45.774  34.572  31.369  1.00  0.00     0.001 A 
ATOM     79  C   UNL A   1      45.217  33.636  33.527  1.00  0.00     0.001 A 
ATOM     80  C   UNL A   1      45.715  34.687  32.758  1.00  0.00     0.000 A 
ENDBRANCH  62  75
ENDBRANCH  36  37
ENDBRANCH  29  31
ENDBRANCH  28  29
ENDBRANCH  27  28
ENDBRANCH   1  27
TORSDOF 15
ENDMDL
MODEL 3
REMARK VINA RESULT:     -11.5      2.204      2.864
REMARK SMILES CC[C@@H](C)[C@H](C(=O)OCCOC(=O)c1ccc(-c2c3nc(c(-c4ccccc4)c4ccc([nH]4)c(-c4ccccc4)c4nc(c(-c5ccccc5)c5ccc2[nH]5)C=C4)C=C3)cc1)N1C(=O)/C(=C/c2ccc3c(c2)OCO3)SC1=S
REMARK SMILES IDX 9 1 8 2 6 3 7 4 5 5 3 6 4 7 2 8 1 9 62 10 63 11 77 12 64 13
REMARK SMILES IDX 65 14 76 15 78 16 66 17 67 18 68 19 72 20 69 21 71 22 70 23
REMARK SMILES IDX 73 24 75 25 74 26 10 27 11 28 12 29 13 30 14 31 15 32 61 33
REMARK SMILES IDX 16 34 60 35 17 36 18 37 19 38 54 39 20 40 59 41 53 42 55 43
REMARK SMILES IDX 21 44 58 45 52 46 51 47 22 49 44 50 29 51 43 52 30 53 33 54
REMARK SMILES IDX 42 55 56 56 31 57 32 58 41 60 57 61 34 62 23 63 24 64 28 65
REMARK SMILES IDX 25 66 27 67 26 68 45 69 46 70 50 71 47 72 49 73 48 74 35 75
REMARK SMILES IDX 36 76 40 77 37 78 39 79 38 80
REMARK H PARENT 55 48 33 59
REMARK Flexibility Score: inf
ROOT
ATOM      1  C   UNL A   1      38.103  21.630  25.372  1.00  0.00     0.274 C 
ENDROOT
BRANCH   1   2
ATOM      2  O   UNL A   1      36.883  21.785  24.613  1.00  0.00    -0.461 OA
BRANCH   2   3
ATOM      3  C   UNL A   1      35.725  21.680  25.322  1.00  0.00     0.329 C 
ATOM      4  O   UNL A   1      35.670  21.496  26.531  1.00  0.00    -0.250 OA
BRANCH   3   5
ATOM      5  C   UNL A   1      34.477  21.695  24.405  1.00  0.00     0.204 C 
BRANCH   5   6
ATOM      6  C   UNL A   1      33.836  20.285  24.654  1.00  0.00     0.020 C 
ATOM      7  C   UNL A   1      34.886  19.171  24.656  1.00  0.00     0.010 C 
BRANCH   6   8
ATOM      8  C   UNL A   1      32.499  20.069  23.885  1.00  0.00     0.002 C 
ATOM      9  C   UNL A   1      32.275  18.724  23.218  1.00  0.00     0.004 C 
ENDBRANCH   6   8
ENDBRANCH   5   6
BRANCH   5  10
ATOM     10  N   UNL A   1      33.665  22.953  24.567  1.00  0.00    -0.278 N 
ATOM     11  C   UNL A   1      33.723  23.838  23.475  1.00  0.00     0.267 C 
ATOM     12  C   UNL A   1      32.694  23.298  25.498  1.00  0.00     0.149 C 
ATOM     13  O   UNL A   1      34.352  23.671  22.442  1.00  0.00    -0.268 OA
ATOM     14  C   UNL A   1      32.954  25.071  23.780  1.00  0.00     0.081 C 
ATOM     15  S   UNL A   1      31.746  24.666  24.914  1.00  0.00    -0.054 SA
ATOM     16  S   UNL A   1      32.278  22.731  27.006  1.00  0.00    -0.052 S 
ATOM     17  C   UNL A   1      33.319  26.306  23.402  1.00  0.00     0.029 C 
BRANCH  17  18
ATOM     18  C   UNL A   1      32.808  27.524  24.061  1.00  0.00    -0.020 A 
ATOM     19  C   UNL A   1      31.637  28.165  23.623  1.00  0.00     0.012 A 
ATOM     20  C   UNL A   1      33.515  28.059  25.154  1.00  0.00     0.058 A 
ATOM     21  C   UNL A   1      31.162  29.309  24.284  1.00  0.00     0.051 A 
ATOM     22  C   UNL A   1      33.035  29.185  25.774  1.00  0.00     0.166 A 
ATOM     23  C   UNL A   1      31.888  29.799  25.352  1.00  0.00     0.165 A 
ATOM     24  O   UNL A   1      33.605  29.796  26.844  1.00  0.00    -0.454 OA
ATOM     25  O   UNL A   1      31.593  30.896  26.100  1.00  0.00    -0.454 OA
ATOM     26  C   UNL A   1      32.746  30.946  26.975  1.00  0.00     0.468 C 
ENDBRANCH  17  18
ENDBRANCH   5  10
ENDBRANCH   3   5
ENDBRANCH   2   3
ENDBRANCH   1   2
BRANCH   1  27
ATOM     27  C   UNL A   1      38.720  20.230  25.272  1.00  0.00     0.275 C 
BRANCH  27  28
ATOM     28  O   UNL A   1      39.560  19.973  26.411  1.00  0.00    -0.458 OA
BRANCH  28  29
ATOM     29  C   UNL A   1      40.873  19.794  26.153  1.00  0.00     0.338 C 
ATOM     30  O   UNL A   1      41.402  18.848  25.597  1.00  0.00    -0.246 OA
BRANCH  29  31
ATOM     31  C   UNL A   1      41.645  20.950  26.645  1.00  0.00     0.060 A 
ATOM     32  C   UNL A   1      41.841  21.114  28.013  1.00  0.00     0.016 A 
ATOM     33  C   UNL A   1      42.017  21.965  25.766  1.00  0.00     0.016 A 
ATOM     34  C   UNL A   1      42.342  22.308  28.517  1.00  0.00     0.010 A 
ATOM     35  C   UNL A   1      42.540  23.164  26.271  1.00  0.00     0.010 A 
ATOM     36  C   UNL A   1      42.646  23.369  27.657  1.00  0.00    -0.014 A 
BRANCH  36  37
ATOM     37  C   UNL A   1      42.894  24.718  28.241  1.00  0.00     0.031 A 
ATOM     38  C   UNL A   1      44.312  25.164  28.511  1.00  0.00     0.074 A 
ATOM     39  C   UNL A   1      41.885  25.599  28.392  1.00  0.00     0.049 A 
ATOM     40  N   UNL A   1      44.744  26.274  29.062  1.00  0.00    -0.248 NA
ATOM     41  C   UNL A   1      45.388  24.244  28.101  1.00  0.00     0.031 C 
ATOM     42  C   UNL A   1      40.475  25.336  28.099  1.00  0.00     0.029 A 
ATOM     43  N   UNL A   1      41.901  26.911  28.796  1.00  0.00    -0.354 N 
ATOM     44  C   UNL A   1      46.132  26.181  29.058  1.00  0.00     0.074 A 
ATOM     45  C   UNL A   1      46.472  24.889  28.506  1.00  0.00     0.031 C 
ATOM     46  C   UNL A   1      39.770  26.462  28.294  1.00  0.00     0.029 A 
ATOM     47  C   UNL A   1      40.664  27.508  28.778  1.00  0.00     0.049 A 
ATOM     48  H   UNL A   1      42.722  27.380  29.071  1.00  0.00     0.167 HD
ATOM     49  C   UNL A   1      47.051  27.109  29.417  1.00  0.00     0.031 A 
ATOM     50  C   UNL A   1      40.286  28.751  29.131  1.00  0.00     0.031 A 
ATOM     51  C   UNL A   1      46.745  28.442  29.852  1.00  0.00     0.049 A 
ATOM     52  C   UNL A   1      41.322  29.729  29.612  1.00  0.00     0.074 A 
ATOM     53  C   UNL A   1      47.621  29.471  30.144  1.00  0.00     0.029 A 
ATOM     54  N   UNL A   1      45.466  28.944  30.011  1.00  0.00    -0.354 N 
ATOM     55  N   UNL A   1      42.621  29.581  29.703  1.00  0.00    -0.248 NA
ATOM     56  C   UNL A   1      40.835  31.049  30.041  1.00  0.00     0.031 C 
ATOM     57  C   UNL A   1      46.869  30.616  30.428  1.00  0.00     0.029 A 
ATOM     58  C   UNL A   1      45.528  30.296  30.302  1.00  0.00     0.049 A 
ATOM     59  H   UNL A   1      44.637  28.420  29.928  1.00  0.00     0.167 HD
ATOM     60  C   UNL A   1      43.107  30.791  30.180  1.00  0.00     0.074 A 
ATOM     61  C   UNL A   1      41.966  31.670  30.342  1.00  0.00     0.031 C 
ATOM     62  C   UNL A   1      44.384  31.150  30.455  1.00  0.00     0.031 A 
BRANCH  49  63
ATOM     63  C   UNL A   1      48.496  26.746  29.248  1.00  0.00    -0.014 A 
ATOM     64  C   UNL A   1      49.184  26.118  30.297  1.00  0.00     0.009 A 
ATOM     65  C   UNL A   1      49.158  26.972  28.035  1.00  0.00     0.009 A 
ATOM     66  C   UNL A   1      50.522  25.753  30.150  1.00  0.00     0.001 A 
ATOM     67  C   UNL A   1      50.492  26.587  27.883  1.00  0.00     0.001 A 
ATOM     68  C   UNL A   1      51.175  25.986  28.942  1.00  0.00     0.000 A 
ENDBRANCH  49  63
BRANCH  50  69
ATOM     69  C   UNL A   1      38.849  29.134  29.094  1.00  0.00    -0.014 A 
ATOM     70  C   UNL A   1      38.276  29.697  27.944  1.00  0.00     0.009 A 
ATOM     71  C   UNL A   1      38.049  28.966  30.236  1.00  0.00     0.009 A 
ATOM     72  C   UNL A   1      36.941  30.109  27.949  1.00  0.00     0.001 A 
ATOM     73  C   UNL A   1      36.707  29.350  30.228  1.00  0.00     0.001 A 
ATOM     74  C   UNL A   1      36.157  29.932  29.088  1.00  0.00     0.000 A 
ENDBRANCH  50  69
BRANCH  62  75
ATOM     75  C   UNL A   1      44.611  32.565  30.896  1.00  0.00    -0.014 A 
ATOM     76  C   UNL A   1      44.647  32.900  32.256  1.00  0.00     0.009 A 
ATOM     77  C   UNL A   1      44.803  33.569  29.935  1.00  0.00     0.009 A 
ATOM     78  C   UNL A   1      44.844  34.225  32.647  1.00  0.00     0.001 A 
ATOM     79  C   UNL A   1      45.023  34.890  30.330  1.00  0.00     0.001 A 
ATOM     80  C   UNL A   1      45.034  35.217  31.685  1.00  0.00     0.000 A 
ENDBRANCH  62  75
ENDBRANCH  36  37
ENDBRANCH  29  31
ENDBRANCH  28  29
ENDBRANCH  27  28
ENDBRANCH   1  27
TORSDOF 15
ENDMDL
