MODEL 1
REMARK VINA RESULT:     -12.1      0.000      0.000
REMARK SMILES CC(=O)Nc1cc(NC(C)=O)cc(C(=O)Nc2ccc(Br)cc2C(=O)OCCOC(=O)c2ccc(-c3c4nc(c(-c5ccccc5)c5ccc([nH]5)c(-c5ccccc5)c5nc(c(-c6ccccc6)c6ccc3[nH]6)C=C5)C=C4)cc2)c1
REMARK SMILES IDX 27 1 26 2 24 3 25 4 23 5 17 6 18 7 19 8 22 9 20 10 21 11
REMARK SMILES IDX 16 12 14 13 15 14 13 16 5 17 6 18 80 19 7 20 12 21 4 22 1 23
REMARK SMILES IDX 2 24 3 25 8 27 9 28 10 30 11 31 28 32 29 33 30 34 31 35
REMARK SMILES IDX 32 36 33 37 79 38 34 39 78 40 35 41 36 42 37 43 72 44 38 45
REMARK SMILES IDX 77 46 71 47 73 48 39 49 76 50 70 51 69 52 40 54 62 55 47 56
REMARK SMILES IDX 61 57 48 58 51 59 60 60 74 61 49 62 50 63 59 65 75 66 52 67
REMARK SMILES IDX 41 68 42 69 46 70 43 71 45 72 44 73 63 74 64 75 68 76 65 77
REMARK SMILES IDX 67 78 66 79 53 80 54 81 58 82 55 83 57 84 56 85
REMARK H PARENT 16 15 4 26 8 29 73 53 51 64
REMARK Flexibility Score: inf
ROOT
ATOM      1  C   UNL A   1      33.268  29.858  27.191  1.00  0.00     0.275 C 
ENDROOT
BRANCH   1   2
ATOM      2  O   UNL A   1      31.867  29.542  27.036  1.00  0.00    -0.458 OA
BRANCH   2   3
ATOM      3  C   UNL A   1      31.604  28.216  27.019  1.00  0.00     0.340 C 
ATOM      4  O   UNL A   1      31.795  27.450  27.947  1.00  0.00    -0.246 OA
BRANCH   3   5
ATOM      5  C   UNL A   1      31.071  27.741  25.729  1.00  0.00     0.084 A 
ATOM      6  C   UNL A   1      30.615  26.433  25.510  1.00  0.00     0.056 A 
ATOM      7  C   UNL A   1      30.156  26.089  24.225  1.00  0.00     0.028 A 
ATOM      8  C   UNL A   1      30.005  27.057  23.225  1.00  0.00     0.018 A 
ATOM      9  C   UNL A   1      30.938  28.702  24.709  1.00  0.00     0.033 A 
ATOM     10  C   UNL A   1      30.374  28.369  23.483  1.00  0.00     0.018 A 
ATOM     11  Br  UNL A   1      30.066  29.717  22.195  1.00  0.00    -0.051 Br
BRANCH   6  12
ATOM     12  N   UNL A   1      30.508  25.414  26.481  1.00  0.00    -0.321 N 
ATOM     13  C   UNL A   1      30.854  24.075  26.470  1.00  0.00     0.255 C 
ATOM     14  O   UNL A   1      30.385  23.334  27.334  1.00  0.00    -0.269 OA
ATOM     15  H   UNL A   1      30.110  25.714  27.330  1.00  0.00     0.170 HD
BRANCH  13  16
ATOM     16  C   UNL A   1      31.837  23.503  25.502  1.00  0.00     0.044 A 
ATOM     17  C   UNL A   1      32.458  21.817  23.888  1.00  0.00     0.044 A 
ATOM     18  C   UNL A   1      33.800  22.198  24.042  1.00  0.00     0.052 A 
ATOM     19  C   UNL A   1      31.471  22.546  24.547  1.00  0.00     0.040 A 
ATOM     20  C   UNL A   1      34.174  23.253  24.877  1.00  0.00     0.044 A 
ATOM     21  C   UNL A   1      33.180  23.897  25.619  1.00  0.00     0.040 A 
BRANCH  17  22
ATOM     22  N   UNL A   1      32.241  20.583  23.242  1.00  0.00    -0.326 N 
ATOM     23  C   UNL A   1      32.653  18.880  25.010  1.00  0.00     0.114 C 
ATOM     24  C   UNL A   1      32.512  19.292  23.575  1.00  0.00     0.221 C 
ATOM     25  O   UNL A   1      32.601  18.455  22.674  1.00  0.00    -0.275 OA
ATOM     26  H   UNL A   1      31.801  20.676  22.366  1.00  0.00     0.169 HD
ENDBRANCH  17  22
BRANCH  20  27
ATOM     27  N   UNL A   1      35.512  23.671  25.057  1.00  0.00    -0.326 N 
ATOM     28  C   UNL A   1      36.527  22.968  25.686  1.00  0.00     0.221 C 
ATOM     29  H   UNL A   1      35.748  24.557  24.700  1.00  0.00     0.169 HD
ATOM     30  C   UNL A   1      37.857  23.680  25.662  1.00  0.00     0.114 C 
ATOM     31  O   UNL A   1      36.436  21.868  26.221  1.00  0.00    -0.275 OA
ENDBRANCH  20  27
ENDBRANCH  13  16
ENDBRANCH   6  12
ENDBRANCH   3   5
ENDBRANCH   2   3
ENDBRANCH   1   2
BRANCH   1  32
ATOM     32  C   UNL A   1      33.530  31.308  27.607  1.00  0.00     0.275 C 
BRANCH  32  33
ATOM     33  O   UNL A   1      34.934  31.593  27.755  1.00  0.00    -0.458 OA
BRANCH  33  34
ATOM     34  C   UNL A   1      35.437  31.299  28.972  1.00  0.00     0.338 C 
ATOM     35  O   UNL A   1      35.044  31.707  30.055  1.00  0.00    -0.246 OA
BRANCH  34  36
ATOM     36  C   UNL A   1      36.539  30.332  28.877  1.00  0.00     0.060 A 
ATOM     37  C   UNL A   1      37.108  29.848  30.053  1.00  0.00     0.016 A 
ATOM     38  C   UNL A   1      37.175  30.127  27.657  1.00  0.00     0.016 A 
ATOM     39  C   UNL A   1      38.378  29.302  30.052  1.00  0.00     0.010 A 
ATOM     40  C   UNL A   1      38.403  29.463  27.639  1.00  0.00     0.010 A 
ATOM     41  C   UNL A   1      39.038  29.096  28.842  1.00  0.00    -0.014 A 
BRANCH  41  42
ATOM     42  C   UNL A   1      40.416  28.559  28.836  1.00  0.00     0.031 A 
ATOM     43  C   UNL A   1      41.564  29.493  29.087  1.00  0.00     0.074 A 
ATOM     44  C   UNL A   1      40.633  27.250  28.611  1.00  0.00     0.049 A 
ATOM     45  N   UNL A   1      42.838  29.317  28.860  1.00  0.00    -0.248 NA
ATOM     46  C   UNL A   1      41.228  30.815  29.646  1.00  0.00     0.031 C 
ATOM     47  C   UNL A   1      39.597  26.224  28.463  1.00  0.00     0.029 A 
ATOM     48  N   UNL A   1      41.806  26.560  28.454  1.00  0.00    -0.354 N 
ATOM     49  C   UNL A   1      43.446  30.524  29.180  1.00  0.00     0.074 A 
ATOM     50  C   UNL A   1      42.403  31.427  29.613  1.00  0.00     0.031 C 
ATOM     51  C   UNL A   1      40.180  25.036  28.247  1.00  0.00     0.029 A 
ATOM     52  C   UNL A   1      41.617  25.238  28.136  1.00  0.00     0.049 A 
ATOM     53  H   UNL A   1      42.695  26.970  28.561  1.00  0.00     0.167 HD
ATOM     54  C   UNL A   1      44.758  30.844  29.101  1.00  0.00     0.031 A 
ATOM     55  C   UNL A   1      42.498  24.306  27.728  1.00  0.00     0.031 A 
ATOM     56  C   UNL A   1      45.777  29.912  28.696  1.00  0.00     0.049 A 
ATOM     57  C   UNL A   1      43.937  24.705  27.575  1.00  0.00     0.074 A 
ATOM     58  C   UNL A   1      47.140  30.117  28.579  1.00  0.00     0.029 A 
ATOM     59  N   UNL A   1      45.539  28.588  28.353  1.00  0.00    -0.354 N 
ATOM     60  N   UNL A   1      44.502  25.865  27.807  1.00  0.00    -0.248 NA
ATOM     61  C   UNL A   1      44.858  23.668  27.093  1.00  0.00     0.031 C 
ATOM     62  C   UNL A   1      47.718  28.933  28.113  1.00  0.00     0.029 A 
ATOM     63  C   UNL A   1      46.726  27.970  28.008  1.00  0.00     0.049 A 
ATOM     64  H   UNL A   1      44.655  28.154  28.356  1.00  0.00     0.167 HD
ATOM     65  C   UNL A   1      45.850  25.691  27.535  1.00  0.00     0.074 A 
ATOM     66  C   UNL A   1      46.017  24.309  27.127  1.00  0.00     0.031 C 
ATOM     67  C   UNL A   1      46.862  26.590  27.618  1.00  0.00     0.031 A 
BRANCH  54  68
ATOM     68  C   UNL A   1      45.151  32.265  29.397  1.00  0.00    -0.014 A 
ATOM     69  C   UNL A   1      45.543  32.678  30.680  1.00  0.00     0.009 A 
ATOM     70  C   UNL A   1      45.145  33.210  28.357  1.00  0.00     0.009 A 
ATOM     71  C   UNL A   1      45.881  34.012  30.922  1.00  0.00     0.001 A 
ATOM     72  C   UNL A   1      45.514  34.535  28.594  1.00  0.00     0.001 A 
ATOM     73  C   UNL A   1      45.872  34.937  29.880  1.00  0.00     0.000 A 
ENDBRANCH  54  68
BRANCH  55  74
ATOM     74  C   UNL A   1      42.028  22.940  27.381  1.00  0.00    -0.014 A 
ATOM     75  C   UNL A   1      41.574  22.649  26.087  1.00  0.00     0.009 A 
ATOM     76  C   UNL A   1      42.044  21.913  28.340  1.00  0.00     0.009 A 
ATOM     77  C   UNL A   1      41.123  21.365  25.767  1.00  0.00     0.001 A 
ATOM     78  C   UNL A   1      41.627  20.623  28.009  1.00  0.00     0.001 A 
ATOM     79  C   UNL A   1      41.157  20.352  26.726  1.00  0.00     0.000 A 
ENDBRANCH  55  74
BRANCH  67  80
ATOM     80  C   UNL A   1      48.246  26.086  27.326  1.00  0.00    -0.014 A 
ATOM     81  C   UNL A   1      48.807  26.178  26.045  1.00  0.00     0.009 A 
ATOM     82  C   UNL A   1      49.015  25.555  28.374  1.00  0.00     0.009 A 
ATOM     83  C   UNL A   1      50.106  25.719  25.813  1.00  0.00     0.001 A 
ATOM     84  C   UNL A   1      50.323  25.128  28.146  1.00  0.00     0.001 A 
ATOM     85  C   UNL A   1      50.863  25.203  26.864  1.00  0.00     0.000 A 
ENDBRANCH  67  80
ENDBRANCH  41  42
ENDBRANCH  34  36
ENDBRANCH  33  34
ENDBRANCH  32  33
ENDBRANCH   1  32
TORSDOF 15
ENDMDL
MODEL 2
REMARK VINA RESULT:     -11.9      1.475      2.310
REMARK SMILES CC(=O)Nc1cc(NC(C)=O)cc(C(=O)Nc2ccc(Br)cc2C(=O)OCCOC(=O)c2ccc(-c3c4nc(c(-c5ccccc5)c5ccc([nH]5)c(-c5ccccc5)c5nc(c(-c6ccccc6)c6ccc3[nH]6)C=C5)C=C4)cc2)c1
REMARK SMILES IDX 27 1 26 2 24 3 25 4 23 5 17 6 18 7 19 8 22 9 20 10 21 11
REMARK SMILES IDX 16 12 14 13 15 14 13 16 5 17 6 18 80 19 7 20 12 21 4 22 1 23
REMARK SMILES IDX 2 24 3 25 8 27 9 28 10 30 11 31 28 32 29 33 30 34 31 35
REMARK SMILES IDX 32 36 33 37 79 38 34 39 78 40 35 41 36 42 37 43 72 44 38 45
REMARK SMILES IDX 77 46 71 47 73 48 39 49 76 50 70 51 69 52 40 54 62 55 47 56
REMARK SMILES IDX 61 57 48 58 51 59 60 60 74 61 49 62 50 63 59 65 75 66 52 67
REMARK SMILES IDX 41 68 42 69 46 70 43 71 45 72 44 73 63 74 64 75 68 76 65 77
REMARK SMILES IDX 67 78 66 79 53 80 54 81 58 82 55 83 57 84 56 85
REMARK H PARENT 16 15 4 26 8 29 73 53 51 64
REMARK Flexibility Score: inf
ROOT
ATOM      1  C   UNL A   1      33.626  29.224  26.872  1.00  0.00     0.275 C 
ENDROOT
BRANCH   1   2
ATOM      2  O   UNL A   1      32.451  28.423  26.620  1.00  0.00    -0.458 OA
BRANCH   2   3
ATOM      3  C   UNL A   1      32.494  27.741  25.454  1.00  0.00     0.340 C 
ATOM      4  O   UNL A   1      33.510  27.379  24.888  1.00  0.00    -0.246 OA
BRANCH   3   5
ATOM      5  C   UNL A   1      31.161  27.481  24.879  1.00  0.00     0.084 A 
ATOM      6  C   UNL A   1      30.338  26.417  25.275  1.00  0.00     0.056 A 
ATOM      7  C   UNL A   1      29.097  26.253  24.632  1.00  0.00     0.028 A 
ATOM      8  C   UNL A   1      28.616  27.210  23.730  1.00  0.00     0.018 A 
ATOM      9  C   UNL A   1      30.678  28.423  23.952  1.00  0.00     0.033 A 
ATOM     10  C   UNL A   1      29.402  28.307  23.413  1.00  0.00     0.018 A 
ATOM     11  Br  UNL A   1      28.728  29.674  22.296  1.00  0.00    -0.051 Br
BRANCH   6  12
ATOM     12  N   UNL A   1      30.599  25.504  26.320  1.00  0.00    -0.321 N 
ATOM     13  C   UNL A   1      31.371  24.358  26.386  1.00  0.00     0.255 C 
ATOM     14  O   UNL A   1      31.197  23.579  27.323  1.00  0.00    -0.269 OA
ATOM     15  H   UNL A   1      30.144  25.726  27.164  1.00  0.00     0.170 HD
BRANCH  13  16
ATOM     16  C   UNL A   1      32.465  24.064  25.413  1.00  0.00     0.044 A 
ATOM     17  C   UNL A   1      34.811  23.788  24.909  1.00  0.00     0.044 A 
ATOM     18  C   UNL A   1      34.514  23.952  23.547  1.00  0.00     0.052 A 
ATOM     19  C   UNL A   1      33.764  23.743  25.827  1.00  0.00     0.040 A 
ATOM     20  C   UNL A   1      33.204  24.123  23.097  1.00  0.00     0.044 A 
ATOM     21  C   UNL A   1      32.178  24.191  24.044  1.00  0.00     0.040 A 
BRANCH  17  22
ATOM     22  N   UNL A   1      36.172  23.899  25.257  1.00  0.00    -0.326 N 
ATOM     23  C   UNL A   1      37.182  21.757  24.490  1.00  0.00     0.114 C 
ATOM     24  C   UNL A   1      37.199  23.007  25.317  1.00  0.00     0.221 C 
ATOM     25  O   UNL A   1      38.165  23.266  26.038  1.00  0.00    -0.275 OA
ATOM     26  H   UNL A   1      36.436  24.813  25.510  1.00  0.00     0.169 HD
ENDBRANCH  17  22
BRANCH  20  27
ATOM     27  N   UNL A   1      32.860  24.288  21.735  1.00  0.00    -0.326 N 
ATOM     28  C   UNL A   1      32.923  25.458  20.995  1.00  0.00     0.221 C 
ATOM     29  H   UNL A   1      32.541  23.485  21.262  1.00  0.00     0.169 HD
ATOM     30  C   UNL A   1      32.533  25.277  19.549  1.00  0.00     0.114 C 
ATOM     31  O   UNL A   1      33.264  26.565  21.400  1.00  0.00    -0.275 OA
ENDBRANCH  20  27
ENDBRANCH  13  16
ENDBRANCH   6  12
ENDBRANCH   3   5
ENDBRANCH   2   3
ENDBRANCH   1   2
BRANCH   1  32
ATOM     32  C   UNL A   1      33.333  30.528  27.620  1.00  0.00     0.275 C 
BRANCH  32  33
ATOM     33  O   UNL A   1      34.477  31.404  27.668  1.00  0.00    -0.458 OA
BRANCH  33  34
ATOM     34  C   UNL A   1      35.162  31.361  28.830  1.00  0.00     0.338 C 
ATOM     35  O   UNL A   1      34.915  31.971  29.859  1.00  0.00    -0.246 OA
BRANCH  34  36
ATOM     36  C   UNL A   1      36.275  30.405  28.760  1.00  0.00     0.060 A 
ATOM     37  C   UNL A   1      36.692  29.777  29.932  1.00  0.00     0.016 A 
ATOM     38  C   UNL A   1      37.065  30.346  27.617  1.00  0.00     0.016 A 
ATOM     39  C   UNL A   1      37.957  29.227  30.028  1.00  0.00     0.010 A 
ATOM     40  C   UNL A   1      38.290  29.680  27.676  1.00  0.00     0.010 A 
ATOM     41  C   UNL A   1      38.768  29.165  28.897  1.00  0.00    -0.014 A 
BRANCH  41  42
ATOM     42  C   UNL A   1      40.141  28.623  29.003  1.00  0.00     0.031 A 
ATOM     43  C   UNL A   1      41.260  29.542  29.394  1.00  0.00     0.074 A 
ATOM     44  C   UNL A   1      40.377  27.321  28.753  1.00  0.00     0.049 A 
ATOM     45  N   UNL A   1      42.550  29.369  29.284  1.00  0.00    -0.248 NA
ATOM     46  C   UNL A   1      40.873  30.845  29.966  1.00  0.00     0.031 C 
ATOM     47  C   UNL A   1      39.359  26.305  28.471  1.00  0.00     0.029 A 
ATOM     48  N   UNL A   1      41.559  26.633  28.684  1.00  0.00    -0.354 N 
ATOM     49  C   UNL A   1      43.126  30.562  29.703  1.00  0.00     0.074 A 
ATOM     50  C   UNL A   1      42.047  31.453  30.067  1.00  0.00     0.031 C 
ATOM     51  C   UNL A   1      39.960  25.124  28.269  1.00  0.00     0.029 A 
ATOM     52  C   UNL A   1      41.401  25.323  28.302  1.00  0.00     0.049 A 
ATOM     53  H   UNL A   1      42.434  27.035  28.889  1.00  0.00     0.167 HD
ATOM     54  C   UNL A   1      44.440  30.879  29.761  1.00  0.00     0.031 A 
ATOM     55  C   UNL A   1      42.316  24.403  27.947  1.00  0.00     0.031 A 
ATOM     56  C   UNL A   1      45.492  29.958  29.421  1.00  0.00     0.049 A 
ATOM     57  C   UNL A   1      43.763  24.801  27.946  1.00  0.00     0.074 A 
ATOM     58  C   UNL A   1      46.860  30.162  29.441  1.00  0.00     0.029 A 
ATOM     59  N   UNL A   1      45.286  28.648  29.010  1.00  0.00    -0.354 N 
ATOM     60  N   UNL A   1      44.304  25.950  28.272  1.00  0.00    -0.248 NA
ATOM     61  C   UNL A   1      44.725  23.778  27.518  1.00  0.00     0.031 C 
ATOM     62  C   UNL A   1      47.479  28.992  28.991  1.00  0.00     0.029 A 
ATOM     63  C   UNL A   1      46.500  28.037  28.757  1.00  0.00     0.049 A 
ATOM     64  H   UNL A   1      44.406  28.218  28.914  1.00  0.00     0.167 HD
ATOM     65  C   UNL A   1      45.672  25.780  28.123  1.00  0.00     0.074 A 
ATOM     66  C   UNL A   1      45.876  24.413  27.684  1.00  0.00     0.031 C 
ATOM     67  C   UNL A   1      46.672  26.671  28.333  1.00  0.00     0.031 A 
BRANCH  54  68
ATOM     68  C   UNL A   1      44.803  32.287  30.142  1.00  0.00    -0.014 A 
ATOM     69  C   UNL A   1      45.072  32.652  31.471  1.00  0.00     0.009 A 
ATOM     70  C   UNL A   1      44.896  33.269  29.141  1.00  0.00     0.009 A 
ATOM     71  C   UNL A   1      45.387  33.976  31.791  1.00  0.00     0.001 A 
ATOM     72  C   UNL A   1      45.242  34.583  29.459  1.00  0.00     0.001 A 
ATOM     73  C   UNL A   1      45.477  34.938  30.786  1.00  0.00     0.000 A 
ENDBRANCH  54  68
BRANCH  55  74
ATOM     74  C   UNL A   1      41.880  23.052  27.509  1.00  0.00    -0.014 A 
ATOM     75  C   UNL A   1      41.676  22.774  26.150  1.00  0.00     0.009 A 
ATOM     76  C   UNL A   1      41.677  22.026  28.448  1.00  0.00     0.009 A 
ATOM     77  C   UNL A   1      41.256  21.505  25.742  1.00  0.00     0.001 A 
ATOM     78  C   UNL A   1      41.294  20.749  28.035  1.00  0.00     0.001 A 
ATOM     79  C   UNL A   1      41.073  20.492  26.684  1.00  0.00     0.000 A 
ENDBRANCH  55  74
BRANCH  67  80
ATOM     80  C   UNL A   1      48.077  26.172  28.157  1.00  0.00    -0.014 A 
ATOM     81  C   UNL A   1      48.720  26.210  26.911  1.00  0.00     0.009 A 
ATOM     82  C   UNL A   1      48.781  25.703  29.277  1.00  0.00     0.009 A 
ATOM     83  C   UNL A   1      50.035  25.758  26.787  1.00  0.00     0.001 A 
ATOM     84  C   UNL A   1      50.105  25.283  29.155  1.00  0.00     0.001 A 
ATOM     85  C   UNL A   1      50.727  25.303  27.908  1.00  0.00     0.000 A 
ENDBRANCH  67  80
ENDBRANCH  41  42
ENDBRANCH  34  36
ENDBRANCH  33  34
ENDBRANCH  32  33
ENDBRANCH   1  32
TORSDOF 15
ENDMDL
MODEL 3
REMARK VINA RESULT:     -11.9      1.329      2.122
REMARK SMILES CC(=O)Nc1cc(NC(C)=O)cc(C(=O)Nc2ccc(Br)cc2C(=O)OCCOC(=O)c2ccc(-c3c4nc(c(-c5ccccc5)c5ccc([nH]5)c(-c5ccccc5)c5nc(c(-c6ccccc6)c6ccc3[nH]6)C=C5)C=C4)cc2)c1
REMARK SMILES IDX 27 1 26 2 24 3 25 4 23 5 17 6 18 7 19 8 22 9 20 10 21 11
REMARK SMILES IDX 16 12 14 13 15 14 13 16 5 17 6 18 80 19 7 20 12 21 4 22 1 23
REMARK SMILES IDX 2 24 3 25 8 27 9 28 10 30 11 31 28 32 29 33 30 34 31 35
REMARK SMILES IDX 32 36 33 37 79 38 34 39 78 40 35 41 36 42 37 43 72 44 38 45
REMARK SMILES IDX 77 46 71 47 73 48 39 49 76 50 70 51 69 52 40 54 62 55 47 56
REMARK SMILES IDX 61 57 48 58 51 59 60 60 74 61 49 62 50 63 59 65 75 66 52 67
REMARK SMILES IDX 41 68 42 69 46 70 43 71 45 72 44 73 63 74 64 75 68 76 65 77
REMARK SMILES IDX 67 78 66 79 53 80 54 81 58 82 55 83 57 84 56 85
REMARK H PARENT 16 15 4 26 8 29 73 53 51 64
REMARK Flexibility Score: inf
ROOT
ATOM      1  C   UNL A   1      33.373  29.593  27.191  1.00  0.00     0.275 C 
ENDROOT
BRANCH   1   2
ATOM      2  O   UNL A   1      32.125  29.167  26.602  1.00  0.00    -0.458 OA
BRANCH   2   3
ATOM      3  C   UNL A   1      32.130  27.884  26.177  1.00  0.00     0.340 C 
ATOM      4  O   UNL A   1      32.937  27.035  26.511  1.00  0.00    -0.246 OA
BRANCH   3   5
ATOM      5  C   UNL A   1      31.054  27.583  25.213  1.00  0.00     0.084 A 
ATOM      6  C   UNL A   1      30.244  26.441  25.286  1.00  0.00     0.056 A 
ATOM      7  C   UNL A   1      29.269  26.247  24.290  1.00  0.00     0.028 A 
ATOM      8  C   UNL A   1      28.998  27.236  23.337  1.00  0.00     0.018 A 
ATOM      9  C   UNL A   1      30.792  28.560  24.235  1.00  0.00     0.033 A 
ATOM     10  C   UNL A   1      29.748  28.403  23.331  1.00  0.00     0.018 A 
ATOM     11  Br  UNL A   1      29.322  29.804  22.136  1.00  0.00    -0.051 Br
BRANCH   6  12
ATOM     12  N   UNL A   1      30.259  25.470  26.310  1.00  0.00    -0.321 N 
ATOM     13  C   UNL A   1      30.614  24.134  26.324  1.00  0.00     0.255 C 
ATOM     14  O   UNL A   1      30.256  23.434  27.272  1.00  0.00    -0.269 OA
ATOM     15  H   UNL A   1      29.959  25.811  27.184  1.00  0.00     0.170 HD
BRANCH  13  16
ATOM     16  C   UNL A   1      31.484  23.519  25.278  1.00  0.00     0.044 A 
ATOM     17  C   UNL A   1      32.593  23.633  23.135  1.00  0.00     0.044 A 
ATOM     18  C   UNL A   1      32.725  22.236  23.155  1.00  0.00     0.052 A 
ATOM     19  C   UNL A   1      32.063  24.276  24.250  1.00  0.00     0.040 A 
ATOM     20  C   UNL A   1      32.290  21.472  24.240  1.00  0.00     0.044 A 
ATOM     21  C   UNL A   1      31.655  22.125  25.300  1.00  0.00     0.040 A 
BRANCH  17  22
ATOM     22  N   UNL A   1      32.815  24.251  21.888  1.00  0.00    -0.326 N 
ATOM     23  C   UNL A   1      33.416  26.598  22.461  1.00  0.00     0.114 C 
ATOM     24  C   UNL A   1      32.952  25.548  21.497  1.00  0.00     0.221 C 
ATOM     25  O   UNL A   1      32.722  25.838  20.321  1.00  0.00    -0.275 OA
ATOM     26  H   UNL A   1      32.887  23.611  21.144  1.00  0.00     0.169 HD
ENDBRANCH  17  22
BRANCH  20  27
ATOM     27  N   UNL A   1      32.407  20.064  24.303  1.00  0.00    -0.326 N 
ATOM     28  C   UNL A   1      33.548  19.335  24.596  1.00  0.00     0.221 C 
ATOM     29  H   UNL A   1      31.590  19.547  24.117  1.00  0.00     0.169 HD
ATOM     30  C   UNL A   1      33.316  17.845  24.631  1.00  0.00     0.114 C 
ATOM     31  O   UNL A   1      34.667  19.782  24.827  1.00  0.00    -0.275 OA
ENDBRANCH  20  27
ENDBRANCH  13  16
ENDBRANCH   6  12
ENDBRANCH   3   5
ENDBRANCH   2   3
ENDBRANCH   1   2
BRANCH   1  32
ATOM     32  C   UNL A   1      33.387  31.067  27.607  1.00  0.00     0.275 C 
BRANCH  32  33
ATOM     33  O   UNL A   1      34.723  31.595  27.716  1.00  0.00    -0.458 OA
BRANCH  33  34
ATOM     34  C   UNL A   1      35.310  31.380  28.912  1.00  0.00     0.338 C 
ATOM     35  O   UNL A   1      34.987  31.852  29.992  1.00  0.00    -0.246 OA
BRANCH  34  36
ATOM     36  C   UNL A   1      36.414  30.417  28.801  1.00  0.00     0.060 A 
ATOM     37  C   UNL A   1      36.845  29.758  29.951  1.00  0.00     0.016 A 
ATOM     38  C   UNL A   1      37.183  30.378  27.643  1.00  0.00     0.016 A 
ATOM     39  C   UNL A   1      38.107  29.195  30.012  1.00  0.00     0.010 A 
ATOM     40  C   UNL A   1      38.404  29.701  27.666  1.00  0.00     0.010 A 
ATOM     41  C   UNL A   1      38.898  29.153  28.866  1.00  0.00    -0.014 A 
BRANCH  41  42
ATOM     42  C   UNL A   1      40.267  28.598  28.936  1.00  0.00     0.031 A 
ATOM     43  C   UNL A   1      41.408  29.510  29.278  1.00  0.00     0.074 A 
ATOM     44  C   UNL A   1      40.482  27.290  28.697  1.00  0.00     0.049 A 
ATOM     45  N   UNL A   1      42.692  29.321  29.129  1.00  0.00    -0.248 NA
ATOM     46  C   UNL A   1      41.054  30.825  29.843  1.00  0.00     0.031 C 
ATOM     47  C   UNL A   1      39.444  26.282  28.462  1.00  0.00     0.029 A 
ATOM     48  N   UNL A   1      41.654  26.588  28.600  1.00  0.00    -0.354 N 
ATOM     49  C   UNL A   1      43.294  30.513  29.513  1.00  0.00     0.074 A 
ATOM     50  C   UNL A   1      42.236  31.422  29.898  1.00  0.00     0.031 C 
ATOM     51  C   UNL A   1      40.026  25.091  28.258  1.00  0.00     0.029 A 
ATOM     52  C   UNL A   1      41.469  25.275  28.242  1.00  0.00     0.049 A 
ATOM     53  H   UNL A   1      42.539  26.983  28.772  1.00  0.00     0.167 HD
ATOM     54  C   UNL A   1      44.612  30.817  29.524  1.00  0.00     0.031 A 
ATOM     55  C   UNL A   1      42.362  24.340  27.871  1.00  0.00     0.031 A 
ATOM     56  C   UNL A   1      45.643  29.879  29.164  1.00  0.00     0.049 A 
ATOM     57  C   UNL A   1      43.813  24.722  27.819  1.00  0.00     0.074 A 
ATOM     58  C   UNL A   1      47.013  30.068  29.138  1.00  0.00     0.029 A 
ATOM     59  N   UNL A   1      45.411  28.566  28.779  1.00  0.00    -0.354 N 
ATOM     60  N   UNL A   1      44.376  25.869  28.110  1.00  0.00    -0.248 NA
ATOM     61  C   UNL A   1      44.750  23.683  27.374  1.00  0.00     0.031 C 
ATOM     62  C   UNL A   1      47.605  28.885  28.685  1.00  0.00     0.029 A 
ATOM     63  C   UNL A   1      46.609  27.938  28.496  1.00  0.00     0.049 A 
ATOM     64  H   UNL A   1      44.523  28.144  28.717  1.00  0.00     0.167 HD
ATOM     65  C   UNL A   1      45.737  25.682  27.921  1.00  0.00     0.074 A 
ATOM     66  C   UNL A   1      45.913  24.306  27.494  1.00  0.00     0.031 C 
ATOM     67  C   UNL A   1      46.753  26.565  28.086  1.00  0.00     0.031 A 
BRANCH  54  68
ATOM     68  C   UNL A   1      45.003  32.226  29.874  1.00  0.00    -0.014 A 
ATOM     69  C   UNL A   1      45.289  33.185  28.890  1.00  0.00     0.009 A 
ATOM     70  C   UNL A   1      45.067  32.606  31.225  1.00  0.00     0.009 A 
ATOM     71  C   UNL A   1      45.670  34.480  29.253  1.00  0.00     0.001 A 
ATOM     72  C   UNL A   1      45.416  33.909  31.585  1.00  0.00     0.001 A 
ATOM     73  C   UNL A   1      45.727  34.842  30.598  1.00  0.00     0.000 A 
ENDBRANCH  54  68
BRANCH  55  74
ATOM     74  C   UNL A   1      41.898  22.988  27.466  1.00  0.00    -0.014 A 
ATOM     75  C   UNL A   1      41.608  22.705  26.123  1.00  0.00     0.009 A 
ATOM     76  C   UNL A   1      41.755  21.965  28.419  1.00  0.00     0.009 A 
ATOM     77  C   UNL A   1      41.163  21.435  25.748  1.00  0.00     0.001 A 
ATOM     78  C   UNL A   1      41.345  20.687  28.036  1.00  0.00     0.001 A 
ATOM     79  C   UNL A   1      41.038  20.426  26.703  1.00  0.00     0.000 A 
ENDBRANCH  55  74
BRANCH  67  80
ATOM     80  C   UNL A   1      48.146  26.048  27.872  1.00  0.00    -0.014 A 
ATOM     81  C   UNL A   1      48.757  26.082  26.611  1.00  0.00     0.009 A 
ATOM     82  C   UNL A   1      48.872  25.565  28.972  1.00  0.00     0.009 A 
ATOM     83  C   UNL A   1      50.062  25.613  26.451  1.00  0.00     0.001 A 
ATOM     84  C   UNL A   1      50.187  25.128  28.815  1.00  0.00     0.001 A 
ATOM     85  C   UNL A   1      50.777  25.145  27.553  1.00  0.00     0.000 A 
ENDBRANCH  67  80
ENDBRANCH  41  42
ENDBRANCH  34  36
ENDBRANCH  33  34
ENDBRANCH  32  33
ENDBRANCH   1  32
TORSDOF 15
ENDMDL
