MODEL 1
REMARK VINA RESULT:     -11.1      0.000      0.000
REMARK SMILES CCSc1ccc(-c2cc(Cl)cc3c2O[C@H](C(F)(F)F)C(C(=O)OCCOC(=O)c2ccc(-c4c5nc(c(-c6ccccc6)c6ccc([nH]6)c(-c6ccccc6)c6nc(c(-c7ccccc7)c7ccc4[nH]7)C=C6)C=C5)cc2)=C3)cc1
REMARK SMILES IDX 25 1 24 2 22 3 23 4 21 5 8 6 9 7 14 8 10 9 13 10 15 11 11 12
REMARK SMILES IDX 12 13 78 14 16 15 7 16 4 17 5 18 80 19 6 20 79 21 3 22 2 23
REMARK SMILES IDX 1 24 17 25 18 26 19 27 20 28 26 29 27 30 28 31 29 32 30 33
REMARK SMILES IDX 31 34 77 35 32 36 76 37 33 38 34 39 35 40 70 41 36 42 75 43
REMARK SMILES IDX 69 44 71 45 37 46 74 47 68 48 67 49 38 51 60 52 45 53 59 54
REMARK SMILES IDX 46 55 49 56 58 57 72 58 47 59 48 60 57 62 73 63 50 64 39 65
REMARK SMILES IDX 40 66 44 67 41 68 43 69 42 70 61 71 62 72 66 73 63 74 65 75
REMARK SMILES IDX 64 76 51 77 52 78 56 79 53 80 55 81 54 82
REMARK H PARENT 71 50 49 61
REMARK Flexibility Score: inf
ROOT
ATOM      1  C   UNL A   1      38.426  19.270  25.391  1.00  0.00     0.275 C 
ENDROOT
BRANCH   1   2
ATOM      2  O   UNL A   1      37.942  20.247  24.434  1.00  0.00    -0.459 OA
BRANCH   2   3
ATOM      3  C   UNL A   1      36.894  20.975  24.899  1.00  0.00     0.338 C 
ATOM      4  O   UNL A   1      35.870  20.488  25.366  1.00  0.00    -0.246 OA
BRANCH   3   5
ATOM      5  C   UNL A   1      37.090  22.449  24.841  1.00  0.00     0.087 C 
ATOM      6  C   UNL A   1      33.725  24.680  24.608  1.00  0.00     0.026 A 
ATOM      7  C   UNL A   1      32.835  23.726  24.061  1.00  0.00     0.033 A 
ATOM      8  C   UNL A   1      35.063  24.286  24.590  1.00  0.00     0.135 A 
ATOM      9  C   UNL A   1      33.247  22.593  23.356  1.00  0.00     0.042 A 
ATOM     10  C   UNL A   1      35.471  23.300  23.658  1.00  0.00     0.019 A 
ATOM     11  O   UNL A   1      35.993  24.614  25.572  1.00  0.00    -0.475 OA
ATOM     12  Cl  UNL A   1      32.186  21.333  22.882  1.00  0.00    -0.084 Cl
ATOM     13  C   UNL A   1      34.571  22.453  23.037  1.00  0.00     0.032 A 
ATOM     14  C   UNL A   1      36.901  22.946  23.607  1.00  0.00     0.027 C 
ATOM     15  C   UNL A   1      36.822  23.411  25.988  1.00  0.00     0.316 C 
BRANCH   6  16
ATOM     16  C   UNL A   1      33.097  26.014  24.871  1.00  0.00    -0.015 A 
ATOM     17  C   UNL A   1      32.538  28.469  26.284  1.00  0.00     0.007 A 
ATOM     18  C   UNL A   1      33.353  28.434  25.139  1.00  0.00     0.015 A 
ATOM     19  C   UNL A   1      31.928  27.280  26.662  1.00  0.00     0.015 A 
ATOM     20  C   UNL A   1      33.601  27.237  24.422  1.00  0.00     0.010 A 
ATOM     21  C   UNL A   1      32.196  26.084  25.963  1.00  0.00     0.010 A 
BRANCH  17  22
ATOM     22  S   UNL A   1      32.424  30.031  27.154  1.00  0.00    -0.126 SA
BRANCH  22  23
ATOM     23  C   UNL A   1      34.121  30.714  27.224  1.00  0.00     0.071 C 
ATOM     24  C   UNL A   1      34.198  31.930  28.130  1.00  0.00     0.016 C 
ENDBRANCH  22  23
ENDBRANCH  17  22
ENDBRANCH   6  16
BRANCH  15  25
ATOM     25  C   UNL A   1      38.205  23.844  26.493  1.00  0.00     0.430 C 
ATOM     26  F   UNL A   1      38.763  24.778  25.684  1.00  0.00    -0.167 F 
ATOM     27  F   UNL A   1      38.160  24.355  27.742  1.00  0.00    -0.167 F 
ATOM     28  F   UNL A   1      39.062  22.791  26.527  1.00  0.00    -0.167 F 
ENDBRANCH  15  25
ENDBRANCH   3   5
ENDBRANCH   2   3
ENDBRANCH   1   2
BRANCH   1  29
ATOM     29  C   UNL A   1      39.738  19.676  26.071  1.00  0.00     0.275 C 
BRANCH  29  30
ATOM     30  O   UNL A   1      40.873  19.006  25.493  1.00  0.00    -0.458 OA
BRANCH  30  31
ATOM     31  C   UNL A   1      42.007  19.116  26.226  1.00  0.00     0.338 C 
ATOM     32  O   UNL A   1      42.741  18.191  26.555  1.00  0.00    -0.246 OA
BRANCH  31  33
ATOM     33  C   UNL A   1      42.353  20.532  26.499  1.00  0.00     0.060 A 
ATOM     34  C   UNL A   1      42.339  20.921  27.835  1.00  0.00     0.016 A 
ATOM     35  C   UNL A   1      42.670  21.485  25.520  1.00  0.00     0.016 A 
ATOM     36  C   UNL A   1      42.689  22.225  28.183  1.00  0.00     0.010 A 
ATOM     37  C   UNL A   1      43.029  22.806  25.887  1.00  0.00     0.010 A 
ATOM     38  C   UNL A   1      43.078  23.187  27.233  1.00  0.00    -0.014 A 
BRANCH  38  39
ATOM     39  C   UNL A   1      43.470  24.545  27.754  1.00  0.00     0.031 A 
ATOM     40  C   UNL A   1      44.872  25.025  27.519  1.00  0.00     0.074 A 
ATOM     41  C   UNL A   1      42.579  25.449  28.224  1.00  0.00     0.049 A 
ATOM     42  N   UNL A   1      45.365  26.230  27.645  1.00  0.00    -0.248 NA
ATOM     43  C   UNL A   1      45.840  24.011  27.080  1.00  0.00     0.031 C 
ATOM     44  C   UNL A   1      41.181  25.176  28.484  1.00  0.00     0.029 A 
ATOM     45  N   UNL A   1      42.681  26.806  28.462  1.00  0.00    -0.354 N 
ATOM     46  C   UNL A   1      46.698  26.124  27.289  1.00  0.00     0.074 A 
ATOM     47  C   UNL A   1      46.931  24.741  26.920  1.00  0.00     0.031 C 
ATOM     48  C   UNL A   1      40.507  26.327  28.625  1.00  0.00     0.029 A 
ATOM     49  C   UNL A   1      41.462  27.426  28.670  1.00  0.00     0.049 A 
ATOM     50  H   UNL A   1      43.539  27.286  28.481  1.00  0.00     0.167 HD
ATOM     51  C   UNL A   1      47.663  27.071  27.316  1.00  0.00     0.031 A 
ATOM     52  C   UNL A   1      41.139  28.716  28.911  1.00  0.00     0.031 A 
ATOM     53  C   UNL A   1      47.489  28.410  27.808  1.00  0.00     0.049 A 
ATOM     54  C   UNL A   1      42.252  29.712  29.098  1.00  0.00     0.074 A 
ATOM     55  C   UNL A   1      48.452  29.383  28.006  1.00  0.00     0.029 A 
ATOM     56  N   UNL A   1      46.280  28.958  28.206  1.00  0.00    -0.354 N 
ATOM     57  N   UNL A   1      43.531  29.570  28.859  1.00  0.00    -0.248 NA
ATOM     58  C   UNL A   1      41.888  31.032  29.637  1.00  0.00     0.031 C 
ATOM     59  C   UNL A   1      47.838  30.493  28.597  1.00  0.00     0.029 A 
ATOM     60  C   UNL A   1      46.480  30.243  28.690  1.00  0.00     0.049 A 
ATOM     61  H   UNL A   1      45.409  28.503  28.155  1.00  0.00     0.167 HD
ATOM     62  C   UNL A   1      44.124  30.774  29.214  1.00  0.00     0.074 A 
ATOM     63  C   UNL A   1      43.061  31.650  29.659  1.00  0.00     0.031 C 
ATOM     64  C   UNL A   1      45.435  31.111  29.172  1.00  0.00     0.031 A 
BRANCH  51  65
ATOM     65  C   UNL A   1      49.034  26.606  26.927  1.00  0.00    -0.014 A 
ATOM     66  C   UNL A   1      49.487  26.701  25.602  1.00  0.00     0.009 A 
ATOM     67  C   UNL A   1      49.842  25.982  27.889  1.00  0.00     0.009 A 
ATOM     68  C   UNL A   1      50.708  26.129  25.239  1.00  0.00     0.001 A 
ATOM     69  C   UNL A   1      51.073  25.437  27.527  1.00  0.00     0.001 A 
ATOM     70  C   UNL A   1      51.497  25.497  26.200  1.00  0.00     0.000 A 
ENDBRANCH  51  65
BRANCH  52  71
ATOM     71  C   UNL A   1      39.717  29.150  29.092  1.00  0.00    -0.014 A 
ATOM     72  C   UNL A   1      38.972  29.663  28.015  1.00  0.00     0.009 A 
ATOM     73  C   UNL A   1      39.108  29.108  30.356  1.00  0.00     0.009 A 
ATOM     74  C   UNL A   1      37.663  30.123  28.203  1.00  0.00     0.001 A 
ATOM     75  C   UNL A   1      37.786  29.526  30.534  1.00  0.00     0.001 A 
ATOM     76  C   UNL A   1      37.067  30.043  29.460  1.00  0.00     0.000 A 
ENDBRANCH  52  71
BRANCH  64  77
ATOM     77  C   UNL A   1      45.810  32.499  29.616  1.00  0.00    -0.014 A 
ATOM     78  C   UNL A   1      46.172  32.774  30.944  1.00  0.00     0.009 A 
ATOM     79  C   UNL A   1      45.850  33.539  28.675  1.00  0.00     0.009 A 
ATOM     80  C   UNL A   1      46.538  34.067  31.325  1.00  0.00     0.001 A 
ATOM     81  C   UNL A   1      46.247  34.823  29.050  1.00  0.00     0.001 A 
ATOM     82  C   UNL A   1      46.582  35.089  30.377  1.00  0.00     0.000 A 
ENDBRANCH  64  77
ENDBRANCH  38  39
ENDBRANCH  31  33
ENDBRANCH  30  31
ENDBRANCH  29  30
ENDBRANCH   1  29
TORSDOF 15
ENDMDL
MODEL 2
REMARK VINA RESULT:     -10.9      0.690      5.772
REMARK SMILES CCSc1ccc(-c2cc(Cl)cc3c2O[C@H](C(F)(F)F)C(C(=O)OCCOC(=O)c2ccc(-c4c5nc(c(-c6ccccc6)c6ccc([nH]6)c(-c6ccccc6)c6nc(c(-c7ccccc7)c7ccc4[nH]7)C=C6)C=C5)cc2)=C3)cc1
REMARK SMILES IDX 25 1 24 2 22 3 23 4 21 5 8 6 9 7 14 8 10 9 13 10 15 11 11 12
REMARK SMILES IDX 12 13 78 14 16 15 7 16 4 17 5 18 80 19 6 20 79 21 3 22 2 23
REMARK SMILES IDX 1 24 17 25 18 26 19 27 20 28 26 29 27 30 28 31 29 32 30 33
REMARK SMILES IDX 31 34 77 35 32 36 76 37 33 38 34 39 35 40 70 41 36 42 75 43
REMARK SMILES IDX 69 44 71 45 37 46 74 47 68 48 67 49 38 51 60 52 45 53 59 54
REMARK SMILES IDX 46 55 49 56 58 57 72 58 47 59 48 60 57 62 73 63 50 64 39 65
REMARK SMILES IDX 40 66 44 67 41 68 43 69 42 70 61 71 62 72 66 73 63 74 65 75
REMARK SMILES IDX 64 76 51 77 52 78 56 79 53 80 55 81 54 82
REMARK H PARENT 71 50 49 61
REMARK Flexibility Score: inf
ROOT
ATOM      1  C   UNL A   1      38.447  19.399  25.345  1.00  0.00     0.275 C 
ENDROOT
BRANCH   1   2
ATOM      2  O   UNL A   1      37.730  20.205  24.374  1.00  0.00    -0.459 OA
BRANCH   2   3
ATOM      3  C   UNL A   1      36.770  20.985  24.934  1.00  0.00     0.338 C 
ATOM      4  O   UNL A   1      35.762  20.551  25.481  1.00  0.00    -0.246 OA
BRANCH   3   5
ATOM      5  C   UNL A   1      37.048  22.446  24.876  1.00  0.00     0.087 C 
ATOM      6  C   UNL A   1      33.810  24.864  24.705  1.00  0.00     0.026 A 
ATOM      7  C   UNL A   1      32.859  23.963  24.170  1.00  0.00     0.033 A 
ATOM      8  C   UNL A   1      35.123  24.395  24.663  1.00  0.00     0.135 A 
ATOM      9  C   UNL A   1      33.194  22.810  23.456  1.00  0.00     0.042 A 
ATOM     10  C   UNL A   1      35.460  23.390  23.722  1.00  0.00     0.019 A 
ATOM     11  O   UNL A   1      36.087  24.666  25.630  1.00  0.00    -0.475 OA
ATOM     12  Cl  UNL A   1      32.057  21.614  22.997  1.00  0.00    -0.084 Cl
ATOM     13  C   UNL A   1      34.503  22.597  23.114  1.00  0.00     0.032 A 
ATOM     14  C   UNL A   1      36.866  22.956  23.647  1.00  0.00     0.027 C 
ATOM     15  C   UNL A   1      36.854  23.418  26.030  1.00  0.00     0.316 C 
BRANCH   6  16
ATOM     16  C   UNL A   1      33.263  26.230  24.981  1.00  0.00    -0.015 A 
ATOM     17  C   UNL A   1      32.985  28.773  26.318  1.00  0.00     0.007 A 
ATOM     18  C   UNL A   1      33.618  28.651  25.070  1.00  0.00     0.015 A 
ATOM     19  C   UNL A   1      32.407  27.627  26.849  1.00  0.00     0.015 A 
ATOM     20  C   UNL A   1      33.726  27.410  24.393  1.00  0.00     0.010 A 
ATOM     21  C   UNL A   1      32.537  26.388  26.187  1.00  0.00     0.010 A 
BRANCH  17  22
ATOM     22  S   UNL A   1      33.042  30.382  27.104  1.00  0.00    -0.126 SA
BRANCH  22  23
ATOM     23  C   UNL A   1      34.788  30.674  27.569  1.00  0.00     0.071 C 
ATOM     24  C   UNL A   1      34.954  31.977  28.330  1.00  0.00     0.016 C 
ENDBRANCH  22  23
ENDBRANCH  17  22
ENDBRANCH   6  16
BRANCH  15  25
ATOM     25  C   UNL A   1      38.267  23.771  26.513  1.00  0.00     0.430 C 
ATOM     26  F   UNL A   1      39.048  22.668  26.620  1.00  0.00    -0.167 F 
ATOM     27  F   UNL A   1      38.890  24.639  25.689  1.00  0.00    -0.167 F 
ATOM     28  F   UNL A   1      38.230  24.347  27.742  1.00  0.00    -0.167 F 
ENDBRANCH  15  25
ENDBRANCH   3   5
ENDBRANCH   2   3
ENDBRANCH   1   2
BRANCH   1  29
ATOM     29  C   UNL A   1      39.875  19.887  25.611  1.00  0.00     0.275 C 
BRANCH  29  30
ATOM     30  O   UNL A   1      40.682  18.872  26.237  1.00  0.00    -0.458 OA
BRANCH  30  31
ATOM     31  C   UNL A   1      42.012  19.029  26.037  1.00  0.00     0.338 C 
ATOM     32  O   UNL A   1      42.765  18.199  25.539  1.00  0.00    -0.246 OA
BRANCH  31  33
ATOM     33  C   UNL A   1      42.465  20.399  26.379  1.00  0.00     0.060 A 
ATOM     34  C   UNL A   1      43.066  21.121  25.352  1.00  0.00     0.016 A 
ATOM     35  C   UNL A   1      42.343  20.994  27.643  1.00  0.00     0.016 A 
ATOM     36  C   UNL A   1      43.486  22.432  25.577  1.00  0.00     0.010 A 
ATOM     37  C   UNL A   1      42.770  22.328  27.858  1.00  0.00     0.010 A 
ATOM     38  C   UNL A   1      43.318  23.081  26.813  1.00  0.00    -0.014 A 
BRANCH  38  39
ATOM     39  C   UNL A   1      43.782  24.512  26.904  1.00  0.00     0.031 A 
ATOM     40  C   UNL A   1      42.875  25.520  27.547  1.00  0.00     0.074 A 
ATOM     41  C   UNL A   1      45.051  24.902  26.643  1.00  0.00     0.049 A 
ATOM     42  N   UNL A   1      43.146  26.730  27.960  1.00  0.00    -0.248 NA
ATOM     43  C   UNL A   1      41.482  25.100  27.754  1.00  0.00     0.031 C 
ATOM     44  C   UNL A   1      46.072  24.061  26.052  1.00  0.00     0.029 A 
ATOM     45  N   UNL A   1      45.738  26.064  26.939  1.00  0.00    -0.354 N 
ATOM     46  C   UNL A   1      41.962  27.216  28.488  1.00  0.00     0.074 A 
ATOM     47  C   UNL A   1      40.977  26.160  28.363  1.00  0.00     0.031 C 
ATOM     48  C   UNL A   1      47.280  24.618  26.222  1.00  0.00     0.029 A 
ATOM     49  C   UNL A   1      47.105  25.963  26.754  1.00  0.00     0.049 A 
ATOM     50  H   UNL A   1      45.296  26.885  27.252  1.00  0.00     0.167 HD
ATOM     51  C   UNL A   1      41.694  28.445  28.984  1.00  0.00     0.031 A 
ATOM     52  C   UNL A   1      48.106  26.851  26.946  1.00  0.00     0.031 A 
ATOM     53  C   UNL A   1      42.614  29.549  28.990  1.00  0.00     0.049 A 
ATOM     54  C   UNL A   1      47.751  28.260  27.340  1.00  0.00     0.074 A 
ATOM     55  C   UNL A   1      42.371  30.866  29.339  1.00  0.00     0.029 A 
ATOM     56  N   UNL A   1      43.944  29.476  28.608  1.00  0.00    -0.354 N 
ATOM     57  N   UNL A   1      46.599  28.736  27.738  1.00  0.00    -0.248 NA
ATOM     58  C   UNL A   1      48.821  29.267  27.263  1.00  0.00     0.031 C 
ATOM     59  C   UNL A   1      43.533  31.605  29.093  1.00  0.00     0.029 A 
ATOM     60  C   UNL A   1      44.524  30.735  28.671  1.00  0.00     0.049 A 
ATOM     61  H   UNL A   1      44.408  28.654  28.332  1.00  0.00     0.167 HD
ATOM     62  C   UNL A   1      46.801  30.091  27.959  1.00  0.00     0.074 A 
ATOM     63  C   UNL A   1      48.195  30.360  27.681  1.00  0.00     0.031 C 
ATOM     64  C   UNL A   1      45.901  31.022  28.359  1.00  0.00     0.031 A 
BRANCH  51  65
ATOM     65  C   UNL A   1      40.277  28.670  29.417  1.00  0.00    -0.014 A 
ATOM     66  C   UNL A   1      39.851  28.345  30.715  1.00  0.00     0.009 A 
ATOM     67  C   UNL A   1      39.339  29.128  28.480  1.00  0.00     0.009 A 
ATOM     68  C   UNL A   1      38.498  28.427  31.048  1.00  0.00     0.001 A 
ATOM     69  C   UNL A   1      37.994  29.234  28.825  1.00  0.00     0.001 A 
ATOM     70  C   UNL A   1      37.572  28.869  30.102  1.00  0.00     0.000 A 
ENDBRANCH  51  65
BRANCH  52  71
ATOM     71  C   UNL A   1      49.536  26.492  26.682  1.00  0.00    -0.014 A 
ATOM     72  C   UNL A   1      50.073  26.559  25.384  1.00  0.00     0.009 A 
ATOM     73  C   UNL A   1      50.363  26.024  27.715  1.00  0.00     0.009 A 
ATOM     74  C   UNL A   1      51.393  26.164  25.132  1.00  0.00     0.001 A 
ATOM     75  C   UNL A   1      51.694  25.673  27.472  1.00  0.00     0.001 A 
ATOM     76  C   UNL A   1      52.205  25.732  26.178  1.00  0.00     0.000 A 
ENDBRANCH  52  71
BRANCH  64  77
ATOM     77  C   UNL A   1      46.390  32.435  28.526  1.00  0.00    -0.014 A 
ATOM     78  C   UNL A   1      46.361  33.355  27.467  1.00  0.00     0.009 A 
ATOM     79  C   UNL A   1      46.843  32.865  29.784  1.00  0.00     0.009 A 
ATOM     80  C   UNL A   1      46.800  34.668  27.656  1.00  0.00     0.001 A 
ATOM     81  C   UNL A   1      47.252  34.185  29.979  1.00  0.00     0.001 A 
ATOM     82  C   UNL A   1      47.239  35.083  28.914  1.00  0.00     0.000 A 
ENDBRANCH  64  77
ENDBRANCH  38  39
ENDBRANCH  31  33
ENDBRANCH  30  31
ENDBRANCH  29  30
ENDBRANCH   1  29
TORSDOF 15
ENDMDL
MODEL 3
REMARK VINA RESULT:     -10.7      4.878      9.421
REMARK SMILES CCSc1ccc(-c2cc(Cl)cc3c2O[C@H](C(F)(F)F)C(C(=O)OCCOC(=O)c2ccc(-c4c5nc(c(-c6ccccc6)c6ccc([nH]6)c(-c6ccccc6)c6nc(c(-c7ccccc7)c7ccc4[nH]7)C=C6)C=C5)cc2)=C3)cc1
REMARK SMILES IDX 25 1 24 2 22 3 23 4 21 5 8 6 9 7 14 8 10 9 13 10 15 11 11 12
REMARK SMILES IDX 12 13 78 14 16 15 7 16 4 17 5 18 80 19 6 20 79 21 3 22 2 23
REMARK SMILES IDX 1 24 17 25 18 26 19 27 20 28 26 29 27 30 28 31 29 32 30 33
REMARK SMILES IDX 31 34 77 35 32 36 76 37 33 38 34 39 35 40 70 41 36 42 75 43
REMARK SMILES IDX 69 44 71 45 37 46 74 47 68 48 67 49 38 51 60 52 45 53 59 54
REMARK SMILES IDX 46 55 49 56 58 57 72 58 47 59 48 60 57 62 73 63 50 64 39 65
REMARK SMILES IDX 40 66 44 67 41 68 43 69 42 70 61 71 62 72 66 73 63 74 65 75
REMARK SMILES IDX 64 76 51 77 52 78 56 79 53 80 55 81 54 82
REMARK H PARENT 71 50 49 61
REMARK Flexibility Score: inf
ROOT
ATOM      1  C   UNL A   1      33.850  28.664  25.252  1.00  0.00     0.275 C 
ENDROOT
BRANCH   1   2
ATOM      2  O   UNL A   1      33.399  27.296  25.088  1.00  0.00    -0.459 OA
BRANCH   2   3
ATOM      3  C   UNL A   1      33.190  26.955  23.790  1.00  0.00     0.338 C 
ATOM      4  O   UNL A   1      33.857  27.379  22.851  1.00  0.00    -0.246 OA
BRANCH   3   5
ATOM      5  C   UNL A   1      32.093  25.972  23.575  1.00  0.00     0.087 C 
ATOM      6  C   UNL A   1      33.040  22.090  24.194  1.00  0.00     0.026 A 
ATOM      7  C   UNL A   1      34.440  22.145  24.001  1.00  0.00     0.033 A 
ATOM      8  C   UNL A   1      32.367  23.249  23.809  1.00  0.00     0.135 A 
ATOM      9  C   UNL A   1      35.089  23.154  23.287  1.00  0.00     0.042 A 
ATOM     10  C   UNL A   1      32.981  24.113  22.868  1.00  0.00     0.019 A 
ATOM     11  O   UNL A   1      31.237  23.753  24.446  1.00  0.00    -0.475 OA
ATOM     12  Cl  UNL A   1      36.792  23.337  23.235  1.00  0.00    -0.084 Cl
ATOM     13  C   UNL A   1      34.337  24.071  22.600  1.00  0.00     0.032 A 
ATOM     14  C   UNL A   1      32.226  25.297  22.421  1.00  0.00     0.027 C 
ATOM     15  C   UNL A   1      31.340  25.250  24.681  1.00  0.00     0.316 C 
BRANCH   6  16
ATOM     16  C   UNL A   1      32.528  20.726  24.538  1.00  0.00    -0.015 A 
ATOM     17  C   UNL A   1      32.567  17.852  24.819  1.00  0.00     0.007 A 
ATOM     18  C   UNL A   1      32.693  18.712  25.923  1.00  0.00     0.015 A 
ATOM     19  C   UNL A   1      32.325  18.440  23.583  1.00  0.00     0.015 A 
ATOM     20  C   UNL A   1      32.639  20.123  25.794  1.00  0.00     0.010 A 
ATOM     21  C   UNL A   1      32.298  19.845  23.453  1.00  0.00     0.010 A 
BRANCH  17  22
ATOM     22  S   UNL A   1      32.784  16.101  25.124  1.00  0.00    -0.126 SA
BRANCH  22  23
ATOM     23  C   UNL A   1      34.582  15.827  25.337  1.00  0.00     0.071 C 
ATOM     24  C   UNL A   1      35.396  16.940  24.702  1.00  0.00     0.016 C 
ENDBRANCH  22  23
ENDBRANCH  17  22
ENDBRANCH   6  16
BRANCH  15  25
ATOM     25  C   UNL A   1      29.950  25.897  24.723  1.00  0.00     0.430 C 
ATOM     26  F   UNL A   1      30.027  27.250  24.668  1.00  0.00    -0.167 F 
ATOM     27  F   UNL A   1      29.160  25.487  23.709  1.00  0.00    -0.167 F 
ATOM     28  F   UNL A   1      29.305  25.588  25.878  1.00  0.00    -0.167 F 
ENDBRANCH  15  25
ENDBRANCH   3   5
ENDBRANCH   2   3
ENDBRANCH   1   2
BRANCH   1  29
ATOM     29  C   UNL A   1      32.726  29.642  25.608  1.00  0.00     0.275 C 
BRANCH  29  30
ATOM     30  O   UNL A   1      32.732  29.983  27.007  1.00  0.00    -0.458 OA
BRANCH  30  31
ATOM     31  C   UNL A   1      33.269  31.198  27.273  1.00  0.00     0.338 C 
ATOM     32  O   UNL A   1      32.701  32.276  27.144  1.00  0.00    -0.246 OA
BRANCH  31  33
ATOM     33  C   UNL A   1      34.620  31.085  27.875  1.00  0.00     0.060 A 
ATOM     34  C   UNL A   1      34.939  29.854  28.440  1.00  0.00     0.016 A 
ATOM     35  C   UNL A   1      35.566  32.119  27.924  1.00  0.00     0.016 A 
ATOM     36  C   UNL A   1      36.203  29.650  28.994  1.00  0.00     0.010 A 
ATOM     37  C   UNL A   1      36.849  31.897  28.485  1.00  0.00     0.010 A 
ATOM     38  C   UNL A   1      37.199  30.643  28.999  1.00  0.00    -0.014 A 
BRANCH  38  39
ATOM     39  C   UNL A   1      38.533  30.272  29.594  1.00  0.00     0.031 A 
ATOM     40  C   UNL A   1      38.776  30.566  31.046  1.00  0.00     0.074 A 
ATOM     41  C   UNL A   1      39.441  29.493  28.962  1.00  0.00     0.049 A 
ATOM     42  N   UNL A   1      39.724  30.123  31.831  1.00  0.00    -0.248 NA
ATOM     43  C   UNL A   1      37.819  31.472  31.694  1.00  0.00     0.031 C 
ATOM     44  C   UNL A   1      39.359  29.084  27.575  1.00  0.00     0.029 A 
ATOM     45  N   UNL A   1      40.551  28.812  29.422  1.00  0.00    -0.354 N 
ATOM     46  C   UNL A   1      39.472  30.687  33.070  1.00  0.00     0.074 A 
ATOM     47  C   UNL A   1      38.270  31.485  32.937  1.00  0.00     0.031 C 
ATOM     48  C   UNL A   1      40.211  28.075  27.343  1.00  0.00     0.029 A 
ATOM     49  C   UNL A   1      41.055  27.896  28.517  1.00  0.00     0.049 A 
ATOM     50  H   UNL A   1      40.946  28.965  30.310  1.00  0.00     0.167 HD
ATOM     51  C   UNL A   1      40.201  30.600  34.206  1.00  0.00     0.031 A 
ATOM     52  C   UNL A   1      42.097  27.038  28.592  1.00  0.00     0.031 A 
ATOM     53  C   UNL A   1      41.466  29.930  34.324  1.00  0.00     0.049 A 
ATOM     54  C   UNL A   1      42.983  27.088  29.808  1.00  0.00     0.074 A 
ATOM     55  C   UNL A   1      42.335  29.922  35.401  1.00  0.00     0.029 A 
ATOM     56  N   UNL A   1      42.058  29.172  33.327  1.00  0.00    -0.354 N 
ATOM     57  N   UNL A   1      42.787  27.712  30.941  1.00  0.00    -0.248 NA
ATOM     58  C   UNL A   1      44.258  26.356  29.739  1.00  0.00     0.031 C 
ATOM     59  C   UNL A   1      43.489  29.224  35.027  1.00  0.00     0.029 A 
ATOM     60  C   UNL A   1      43.303  28.727  33.748  1.00  0.00     0.049 A 
ATOM     61  H   UNL A   1      41.657  28.979  32.450  1.00  0.00     0.167 HD
ATOM     62  C   UNL A   1      43.907  27.452  31.719  1.00  0.00     0.074 A 
ATOM     63  C   UNL A   1      44.768  26.586  30.941  1.00  0.00     0.031 C 
ATOM     64  C   UNL A   1      44.187  27.897  32.968  1.00  0.00     0.031 A 
BRANCH  51  65
ATOM     65  C   UNL A   1      39.681  31.395  35.366  1.00  0.00    -0.014 A 
ATOM     66  C   UNL A   1      38.607  30.934  36.143  1.00  0.00     0.009 A 
ATOM     67  C   UNL A   1      40.220  32.664  35.621  1.00  0.00     0.009 A 
ATOM     68  C   UNL A   1      38.050  31.757  37.124  1.00  0.00     0.001 A 
ATOM     69  C   UNL A   1      39.679  33.472  36.620  1.00  0.00     0.001 A 
ATOM     70  C   UNL A   1      38.584  33.024  37.358  1.00  0.00     0.000 A 
ENDBRANCH  51  65
BRANCH  52  71
ATOM     71  C   UNL A   1      42.441  26.119  27.460  1.00  0.00    -0.014 A 
ATOM     72  C   UNL A   1      43.233  26.558  26.384  1.00  0.00     0.009 A 
ATOM     73  C   UNL A   1      41.933  24.811  27.416  1.00  0.00     0.009 A 
ATOM     74  C   UNL A   1      43.501  25.714  25.299  1.00  0.00     0.001 A 
ATOM     75  C   UNL A   1      42.238  23.954  26.354  1.00  0.00     0.001 A 
ATOM     76  C   UNL A   1      43.012  24.409  25.291  1.00  0.00     0.000 A 
ENDBRANCH  52  71
BRANCH  64  77
ATOM     77  C   UNL A   1      45.484  27.456  33.589  1.00  0.00    -0.014 A 
ATOM     78  C   UNL A   1      46.654  28.221  33.470  1.00  0.00     0.009 A 
ATOM     79  C   UNL A   1      45.520  26.277  34.350  1.00  0.00     0.009 A 
ATOM     80  C   UNL A   1      47.841  27.799  34.077  1.00  0.00     0.001 A 
ATOM     81  C   UNL A   1      46.698  25.874  34.981  1.00  0.00     0.001 A 
ATOM     82  C   UNL A   1      47.859  26.630  34.837  1.00  0.00     0.000 A 
ENDBRANCH  64  77
ENDBRANCH  38  39
ENDBRANCH  31  33
ENDBRANCH  30  31
ENDBRANCH  29  30
ENDBRANCH   1  29
TORSDOF 15
ENDMDL
