MODEL 1
REMARK VINA RESULT:     -11.7      0.000      0.000
REMARK SMILES COc1ccc(-n2ccnc2C[N@@H+]2Cc3[nH]cnc3C[C@H]2C(=O)OCCOC(=O)c2ccc(-c3c4nc(c(-c5ccccc5)c5ccc([nH]5)c(-c5ccccc5)c5nc(c(-c6ccccc6)c6ccc3[nH]6)C=C5)C=C4)cc2)cc1
REMARK SMILES IDX 25 1 24 2 22 3 23 4 21 5 13 6 14 7 15 9 20 10 16 11 19 12
REMARK SMILES IDX 17 13 18 15 12 16 11 17 7 18 8 19 9 20 10 21 6 22 3 23 4 24
REMARK SMILES IDX 79 25 5 26 78 27 2 28 1 29 26 30 27 31 28 32 29 33 30 34
REMARK SMILES IDX 31 35 77 36 32 37 76 38 33 39 34 40 35 41 70 42 36 43 75 44
REMARK SMILES IDX 69 45 71 46 37 47 74 48 68 49 67 50 38 52 60 53 45 54 59 55
REMARK SMILES IDX 46 56 49 57 58 58 72 59 47 60 48 61 57 63 73 64 50 65 39 66
REMARK SMILES IDX 40 67 44 68 41 69 43 70 42 71 61 72 62 73 66 74 63 75 65 76
REMARK SMILES IDX 64 77 51 78 52 79 56 80 53 81 55 82 54 83
REMARK H PARENT 13 8 16 14 71 51 49 62
REMARK Flexibility Score: inf
ROOT
ATOM      1  C   UNL A   1      37.227  21.469  24.941  1.00  0.00     0.274 C 
ENDROOT
BRANCH   1   2
ATOM      2  O   UNL A   1      36.627  22.769  25.032  1.00  0.00    -0.458 OA
BRANCH   2   3
ATOM      3  C   UNL A   1      36.084  23.319  23.913  1.00  0.00     0.365 C 
ATOM      4  O   UNL A   1      36.540  23.158  22.784  1.00  0.00    -0.245 OA
BRANCH   3   5
ATOM      5  C   UNL A   1      34.867  24.235  24.194  1.00  0.00     0.301 C 
ATOM      6  N   UNL A   1      33.951  24.425  23.015  1.00  0.00    -0.312 N 
ATOM      7  C   UNL A   1      33.165  23.249  22.618  1.00  0.00     0.320 C 
ATOM      8  H   UNL A   1      34.519  24.451  22.169  1.00  0.00     0.349 HD
ATOM      9  C   UNL A   1      32.996  22.296  23.750  1.00  0.00     0.093 A 
ATOM     10  C   UNL A   1      34.131  23.713  25.452  1.00  0.00     0.136 C 
ATOM     11  N   UNL A   1      32.733  20.957  23.662  1.00  0.00    -0.344 N 
ATOM     12  C   UNL A   1      33.400  22.489  25.051  1.00  0.00     0.074 A 
ATOM     13  C   UNL A   1      32.964  20.422  24.902  1.00  0.00     0.197 A 
ATOM     14  H   UNL A   1      32.434  20.471  22.859  1.00  0.00     0.167 HD
ATOM     15  N   UNL A   1      33.342  21.332  25.773  1.00  0.00    -0.241 NA
BRANCH   6  16
ATOM     16  C   UNL A   1      33.345  25.763  23.007  1.00  0.00     0.340 C 
BRANCH  16  17
ATOM     17  C   UNL A   1      31.917  25.926  23.451  1.00  0.00     0.168 A 
ATOM     18  N   UNL A   1      31.500  26.808  24.442  1.00  0.00    -0.299 N 
ATOM     19  C   UNL A   1      30.166  26.551  24.662  1.00  0.00     0.113 A 
ATOM     20  C   UNL A   1      29.806  25.618  23.724  1.00  0.00     0.132 A 
ATOM     21  N   UNL A   1      30.889  25.232  22.987  1.00  0.00    -0.236 NA
BRANCH  18  22
ATOM     22  C   UNL A   1      32.283  27.717  25.185  1.00  0.00     0.047 A 
ATOM     23  C   UNL A   1      33.671  29.558  26.741  1.00  0.00     0.119 A 
ATOM     24  C   UNL A   1      33.806  28.192  26.991  1.00  0.00     0.048 A 
ATOM     25  C   UNL A   1      32.893  30.002  25.671  1.00  0.00     0.048 A 
ATOM     26  C   UNL A   1      33.098  27.266  26.225  1.00  0.00     0.030 A 
ATOM     27  C   UNL A   1      32.209  29.080  24.877  1.00  0.00     0.030 A 
BRANCH  23  28
ATOM     28  O   UNL A   1      34.387  30.402  27.547  1.00  0.00    -0.497 OA
ATOM     29  C   UNL A   1      33.807  31.702  27.645  1.00  0.00     0.278 C 
ENDBRANCH  23  28
ENDBRANCH  18  22
ENDBRANCH  16  17
ENDBRANCH   6  16
ENDBRANCH   3   5
ENDBRANCH   2   3
ENDBRANCH   1   2
BRANCH   1  30
ATOM     30  C   UNL A   1      38.557  21.464  25.677  1.00  0.00     0.275 C 
BRANCH  30  31
ATOM     31  O   UNL A   1      38.743  22.670  26.420  1.00  0.00    -0.458 OA
BRANCH  31  32
ATOM     32  C   UNL A   1      39.918  22.722  27.084  1.00  0.00     0.338 C 
ATOM     33  O   UNL A   1      40.490  21.813  27.654  1.00  0.00    -0.246 OA
BRANCH  32  34
ATOM     34  C   UNL A   1      40.319  24.108  27.293  1.00  0.00     0.060 A 
ATOM     35  C   UNL A   1      41.496  24.342  28.016  1.00  0.00     0.016 A 
ATOM     36  C   UNL A   1      39.374  25.112  27.060  1.00  0.00     0.016 A 
ATOM     37  C   UNL A   1      41.674  25.575  28.605  1.00  0.00     0.010 A 
ATOM     38  C   UNL A   1      39.544  26.333  27.667  1.00  0.00     0.010 A 
ATOM     39  C   UNL A   1      40.668  26.535  28.471  1.00  0.00    -0.014 A 
BRANCH  39  40
ATOM     40  C   UNL A   1      40.836  27.810  29.132  1.00  0.00     0.031 A 
ATOM     41  C   UNL A   1      41.801  28.729  28.485  1.00  0.00     0.074 A 
ATOM     42  C   UNL A   1      40.031  28.202  30.136  1.00  0.00     0.049 A 
ATOM     43  N   UNL A   1      42.819  29.314  29.022  1.00  0.00    -0.248 NA
ATOM     44  C   UNL A   1      41.654  28.970  27.040  1.00  0.00     0.031 C 
ATOM     45  C   UNL A   1      38.844  27.520  30.653  1.00  0.00     0.029 A 
ATOM     46  N   UNL A   1      40.031  29.388  30.801  1.00  0.00    -0.354 N 
ATOM     47  C   UNL A   1      43.374  30.104  28.022  1.00  0.00     0.074 A 
ATOM     48  C   UNL A   1      42.690  29.771  26.798  1.00  0.00     0.031 C 
ATOM     49  C   UNL A   1      38.110  28.403  31.367  1.00  0.00     0.029 A 
ATOM     50  C   UNL A   1      38.833  29.664  31.442  1.00  0.00     0.049 A 
ATOM     51  H   UNL A   1      40.807  29.993  30.825  1.00  0.00     0.167 HD
ATOM     52  C   UNL A   1      44.234  31.120  28.296  1.00  0.00     0.031 A 
ATOM     53  C   UNL A   1      38.433  30.868  31.914  1.00  0.00     0.031 A 
ATOM     54  C   UNL A   1      44.775  31.039  29.623  1.00  0.00     0.049 A 
ATOM     55  C   UNL A   1      39.631  31.732  32.041  1.00  0.00     0.074 A 
ATOM     56  C   UNL A   1      45.546  30.117  30.301  1.00  0.00     0.029 A 
ATOM     57  N   UNL A   1      44.231  31.859  30.582  1.00  0.00    -0.354 N 
ATOM     58  N   UNL A   1      40.561  31.547  32.931  1.00  0.00    -0.248 NA
ATOM     59  C   UNL A   1      40.012  32.573  30.915  1.00  0.00     0.031 C 
ATOM     60  C   UNL A   1      45.056  30.138  31.639  1.00  0.00     0.029 A 
ATOM     61  C   UNL A   1      44.041  31.094  31.704  1.00  0.00     0.049 A 
ATOM     62  H   UNL A   1      44.017  32.815  30.483  1.00  0.00     0.167 HD
ATOM     63  C   UNL A   1      41.744  31.860  32.278  1.00  0.00     0.074 A 
ATOM     64  C   UNL A   1      41.336  32.609  31.094  1.00  0.00     0.031 C 
ATOM     65  C   UNL A   1      42.915  31.234  32.602  1.00  0.00     0.031 A 
BRANCH  52  66
ATOM     66  C   UNL A   1      44.313  32.371  27.470  1.00  0.00    -0.014 A 
ATOM     67  C   UNL A   1      43.754  33.558  27.973  1.00  0.00     0.009 A 
ATOM     68  C   UNL A   1      44.675  32.360  26.109  1.00  0.00     0.009 A 
ATOM     69  C   UNL A   1      43.530  34.661  27.142  1.00  0.00     0.001 A 
ATOM     70  C   UNL A   1      44.493  33.473  25.288  1.00  0.00     0.001 A 
ATOM     71  C   UNL A   1      43.897  34.617  25.799  1.00  0.00     0.000 A 
ENDBRANCH  52  66
BRANCH  53  72
ATOM     72  C   UNL A   1      37.056  31.388  32.044  1.00  0.00    -0.014 A 
ATOM     73  C   UNL A   1      36.613  31.953  33.247  1.00  0.00     0.009 A 
ATOM     74  C   UNL A   1      36.238  31.540  30.909  1.00  0.00     0.009 A 
ATOM     75  C   UNL A   1      35.409  32.669  33.305  1.00  0.00     0.001 A 
ATOM     76  C   UNL A   1      35.031  32.243  30.967  1.00  0.00     0.001 A 
ATOM     77  C   UNL A   1      34.624  32.820  32.164  1.00  0.00     0.000 A 
ENDBRANCH  53  72
BRANCH  65  78
ATOM     78  C   UNL A   1      42.927  30.365  33.837  1.00  0.00    -0.014 A 
ATOM     79  C   UNL A   1      43.319  30.850  35.098  1.00  0.00     0.009 A 
ATOM     80  C   UNL A   1      42.386  29.074  33.763  1.00  0.00     0.009 A 
ATOM     81  C   UNL A   1      43.216  30.053  36.241  1.00  0.00     0.001 A 
ATOM     82  C   UNL A   1      42.259  28.285  34.910  1.00  0.00     0.001 A 
ATOM     83  C   UNL A   1      42.681  28.770  36.146  1.00  0.00     0.000 A 
ENDBRANCH  65  78
ENDBRANCH  39  40
ENDBRANCH  32  34
ENDBRANCH  31  32
ENDBRANCH  30  31
ENDBRANCH   1  30
TORSDOF 15
ENDMDL
MODEL 2
REMARK VINA RESULT:     -11.5      2.118      7.678
REMARK SMILES COc1ccc(-n2ccnc2C[N@@H+]2Cc3[nH]cnc3C[C@H]2C(=O)OCCOC(=O)c2ccc(-c3c4nc(c(-c5ccccc5)c5ccc([nH]5)c(-c5ccccc5)c5nc(c(-c6ccccc6)c6ccc3[nH]6)C=C5)C=C4)cc2)cc1
REMARK SMILES IDX 25 1 24 2 22 3 23 4 21 5 13 6 14 7 15 9 20 10 16 11 19 12
REMARK SMILES IDX 17 13 18 15 12 16 11 17 7 18 8 19 9 20 10 21 6 22 3 23 4 24
REMARK SMILES IDX 79 25 5 26 78 27 2 28 1 29 26 30 27 31 28 32 29 33 30 34
REMARK SMILES IDX 31 35 77 36 32 37 76 38 33 39 34 40 35 41 70 42 36 43 75 44
REMARK SMILES IDX 69 45 71 46 37 47 74 48 68 49 67 50 38 52 60 53 45 54 59 55
REMARK SMILES IDX 46 56 49 57 58 58 72 59 47 60 48 61 57 63 73 64 50 65 39 66
REMARK SMILES IDX 40 67 44 68 41 69 43 70 42 71 61 72 62 73 66 74 63 75 65 76
REMARK SMILES IDX 64 77 51 78 52 79 56 80 53 81 55 82 54 83
REMARK H PARENT 13 8 16 14 71 51 49 62
REMARK Flexibility Score: inf
ROOT
ATOM      1  C   UNL A   1      32.160  30.172  25.936  1.00  0.00     0.274 C 
ENDROOT
BRANCH   1   2
ATOM      2  O   UNL A   1      33.013  29.230  25.272  1.00  0.00    -0.458 OA
BRANCH   2   3
ATOM      3  C   UNL A   1      32.673  27.914  25.289  1.00  0.00     0.365 C 
ATOM      4  O   UNL A   1      32.217  27.340  26.275  1.00  0.00    -0.245 OA
BRANCH   3   5
ATOM      5  C   UNL A   1      32.981  27.171  23.965  1.00  0.00     0.301 C 
ATOM      6  N   UNL A   1      32.246  25.868  23.802  1.00  0.00    -0.312 N 
ATOM      7  C   UNL A   1      30.797  25.972  23.583  1.00  0.00     0.320 C 
ATOM      8  H   UNL A   1      32.173  25.424  24.718  1.00  0.00     0.349 HD
ATOM      9  C   UNL A   1      30.423  27.298  23.017  1.00  0.00     0.093 A 
ATOM     10  C   UNL A   1      32.751  28.144  22.784  1.00  0.00     0.136 C 
ATOM     11  N   UNL A   1      29.201  27.907  23.095  1.00  0.00    -0.344 N 
ATOM     12  C   UNL A   1      31.286  28.292  22.621  1.00  0.00     0.074 A 
ATOM     13  C   UNL A   1      29.382  29.214  22.724  1.00  0.00     0.197 A 
ATOM     14  H   UNL A   1      28.353  27.485  23.366  1.00  0.00     0.167 HD
ATOM     15  N   UNL A   1      30.632  29.470  22.403  1.00  0.00    -0.241 NA
BRANCH   6  16
ATOM     16  C   UNL A   1      33.043  24.883  23.057  1.00  0.00     0.340 C 
BRANCH  16  17
ATOM     17  C   UNL A   1      32.794  23.417  23.279  1.00  0.00     0.168 A 
ATOM     18  N   UNL A   1      33.685  22.557  23.911  1.00  0.00    -0.299 N 
ATOM     19  C   UNL A   1      33.170  21.288  23.780  1.00  0.00     0.113 A 
ATOM     20  C   UNL A   1      31.943  21.443  23.186  1.00  0.00     0.132 A 
ATOM     21  N   UNL A   1      31.721  22.755  22.874  1.00  0.00    -0.236 NA
BRANCH  18  22
ATOM     22  C   UNL A   1      34.940  22.866  24.478  1.00  0.00     0.047 A 
ATOM     23  C   UNL A   1      37.419  23.302  25.663  1.00  0.00     0.119 A 
ATOM     24  C   UNL A   1      37.324  23.156  24.279  1.00  0.00     0.048 A 
ATOM     25  C   UNL A   1      36.266  23.296  26.449  1.00  0.00     0.048 A 
ATOM     26  C   UNL A   1      36.086  22.919  23.682  1.00  0.00     0.030 A 
ATOM     27  C   UNL A   1      35.020  23.095  25.857  1.00  0.00     0.030 A 
BRANCH  23  28
ATOM     28  O   UNL A   1      38.672  23.516  26.172  1.00  0.00    -0.497 OA
ATOM     29  C   UNL A   1      38.746  24.676  26.999  1.00  0.00     0.278 C 
ENDBRANCH  23  28
ENDBRANCH  18  22
ENDBRANCH  16  17
ENDBRANCH   6  16
ENDBRANCH   3   5
ENDBRANCH   2   3
ENDBRANCH   1   2
BRANCH   1  30
ATOM     30  C   UNL A   1      32.875  30.749  27.147  1.00  0.00     0.275 C 
BRANCH  30  31
ATOM     31  O   UNL A   1      34.288  30.570  27.048  1.00  0.00    -0.458 OA
BRANCH  31  32
ATOM     32  C   UNL A   1      35.003  31.517  27.695  1.00  0.00     0.338 C 
ATOM     33  O   UNL A   1      34.927  32.724  27.563  1.00  0.00    -0.246 OA
BRANCH  32  34
ATOM     34  C   UNL A   1      36.121  30.909  28.406  1.00  0.00     0.060 A 
ATOM     35  C   UNL A   1      37.125  31.760  28.885  1.00  0.00     0.016 A 
ATOM     36  C   UNL A   1      36.303  29.527  28.294  1.00  0.00     0.016 A 
ATOM     37  C   UNL A   1      38.368  31.227  29.154  1.00  0.00     0.010 A 
ATOM     38  C   UNL A   1      37.549  29.003  28.541  1.00  0.00     0.010 A 
ATOM     39  C   UNL A   1      38.578  29.865  28.922  1.00  0.00    -0.014 A 
BRANCH  39  40
ATOM     40  C   UNL A   1      39.897  29.320  29.157  1.00  0.00     0.031 A 
ATOM     41  C   UNL A   1      40.240  29.103  30.581  1.00  0.00     0.074 A 
ATOM     42  C   UNL A   1      40.667  28.862  28.154  1.00  0.00     0.049 A 
ATOM     43  N   UNL A   1      41.272  29.541  31.223  1.00  0.00    -0.248 NA
ATOM     44  C   UNL A   1      39.277  28.364  31.413  1.00  0.00     0.031 C 
ATOM     45  C   UNL A   1      40.313  28.730  26.739  1.00  0.00     0.029 A 
ATOM     46  N   UNL A   1      41.889  28.270  28.231  1.00  0.00    -0.354 N 
ATOM     47  C   UNL A   1      41.164  29.029  32.510  1.00  0.00     0.074 A 
ATOM     48  C   UNL A   1      39.867  28.407  32.606  1.00  0.00     0.031 C 
ATOM     49  C   UNL A   1      41.187  27.886  26.148  1.00  0.00     0.029 A 
ATOM     50  C   UNL A   1      42.211  27.516  27.114  1.00  0.00     0.049 A 
ATOM     51  H   UNL A   1      42.487  28.367  29.007  1.00  0.00     0.167 HD
ATOM     52  C   UNL A   1      42.222  28.982  33.361  1.00  0.00     0.031 A 
ATOM     53  C   UNL A   1      43.193  26.588  27.026  1.00  0.00     0.031 A 
ATOM     54  C   UNL A   1      43.303  29.827  32.942  1.00  0.00     0.049 A 
ATOM     55  C   UNL A   1      44.139  26.816  28.144  1.00  0.00     0.074 A 
ATOM     56  C   UNL A   1      43.447  31.184  32.734  1.00  0.00     0.029 A 
ATOM     57  N   UNL A   1      44.372  29.231  32.318  1.00  0.00    -0.354 N 
ATOM     58  N   UNL A   1      44.937  27.842  28.215  1.00  0.00    -0.248 NA
ATOM     59  C   UNL A   1      43.923  26.114  29.402  1.00  0.00     0.031 C 
ATOM     60  C   UNL A   1      44.322  31.296  31.615  1.00  0.00     0.029 A 
ATOM     61  C   UNL A   1      44.684  30.004  31.229  1.00  0.00     0.049 A 
ATOM     62  H   UNL A   1      44.828  28.405  32.599  1.00  0.00     0.167 HD
ATOM     63  C   UNL A   1      44.963  28.178  29.561  1.00  0.00     0.074 A 
ATOM     64  C   UNL A   1      44.434  27.008  30.254  1.00  0.00     0.031 C 
ATOM     65  C   UNL A   1      45.133  29.475  29.960  1.00  0.00     0.031 A 
BRANCH  52  66
ATOM     66  C   UNL A   1      42.398  27.902  34.390  1.00  0.00    -0.014 A 
ATOM     67  C   UNL A   1      42.903  26.654  33.990  1.00  0.00     0.009 A 
ATOM     68  C   UNL A   1      41.835  27.984  35.679  1.00  0.00     0.009 A 
ATOM     69  C   UNL A   1      42.806  25.534  34.824  1.00  0.00     0.001 A 
ATOM     70  C   UNL A   1      41.778  26.879  36.529  1.00  0.00     0.001 A 
ATOM     71  C   UNL A   1      42.241  25.647  36.092  1.00  0.00     0.000 A 
ENDBRANCH  52  66
BRANCH  53  72
ATOM     72  C   UNL A   1      43.238  25.382  26.175  1.00  0.00    -0.014 A 
ATOM     73  C   UNL A   1      44.299  25.172  25.284  1.00  0.00     0.009 A 
ATOM     74  C   UNL A   1      42.352  24.312  26.400  1.00  0.00     0.009 A 
ATOM     75  C   UNL A   1      44.482  23.928  24.664  1.00  0.00     0.001 A 
ATOM     76  C   UNL A   1      42.525  23.076  25.773  1.00  0.00     0.001 A 
ATOM     77  C   UNL A   1      43.600  22.880  24.915  1.00  0.00     0.000 A 
ENDBRANCH  53  72
BRANCH  65  78
ATOM     78  C   UNL A   1      45.520  30.487  28.908  1.00  0.00    -0.014 A 
ATOM     79  C   UNL A   1      46.860  30.820  28.635  1.00  0.00     0.009 A 
ATOM     80  C   UNL A   1      44.526  31.003  28.066  1.00  0.00     0.009 A 
ATOM     81  C   UNL A   1      47.190  31.678  27.584  1.00  0.00     0.001 A 
ATOM     82  C   UNL A   1      44.857  31.842  26.997  1.00  0.00     0.001 A 
ATOM     83  C   UNL A   1      46.186  32.185  26.762  1.00  0.00     0.000 A 
ENDBRANCH  65  78
ENDBRANCH  39  40
ENDBRANCH  32  34
ENDBRANCH  31  32
ENDBRANCH  30  31
ENDBRANCH   1  30
TORSDOF 15
ENDMDL
MODEL 3
REMARK VINA RESULT:     -11.5      3.445      7.697
REMARK SMILES COc1ccc(-n2ccnc2C[N@@H+]2Cc3[nH]cnc3C[C@H]2C(=O)OCCOC(=O)c2ccc(-c3c4nc(c(-c5ccccc5)c5ccc([nH]5)c(-c5ccccc5)c5nc(c(-c6ccccc6)c6ccc3[nH]6)C=C5)C=C4)cc2)cc1
REMARK SMILES IDX 25 1 24 2 22 3 23 4 21 5 13 6 14 7 15 9 20 10 16 11 19 12
REMARK SMILES IDX 17 13 18 15 12 16 11 17 7 18 8 19 9 20 10 21 6 22 3 23 4 24
REMARK SMILES IDX 79 25 5 26 78 27 2 28 1 29 26 30 27 31 28 32 29 33 30 34
REMARK SMILES IDX 31 35 77 36 32 37 76 38 33 39 34 40 35 41 70 42 36 43 75 44
REMARK SMILES IDX 69 45 71 46 37 47 74 48 68 49 67 50 38 52 60 53 45 54 59 55
REMARK SMILES IDX 46 56 49 57 58 58 72 59 47 60 48 61 57 63 73 64 50 65 39 66
REMARK SMILES IDX 40 67 44 68 41 69 43 70 42 71 61 72 62 73 66 74 63 75 65 76
REMARK SMILES IDX 64 77 51 78 52 79 56 80 53 81 55 82 54 83
REMARK H PARENT 13 8 16 14 71 51 49 62
REMARK Flexibility Score: inf
ROOT
ATOM      1  C   UNL A   1      32.763  30.395  27.219  1.00  0.00     0.274 C 
ENDROOT
BRANCH   1   2
ATOM      2  O   UNL A   1      33.034  29.028  27.557  1.00  0.00    -0.458 OA
BRANCH   2   3
ATOM      3  C   UNL A   1      32.110  28.081  27.245  1.00  0.00     0.365 C 
ATOM      4  O   UNL A   1      31.442  27.478  28.083  1.00  0.00    -0.245 OA
BRANCH   3   5
ATOM      5  C   UNL A   1      32.019  27.770  25.731  1.00  0.00     0.301 C 
ATOM      6  N   UNL A   1      33.347  27.502  25.075  1.00  0.00    -0.312 N 
ATOM      7  C   UNL A   1      34.005  26.242  25.448  1.00  0.00     0.320 C 
ATOM      8  H   UNL A   1      34.046  28.106  25.506  1.00  0.00     0.349 HD
ATOM      9  C   UNL A   1      33.022  25.238  25.944  1.00  0.00     0.093 A 
ATOM     10  C   UNL A   1      31.000  26.625  25.518  1.00  0.00     0.136 C 
ATOM     11  N   UNL A   1      33.281  24.174  26.762  1.00  0.00    -0.344 N 
ATOM     12  C   UNL A   1      31.653  25.372  25.964  1.00  0.00     0.074 A 
ATOM     13  C   UNL A   1      32.070  23.711  27.210  1.00  0.00     0.197 A 
ATOM     14  H   UNL A   1      34.168  23.810  26.987  1.00  0.00     0.167 HD
ATOM     15  N   UNL A   1      31.063  24.400  26.719  1.00  0.00    -0.241 NA
BRANCH   6  16
ATOM     16  C   UNL A   1      33.370  27.969  23.681  1.00  0.00     0.340 C 
BRANCH  16  17
ATOM     17  C   UNL A   1      32.925  27.039  22.587  1.00  0.00     0.168 A 
ATOM     18  N   UNL A   1      31.653  27.039  22.026  1.00  0.00    -0.299 N 
ATOM     19  C   UNL A   1      31.593  25.954  21.181  1.00  0.00     0.113 A 
ATOM     20  C   UNL A   1      32.856  25.418  21.174  1.00  0.00     0.132 A 
ATOM     21  N   UNL A   1      33.668  26.085  22.046  1.00  0.00    -0.236 NA
BRANCH  18  22
ATOM     22  C   UNL A   1      30.568  27.890  22.328  1.00  0.00     0.047 A 
ATOM     23  C   UNL A   1      28.386  29.566  22.742  1.00  0.00     0.119 A 
ATOM     24  C   UNL A   1      28.326  28.231  23.143  1.00  0.00     0.048 A 
ATOM     25  C   UNL A   1      29.562  30.081  22.193  1.00  0.00     0.048 A 
ATOM     26  C   UNL A   1      29.411  27.382  22.921  1.00  0.00     0.030 A 
ATOM     27  C   UNL A   1      30.664  29.247  22.000  1.00  0.00     0.030 A 
BRANCH  23  28
ATOM     28  O   UNL A   1      27.275  30.328  22.981  1.00  0.00    -0.497 OA
ATOM     29  C   UNL A   1      27.580  31.576  23.604  1.00  0.00     0.278 C 
ENDBRANCH  23  28
ENDBRANCH  18  22
ENDBRANCH  16  17
ENDBRANCH   6  16
ENDBRANCH   3   5
ENDBRANCH   2   3
ENDBRANCH   1   2
BRANCH   1  30
ATOM     30  C   UNL A   1      34.030  31.221  27.360  1.00  0.00     0.275 C 
BRANCH  30  31
ATOM     31  O   UNL A   1      34.975  30.579  28.218  1.00  0.00    -0.458 OA
BRANCH  31  32
ATOM     32  C   UNL A   1      35.995  31.378  28.598  1.00  0.00     0.338 C 
ATOM     33  O   UNL A   1      35.959  32.575  28.816  1.00  0.00    -0.246 OA
BRANCH  32  34
ATOM     34  C   UNL A   1      37.267  30.680  28.452  1.00  0.00     0.060 A 
ATOM     35  C   UNL A   1      37.238  29.384  27.924  1.00  0.00     0.016 A 
ATOM     36  C   UNL A   1      38.381  31.188  29.127  1.00  0.00     0.016 A 
ATOM     37  C   UNL A   1      38.305  28.547  28.173  1.00  0.00     0.010 A 
ATOM     38  C   UNL A   1      39.433  30.345  29.393  1.00  0.00     0.010 A 
ATOM     39  C   UNL A   1      39.362  29.021  28.954  1.00  0.00    -0.014 A 
BRANCH  39  40
ATOM     40  C   UNL A   1      40.456  28.124  29.255  1.00  0.00     0.031 A 
ATOM     41  C   UNL A   1      40.839  28.061  30.685  1.00  0.00     0.074 A 
ATOM     42  C   UNL A   1      40.949  27.271  28.341  1.00  0.00     0.049 A 
ATOM     43  N   UNL A   1      42.008  28.243  31.200  1.00  0.00    -0.248 NA
ATOM     44  C   UNL A   1      39.769  27.837  31.671  1.00  0.00     0.031 C 
ATOM     45  C   UNL A   1      40.446  27.015  26.989  1.00  0.00     0.029 A 
ATOM     46  N   UNL A   1      41.922  26.334  28.499  1.00  0.00    -0.354 N 
ATOM     47  C   UNL A   1      41.859  28.029  32.565  1.00  0.00     0.074 A 
ATOM     48  C   UNL A   1      40.446  27.894  32.816  1.00  0.00     0.031 C 
ATOM     49  C   UNL A   1      40.953  25.841  26.551  1.00  0.00     0.029 A 
ATOM     50  C   UNL A   1      41.889  25.333  27.542  1.00  0.00     0.049 A 
ATOM     51  H   UNL A   1      42.587  26.366  29.225  1.00  0.00     0.167 HD
ATOM     52  C   UNL A   1      42.920  27.789  33.380  1.00  0.00     0.031 A 
ATOM     53  C   UNL A   1      42.515  24.134  27.611  1.00  0.00     0.031 A 
ATOM     54  C   UNL A   1      44.171  28.146  32.775  1.00  0.00     0.049 A 
ATOM     55  C   UNL A   1      43.581  24.232  28.637  1.00  0.00     0.074 A 
ATOM     56  C   UNL A   1      44.717  29.322  32.302  1.00  0.00     0.029 A 
ATOM     57  N   UNL A   1      44.936  27.133  32.250  1.00  0.00    -0.354 N 
ATOM     58  N   UNL A   1      44.665  24.936  28.484  1.00  0.00    -0.248 NA
ATOM     59  C   UNL A   1      43.266  23.873  30.013  1.00  0.00     0.031 C 
ATOM     60  C   UNL A   1      45.479  28.942  31.159  1.00  0.00     0.029 A 
ATOM     61  C   UNL A   1      45.378  27.556  31.023  1.00  0.00     0.049 A 
ATOM     62  H   UNL A   1      45.130  26.266  32.675  1.00  0.00     0.167 HD
ATOM     63  C   UNL A   1      44.915  25.477  29.737  1.00  0.00     0.074 A 
ATOM     64  C   UNL A   1      44.108  24.685  30.660  1.00  0.00     0.031 C 
ATOM     65  C   UNL A   1      45.522  26.695  29.870  1.00  0.00     0.031 A 
BRANCH  52  66
ATOM     66  C   UNL A   1      42.836  26.910  34.595  1.00  0.00    -0.014 A 
ATOM     67  C   UNL A   1      42.687  25.523  34.426  1.00  0.00     0.009 A 
ATOM     68  C   UNL A   1      42.630  27.424  35.890  1.00  0.00     0.009 A 
ATOM     69  C   UNL A   1      42.306  24.702  35.492  1.00  0.00     0.001 A 
ATOM     70  C   UNL A   1      42.293  26.600  36.965  1.00  0.00     0.001 A 
ATOM     71  C   UNL A   1      42.106  25.241  36.760  1.00  0.00     0.000 A 
ENDBRANCH  52  66
BRANCH  53  72
ATOM     72  C   UNL A   1      42.100  22.850  27.011  1.00  0.00    -0.014 A 
ATOM     73  C   UNL A   1      43.049  21.972  26.467  1.00  0.00     0.009 A 
ATOM     74  C   UNL A   1      40.787  22.373  27.176  1.00  0.00     0.009 A 
ATOM     75  C   UNL A   1      42.701  20.658  26.129  1.00  0.00     0.001 A 
ATOM     76  C   UNL A   1      40.435  21.066  26.827  1.00  0.00     0.001 A 
ATOM     77  C   UNL A   1      41.397  20.204  26.316  1.00  0.00     0.000 A 
ENDBRANCH  53  72
BRANCH  65  78
ATOM     78  C   UNL A   1      46.114  27.322  28.631  1.00  0.00    -0.014 A 
ATOM     79  C   UNL A   1      47.464  27.159  28.271  1.00  0.00     0.009 A 
ATOM     80  C   UNL A   1      45.260  27.964  27.723  1.00  0.00     0.009 A 
ATOM     81  C   UNL A   1      47.955  27.661  27.064  1.00  0.00     0.001 A 
ATOM     82  C   UNL A   1      45.745  28.445  26.503  1.00  0.00     0.001 A 
ATOM     83  C   UNL A   1      47.092  28.301  26.178  1.00  0.00     0.000 A 
ENDBRANCH  65  78
ENDBRANCH  39  40
ENDBRANCH  32  34
ENDBRANCH  31  32
ENDBRANCH  30  31
ENDBRANCH   1  30
TORSDOF 15
ENDMDL
