MODEL 1
REMARK VINA RESULT:     -11.7      0.000      0.000
REMARK SMILES O=C(OCCOC(=O)[C@H]1CCCN(C(=O)C2CCN(S(=O)(=O)c3ccccc3)CC2)C1)c1ccc(-c2c3nc(c(-c4ccccc4)c4ccc([nH]4)c(-c4ccccc4)c4nc(c(-c5ccccc5)c5ccc2[nH]5)C=C4)C=C3)cc1
REMARK SMILES IDX 5 1 4 2 3 3 2 4 1 5 32 6 33 7 79 8 34 9 78 10 35 11 36 12
REMARK SMILES IDX 37 13 72 14 38 15 77 16 71 17 73 18 39 19 76 20 70 21 69 22
REMARK SMILES IDX 40 24 62 25 47 26 61 27 48 28 51 29 60 30 74 31 49 32 50 33
REMARK SMILES IDX 59 35 75 36 52 37 41 38 42 39 46 40 43 41 45 42 44 43 63 44
REMARK SMILES IDX 64 45 68 46 65 47 67 48 66 49 53 50 54 51 58 52 55 53 57 54
REMARK SMILES IDX 56 55 6 56 7 57 8 58 9 59 10 60 31 61 11 62 13 63 12 64
REMARK SMILES IDX 14 65 15 66 16 67 17 68 30 69 18 70 29 71 19 72 20 73 21 74
REMARK SMILES IDX 22 75 23 76 24 77 28 78 25 79 27 80 26 81
REMARK H PARENT 73 23 51 34
REMARK Flexibility Score: inf
ROOT
ATOM      1  C   UNL A   1      38.154  21.219  25.467  1.00  0.00     0.274 C 
ENDROOT
BRANCH   1   2
ATOM      2  C   UNL A   1      38.478  19.802  24.996  1.00  0.00     0.275 C 
BRANCH   2   3
ATOM      3  O   UNL A   1      39.531  19.162  25.748  1.00  0.00    -0.458 OA
BRANCH   3   4
ATOM      4  C   UNL A   1      40.829  19.504  25.923  1.00  0.00     0.338 C 
ATOM      5  O   UNL A   1      41.689  18.636  25.766  1.00  0.00    -0.246 OA
BRANCH   4   6
ATOM      6  C   UNL A   1      41.303  20.851  26.374  1.00  0.00     0.060 A 
ATOM      7  C   UNL A   1      41.907  21.831  25.576  1.00  0.00     0.016 A 
ATOM      8  C   UNL A   1      41.176  21.120  27.749  1.00  0.00     0.016 A 
ATOM      9  C   UNL A   1      42.283  23.083  26.107  1.00  0.00     0.010 A 
ATOM     10  C   UNL A   1      41.571  22.352  28.284  1.00  0.00     0.010 A 
ATOM     11  C   UNL A   1      42.108  23.360  27.463  1.00  0.00    -0.014 A 
BRANCH  11  12
ATOM     12  C   UNL A   1      42.634  24.595  28.108  1.00  0.00     0.031 A 
ATOM     13  C   UNL A   1      41.653  25.711  28.332  1.00  0.00     0.074 A 
ATOM     14  C   UNL A   1      43.945  24.780  28.378  1.00  0.00     0.049 A 
ATOM     15  N   UNL A   1      41.860  26.951  28.683  1.00  0.00    -0.248 NA
ATOM     16  C   UNL A   1      40.235  25.372  28.115  1.00  0.00     0.031 C 
ATOM     17  C   UNL A   1      45.000  23.775  28.249  1.00  0.00     0.029 A 
ATOM     18  N   UNL A   1      44.629  25.927  28.721  1.00  0.00    -0.354 N 
ATOM     19  C   UNL A   1      40.602  27.535  28.737  1.00  0.00     0.074 A 
ATOM     20  C   UNL A   1      39.646  26.537  28.313  1.00  0.00     0.031 C 
ATOM     21  C   UNL A   1      46.201  24.375  28.353  1.00  0.00     0.029 A 
ATOM     22  C   UNL A   1      45.998  25.803  28.577  1.00  0.00     0.049 A 
ATOM     23  H   UNL A   1      44.188  26.749  29.036  1.00  0.00     0.167 HD
ATOM     24  C   UNL A   1      40.264  28.787  29.121  1.00  0.00     0.031 A 
ATOM     25  C   UNL A   1      46.961  26.749  28.544  1.00  0.00     0.031 A 
ATOM     26  C   UNL A   1      41.226  29.793  29.468  1.00  0.00     0.049 A 
ATOM     27  C   UNL A   1      46.563  28.190  28.760  1.00  0.00     0.074 A 
ATOM     28  C   UNL A   1      41.017  31.081  29.920  1.00  0.00     0.029 A 
ATOM     29  N   UNL A   1      42.598  29.621  29.347  1.00  0.00    -0.354 N 
ATOM     30  N   UNL A   1      45.375  28.697  28.988  1.00  0.00    -0.248 NA
ATOM     31  C   UNL A   1      47.644  29.187  28.741  1.00  0.00     0.031 C 
ATOM     32  C   UNL A   1      42.262  31.713  30.006  1.00  0.00     0.029 A 
ATOM     33  C   UNL A   1      43.246  30.802  29.651  1.00  0.00     0.049 A 
ATOM     34  H   UNL A   1      43.042  28.783  29.084  1.00  0.00     0.167 HD
ATOM     35  C   UNL A   1      45.576  30.053  29.222  1.00  0.00     0.074 A 
ATOM     36  C   UNL A   1      46.996  30.296  29.070  1.00  0.00     0.031 C 
ATOM     37  C   UNL A   1      44.670  31.004  29.556  1.00  0.00     0.031 A 
BRANCH  24  38
ATOM     38  C   UNL A   1      38.798  29.109  29.121  1.00  0.00    -0.014 A 
ATOM     39  C   UNL A   1      38.185  29.685  27.994  1.00  0.00     0.009 A 
ATOM     40  C   UNL A   1      38.041  28.932  30.286  1.00  0.00     0.009 A 
ATOM     41  C   UNL A   1      36.871  30.150  28.061  1.00  0.00     0.001 A 
ATOM     42  C   UNL A   1      36.716  29.370  30.342  1.00  0.00     0.001 A 
ATOM     43  C   UNL A   1      36.141  29.998  29.239  1.00  0.00     0.000 A 
ENDBRANCH  24  38
BRANCH  25  44
ATOM     44  C   UNL A   1      48.380  26.416  28.217  1.00  0.00    -0.014 A 
ATOM     45  C   UNL A   1      48.826  26.308  26.893  1.00  0.00     0.009 A 
ATOM     46  C   UNL A   1      49.281  26.089  29.243  1.00  0.00     0.009 A 
ATOM     47  C   UNL A   1      50.117  25.837  26.612  1.00  0.00     0.001 A 
ATOM     48  C   UNL A   1      50.567  25.618  28.967  1.00  0.00     0.001 A 
ATOM     49  C   UNL A   1      50.981  25.483  27.649  1.00  0.00     0.000 A 
ENDBRANCH  25  44
BRANCH  37  50
ATOM     50  C   UNL A   1      45.188  32.370  29.901  1.00  0.00    -0.014 A 
ATOM     51  C   UNL A   1      45.267  33.390  28.944  1.00  0.00     0.009 A 
ATOM     52  C   UNL A   1      45.509  32.658  31.238  1.00  0.00     0.009 A 
ATOM     53  C   UNL A   1      45.668  34.674  29.320  1.00  0.00     0.001 A 
ATOM     54  C   UNL A   1      45.884  33.948  31.614  1.00  0.00     0.001 A 
ATOM     55  C   UNL A   1      45.965  34.954  30.654  1.00  0.00     0.000 A 
ENDBRANCH  37  50
ENDBRANCH  11  12
ENDBRANCH   4   6
ENDBRANCH   3   4
ENDBRANCH   2   3
ENDBRANCH   1   2
BRANCH   1  56
ATOM     56  O   UNL A   1      36.753  21.339  25.730  1.00  0.00    -0.462 OA
BRANCH  56  57
ATOM     57  C   UNL A   1      36.168  22.567  25.574  1.00  0.00     0.310 C 
ATOM     58  O   UNL A   1      36.712  23.636  25.793  1.00  0.00    -0.252 OA
BRANCH  57  59
ATOM     59  C   UNL A   1      34.760  22.380  25.029  1.00  0.00     0.119 C 
ATOM     60  C   UNL A   1      34.538  20.895  24.728  1.00  0.00     0.019 C 
ATOM     61  C   UNL A   1      33.641  22.880  25.968  1.00  0.00     0.134 C 
ATOM     62  C   UNL A   1      33.160  20.704  24.140  1.00  0.00     0.022 C 
ATOM     63  N   UNL A   1      32.288  22.493  25.464  1.00  0.00    -0.342 N 
ATOM     64  C   UNL A   1      32.150  21.080  25.194  1.00  0.00     0.119 C 
BRANCH  63  65
ATOM     65  C   UNL A   1      31.334  23.447  25.169  1.00  0.00     0.225 C 
ATOM     66  O   UNL A   1      30.673  23.948  26.089  1.00  0.00    -0.275 OA
BRANCH  65  67
ATOM     67  C   UNL A   1      31.068  23.989  23.728  1.00  0.00     0.081 C 
ATOM     68  C   UNL A   1      32.224  24.279  22.779  1.00  0.00     0.030 C 
ATOM     69  C   UNL A   1      29.961  25.025  23.612  1.00  0.00     0.030 C 
ATOM     70  C   UNL A   1      32.552  25.734  22.443  1.00  0.00     0.103 C 
ATOM     71  C   UNL A   1      30.431  26.465  23.629  1.00  0.00     0.103 C 
ATOM     72  N   UNL A   1      31.470  26.774  22.617  1.00  0.00    -0.198 NA
BRANCH  72  73
ATOM     73  S   UNL A   1      32.257  28.318  22.885  1.00  0.00     0.243 S 
ATOM     74  O   UNL A   1      33.580  28.157  22.307  1.00  0.00    -0.207 OA
ATOM     75  O   UNL A   1      31.356  29.324  22.373  1.00  0.00    -0.207 OA
BRANCH  73  76
ATOM     76  C   UNL A   1      32.494  28.615  24.614  1.00  0.00     0.082 A 
ATOM     77  C   UNL A   1      31.738  29.619  25.233  1.00  0.00     0.022 A 
ATOM     78  C   UNL A   1      33.598  28.069  25.278  1.00  0.00     0.022 A 
ATOM     79  C   UNL A   1      32.065  30.044  26.521  1.00  0.00     0.001 A 
ATOM     80  C   UNL A   1      33.902  28.476  26.578  1.00  0.00     0.001 A 
ATOM     81  C   UNL A   1      33.138  29.464  27.195  1.00  0.00     0.000 A 
ENDBRANCH  73  76
ENDBRANCH  72  73
ENDBRANCH  65  67
ENDBRANCH  63  65
ENDBRANCH  57  59
ENDBRANCH  56  57
ENDBRANCH   1  56
TORSDOF 15
ENDMDL
MODEL 2
REMARK VINA RESULT:     -11.7      3.517      7.365
REMARK SMILES O=C(OCCOC(=O)[C@H]1CCCN(C(=O)C2CCN(S(=O)(=O)c3ccccc3)CC2)C1)c1ccc(-c2c3nc(c(-c4ccccc4)c4ccc([nH]4)c(-c4ccccc4)c4nc(c(-c5ccccc5)c5ccc2[nH]5)C=C4)C=C3)cc1
REMARK SMILES IDX 5 1 4 2 3 3 2 4 1 5 32 6 33 7 79 8 34 9 78 10 35 11 36 12
REMARK SMILES IDX 37 13 72 14 38 15 77 16 71 17 73 18 39 19 76 20 70 21 69 22
REMARK SMILES IDX 40 24 62 25 47 26 61 27 48 28 51 29 60 30 74 31 49 32 50 33
REMARK SMILES IDX 59 35 75 36 52 37 41 38 42 39 46 40 43 41 45 42 44 43 63 44
REMARK SMILES IDX 64 45 68 46 65 47 67 48 66 49 53 50 54 51 58 52 55 53 57 54
REMARK SMILES IDX 56 55 6 56 7 57 8 58 9 59 10 60 31 61 11 62 13 63 12 64
REMARK SMILES IDX 14 65 15 66 16 67 17 68 30 69 18 70 29 71 19 72 20 73 21 74
REMARK SMILES IDX 22 75 23 76 24 77 28 78 25 79 27 80 26 81
REMARK H PARENT 73 23 51 34
REMARK Flexibility Score: inf
ROOT
ATOM      1  C   UNL A   1      42.005  20.154  26.441  1.00  0.00     0.274 C 
ENDROOT
BRANCH   1   2
ATOM      2  C   UNL A   1      43.243  20.730  25.755  1.00  0.00     0.275 C 
BRANCH   2   3
ATOM      3  O   UNL A   1      42.978  21.906  24.961  1.00  0.00    -0.458 OA
BRANCH   3   4
ATOM      4  C   UNL A   1      43.603  23.106  24.917  1.00  0.00     0.338 C 
ATOM      5  O   UNL A   1      44.565  23.237  24.159  1.00  0.00    -0.246 OA
BRANCH   4   6
ATOM      6  C   UNL A   1      43.262  24.278  25.785  1.00  0.00     0.060 A 
ATOM      7  C   UNL A   1      43.878  25.535  25.766  1.00  0.00     0.016 A 
ATOM      8  C   UNL A   1      42.261  24.059  26.750  1.00  0.00     0.016 A 
ATOM      9  C   UNL A   1      43.447  26.579  26.612  1.00  0.00     0.010 A 
ATOM     10  C   UNL A   1      41.847  25.085  27.607  1.00  0.00     0.010 A 
ATOM     11  C   UNL A   1      42.420  26.367  27.532  1.00  0.00    -0.014 A 
BRANCH  11  12
ATOM     12  C   UNL A   1      42.037  27.378  28.557  1.00  0.00     0.031 A 
ATOM     13  C   UNL A   1      42.701  27.262  29.900  1.00  0.00     0.074 A 
ATOM     14  C   UNL A   1      41.059  28.288  28.360  1.00  0.00     0.049 A 
ATOM     15  N   UNL A   1      42.426  27.865  31.026  1.00  0.00    -0.248 NA
ATOM     16  C   UNL A   1      43.832  26.320  29.978  1.00  0.00     0.031 C 
ATOM     17  C   UNL A   1      40.357  28.539  27.101  1.00  0.00     0.029 A 
ATOM     18  N   UNL A   1      40.409  29.105  29.262  1.00  0.00    -0.354 N 
ATOM     19  C   UNL A   1      43.352  27.381  31.939  1.00  0.00     0.074 A 
ATOM     20  C   UNL A   1      44.148  26.384  31.259  1.00  0.00     0.031 C 
ATOM     21  C   UNL A   1      39.286  29.321  27.337  1.00  0.00     0.029 A 
ATOM     22  C   UNL A   1      39.239  29.641  28.760  1.00  0.00     0.049 A 
ATOM     23  H   UNL A   1      40.745  29.288  30.169  1.00  0.00     0.167 HD
ATOM     24  C   UNL A   1      43.539  27.743  33.229  1.00  0.00     0.031 A 
ATOM     25  C   UNL A   1      38.211  30.243  29.396  1.00  0.00     0.031 A 
ATOM     26  C   UNL A   1      42.697  28.678  33.916  1.00  0.00     0.049 A 
ATOM     27  C   UNL A   1      38.316  30.463  30.887  1.00  0.00     0.074 A 
ATOM     28  C   UNL A   1      42.806  29.168  35.203  1.00  0.00     0.029 A 
ATOM     29  N   UNL A   1      41.548  29.228  33.367  1.00  0.00    -0.354 N 
ATOM     30  N   UNL A   1      39.294  30.150  31.705  1.00  0.00    -0.248 NA
ATOM     31  C   UNL A   1      37.187  31.143  31.539  1.00  0.00     0.031 C 
ATOM     32  C   UNL A   1      41.681  29.961  35.457  1.00  0.00     0.029 A 
ATOM     33  C   UNL A   1      40.900  29.999  34.312  1.00  0.00     0.049 A 
ATOM     34  H   UNL A   1      41.240  29.089  32.443  1.00  0.00     0.167 HD
ATOM     35  C   UNL A   1      38.937  30.668  32.944  1.00  0.00     0.074 A 
ATOM     36  C   UNL A   1      37.635  31.282  32.780  1.00  0.00     0.031 C 
ATOM     37  C   UNL A   1      39.634  30.657  34.106  1.00  0.00     0.031 A 
BRANCH  24  38
ATOM     38  C   UNL A   1      44.669  27.068  33.951  1.00  0.00    -0.014 A 
ATOM     39  C   UNL A   1      44.497  25.802  34.538  1.00  0.00     0.009 A 
ATOM     40  C   UNL A   1      45.885  27.740  34.136  1.00  0.00     0.009 A 
ATOM     41  C   UNL A   1      45.486  25.262  35.362  1.00  0.00     0.001 A 
ATOM     42  C   UNL A   1      46.885  27.183  34.935  1.00  0.00     0.001 A 
ATOM     43  C   UNL A   1      46.677  25.957  35.564  1.00  0.00     0.000 A 
ENDBRANCH  24  38
BRANCH  25  44
ATOM     44  C   UNL A   1      36.952  30.614  28.682  1.00  0.00    -0.014 A 
ATOM     45  C   UNL A   1      36.592  31.950  28.468  1.00  0.00     0.009 A 
ATOM     46  C   UNL A   1      36.038  29.617  28.306  1.00  0.00     0.009 A 
ATOM     47  C   UNL A   1      35.332  32.273  27.942  1.00  0.00     0.001 A 
ATOM     48  C   UNL A   1      34.782  29.936  27.784  1.00  0.00     0.001 A 
ATOM     49  C   UNL A   1      34.425  31.266  27.611  1.00  0.00     0.000 A 
ENDBRANCH  25  44
BRANCH  37  50
ATOM     50  C   UNL A   1      39.072  31.428  35.264  1.00  0.00    -0.014 A 
ATOM     51  C   UNL A   1      38.169  30.849  36.165  1.00  0.00     0.009 A 
ATOM     52  C   UNL A   1      39.539  32.732  35.505  1.00  0.00     0.009 A 
ATOM     53  C   UNL A   1      37.736  31.566  37.282  1.00  0.00     0.001 A 
ATOM     54  C   UNL A   1      39.124  33.436  36.636  1.00  0.00     0.001 A 
ATOM     55  C   UNL A   1      38.221  32.852  37.522  1.00  0.00     0.000 A 
ENDBRANCH  37  50
ENDBRANCH  11  12
ENDBRANCH   4   6
ENDBRANCH   3   4
ENDBRANCH   2   3
ENDBRANCH   1   2
BRANCH   1  56
ATOM     56  O   UNL A   1      40.842  20.888  26.050  1.00  0.00    -0.462 OA
BRANCH  56  57
ATOM     57  C   UNL A   1      39.700  20.189  25.765  1.00  0.00     0.310 C 
ATOM     58  O   UNL A   1      39.655  19.001  25.493  1.00  0.00    -0.252 OA
BRANCH  57  59
ATOM     59  C   UNL A   1      38.503  21.116  25.902  1.00  0.00     0.119 C 
ATOM     60  C   UNL A   1      39.005  22.554  26.064  1.00  0.00     0.019 C 
ATOM     61  C   UNL A   1      37.511  21.057  24.720  1.00  0.00     0.134 C 
ATOM     62  C   UNL A   1      37.825  23.478  26.251  1.00  0.00     0.022 C 
ATOM     63  N   UNL A   1      36.469  22.124  24.823  1.00  0.00    -0.342 N 
ATOM     64  C   UNL A   1      37.011  23.453  24.982  1.00  0.00     0.119 C 
BRANCH  63  65
ATOM     65  C   UNL A   1      35.126  21.808  24.893  1.00  0.00     0.225 C 
ATOM     66  O   UNL A   1      34.732  21.027  25.770  1.00  0.00    -0.275 OA
BRANCH  65  67
ATOM     67  C   UNL A   1      34.041  22.426  23.955  1.00  0.00     0.081 C 
ATOM     68  C   UNL A   1      34.159  23.866  23.470  1.00  0.00     0.030 C 
ATOM     69  C   UNL A   1      32.603  22.049  24.278  1.00  0.00     0.030 C 
ATOM     70  C   UNL A   1      33.186  24.909  24.020  1.00  0.00     0.103 C 
ATOM     71  C   UNL A   1      31.858  23.054  25.131  1.00  0.00     0.103 C 
ATOM     72  N   UNL A   1      31.869  24.435  24.590  1.00  0.00    -0.198 NA
BRANCH  72  73
ATOM     73  S   UNL A   1      31.330  25.635  25.749  1.00  0.00     0.243 S 
ATOM     74  O   UNL A   1      30.196  25.015  26.414  1.00  0.00    -0.207 OA
ATOM     75  O   UNL A   1      32.498  26.018  26.507  1.00  0.00    -0.207 OA
BRANCH  73  76
ATOM     76  C   UNL A   1      30.707  27.074  24.926  1.00  0.00     0.082 A 
ATOM     77  C   UNL A   1      29.702  26.915  23.964  1.00  0.00     0.022 A 
ATOM     78  C   UNL A   1      31.392  28.290  25.020  1.00  0.00     0.022 A 
ATOM     79  C   UNL A   1      29.361  27.980  23.129  1.00  0.00     0.001 A 
ATOM     80  C   UNL A   1      31.026  29.362  24.203  1.00  0.00     0.001 A 
ATOM     81  C   UNL A   1      30.015  29.203  23.258  1.00  0.00     0.000 A 
ENDBRANCH  73  76
ENDBRANCH  72  73
ENDBRANCH  65  67
ENDBRANCH  63  65
ENDBRANCH  57  59
ENDBRANCH  56  57
ENDBRANCH   1  56
TORSDOF 15
ENDMDL
MODEL 3
REMARK VINA RESULT:     -11.6      3.830      9.166
REMARK SMILES O=C(OCCOC(=O)[C@H]1CCCN(C(=O)C2CCN(S(=O)(=O)c3ccccc3)CC2)C1)c1ccc(-c2c3nc(c(-c4ccccc4)c4ccc([nH]4)c(-c4ccccc4)c4nc(c(-c5ccccc5)c5ccc2[nH]5)C=C4)C=C3)cc1
REMARK SMILES IDX 5 1 4 2 3 3 2 4 1 5 32 6 33 7 79 8 34 9 78 10 35 11 36 12
REMARK SMILES IDX 37 13 72 14 38 15 77 16 71 17 73 18 39 19 76 20 70 21 69 22
REMARK SMILES IDX 40 24 62 25 47 26 61 27 48 28 51 29 60 30 74 31 49 32 50 33
REMARK SMILES IDX 59 35 75 36 52 37 41 38 42 39 46 40 43 41 45 42 44 43 63 44
REMARK SMILES IDX 64 45 68 46 65 47 67 48 66 49 53 50 54 51 58 52 55 53 57 54
REMARK SMILES IDX 56 55 6 56 7 57 8 58 9 59 10 60 31 61 11 62 13 63 12 64
REMARK SMILES IDX 14 65 15 66 16 67 17 68 30 69 18 70 29 71 19 72 20 73 21 74
REMARK SMILES IDX 22 75 23 76 24 77 28 78 25 79 27 80 26 81
REMARK H PARENT 73 23 51 34
REMARK Flexibility Score: inf
ROOT
ATOM      1  C   UNL A   1      32.733  31.268  26.969  1.00  0.00     0.274 C 
ENDROOT
BRANCH   1   2
ATOM      2  C   UNL A   1      31.675  32.367  27.051  1.00  0.00     0.275 C 
BRANCH   2   3
ATOM      3  O   UNL A   1      32.219  33.691  27.234  1.00  0.00    -0.458 OA
BRANCH   3   4
ATOM      4  C   UNL A   1      32.915  34.229  28.264  1.00  0.00     0.338 C 
ATOM      5  O   UNL A   1      32.526  35.297  28.738  1.00  0.00    -0.246 OA
BRANCH   4   6
ATOM      6  C   UNL A   1      34.179  33.659  28.829  1.00  0.00     0.060 A 
ATOM      7  C   UNL A   1      34.309  32.946  30.027  1.00  0.00     0.016 A 
ATOM      8  C   UNL A   1      35.354  33.927  28.101  1.00  0.00     0.016 A 
ATOM      9  C   UNL A   1      35.553  32.425  30.442  1.00  0.00     0.010 A 
ATOM     10  C   UNL A   1      36.594  33.433  28.523  1.00  0.00     0.010 A 
ATOM     11  C   UNL A   1      36.705  32.653  29.689  1.00  0.00    -0.014 A 
BRANCH  11  12
ATOM     12  C   UNL A   1      38.065  32.271  30.161  1.00  0.00     0.031 A 
ATOM     13  C   UNL A   1      38.602  30.954  29.677  1.00  0.00     0.074 A 
ATOM     14  C   UNL A   1      38.754  32.991  31.072  1.00  0.00     0.049 A 
ATOM     15  N   UNL A   1      39.650  30.281  30.069  1.00  0.00    -0.248 NA
ATOM     16  C   UNL A   1      37.833  30.303  28.600  1.00  0.00     0.031 C 
ATOM     17  C   UNL A   1      38.374  34.303  31.599  1.00  0.00     0.029 A 
ATOM     18  N   UNL A   1      39.879  32.662  31.800  1.00  0.00    -0.354 N 
ATOM     19  C   UNL A   1      39.669  29.137  29.284  1.00  0.00     0.074 A 
ATOM     20  C   UNL A   1      38.492  29.169  28.446  1.00  0.00     0.031 C 
ATOM     21  C   UNL A   1      39.148  34.596  32.662  1.00  0.00     0.029 A 
ATOM     22  C   UNL A   1      40.090  33.502  32.876  1.00  0.00     0.049 A 
ATOM     23  H   UNL A   1      40.470  31.908  31.575  1.00  0.00     0.167 HD
ATOM     24  C   UNL A   1      40.592  28.149  29.248  1.00  0.00     0.031 A 
ATOM     25  C   UNL A   1      40.892  33.355  33.953  1.00  0.00     0.031 A 
ATOM     26  C   UNL A   1      41.717  28.087  30.135  1.00  0.00     0.049 A 
ATOM     27  C   UNL A   1      41.779  32.136  34.030  1.00  0.00     0.074 A 
ATOM     28  C   UNL A   1      42.751  27.171  30.172  1.00  0.00     0.029 A 
ATOM     29  N   UNL A   1      41.920  28.971  31.185  1.00  0.00    -0.354 N 
ATOM     30  N   UNL A   1      41.907  31.147  33.175  1.00  0.00    -0.248 NA
ATOM     31  C   UNL A   1      42.655  32.024  35.206  1.00  0.00     0.031 C 
ATOM     32  C   UNL A   1      43.541  27.461  31.290  1.00  0.00     0.029 A 
ATOM     33  C   UNL A   1      43.024  28.583  31.919  1.00  0.00     0.049 A 
ATOM     34  H   UNL A   1      41.360  29.758  31.379  1.00  0.00     0.167 HD
ATOM     35  C   UNL A   1      42.931  30.346  33.667  1.00  0.00     0.074 A 
ATOM     36  C   UNL A   1      43.365  30.942  34.914  1.00  0.00     0.031 C 
ATOM     37  C   UNL A   1      43.478  29.232  33.123  1.00  0.00     0.031 A 
BRANCH  24  38
ATOM     38  C   UNL A   1      40.359  27.057  28.244  1.00  0.00    -0.014 A 
ATOM     39  C   UNL A   1      39.667  25.886  28.600  1.00  0.00     0.009 A 
ATOM     40  C   UNL A   1      40.918  27.150  26.963  1.00  0.00     0.009 A 
ATOM     41  C   UNL A   1      39.612  24.801  27.723  1.00  0.00     0.001 A 
ATOM     42  C   UNL A   1      40.836  26.075  26.076  1.00  0.00     0.001 A 
ATOM     43  C   UNL A   1      40.203  24.895  26.464  1.00  0.00     0.000 A 
ENDBRANCH  24  38
BRANCH  25  44
ATOM     44  C   UNL A   1      40.856  34.315  35.098  1.00  0.00    -0.014 A 
ATOM     45  C   UNL A   1      39.955  34.164  36.159  1.00  0.00     0.009 A 
ATOM     46  C   UNL A   1      41.660  35.466  35.075  1.00  0.00     0.009 A 
ATOM     47  C   UNL A   1      39.831  35.163  37.136  1.00  0.00     0.001 A 
ATOM     48  C   UNL A   1      41.537  36.464  36.045  1.00  0.00     0.001 A 
ATOM     49  C   UNL A   1      40.614  36.316  37.072  1.00  0.00     0.000 A 
ENDBRANCH  25  44
BRANCH  37  50
ATOM     50  C   UNL A   1      44.683  28.645  33.798  1.00  0.00    -0.014 A 
ATOM     51  C   UNL A   1      45.977  29.109  33.528  1.00  0.00     0.009 A 
ATOM     52  C   UNL A   1      44.498  27.673  34.796  1.00  0.00     0.009 A 
ATOM     53  C   UNL A   1      47.066  28.602  34.240  1.00  0.00     0.001 A 
ATOM     54  C   UNL A   1      45.585  27.189  35.524  1.00  0.00     0.001 A 
ATOM     55  C   UNL A   1      46.869  27.653  35.243  1.00  0.00     0.000 A 
ENDBRANCH  37  50
ENDBRANCH  11  12
ENDBRANCH   4   6
ENDBRANCH   3   4
ENDBRANCH   2   3
ENDBRANCH   1   2
BRANCH   1  56
ATOM     56  O   UNL A   1      32.281  30.214  26.115  1.00  0.00    -0.462 OA
BRANCH  56  57
ATOM     57  C   UNL A   1      33.120  29.156  25.891  1.00  0.00     0.310 C 
ATOM     58  O   UNL A   1      34.225  29.020  26.389  1.00  0.00    -0.252 OA
BRANCH  57  59
ATOM     59  C   UNL A   1      32.428  28.159  24.975  1.00  0.00     0.119 C 
ATOM     60  C   UNL A   1      31.085  28.744  24.529  1.00  0.00     0.019 C 
ATOM     61  C   UNL A   1      33.248  27.763  23.728  1.00  0.00     0.134 C 
ATOM     62  C   UNL A   1      30.367  27.741  23.658  1.00  0.00     0.022 C 
ATOM     63  N   UNL A   1      32.439  26.939  22.778  1.00  0.00    -0.342 N 
ATOM     64  C   UNL A   1      31.182  27.547  22.406  1.00  0.00     0.119 C 
BRANCH  63  65
ATOM     65  C   UNL A   1      32.832  25.663  22.425  1.00  0.00     0.225 C 
ATOM     66  O   UNL A   1      33.953  25.489  21.928  1.00  0.00    -0.275 OA
BRANCH  65  67
ATOM     67  C   UNL A   1      31.958  24.391  22.667  1.00  0.00     0.081 C 
ATOM     68  C   UNL A   1      31.102  24.260  23.920  1.00  0.00     0.030 C 
ATOM     69  C   UNL A   1      32.604  23.069  22.277  1.00  0.00     0.030 C 
ATOM     70  C   UNL A   1      31.514  23.250  24.990  1.00  0.00     0.103 C 
ATOM     71  C   UNL A   1      33.276  22.329  23.414  1.00  0.00     0.103 C 
ATOM     72  N   UNL A   1      32.399  22.094  24.586  1.00  0.00    -0.198 NA
BRANCH  72  73
ATOM     73  S   UNL A   1      33.277  21.574  26.012  1.00  0.00     0.243 S 
ATOM     74  O   UNL A   1      32.744  22.395  27.087  1.00  0.00    -0.207 OA
ATOM     75  O   UNL A   1      33.150  20.136  26.063  1.00  0.00    -0.207 OA
BRANCH  73  76
ATOM     76  C   UNL A   1      34.996  21.974  25.877  1.00  0.00     0.082 A 
ATOM     77  C   UNL A   1      35.400  23.293  26.116  1.00  0.00     0.022 A 
ATOM     78  C   UNL A   1      35.883  21.076  25.271  1.00  0.00     0.022 A 
ATOM     79  C   UNL A   1      36.694  23.698  25.786  1.00  0.00     0.001 A 
ATOM     80  C   UNL A   1      37.185  21.477  24.971  1.00  0.00     0.001 A 
ATOM     81  C   UNL A   1      37.587  22.786  25.226  1.00  0.00     0.000 A 
ENDBRANCH  73  76
ENDBRANCH  72  73
ENDBRANCH  65  67
ENDBRANCH  63  65
ENDBRANCH  57  59
ENDBRANCH  56  57
ENDBRANCH   1  56
TORSDOF 15
ENDMDL
