MODEL 1
REMARK VINA RESULT:     -11.3      0.000      0.000
REMARK SMILES O=C(CNC(=O)N1CC(OCCOC(=O)c2ccc(-c3c4nc(c(-c5ccccc5)c5ccc([nH]5)c(-c5ccccc5)c5nc(c(-c6ccccc6)c6ccc3[nH]6)C=C5)C=C4)cc2)=Nc2ccccc21)N[C@H](C(=O)[O-])c1ccccc1
REMARK SMILES IDX 11 1 10 2 9 3 7 4 8 5 70 6 65 7 69 8 64 9 66 10 68 11 67 12
REMARK SMILES IDX 5 13 4 14 6 16 3 17 2 18 1 19 71 20 72 22 76 23 77 24 81 25
REMARK SMILES IDX 78 26 80 27 79 28 73 29 74 30 75 31 12 32 13 33 14 34 15 35
REMARK SMILES IDX 16 36 17 37 63 38 18 39 62 40 19 41 20 42 21 43 56 44 22 45
REMARK SMILES IDX 61 46 55 47 57 48 23 49 60 50 54 51 53 52 24 54 46 55 31 56
REMARK SMILES IDX 45 57 32 58 35 59 44 60 58 61 33 62 34 63 43 65 59 66 36 67
REMARK SMILES IDX 25 68 26 69 30 70 27 71 29 72 28 73 47 74 48 75 52 76 49 77
REMARK SMILES IDX 51 78 50 79 37 80 38 81 42 82 39 83 41 84 40 85
REMARK H PARENT 4 15 71 21 57 53 35 64
REMARK Flexibility Score: inf
ROOT
ATOM      1  C   UNL A   1      38.097  21.227  25.479  1.00  0.00     0.272 C 
ENDROOT
BRANCH   1   2
ATOM      2  O   UNL A   1      37.017  21.393  24.528  1.00  0.00    -0.476 OA
BRANCH   2   3
ATOM      3  C   UNL A   1      35.749  21.393  25.004  1.00  0.00     0.209 C 
ATOM      4  N   UNL A   1      33.467  21.531  24.156  1.00  0.00    -0.283 N 
ATOM      5  C   UNL A   1      34.740  20.832  24.032  1.00  0.00     0.224 C 
ATOM      6  C   UNL A   1      33.063  21.825  25.502  1.00  0.00     0.072 A 
ATOM      7  C   UNL A   1      34.085  21.948  26.489  1.00  0.00     0.091 A 
ATOM      8  C   UNL A   1      31.762  22.231  25.823  1.00  0.00     0.029 A 
ATOM      9  N   UNL A   1      35.455  21.829  26.184  1.00  0.00    -0.214 NA
ATOM     10  C   UNL A   1      33.788  22.493  27.744  1.00  0.00     0.030 A 
ATOM     11  C   UNL A   1      31.490  22.789  27.082  1.00  0.00     0.002 A 
ATOM     12  C   UNL A   1      32.500  22.930  28.035  1.00  0.00     0.002 A 
BRANCH   4  13
ATOM     13  C   UNL A   1      32.618  21.453  23.073  1.00  0.00     0.322 C 
ATOM     14  N   UNL A   1      32.564  22.546  22.239  1.00  0.00    -0.329 N 
ATOM     15  H   UNL A   1      32.462  22.367  21.276  1.00  0.00     0.165 HD
ATOM     16  O   UNL A   1      32.035  20.419  22.757  1.00  0.00    -0.248 OA
BRANCH  14  17
ATOM     17  C   UNL A   1      32.644  23.943  22.645  1.00  0.00     0.218 C 
BRANCH  17  18
ATOM     18  C   UNL A   1      31.402  24.747  23.077  1.00  0.00     0.240 C 
ATOM     19  O   UNL A   1      30.300  24.206  23.162  1.00  0.00    -0.273 OA
ATOM     20  N   UNL A   1      31.661  26.005  23.565  1.00  0.00    -0.342 N 
ATOM     21  H   UNL A   1      32.594  26.318  23.544  1.00  0.00     0.164 HD
BRANCH  20  22
ATOM     22  C   UNL A   1      30.651  26.915  24.115  1.00  0.00     0.158 C 
BRANCH  22  23
ATOM     23  C   UNL A   1      31.199  27.811  25.215  1.00  0.00    -0.020 A 
ATOM     24  C   UNL A   1      31.457  29.166  24.956  1.00  0.00     0.006 A 
ATOM     25  C   UNL A   1      31.440  27.317  26.508  1.00  0.00     0.006 A 
ATOM     26  C   UNL A   1      31.939  30.001  25.964  1.00  0.00     0.000 A 
ATOM     27  C   UNL A   1      31.911  28.156  27.517  1.00  0.00     0.000 A 
ATOM     28  C   UNL A   1      32.159  29.498  27.245  1.00  0.00     0.000 A 
ENDBRANCH  22  23
BRANCH  22  29
ATOM     29  C   UNL A   1      29.710  27.664  23.140  1.00  0.00     0.068 C 
ATOM     30  O   UNL A   1      28.504  27.837  23.283  1.00  0.00    -0.548 OA
ATOM     31  O   UNL A   1      30.256  28.011  21.958  1.00  0.00    -0.548 OA
ENDBRANCH  22  29
ENDBRANCH  20  22
ENDBRANCH  17  18
ENDBRANCH  14  17
ENDBRANCH   4  13
ENDBRANCH   2   3
ENDBRANCH   1   2
BRANCH   1  32
ATOM     32  C   UNL A   1      38.995  20.011  25.172  1.00  0.00     0.274 C 
BRANCH  32  33
ATOM     33  O   UNL A   1      39.778  19.519  26.294  1.00  0.00    -0.458 OA
BRANCH  33  34
ATOM     34  C   UNL A   1      41.113  19.631  26.108  1.00  0.00     0.338 C 
ATOM     35  O   UNL A   1      41.795  18.790  25.530  1.00  0.00    -0.246 OA
BRANCH  34  36
ATOM     36  C   UNL A   1      41.696  20.952  26.486  1.00  0.00     0.060 A 
ATOM     37  C   UNL A   1      41.597  21.219  27.840  1.00  0.00     0.016 A 
ATOM     38  C   UNL A   1      42.142  21.985  25.666  1.00  0.00     0.016 A 
ATOM     39  C   UNL A   1      41.843  22.453  28.409  1.00  0.00     0.010 A 
ATOM     40  C   UNL A   1      42.460  23.254  26.239  1.00  0.00     0.010 A 
ATOM     41  C   UNL A   1      42.304  23.493  27.620  1.00  0.00    -0.014 A 
BRANCH  41  42
ATOM     42  C   UNL A   1      42.574  24.753  28.365  1.00  0.00     0.031 A 
ATOM     43  C   UNL A   1      43.987  25.192  28.636  1.00  0.00     0.074 A 
ATOM     44  C   UNL A   1      41.583  25.664  28.486  1.00  0.00     0.049 A 
ATOM     45  N   UNL A   1      44.415  26.301  29.189  1.00  0.00    -0.248 NA
ATOM     46  C   UNL A   1      45.056  24.287  28.191  1.00  0.00     0.031 C 
ATOM     47  C   UNL A   1      40.208  25.466  28.022  1.00  0.00     0.029 A 
ATOM     48  N   UNL A   1      41.594  26.961  28.940  1.00  0.00    -0.354 N 
ATOM     49  C   UNL A   1      45.801  26.208  29.200  1.00  0.00     0.074 A 
ATOM     50  C   UNL A   1      46.141  24.953  28.561  1.00  0.00     0.031 C 
ATOM     51  C   UNL A   1      39.529  26.617  28.157  1.00  0.00     0.029 A 
ATOM     52  C   UNL A   1      40.386  27.606  28.804  1.00  0.00     0.049 A 
ATOM     53  H   UNL A   1      42.392  27.390  29.326  1.00  0.00     0.167 HD
ATOM     54  C   UNL A   1      46.701  27.071  29.733  1.00  0.00     0.031 A 
ATOM     55  C   UNL A   1      39.998  28.840  29.189  1.00  0.00     0.031 A 
ATOM     56  C   UNL A   1      46.358  28.312  30.379  1.00  0.00     0.049 A 
ATOM     57  C   UNL A   1      40.984  29.715  29.916  1.00  0.00     0.074 A 
ATOM     58  C   UNL A   1      47.180  29.186  31.073  1.00  0.00     0.029 A 
ATOM     59  N   UNL A   1      45.085  28.861  30.405  1.00  0.00    -0.354 N 
ATOM     60  N   UNL A   1      42.271  29.539  30.093  1.00  0.00    -0.248 NA
ATOM     61  C   UNL A   1      40.453  30.939  30.534  1.00  0.00     0.031 C 
ATOM     62  C   UNL A   1      46.390  30.229  31.571  1.00  0.00     0.029 A 
ATOM     63  C   UNL A   1      45.091  30.044  31.127  1.00  0.00     0.049 A 
ATOM     64  H   UNL A   1      44.292  28.468  29.974  1.00  0.00     0.167 HD
ATOM     65  C   UNL A   1      42.701  30.624  30.848  1.00  0.00     0.074 A 
ATOM     66  C   UNL A   1      41.549  31.475  31.055  1.00  0.00     0.031 C 
ATOM     67  C   UNL A   1      43.937  30.879  31.343  1.00  0.00     0.031 A 
BRANCH  54  68
ATOM     68  C   UNL A   1      48.134  26.620  29.766  1.00  0.00    -0.014 A 
ATOM     69  C   UNL A   1      48.647  25.812  30.791  1.00  0.00     0.009 A 
ATOM     70  C   UNL A   1      48.992  27.036  28.734  1.00  0.00     0.009 A 
ATOM     71  C   UNL A   1      50.002  25.463  30.800  1.00  0.00     0.001 A 
ATOM     72  C   UNL A   1      50.337  26.666  28.732  1.00  0.00     0.001 A 
ATOM     73  C   UNL A   1      50.843  25.889  29.771  1.00  0.00     0.000 A 
ENDBRANCH  54  68
BRANCH  55  74
ATOM     74  C   UNL A   1      38.585  29.287  29.012  1.00  0.00    -0.014 A 
ATOM     75  C   UNL A   1      37.637  29.141  30.037  1.00  0.00     0.009 A 
ATOM     76  C   UNL A   1      38.160  29.807  27.777  1.00  0.00     0.009 A 
ATOM     77  C   UNL A   1      36.298  29.484  29.821  1.00  0.00     0.001 A 
ATOM     78  C   UNL A   1      36.832  30.187  27.577  1.00  0.00     0.001 A 
ATOM     79  C   UNL A   1      35.899  30.013  28.595  1.00  0.00     0.000 A 
ENDBRANCH  55  74
BRANCH  67  80
ATOM     80  C   UNL A   1      44.106  32.139  32.148  1.00  0.00    -0.014 A 
ATOM     81  C   UNL A   1      44.373  33.370  31.528  1.00  0.00     0.009 A 
ATOM     82  C   UNL A   1      43.979  32.097  33.546  1.00  0.00     0.009 A 
ATOM     83  C   UNL A   1      44.549  34.525  32.293  1.00  0.00     0.001 A 
ATOM     84  C   UNL A   1      44.125  33.259  34.306  1.00  0.00     0.001 A 
ATOM     85  C   UNL A   1      44.422  34.469  33.681  1.00  0.00     0.000 A 
ENDBRANCH  67  80
ENDBRANCH  41  42
ENDBRANCH  34  36
ENDBRANCH  33  34
ENDBRANCH  32  33
ENDBRANCH   1  32
TORSDOF 16
ENDMDL
MODEL 2
REMARK VINA RESULT:     -11.2      3.218      8.255
REMARK SMILES O=C(CNC(=O)N1CC(OCCOC(=O)c2ccc(-c3c4nc(c(-c5ccccc5)c5ccc([nH]5)c(-c5ccccc5)c5nc(c(-c6ccccc6)c6ccc3[nH]6)C=C5)C=C4)cc2)=Nc2ccccc21)N[C@H](C(=O)[O-])c1ccccc1
REMARK SMILES IDX 11 1 10 2 9 3 7 4 8 5 70 6 65 7 69 8 64 9 66 10 68 11 67 12
REMARK SMILES IDX 5 13 4 14 6 16 3 17 2 18 1 19 71 20 72 22 76 23 77 24 81 25
REMARK SMILES IDX 78 26 80 27 79 28 73 29 74 30 75 31 12 32 13 33 14 34 15 35
REMARK SMILES IDX 16 36 17 37 63 38 18 39 62 40 19 41 20 42 21 43 56 44 22 45
REMARK SMILES IDX 61 46 55 47 57 48 23 49 60 50 54 51 53 52 24 54 46 55 31 56
REMARK SMILES IDX 45 57 32 58 35 59 44 60 58 61 33 62 34 63 43 65 59 66 36 67
REMARK SMILES IDX 25 68 26 69 30 70 27 71 29 72 28 73 47 74 48 75 52 76 49 77
REMARK SMILES IDX 51 78 50 79 37 80 38 81 42 82 39 83 41 84 40 85
REMARK H PARENT 4 15 71 21 57 53 35 64
REMARK Flexibility Score: inf
ROOT
ATOM      1  C   UNL A   1      32.761  27.921  24.136  1.00  0.00     0.272 C 
ENDROOT
BRANCH   1   2
ATOM      2  O   UNL A   1      33.511  27.016  24.981  1.00  0.00    -0.476 OA
BRANCH   2   3
ATOM      3  C   UNL A   1      33.194  25.700  24.937  1.00  0.00     0.209 C 
ATOM      4  N   UNL A   1      33.895  23.603  25.966  1.00  0.00    -0.283 N 
ATOM      5  C   UNL A   1      33.464  24.971  26.230  1.00  0.00     0.224 C 
ATOM      6  C   UNL A   1      33.184  22.934  24.913  1.00  0.00     0.072 A 
ATOM      7  C   UNL A   1      32.585  23.740  23.901  1.00  0.00     0.091 A 
ATOM      8  C   UNL A   1      33.266  21.550  24.714  1.00  0.00     0.029 A 
ATOM      9  N   UNL A   1      32.698  25.144  23.881  1.00  0.00    -0.214 NA
ATOM     10  C   UNL A   1      32.118  23.152  22.719  1.00  0.00     0.030 A 
ATOM     11  C   UNL A   1      32.806  20.984  23.515  1.00  0.00     0.002 A 
ATOM     12  C   UNL A   1      32.245  21.782  22.517  1.00  0.00     0.002 A 
BRANCH   4  13
ATOM     13  C   UNL A   1      34.591  22.975  26.976  1.00  0.00     0.322 C 
ATOM     14  N   UNL A   1      35.962  23.091  26.959  1.00  0.00    -0.329 N 
ATOM     15  H   UNL A   1      36.414  23.172  27.831  1.00  0.00     0.165 HD
ATOM     16  O   UNL A   1      34.038  22.453  27.941  1.00  0.00    -0.248 OA
BRANCH  14  17
ATOM     17  C   UNL A   1      36.809  23.105  25.775  1.00  0.00     0.218 C 
BRANCH  17  18
ATOM     18  C   UNL A   1      38.005  22.148  25.606  1.00  0.00     0.240 C 
ATOM     19  O   UNL A   1      38.008  21.294  24.721  1.00  0.00    -0.273 OA
ATOM     20  N   UNL A   1      39.119  22.468  26.344  1.00  0.00    -0.342 N 
ATOM     21  H   UNL A   1      39.052  23.232  26.962  1.00  0.00     0.164 HD
BRANCH  20  22
ATOM     22  C   UNL A   1      40.401  21.757  26.280  1.00  0.00     0.158 C 
BRANCH  22  23
ATOM     23  C   UNL A   1      41.553  22.562  26.861  1.00  0.00    -0.020 A 
ATOM     24  C   UNL A   1      41.386  23.263  28.065  1.00  0.00     0.006 A 
ATOM     25  C   UNL A   1      42.805  22.609  26.226  1.00  0.00     0.006 A 
ATOM     26  C   UNL A   1      42.443  23.986  28.617  1.00  0.00     0.000 A 
ATOM     27  C   UNL A   1      43.864  23.322  26.785  1.00  0.00     0.000 A 
ATOM     28  C   UNL A   1      43.682  24.010  27.981  1.00  0.00     0.000 A 
ENDBRANCH  22  23
BRANCH  22  29
ATOM     29  C   UNL A   1      40.445  20.262  26.681  1.00  0.00     0.068 C 
ATOM     30  O   UNL A   1      40.668  19.817  27.802  1.00  0.00    -0.548 OA
ATOM     31  O   UNL A   1      40.387  19.385  25.660  1.00  0.00    -0.548 OA
ENDBRANCH  22  29
ENDBRANCH  20  22
ENDBRANCH  17  18
ENDBRANCH  14  17
ENDBRANCH   4  13
ENDBRANCH   2   3
ENDBRANCH   1   2
BRANCH   1  32
ATOM     32  C   UNL A   1      32.729  29.367  24.672  1.00  0.00     0.274 C 
BRANCH  32  33
ATOM     33  O   UNL A   1      32.145  29.526  25.994  1.00  0.00    -0.458 OA
BRANCH  33  34
ATOM     34  C   UNL A   1      32.487  30.688  26.597  1.00  0.00     0.338 C 
ATOM     35  O   UNL A   1      31.714  31.626  26.759  1.00  0.00    -0.246 OA
BRANCH  34  36
ATOM     36  C   UNL A   1      33.836  30.695  27.238  1.00  0.00     0.060 A 
ATOM     37  C   UNL A   1      34.269  29.431  27.598  1.00  0.00     0.016 A 
ATOM     38  C   UNL A   1      34.601  31.775  27.668  1.00  0.00     0.016 A 
ATOM     39  C   UNL A   1      35.361  29.185  28.407  1.00  0.00     0.010 A 
ATOM     40  C   UNL A   1      35.770  31.543  28.456  1.00  0.00     0.010 A 
ATOM     41  C   UNL A   1      36.150  30.239  28.835  1.00  0.00    -0.014 A 
BRANCH  41  42
ATOM     42  C   UNL A   1      37.321  29.832  29.660  1.00  0.00     0.031 A 
ATOM     43  C   UNL A   1      38.565  29.296  29.007  1.00  0.00     0.074 A 
ATOM     44  C   UNL A   1      37.399  30.265  30.937  1.00  0.00     0.049 A 
ATOM     45  N   UNL A   1      39.712  28.977  29.556  1.00  0.00    -0.248 NA
ATOM     46  C   UNL A   1      38.529  29.139  27.546  1.00  0.00     0.031 C 
ATOM     47  C   UNL A   1      36.358  31.034  31.623  1.00  0.00     0.029 A 
ATOM     48  N   UNL A   1      38.424  30.210  31.852  1.00  0.00    -0.354 N 
ATOM     49  C   UNL A   1      40.520  28.537  28.515  1.00  0.00     0.074 A 
ATOM     50  C   UNL A   1      39.745  28.671  27.298  1.00  0.00     0.031 C 
ATOM     51  C   UNL A   1      36.820  31.430  32.819  1.00  0.00     0.029 A 
ATOM     52  C   UNL A   1      38.150  30.867  33.030  1.00  0.00     0.049 A 
ATOM     53  H   UNL A   1      39.274  29.744  31.680  1.00  0.00     0.167 HD
ATOM     54  C   UNL A   1      41.776  28.030  28.577  1.00  0.00     0.031 A 
ATOM     55  C   UNL A   1      38.870  30.973  34.167  1.00  0.00     0.031 A 
ATOM     56  C   UNL A   1      42.539  27.886  29.791  1.00  0.00     0.049 A 
ATOM     57  C   UNL A   1      40.197  30.267  34.252  1.00  0.00     0.074 A 
ATOM     58  C   UNL A   1      43.760  27.258  29.979  1.00  0.00     0.029 A 
ATOM     59  N   UNL A   1      42.157  28.387  31.025  1.00  0.00    -0.354 N 
ATOM     60  N   UNL A   1      40.884  29.681  33.302  1.00  0.00    -0.248 NA
ATOM     61  C   UNL A   1      40.827  30.198  35.579  1.00  0.00     0.031 C 
ATOM     62  C   UNL A   1      44.081  27.324  31.341  1.00  0.00     0.029 A 
ATOM     63  C   UNL A   1      43.099  28.056  31.986  1.00  0.00     0.049 A 
ATOM     64  H   UNL A   1      41.335  28.902  31.196  1.00  0.00     0.167 HD
ATOM     65  C   UNL A   1      42.020  29.169  33.916  1.00  0.00     0.074 A 
ATOM     66  C   UNL A   1      41.953  29.554  35.310  1.00  0.00     0.031 C 
ATOM     67  C   UNL A   1      43.019  28.428  33.376  1.00  0.00     0.031 A 
BRANCH  54  68
ATOM     68  C   UNL A   1      42.338  27.456  27.307  1.00  0.00    -0.014 A 
ATOM     69  C   UNL A   1      43.645  27.719  26.873  1.00  0.00     0.009 A 
ATOM     70  C   UNL A   1      41.514  26.632  26.522  1.00  0.00     0.009 A 
ATOM     71  C   UNL A   1      44.100  27.200  25.657  1.00  0.00     0.001 A 
ATOM     72  C   UNL A   1      41.979  26.094  25.321  1.00  0.00     0.001 A 
ATOM     73  C   UNL A   1      43.268  26.388  24.884  1.00  0.00     0.000 A 
ENDBRANCH  54  68
BRANCH  55  74
ATOM     74  C   UNL A   1      38.313  31.672  35.362  1.00  0.00    -0.014 A 
ATOM     75  C   UNL A   1      38.209  33.072  35.410  1.00  0.00     0.009 A 
ATOM     76  C   UNL A   1      37.942  30.934  36.499  1.00  0.00     0.009 A 
ATOM     77  C   UNL A   1      37.768  33.712  36.573  1.00  0.00     0.001 A 
ATOM     78  C   UNL A   1      37.463  31.574  37.644  1.00  0.00     0.001 A 
ATOM     79  C   UNL A   1      37.388  32.963  37.685  1.00  0.00     0.000 A 
ENDBRANCH  55  74
BRANCH  67  80
ATOM     80  C   UNL A   1      44.127  27.995  34.297  1.00  0.00    -0.014 A 
ATOM     81  C   UNL A   1      45.214  28.839  34.575  1.00  0.00     0.009 A 
ATOM     82  C   UNL A   1      44.074  26.733  34.910  1.00  0.00     0.009 A 
ATOM     83  C   UNL A   1      46.245  28.412  35.416  1.00  0.00     0.001 A 
ATOM     84  C   UNL A   1      45.090  26.321  35.773  1.00  0.00     0.001 A 
ATOM     85  C   UNL A   1      46.180  27.155  36.016  1.00  0.00     0.000 A 
ENDBRANCH  67  80
ENDBRANCH  41  42
ENDBRANCH  34  36
ENDBRANCH  33  34
ENDBRANCH  32  33
ENDBRANCH   1  32
TORSDOF 16
ENDMDL
MODEL 3
REMARK VINA RESULT:     -11.0      1.828      7.952
REMARK SMILES O=C(CNC(=O)N1CC(OCCOC(=O)c2ccc(-c3c4nc(c(-c5ccccc5)c5ccc([nH]5)c(-c5ccccc5)c5nc(c(-c6ccccc6)c6ccc3[nH]6)C=C5)C=C4)cc2)=Nc2ccccc21)N[C@H](C(=O)[O-])c1ccccc1
REMARK SMILES IDX 11 1 10 2 9 3 7 4 8 5 70 6 65 7 69 8 64 9 66 10 68 11 67 12
REMARK SMILES IDX 5 13 4 14 6 16 3 17 2 18 1 19 71 20 72 22 76 23 77 24 81 25
REMARK SMILES IDX 78 26 80 27 79 28 73 29 74 30 75 31 12 32 13 33 14 34 15 35
REMARK SMILES IDX 16 36 17 37 63 38 18 39 62 40 19 41 20 42 21 43 56 44 22 45
REMARK SMILES IDX 61 46 55 47 57 48 23 49 60 50 54 51 53 52 24 54 46 55 31 56
REMARK SMILES IDX 45 57 32 58 35 59 44 60 58 61 33 62 34 63 43 65 59 66 36 67
REMARK SMILES IDX 25 68 26 69 30 70 27 71 29 72 28 73 47 74 48 75 52 76 49 77
REMARK SMILES IDX 51 78 50 79 37 80 38 81 42 82 39 83 41 84 40 85
REMARK H PARENT 4 15 71 21 57 53 35 64
REMARK Flexibility Score: inf
ROOT
ATOM      1  C   UNL A   1      32.190  29.115  25.518  1.00  0.00     0.272 C 
ENDROOT
BRANCH   1   2
ATOM      2  O   UNL A   1      31.034  28.244  25.562  1.00  0.00    -0.476 OA
BRANCH   2   3
ATOM      3  C   UNL A   1      31.103  27.066  24.897  1.00  0.00     0.209 C 
ATOM      4  N   UNL A   1      31.154  24.677  25.387  1.00  0.00    -0.283 N 
ATOM      5  C   UNL A   1      30.435  25.924  25.622  1.00  0.00     0.224 C 
ATOM      6  C   UNL A   1      31.614  24.486  24.040  1.00  0.00     0.072 A 
ATOM      7  C   UNL A   1      31.849  25.648  23.248  1.00  0.00     0.091 A 
ATOM      8  C   UNL A   1      32.067  23.247  23.571  1.00  0.00     0.029 A 
ATOM      9  N   UNL A   1      31.683  26.955  23.747  1.00  0.00    -0.214 NA
ATOM     10  C   UNL A   1      32.547  25.545  22.039  1.00  0.00     0.030 A 
ATOM     11  C   UNL A   1      32.778  23.169  22.364  1.00  0.00     0.002 A 
ATOM     12  C   UNL A   1      33.027  24.314  21.606  1.00  0.00     0.002 A 
BRANCH   4  13
ATOM     13  C   UNL A   1      30.950  23.670  26.305  1.00  0.00     0.322 C 
ATOM     14  N   UNL A   1      31.973  23.411  27.188  1.00  0.00    -0.329 N 
ATOM     15  H   UNL A   1      31.718  23.165  28.107  1.00  0.00     0.165 HD
ATOM     16  O   UNL A   1      29.866  23.112  26.452  1.00  0.00    -0.248 OA
BRANCH  14  17
ATOM     17  C   UNL A   1      33.398  23.465  26.893  1.00  0.00     0.218 C 
BRANCH  17  18
ATOM     18  C   UNL A   1      34.285  22.204  26.879  1.00  0.00     0.240 C 
ATOM     19  O   UNL A   1      34.562  21.618  27.925  1.00  0.00    -0.273 OA
ATOM     20  N   UNL A   1      34.535  21.678  25.635  1.00  0.00    -0.342 N 
ATOM     21  H   UNL A   1      34.189  22.170  24.855  1.00  0.00     0.164 HD
BRANCH  20  22
ATOM     22  C   UNL A   1      35.276  20.438  25.381  1.00  0.00     0.158 C 
BRANCH  22  23
ATOM     23  C   UNL A   1      34.456  19.401  24.629  1.00  0.00    -0.020 A 
ATOM     24  C   UNL A   1      33.222  19.756  24.063  1.00  0.00     0.006 A 
ATOM     25  C   UNL A   1      34.914  18.083  24.469  1.00  0.00     0.006 A 
ATOM     26  C   UNL A   1      32.473  18.819  23.352  1.00  0.00     0.000 A 
ATOM     27  C   UNL A   1      34.169  17.151  23.748  1.00  0.00     0.000 A 
ATOM     28  C   UNL A   1      32.949  17.519  23.189  1.00  0.00     0.000 A 
ENDBRANCH  22  23
BRANCH  22  29
ATOM     29  C   UNL A   1      36.738  20.532  24.879  1.00  0.00     0.068 C 
ATOM     30  O   UNL A   1      37.512  19.595  24.717  1.00  0.00    -0.548 OA
ATOM     31  O   UNL A   1      37.234  21.779  24.765  1.00  0.00    -0.548 OA
ENDBRANCH  22  29
ENDBRANCH  20  22
ENDBRANCH  17  18
ENDBRANCH  14  17
ENDBRANCH   4  13
ENDBRANCH   2   3
ENDBRANCH   1   2
BRANCH   1  32
ATOM     32  C   UNL A   1      32.824  29.353  26.904  1.00  0.00     0.274 C 
BRANCH  32  33
ATOM     33  O   UNL A   1      34.271  29.486  26.910  1.00  0.00    -0.458 OA
BRANCH  33  34
ATOM     34  C   UNL A   1      34.721  30.424  27.774  1.00  0.00     0.338 C 
ATOM     35  O   UNL A   1      34.065  31.401  28.124  1.00  0.00    -0.246 OA
BRANCH  34  36
ATOM     36  C   UNL A   1      36.016  30.101  28.443  1.00  0.00     0.060 A 
ATOM     37  C   UNL A   1      37.093  30.129  27.575  1.00  0.00     0.016 A 
ATOM     38  C   UNL A   1      36.248  29.617  29.727  1.00  0.00     0.016 A 
ATOM     39  C   UNL A   1      38.350  29.647  27.881  1.00  0.00     0.010 A 
ATOM     40  C   UNL A   1      37.555  29.168  30.087  1.00  0.00     0.010 A 
ATOM     41  C   UNL A   1      38.614  29.177  29.156  1.00  0.00    -0.014 A 
BRANCH  41  42
ATOM     42  C   UNL A   1      40.019  28.731  29.366  1.00  0.00     0.031 A 
ATOM     43  C   UNL A   1      40.487  27.406  28.832  1.00  0.00     0.074 A 
ATOM     44  C   UNL A   1      40.947  29.648  29.718  1.00  0.00     0.049 A 
ATOM     45  N   UNL A   1      41.693  26.892  28.840  1.00  0.00    -0.248 NA
ATOM     46  C   UNL A   1      39.478  26.569  28.167  1.00  0.00     0.031 C 
ATOM     47  C   UNL A   1      40.662  31.054  30.013  1.00  0.00     0.029 A 
ATOM     48  N   UNL A   1      42.318  29.567  29.792  1.00  0.00    -0.354 N 
ATOM     49  C   UNL A   1      41.581  25.653  28.223  1.00  0.00     0.074 A 
ATOM     50  C   UNL A   1      40.198  25.511  27.816  1.00  0.00     0.031 C 
ATOM     51  C   UNL A   1      41.820  31.713  30.174  1.00  0.00     0.029 A 
ATOM     52  C   UNL A   1      42.927  30.765  30.090  1.00  0.00     0.049 A 
ATOM     53  H   UNL A   1      42.817  28.731  29.647  1.00  0.00     0.167 HD
ATOM     54  C   UNL A   1      42.536  24.705  28.052  1.00  0.00     0.031 A 
ATOM     55  C   UNL A   1      44.225  31.062  30.308  1.00  0.00     0.031 A 
ATOM     56  C   UNL A   1      43.908  24.844  28.470  1.00  0.00     0.049 A 
ATOM     57  C   UNL A   1      45.240  29.951  30.258  1.00  0.00     0.074 A 
ATOM     58  C   UNL A   1      44.916  23.894  28.469  1.00  0.00     0.029 A 
ATOM     59  N   UNL A   1      44.468  26.015  28.957  1.00  0.00    -0.354 N 
ATOM     60  N   UNL A   1      45.093  28.715  29.849  1.00  0.00    -0.248 NA
ATOM     61  C   UNL A   1      46.592  30.267  30.744  1.00  0.00     0.031 C 
ATOM     62  C   UNL A   1      46.067  24.474  29.016  1.00  0.00     0.029 A 
ATOM     63  C   UNL A   1      45.797  25.805  29.290  1.00  0.00     0.049 A 
ATOM     64  H   UNL A   1      43.991  26.871  29.054  1.00  0.00     0.167 HD
ATOM     65  C   UNL A   1      46.328  28.104  30.034  1.00  0.00     0.074 A 
ATOM     66  C   UNL A   1      47.224  29.118  30.548  1.00  0.00     0.031 C 
ATOM     67  C   UNL A   1      46.680  26.814  29.817  1.00  0.00     0.031 A 
BRANCH  54  68
ATOM     68  C   UNL A   1      42.083  23.376  27.516  1.00  0.00    -0.014 A 
ATOM     69  C   UNL A   1      41.479  22.403  28.325  1.00  0.00     0.009 A 
ATOM     70  C   UNL A   1      42.285  23.099  26.153  1.00  0.00     0.009 A 
ATOM     71  C   UNL A   1      41.123  21.162  27.785  1.00  0.00     0.001 A 
ATOM     72  C   UNL A   1      41.905  21.871  25.612  1.00  0.00     0.001 A 
ATOM     73  C   UNL A   1      41.335  20.899  26.431  1.00  0.00     0.000 A 
ENDBRANCH  54  68
BRANCH  55  74
ATOM     74  C   UNL A   1      44.637  32.438  30.712  1.00  0.00    -0.014 A 
ATOM     75  C   UNL A   1      44.633  32.838  32.059  1.00  0.00     0.009 A 
ATOM     76  C   UNL A   1      44.975  33.389  29.734  1.00  0.00     0.009 A 
ATOM     77  C   UNL A   1      44.937  34.158  32.410  1.00  0.00     0.001 A 
ATOM     78  C   UNL A   1      45.319  34.694  30.090  1.00  0.00     0.001 A 
ATOM     79  C   UNL A   1      45.286  35.082  31.426  1.00  0.00     0.000 A 
ENDBRANCH  55  74
BRANCH  67  80
ATOM     80  C   UNL A   1      48.102  26.429  30.125  1.00  0.00    -0.014 A 
ATOM     81  C   UNL A   1      49.116  26.556  29.163  1.00  0.00     0.009 A 
ATOM     82  C   UNL A   1      48.435  25.951  31.402  1.00  0.00     0.009 A 
ATOM     83  C   UNL A   1      50.427  26.174  29.461  1.00  0.00     0.001 A 
ATOM     84  C   UNL A   1      49.751  25.598  31.706  1.00  0.00     0.001 A 
ATOM     85  C   UNL A   1      50.743  25.698  30.732  1.00  0.00     0.000 A 
ENDBRANCH  67  80
ENDBRANCH  41  42
ENDBRANCH  34  36
ENDBRANCH  33  34
ENDBRANCH  32  33
ENDBRANCH   1  32
TORSDOF 16
ENDMDL
