MODEL 1
REMARK VINA RESULT:     -11.7      0.000      0.000
REMARK SMILES C[N@H+]1CCO[C@H](c2noc(-c3ccccc3C(=O)OCCOC(=O)c3ccc(-c4c5nc(c(-c6ccccc6)c6ccc([nH]6)c(-c6ccccc6)c6nc(c(-c7ccccc7)c7ccc4[nH]7)C=C6)C=C5)cc3)n2)C1
REMARK SMILES IDX 20 1 19 2 17 3 18 4 16 5 11 6 12 7 13 8 15 9 14 10 10 11
REMARK SMILES IDX 7 12 8 13 73 14 9 15 6 16 1 17 2 18 3 19 74 20 4 22 5 23
REMARK SMILES IDX 21 24 22 25 23 26 24 27 25 28 26 29 72 30 27 31 71 32 28 33
REMARK SMILES IDX 29 34 30 35 65 36 31 37 70 38 64 39 66 40 32 41 69 42 63 43
REMARK SMILES IDX 62 44 33 46 55 47 40 48 54 49 41 50 44 51 53 52 67 53 42 54
REMARK SMILES IDX 43 55 52 57 68 58 45 59 34 60 35 61 39 62 36 63 38 64 37 65
REMARK SMILES IDX 56 66 57 67 61 68 58 69 60 70 59 71 46 72 47 73 51 74 48 75
REMARK SMILES IDX 50 76 49 77
REMARK H PARENT 2 21 66 45 44 56
REMARK Flexibility Score: inf
ROOT
ATOM      1  C   UNL A   1      35.317  21.742  26.155  1.00  0.00     0.275 C 
ENDROOT
BRANCH   1   2
ATOM      2  O   UNL A   1      35.324  23.080  25.619  1.00  0.00    -0.458 OA
BRANCH   2   3
ATOM      3  C   UNL A   1      34.491  23.330  24.578  1.00  0.00     0.339 C 
ATOM      4  O   UNL A   1      34.726  23.150  23.398  1.00  0.00    -0.246 OA
BRANCH   3   5
ATOM      5  C   UNL A   1      33.150  23.741  25.076  1.00  0.00     0.072 A 
ATOM      6  C   UNL A   1      32.003  22.937  24.945  1.00  0.00     0.054 A 
ATOM      7  C   UNL A   1      30.774  23.433  25.419  1.00  0.00     0.015 A 
ATOM      8  C   UNL A   1      30.692  24.691  26.024  1.00  0.00     0.001 A 
ATOM      9  C   UNL A   1      33.063  24.986  25.722  1.00  0.00     0.016 A 
ATOM     10  C   UNL A   1      31.837  25.466  26.178  1.00  0.00     0.001 A 
BRANCH   6  11
ATOM     11  C   UNL A   1      32.086  21.590  24.414  1.00  0.00     0.258 A 
ATOM     12  C   UNL A   1      32.434  19.567  24.012  1.00  0.00     0.206 A 
ATOM     13  N   UNL A   1      32.153  20.075  22.802  1.00  0.00    -0.059 NA
ATOM     14  N   UNL A   1      32.340  20.467  25.044  1.00  0.00    -0.189 NA
ATOM     15  O   UNL A   1      31.933  21.432  23.067  1.00  0.00    -0.334 OA
BRANCH  12  16
ATOM     16  C   UNL A   1      32.805  18.131  24.228  1.00  0.00     0.245 C 
ATOM     17  C   UNL A   1      32.153  15.450  25.775  1.00  0.00     0.332 C 
ATOM     18  N   UNL A   1      33.251  16.376  26.039  1.00  0.00    -0.333 N 
ATOM     19  C   UNL A   1      34.464  16.040  25.266  1.00  0.00     0.290 C 
ATOM     20  C   UNL A   1      32.865  17.776  25.741  1.00  0.00     0.303 C 
ATOM     21  H   UNL A   1      33.462  16.283  27.032  1.00  0.00     0.348 HD
ATOM     22  C   UNL A   1      34.396  16.433  23.781  1.00  0.00     0.222 C 
ATOM     23  O   UNL A   1      34.084  17.821  23.621  1.00  0.00    -0.358 OA
ENDBRANCH  12  16
ENDBRANCH   6  11
ENDBRANCH   3   5
ENDBRANCH   2   3
ENDBRANCH   1   2
BRANCH   1  24
ATOM     24  C   UNL A   1      36.276  20.850  25.373  1.00  0.00     0.275 C 
BRANCH  24  25
ATOM     25  O   UNL A   1      37.468  21.590  25.063  1.00  0.00    -0.458 OA
BRANCH  25  26
ATOM     26  C   UNL A   1      38.578  21.180  25.713  1.00  0.00     0.338 C 
ATOM     27  O   UNL A   1      39.065  20.063  25.753  1.00  0.00    -0.246 OA
BRANCH  26  28
ATOM     28  C   UNL A   1      39.217  22.344  26.334  1.00  0.00     0.060 A 
ATOM     29  C   UNL A   1      38.649  23.597  26.120  1.00  0.00     0.016 A 
ATOM     30  C   UNL A   1      40.433  22.216  26.998  1.00  0.00     0.016 A 
ATOM     31  C   UNL A   1      39.334  24.747  26.497  1.00  0.00     0.010 A 
ATOM     32  C   UNL A   1      41.084  23.370  27.446  1.00  0.00     0.010 A 
ATOM     33  C   UNL A   1      40.560  24.648  27.167  1.00  0.00    -0.014 A 
BRANCH  33  34
ATOM     34  C   UNL A   1      41.329  25.870  27.523  1.00  0.00     0.031 A 
ATOM     35  C   UNL A   1      40.725  26.887  28.455  1.00  0.00     0.074 A 
ATOM     36  C   UNL A   1      42.563  26.077  27.024  1.00  0.00     0.049 A 
ATOM     37  N   UNL A   1      41.129  28.102  28.730  1.00  0.00    -0.248 NA
ATOM     38  C   UNL A   1      39.496  26.489  29.162  1.00  0.00     0.031 C 
ATOM     39  C   UNL A   1      43.299  25.151  26.160  1.00  0.00     0.029 A 
ATOM     40  N   UNL A   1      43.418  27.141  27.174  1.00  0.00    -0.354 N 
ATOM     41  C   UNL A   1      40.172  28.634  29.586  1.00  0.00     0.074 A 
ATOM     42  C   UNL A   1      39.170  27.610  29.791  1.00  0.00     0.031 C 
ATOM     43  C   UNL A   1      44.502  25.674  25.880  1.00  0.00     0.029 A 
ATOM     44  C   UNL A   1      44.589  27.007  26.468  1.00  0.00     0.049 A 
ATOM     45  H   UNL A   1      43.212  27.925  27.733  1.00  0.00     0.167 HD
ATOM     46  C   UNL A   1      40.128  29.868  30.142  1.00  0.00     0.031 A 
ATOM     47  C   UNL A   1      45.599  27.874  26.270  1.00  0.00     0.031 A 
ATOM     48  C   UNL A   1      41.149  30.868  29.972  1.00  0.00     0.049 A 
ATOM     49  C   UNL A   1      45.513  29.249  26.871  1.00  0.00     0.074 A 
ATOM     50  C   UNL A   1      41.201  32.146  30.503  1.00  0.00     0.029 A 
ATOM     51  N   UNL A   1      42.306  30.695  29.231  1.00  0.00    -0.354 N 
ATOM     52  N   UNL A   1      44.573  29.763  27.626  1.00  0.00    -0.248 NA
ATOM     53  C   UNL A   1      46.622  30.168  26.576  1.00  0.00     0.031 C 
ATOM     54  C   UNL A   1      42.374  32.759  30.052  1.00  0.00     0.029 A 
ATOM     55  C   UNL A   1      43.075  31.845  29.281  1.00  0.00     0.049 A 
ATOM     56  H   UNL A   1      42.547  29.875  28.742  1.00  0.00     0.167 HD
ATOM     57  C   UNL A   1      44.982  31.059  27.908  1.00  0.00     0.074 A 
ATOM     58  C   UNL A   1      46.264  31.246  27.260  1.00  0.00     0.031 C 
ATOM     59  C   UNL A   1      44.349  32.010  28.635  1.00  0.00     0.031 A 
BRANCH  46  60
ATOM     60  C   UNL A   1      38.913  30.225  30.950  1.00  0.00    -0.014 A 
ATOM     61  C   UNL A   1      37.783  30.814  30.364  1.00  0.00     0.009 A 
ATOM     62  C   UNL A   1      38.889  29.926  32.323  1.00  0.00     0.009 A 
ATOM     63  C   UNL A   1      36.664  31.121  31.143  1.00  0.00     0.001 A 
ATOM     64  C   UNL A   1      37.759  30.210  33.092  1.00  0.00     0.001 A 
ATOM     65  C   UNL A   1      36.651  30.815  32.503  1.00  0.00     0.000 A 
ENDBRANCH  46  60
BRANCH  47  66
ATOM     66  C   UNL A   1      46.753  27.488  25.418  1.00  0.00    -0.014 A 
ATOM     67  C   UNL A   1      47.832  26.770  25.956  1.00  0.00     0.009 A 
ATOM     68  C   UNL A   1      46.778  27.831  24.056  1.00  0.00     0.009 A 
ATOM     69  C   UNL A   1      48.918  26.419  25.150  1.00  0.00     0.001 A 
ATOM     70  C   UNL A   1      47.850  27.452  23.248  1.00  0.00     0.001 A 
ATOM     71  C   UNL A   1      48.923  26.753  23.797  1.00  0.00     0.000 A 
ENDBRANCH  47  66
BRANCH  59  72
ATOM     72  C   UNL A   1      45.057  33.324  28.802  1.00  0.00    -0.014 A 
ATOM     73  C   UNL A   1      45.963  33.533  29.851  1.00  0.00     0.009 A 
ATOM     74  C   UNL A   1      44.835  34.352  27.873  1.00  0.00     0.009 A 
ATOM     75  C   UNL A   1      46.614  34.761  29.983  1.00  0.00     0.001 A 
ATOM     76  C   UNL A   1      45.506  35.570  27.995  1.00  0.00     0.001 A 
ATOM     77  C   UNL A   1      46.388  35.777  29.054  1.00  0.00     0.000 A 
ENDBRANCH  59  72
ENDBRANCH  33  34
ENDBRANCH  26  28
ENDBRANCH  25  26
ENDBRANCH  24  25
ENDBRANCH   1  24
TORSDOF 13
ENDMDL
MODEL 2
REMARK VINA RESULT:     -11.3      0.780      5.987
REMARK SMILES C[N@H+]1CCO[C@H](c2noc(-c3ccccc3C(=O)OCCOC(=O)c3ccc(-c4c5nc(c(-c6ccccc6)c6ccc([nH]6)c(-c6ccccc6)c6nc(c(-c7ccccc7)c7ccc4[nH]7)C=C6)C=C5)cc3)n2)C1
REMARK SMILES IDX 20 1 19 2 17 3 18 4 16 5 11 6 12 7 13 8 15 9 14 10 10 11
REMARK SMILES IDX 7 12 8 13 73 14 9 15 6 16 1 17 2 18 3 19 74 20 4 22 5 23
REMARK SMILES IDX 21 24 22 25 23 26 24 27 25 28 26 29 72 30 27 31 71 32 28 33
REMARK SMILES IDX 29 34 30 35 65 36 31 37 70 38 64 39 66 40 32 41 69 42 63 43
REMARK SMILES IDX 62 44 33 46 55 47 40 48 54 49 41 50 44 51 53 52 67 53 42 54
REMARK SMILES IDX 43 55 52 57 68 58 45 59 34 60 35 61 39 62 36 63 38 64 37 65
REMARK SMILES IDX 56 66 57 67 61 68 58 69 60 70 59 71 46 72 47 73 51 74 48 75
REMARK SMILES IDX 50 76 49 77
REMARK H PARENT 2 21 66 45 44 56
REMARK Flexibility Score: inf
ROOT
ATOM      1  C   UNL A   1      36.696  22.354  23.774  1.00  0.00     0.275 C 
ENDROOT
BRANCH   1   2
ATOM      2  O   UNL A   1      35.608  22.960  24.501  1.00  0.00    -0.458 OA
BRANCH   2   3
ATOM      3  C   UNL A   1      34.637  23.560  23.767  1.00  0.00     0.339 C 
ATOM      4  O   UNL A   1      34.595  23.655  22.555  1.00  0.00    -0.246 OA
BRANCH   3   5
ATOM      5  C   UNL A   1      33.515  23.987  24.646  1.00  0.00     0.072 A 
ATOM      6  C   UNL A   1      32.390  23.182  24.901  1.00  0.00     0.054 A 
ATOM      7  C   UNL A   1      31.366  23.693  25.720  1.00  0.00     0.015 A 
ATOM      8  C   UNL A   1      31.467  24.968  26.285  1.00  0.00     0.001 A 
ATOM      9  C   UNL A   1      33.624  25.250  25.253  1.00  0.00     0.016 A 
ATOM     10  C   UNL A   1      32.597  25.745  26.054  1.00  0.00     0.001 A 
BRANCH   6  11
ATOM     11  C   UNL A   1      32.312  21.820  24.407  1.00  0.00     0.258 A 
ATOM     12  C   UNL A   1      32.474  19.769  24.028  1.00  0.00     0.206 A 
ATOM     13  N   UNL A   1      32.057  20.266  22.852  1.00  0.00    -0.059 NA
ATOM     14  N   UNL A   1      32.583  20.698  25.032  1.00  0.00    -0.189 NA
ATOM     15  O   UNL A   1      31.961  21.641  23.101  1.00  0.00    -0.334 OA
BRANCH  12  16
ATOM     16  C   UNL A   1      32.782  18.317  24.236  1.00  0.00     0.245 C 
ATOM     17  C   UNL A   1      32.102  15.693  25.866  1.00  0.00     0.332 C 
ATOM     18  N   UNL A   1      33.265  16.559  26.035  1.00  0.00    -0.333 N 
ATOM     19  C   UNL A   1      34.398  16.149  25.181  1.00  0.00     0.290 C 
ATOM     20  C   UNL A   1      32.934  17.976  25.746  1.00  0.00     0.303 C 
ATOM     21  H   UNL A   1      33.543  16.466  27.012  1.00  0.00     0.348 HD
ATOM     22  C   UNL A   1      34.241  16.530  23.699  1.00  0.00     0.222 C 
ATOM     23  O   UNL A   1      33.993  17.932  23.543  1.00  0.00    -0.358 OA
ENDBRANCH  12  16
ENDBRANCH   6  11
ENDBRANCH   3   5
ENDBRANCH   2   3
ENDBRANCH   1   2
BRANCH   1  24
ATOM     24  C   UNL A   1      37.273  21.181  24.560  1.00  0.00     0.275 C 
BRANCH  24  25
ATOM     25  O   UNL A   1      37.666  21.630  25.867  1.00  0.00    -0.458 OA
BRANCH  25  26
ATOM     26  C   UNL A   1      38.977  21.483  26.150  1.00  0.00     0.338 C 
ATOM     27  O   UNL A   1      39.686  20.506  25.977  1.00  0.00    -0.246 OA
BRANCH  26  28
ATOM     28  C   UNL A   1      39.499  22.762  26.640  1.00  0.00     0.060 A 
ATOM     29  C   UNL A   1      38.864  23.931  26.230  1.00  0.00     0.016 A 
ATOM     30  C   UNL A   1      40.678  22.812  27.377  1.00  0.00     0.016 A 
ATOM     31  C   UNL A   1      39.448  25.168  26.484  1.00  0.00     0.010 A 
ATOM     32  C   UNL A   1      41.223  24.059  27.699  1.00  0.00     0.010 A 
ATOM     33  C   UNL A   1      40.635  25.248  27.223  1.00  0.00    -0.014 A 
BRANCH  33  34
ATOM     34  C   UNL A   1      41.298  26.559  27.451  1.00  0.00     0.031 A 
ATOM     35  C   UNL A   1      42.622  26.851  26.798  1.00  0.00     0.074 A 
ATOM     36  C   UNL A   1      40.723  27.493  28.234  1.00  0.00     0.049 A 
ATOM     37  N   UNL A   1      43.459  27.832  27.024  1.00  0.00    -0.248 NA
ATOM     38  C   UNL A   1      43.072  25.906  25.763  1.00  0.00     0.031 C 
ATOM     39  C   UNL A   1      39.414  27.376  28.881  1.00  0.00     0.029 A 
ATOM     40  N   UNL A   1      41.173  28.733  28.619  1.00  0.00    -0.354 N 
ATOM     41  C   UNL A   1      44.559  27.586  26.211  1.00  0.00     0.074 A 
ATOM     42  C   UNL A   1      44.282  26.368  25.481  1.00  0.00     0.031 C 
ATOM     43  C   UNL A   1      39.156  28.505  29.558  1.00  0.00     0.029 A 
ATOM     44  C   UNL A   1      40.314  29.388  29.468  1.00  0.00     0.049 A 
ATOM     45  H   UNL A   1      42.028  29.115  28.315  1.00  0.00     0.167 HD
ATOM     46  C   UNL A   1      45.699  28.306  26.091  1.00  0.00     0.031 A 
ATOM     47  C   UNL A   1      40.458  30.544  30.141  1.00  0.00     0.031 A 
ATOM     48  C   UNL A   1      45.953  29.542  26.784  1.00  0.00     0.049 A 
ATOM     49  C   UNL A   1      41.745  31.309  30.018  1.00  0.00     0.074 A 
ATOM     50  C   UNL A   1      47.074  30.352  26.722  1.00  0.00     0.029 A 
ATOM     51  N   UNL A   1      45.063  30.156  27.650  1.00  0.00    -0.354 N 
ATOM     52  N   UNL A   1      42.803  31.034  29.295  1.00  0.00    -0.248 NA
ATOM     53  C   UNL A   1      41.862  32.537  30.818  1.00  0.00     0.031 C 
ATOM     54  C   UNL A   1      46.876  31.438  27.579  1.00  0.00     0.029 A 
ATOM     55  C   UNL A   1      45.613  31.329  28.137  1.00  0.00     0.049 A 
ATOM     56  H   UNL A   1      44.171  29.809  27.884  1.00  0.00     0.167 HD
ATOM     57  C   UNL A   1      43.705  32.059  29.541  1.00  0.00     0.074 A 
ATOM     58  C   UNL A   1      43.064  32.972  30.465  1.00  0.00     0.031 C 
ATOM     59  C   UNL A   1      44.957  32.226  29.050  1.00  0.00     0.031 A 
BRANCH  46  60
ATOM     60  C   UNL A   1      46.784  27.753  25.210  1.00  0.00    -0.014 A 
ATOM     61  C   UNL A   1      46.892  28.111  23.859  1.00  0.00     0.009 A 
ATOM     62  C   UNL A   1      47.741  26.885  25.762  1.00  0.00     0.009 A 
ATOM     63  C   UNL A   1      47.922  27.589  23.071  1.00  0.00     0.001 A 
ATOM     64  C   UNL A   1      48.783  26.387  24.979  1.00  0.00     0.001 A 
ATOM     65  C   UNL A   1      48.868  26.732  23.632  1.00  0.00     0.000 A 
ENDBRANCH  46  60
BRANCH  47  66
ATOM     66  C   UNL A   1      39.374  31.019  31.040  1.00  0.00    -0.014 A 
ATOM     67  C   UNL A   1      38.350  31.845  30.553  1.00  0.00     0.009 A 
ATOM     68  C   UNL A   1      39.356  30.643  32.393  1.00  0.00     0.009 A 
ATOM     69  C   UNL A   1      37.340  32.296  31.406  1.00  0.00     0.001 A 
ATOM     70  C   UNL A   1      38.329  31.070  33.235  1.00  0.00     0.001 A 
ATOM     71  C   UNL A   1      37.326  31.903  32.743  1.00  0.00     0.000 A 
ENDBRANCH  47  66
BRANCH  59  72
ATOM     72  C   UNL A   1      45.695  33.464  29.471  1.00  0.00    -0.014 A 
ATOM     73  C   UNL A   1      46.532  33.464  30.597  1.00  0.00     0.009 A 
ATOM     74  C   UNL A   1      45.574  34.635  28.707  1.00  0.00     0.009 A 
ATOM     75  C   UNL A   1      47.213  34.626  30.966  1.00  0.00     0.001 A 
ATOM     76  C   UNL A   1      46.276  35.787  29.065  1.00  0.00     0.001 A 
ATOM     77  C   UNL A   1      47.087  35.784  30.198  1.00  0.00     0.000 A 
ENDBRANCH  59  72
ENDBRANCH  33  34
ENDBRANCH  26  28
ENDBRANCH  25  26
ENDBRANCH  24  25
ENDBRANCH   1  24
TORSDOF 13
ENDMDL
MODEL 3
REMARK VINA RESULT:     -11.3      5.108      9.858
REMARK SMILES C[N@H+]1CCO[C@H](c2noc(-c3ccccc3C(=O)OCCOC(=O)c3ccc(-c4c5nc(c(-c6ccccc6)c6ccc([nH]6)c(-c6ccccc6)c6nc(c(-c7ccccc7)c7ccc4[nH]7)C=C6)C=C5)cc3)n2)C1
REMARK SMILES IDX 20 1 19 2 17 3 18 4 16 5 11 6 12 7 13 8 15 9 14 10 10 11
REMARK SMILES IDX 7 12 8 13 73 14 9 15 6 16 1 17 2 18 3 19 74 20 4 22 5 23
REMARK SMILES IDX 21 24 22 25 23 26 24 27 25 28 26 29 72 30 27 31 71 32 28 33
REMARK SMILES IDX 29 34 30 35 65 36 31 37 70 38 64 39 66 40 32 41 69 42 63 43
REMARK SMILES IDX 62 44 33 46 55 47 40 48 54 49 41 50 44 51 53 52 67 53 42 54
REMARK SMILES IDX 43 55 52 57 68 58 45 59 34 60 35 61 39 62 36 63 38 64 37 65
REMARK SMILES IDX 56 66 57 67 61 68 58 69 60 70 59 71 46 72 47 73 51 74 48 75
REMARK SMILES IDX 50 76 49 77
REMARK H PARENT 2 21 66 45 44 56
REMARK Flexibility Score: inf
ROOT
ATOM      1  C   UNL A   1      31.597  28.883  26.875  1.00  0.00     0.275 C 
ENDROOT
BRANCH   1   2
ATOM      2  O   UNL A   1      32.340  27.953  26.062  1.00  0.00    -0.458 OA
BRANCH   2   3
ATOM      3  C   UNL A   1      31.908  26.667  26.048  1.00  0.00     0.339 C 
ATOM      4  O   UNL A   1      31.106  26.160  26.809  1.00  0.00    -0.246 OA
BRANCH   3   5
ATOM      5  C   UNL A   1      32.449  25.953  24.859  1.00  0.00     0.072 A 
ATOM      6  C   UNL A   1      31.807  25.948  23.609  1.00  0.00     0.054 A 
ATOM      7  C   UNL A   1      32.384  25.213  22.556  1.00  0.00     0.015 A 
ATOM      8  C   UNL A   1      33.581  24.513  22.741  1.00  0.00     0.001 A 
ATOM      9  C   UNL A   1      33.672  25.280  25.021  1.00  0.00     0.016 A 
ATOM     10  C   UNL A   1      34.226  24.550  23.972  1.00  0.00     0.001 A 
BRANCH   6  11
ATOM     11  C   UNL A   1      30.621  26.748  23.369  1.00  0.00     0.258 A 
ATOM     12  C   UNL A   1      29.193  28.237  23.024  1.00  0.00     0.206 A 
ATOM     13  N   UNL A   1      28.463  27.220  23.508  1.00  0.00    -0.059 NA
ATOM     14  N   UNL A   1      30.527  27.957  22.867  1.00  0.00    -0.189 NA
ATOM     15  O   UNL A   1      29.419  26.226  23.751  1.00  0.00    -0.334 OA
BRANCH  12  16
ATOM     16  C   UNL A   1      28.602  29.569  22.669  1.00  0.00     0.245 C 
ATOM     17  C   UNL A   1      28.027  31.660  20.366  1.00  0.00     0.332 C 
ATOM     18  N   UNL A   1      29.060  31.744  21.396  1.00  0.00    -0.333 N 
ATOM     19  C   UNL A   1      28.583  32.432  22.612  1.00  0.00     0.290 C 
ATOM     20  C   UNL A   1      29.563  30.399  21.771  1.00  0.00     0.303 C 
ATOM     21  H   UNL A   1      29.818  32.290  20.988  1.00  0.00     0.348 HD
ATOM     22  C   UNL A   1      27.665  31.578  23.502  1.00  0.00     0.222 C 
ATOM     23  O   UNL A   1      28.285  30.336  23.855  1.00  0.00    -0.358 OA
ENDBRANCH  12  16
ENDBRANCH   6  11
ENDBRANCH   3   5
ENDBRANCH   2   3
ENDBRANCH   1   2
BRANCH   1  24
ATOM     24  C   UNL A   1      31.842  30.314  26.407  1.00  0.00     0.275 C 
BRANCH  24  25
ATOM     25  O   UNL A   1      33.253  30.585  26.420  1.00  0.00    -0.458 OA
BRANCH  25  26
ATOM     26  C   UNL A   1      33.635  31.580  27.248  1.00  0.00     0.338 C 
ATOM     27  O   UNL A   1      33.017  32.582  27.565  1.00  0.00    -0.246 OA
BRANCH  26  28
ATOM     28  C   UNL A   1      34.936  31.237  27.828  1.00  0.00     0.060 A 
ATOM     29  C   UNL A   1      35.132  29.933  28.278  1.00  0.00     0.016 A 
ATOM     30  C   UNL A   1      35.895  32.219  28.052  1.00  0.00     0.016 A 
ATOM     31  C   UNL A   1      36.258  29.617  29.031  1.00  0.00     0.010 A 
ATOM     32  C   UNL A   1      37.063  31.881  28.743  1.00  0.00     0.010 A 
ATOM     33  C   UNL A   1      37.239  30.587  29.272  1.00  0.00    -0.014 A 
BRANCH  33  34
ATOM     34  C   UNL A   1      38.417  30.276  30.124  1.00  0.00     0.031 A 
ATOM     35  C   UNL A   1      39.518  29.401  29.587  1.00  0.00     0.074 A 
ATOM     36  C   UNL A   1      38.514  30.773  31.373  1.00  0.00     0.049 A 
ATOM     37  N   UNL A   1      40.518  28.843  30.222  1.00  0.00    -0.248 NA
ATOM     38  C   UNL A   1      39.481  29.101  28.145  1.00  0.00     0.031 C 
ATOM     39  C   UNL A   1      37.556  31.684  32.004  1.00  0.00     0.029 A 
ATOM     40  N   UNL A   1      39.471  30.577  32.338  1.00  0.00    -0.354 N 
ATOM     41  C   UNL A   1      41.187  28.077  29.275  1.00  0.00     0.074 A 
ATOM     42  C   UNL A   1      40.485  28.245  28.021  1.00  0.00     0.031 C 
ATOM     43  C   UNL A   1      37.987  31.989  33.237  1.00  0.00     0.029 A 
ATOM     44  C   UNL A   1      39.200  31.228  33.518  1.00  0.00     0.049 A 
ATOM     45  H   UNL A   1      40.273  30.024  32.198  1.00  0.00     0.167 HD
ATOM     46  C   UNL A   1      42.282  27.297  29.439  1.00  0.00     0.031 A 
ATOM     47  C   UNL A   1      39.826  31.182  34.709  1.00  0.00     0.031 A 
ATOM     48  C   UNL A   1      43.005  27.168  30.677  1.00  0.00     0.049 A 
ATOM     49  C   UNL A   1      41.019  30.285  34.876  1.00  0.00     0.074 A 
ATOM     50  C   UNL A   1      44.133  26.410  30.942  1.00  0.00     0.029 A 
ATOM     51  N   UNL A   1      42.681  27.829  31.850  1.00  0.00    -0.354 N 
ATOM     52  N   UNL A   1      41.605  29.516  33.991  1.00  0.00    -0.248 NA
ATOM     53  C   UNL A   1      41.626  30.237  36.214  1.00  0.00     0.031 C 
ATOM     54  C   UNL A   1      44.471  26.586  32.288  1.00  0.00     0.029 A 
ATOM     55  C   UNL A   1      43.581  27.490  32.846  1.00  0.00     0.049 A 
ATOM     56  H   UNL A   1      41.924  28.449  31.960  1.00  0.00     0.167 HD
ATOM     57  C   UNL A   1      42.657  28.905  34.659  1.00  0.00     0.074 A 
ATOM     58  C   UNL A   1      42.640  29.406  36.017  1.00  0.00     0.031 C 
ATOM     59  C   UNL A   1      43.552  28.003  34.189  1.00  0.00     0.031 A 
BRANCH  46  60
ATOM     60  C   UNL A   1      42.741  26.483  28.263  1.00  0.00    -0.014 A 
ATOM     61  C   UNL A   1      42.247  25.193  28.020  1.00  0.00     0.009 A 
ATOM     62  C   UNL A   1      43.658  27.042  27.357  1.00  0.00     0.009 A 
ATOM     63  C   UNL A   1      42.685  24.468  26.908  1.00  0.00     0.001 A 
ATOM     64  C   UNL A   1      44.073  26.325  26.233  1.00  0.00     0.001 A 
ATOM     65  C   UNL A   1      43.593  25.036  26.014  1.00  0.00     0.000 A 
ENDBRANCH  46  60
BRANCH  47  66
ATOM     66  C   UNL A   1      39.298  31.966  35.854  1.00  0.00    -0.014 A 
ATOM     67  C   UNL A   1      38.277  31.450  36.666  1.00  0.00     0.009 A 
ATOM     68  C   UNL A   1      39.817  33.239  36.145  1.00  0.00     0.009 A 
ATOM     69  C   UNL A   1      37.778  32.199  37.735  1.00  0.00     0.001 A 
ATOM     70  C   UNL A   1      39.338  33.971  37.232  1.00  0.00     0.001 A 
ATOM     71  C   UNL A   1      38.313  33.454  38.022  1.00  0.00     0.000 A 
ENDBRANCH  47  66
BRANCH  59  72
ATOM     72  C   UNL A   1      44.614  27.537  35.143  1.00  0.00    -0.014 A 
ATOM     73  C   UNL A   1      45.827  28.229  35.275  1.00  0.00     0.009 A 
ATOM     74  C   UNL A   1      44.378  26.408  35.943  1.00  0.00     0.009 A 
ATOM     75  C   UNL A   1      46.798  27.780  36.172  1.00  0.00     0.001 A 
ATOM     76  C   UNL A   1      45.342  25.977  36.856  1.00  0.00     0.001 A 
ATOM     77  C   UNL A   1      46.553  26.658  36.965  1.00  0.00     0.000 A 
ENDBRANCH  59  72
ENDBRANCH  33  34
ENDBRANCH  26  28
ENDBRANCH  25  26
ENDBRANCH  24  25
ENDBRANCH   1  24
TORSDOF 13
ENDMDL
