MODEL 1
REMARK VINA RESULT:      -9.9      0.000      0.000
REMARK SMILES CC[C@](C)(NC(=O)NC[C@H]1COCCO1)C(=O)OCCOC(=O)c1ccc(-c2c3nc(c(-c4ccccc4)c4ccc([nH]4)c(-c4ccccc4)c4nc(c(-c5ccccc5)c5ccc2[nH]5)C=C4)C=C3)cc1
REMARK SMILES IDX 19 1 18 2 16 3 17 4 3 5 4 6 2 7 1 8 5 9 6 10 7 12 8 13 9 15
REMARK SMILES IDX 10 16 11 17 15 18 12 19 14 20 13 21 20 22 21 23 22 24 23 25
REMARK SMILES IDX 24 26 25 27 71 28 26 29 70 30 27 31 28 32 29 33 64 34 30 35
REMARK SMILES IDX 69 36 63 37 65 38 31 39 68 40 62 41 61 42 32 44 54 45 39 46
REMARK SMILES IDX 53 47 40 48 43 49 52 50 66 51 41 52 42 53 51 55 67 56 44 57
REMARK SMILES IDX 33 58 34 59 38 60 35 61 37 62 36 63 55 64 56 65 60 66 57 67
REMARK SMILES IDX 59 68 58 69 45 70 46 71 50 72 47 73 49 74 48 75
REMARK H PARENT 5 11 8 14 65 43 43 54
REMARK Flexibility Score: inf
ROOT
ATOM      1  C   UNL A   1      35.901  22.986  23.884  1.00  0.00     0.274 C 
ENDROOT
BRANCH   1   2
ATOM      2  O   UNL A   1      34.485  22.843  24.143  1.00  0.00    -0.460 OA
BRANCH   2   3
ATOM      3  C   UNL A   1      34.076  23.191  25.394  1.00  0.00     0.331 C 
ATOM      4  O   UNL A   1      34.391  24.253  25.925  1.00  0.00    -0.249 OA
BRANCH   3   5
ATOM      5  C   UNL A   1      33.142  22.129  26.068  1.00  0.00     0.136 C 
ATOM      6  C   UNL A   1      34.045  21.447  27.138  1.00  0.00     0.047 C 
BRANCH   5   7
ATOM      7  C   UNL A   1      32.829  21.034  24.999  1.00  0.00     0.037 C 
ATOM      8  C   UNL A   1      32.884  19.585  25.446  1.00  0.00     0.007 C 
ENDBRANCH   5   7
BRANCH   5   9
ATOM      9  N   UNL A   1      31.947  22.607  26.835  1.00  0.00    -0.322 N 
ATOM     10  C   UNL A   1      30.704  23.053  26.622  1.00  0.00     0.315 C 
ATOM     11  H   UNL A   1      32.137  22.585  27.802  1.00  0.00     0.166 HD
ATOM     12  O   UNL A   1      29.912  22.971  27.565  1.00  0.00    -0.249 OA
ATOM     13  N   UNL A   1      30.260  23.565  25.471  1.00  0.00    -0.335 N 
ATOM     14  H   UNL A   1      29.280  23.616  25.383  1.00  0.00     0.165 HD
BRANCH  13  15
ATOM     15  C   UNL A   1      31.003  24.050  24.346  1.00  0.00     0.152 C 
BRANCH  15  16
ATOM     16  C   UNL A   1      30.576  25.374  23.690  1.00  0.00     0.163 C 
ATOM     17  C   UNL A   1      29.664  26.133  24.666  1.00  0.00     0.194 C 
ATOM     18  O   UNL A   1      31.656  26.215  23.262  1.00  0.00    -0.372 OA
ATOM     19  O   UNL A   1      30.420  26.529  25.820  1.00  0.00    -0.376 OA
ATOM     20  C   UNL A   1      32.386  26.780  24.355  1.00  0.00     0.189 C 
ATOM     21  C   UNL A   1      31.485  27.403  25.425  1.00  0.00     0.188 C 
ENDBRANCH  15  16
ENDBRANCH  13  15
ENDBRANCH   5   9
ENDBRANCH   3   5
ENDBRANCH   2   3
ENDBRANCH   1   2
BRANCH   1  22
ATOM     22  C   UNL A   1      36.638  21.707  24.300  1.00  0.00     0.275 C 
BRANCH  22  23
ATOM     23  O   UNL A   1      37.175  21.902  25.618  1.00  0.00    -0.458 OA
BRANCH  23  24
ATOM     24  C   UNL A   1      38.384  21.324  25.822  1.00  0.00     0.338 C 
ATOM     25  O   UNL A   1      38.777  20.243  25.434  1.00  0.00    -0.246 OA
BRANCH  24  26
ATOM     26  C   UNL A   1      39.256  22.416  26.267  1.00  0.00     0.060 A 
ATOM     27  C   UNL A   1      38.883  23.701  25.871  1.00  0.00     0.016 A 
ATOM     28  C   UNL A   1      40.350  22.215  27.095  1.00  0.00     0.016 A 
ATOM     29  C   UNL A   1      39.589  24.812  26.290  1.00  0.00     0.010 A 
ATOM     30  C   UNL A   1      41.059  23.335  27.536  1.00  0.00     0.010 A 
ATOM     31  C   UNL A   1      40.677  24.634  27.138  1.00  0.00    -0.014 A 
BRANCH  31  32
ATOM     32  C   UNL A   1      41.480  25.802  27.544  1.00  0.00     0.031 A 
ATOM     33  C   UNL A   1      40.878  26.768  28.511  1.00  0.00     0.074 A 
ATOM     34  C   UNL A   1      42.719  25.986  27.054  1.00  0.00     0.049 A 
ATOM     35  N   UNL A   1      41.226  27.997  28.775  1.00  0.00    -0.248 NA
ATOM     36  C   UNL A   1      39.706  26.291  29.264  1.00  0.00     0.031 C 
ATOM     37  C   UNL A   1      43.449  25.046  26.198  1.00  0.00     0.029 A 
ATOM     38  N   UNL A   1      43.581  27.040  27.200  1.00  0.00    -0.354 N 
ATOM     39  C   UNL A   1      40.268  28.468  29.662  1.00  0.00     0.074 A 
ATOM     40  C   UNL A   1      39.341  27.387  29.913  1.00  0.00     0.031 C 
ATOM     41  C   UNL A   1      44.647  25.570  25.894  1.00  0.00     0.029 A 
ATOM     42  C   UNL A   1      44.727  26.913  26.454  1.00  0.00     0.049 A 
ATOM     43  H   UNL A   1      43.397  27.813  27.782  1.00  0.00     0.167 HD
ATOM     44  C   UNL A   1      40.169  29.708  30.190  1.00  0.00     0.031 A 
ATOM     45  C   UNL A   1      45.696  27.811  26.200  1.00  0.00     0.031 A 
ATOM     46  C   UNL A   1      41.129  30.748  29.941  1.00  0.00     0.049 A 
ATOM     47  C   UNL A   1      45.550  29.195  26.770  1.00  0.00     0.074 A 
ATOM     48  C   UNL A   1      41.134  32.053  30.396  1.00  0.00     0.029 A 
ATOM     49  N   UNL A   1      42.276  30.583  29.175  1.00  0.00    -0.354 N 
ATOM     50  N   UNL A   1      44.590  29.677  27.526  1.00  0.00    -0.248 NA
ATOM     51  C   UNL A   1      46.600  30.163  26.434  1.00  0.00     0.031 C 
ATOM     52  C   UNL A   1      42.272  32.686  29.882  1.00  0.00     0.029 A 
ATOM     53  C   UNL A   1      42.996  31.762  29.143  1.00  0.00     0.049 A 
ATOM     54  H   UNL A   1      42.536  29.748  28.723  1.00  0.00     0.167 HD
ATOM     55  C   UNL A   1      44.925  31.003  27.762  1.00  0.00     0.074 A 
ATOM     56  C   UNL A   1      46.188  31.239  27.089  1.00  0.00     0.031 C 
ATOM     57  C   UNL A   1      44.250  31.947  28.461  1.00  0.00     0.031 A 
BRANCH  44  58
ATOM     58  C   UNL A   1      38.952  30.011  31.013  1.00  0.00    -0.014 A 
ATOM     59  C   UNL A   1      38.946  29.864  32.408  1.00  0.00     0.009 A 
ATOM     60  C   UNL A   1      37.783  30.450  30.372  1.00  0.00     0.009 A 
ATOM     61  C   UNL A   1      37.783  30.119  33.139  1.00  0.00     0.001 A 
ATOM     62  C   UNL A   1      36.629  30.729  31.107  1.00  0.00     0.001 A 
ATOM     63  C   UNL A   1      36.628  30.554  32.489  1.00  0.00     0.000 A 
ENDBRANCH  44  58
BRANCH  45  64
ATOM     64  C   UNL A   1      46.833  27.458  25.309  1.00  0.00    -0.014 A 
ATOM     65  C   UNL A   1      47.940  26.752  25.804  1.00  0.00     0.009 A 
ATOM     66  C   UNL A   1      46.815  27.820  23.952  1.00  0.00     0.009 A 
ATOM     67  C   UNL A   1      49.008  26.430  24.964  1.00  0.00     0.001 A 
ATOM     68  C   UNL A   1      47.871  27.470  23.107  1.00  0.00     0.001 A 
ATOM     69  C   UNL A   1      48.970  26.782  23.616  1.00  0.00     0.000 A 
ENDBRANCH  45  64
BRANCH  57  70
ATOM     70  C   UNL A   1      44.891  33.300  28.553  1.00  0.00    -0.014 A 
ATOM     71  C   UNL A   1      45.767  33.614  29.602  1.00  0.00     0.009 A 
ATOM     72  C   UNL A   1      44.639  34.254  27.556  1.00  0.00     0.009 A 
ATOM     73  C   UNL A   1      46.357  34.876  29.667  1.00  0.00     0.001 A 
ATOM     74  C   UNL A   1      45.248  35.506  27.611  1.00  0.00     0.001 A 
ATOM     75  C   UNL A   1      46.100  35.819  28.671  1.00  0.00     0.000 A 
ENDBRANCH  57  70
ENDBRANCH  31  32
ENDBRANCH  24  26
ENDBRANCH  23  24
ENDBRANCH  22  23
ENDBRANCH   1  22
TORSDOF 15
ENDMDL
MODEL 2
REMARK VINA RESULT:      -9.8      4.210      5.525
REMARK SMILES CC[C@](C)(NC(=O)NC[C@H]1COCCO1)C(=O)OCCOC(=O)c1ccc(-c2c3nc(c(-c4ccccc4)c4ccc([nH]4)c(-c4ccccc4)c4nc(c(-c5ccccc5)c5ccc2[nH]5)C=C4)C=C3)cc1
REMARK SMILES IDX 19 1 18 2 16 3 17 4 3 5 4 6 2 7 1 8 5 9 6 10 7 12 8 13 9 15
REMARK SMILES IDX 10 16 11 17 15 18 12 19 14 20 13 21 20 22 21 23 22 24 23 25
REMARK SMILES IDX 24 26 25 27 71 28 26 29 70 30 27 31 28 32 29 33 64 34 30 35
REMARK SMILES IDX 69 36 63 37 65 38 31 39 68 40 62 41 61 42 32 44 54 45 39 46
REMARK SMILES IDX 53 47 40 48 43 49 52 50 66 51 41 52 42 53 51 55 67 56 44 57
REMARK SMILES IDX 33 58 34 59 38 60 35 61 37 62 36 63 55 64 56 65 60 66 57 67
REMARK SMILES IDX 59 68 58 69 45 70 46 71 50 72 47 73 49 74 48 75
REMARK H PARENT 5 11 8 14 65 43 43 54
REMARK Flexibility Score: inf
ROOT
ATOM      1  C   UNL A   1      36.723  22.225  23.866  1.00  0.00     0.274 C 
ENDROOT
BRANCH   1   2
ATOM      2  O   UNL A   1      35.709  23.103  24.407  1.00  0.00    -0.460 OA
BRANCH   2   3
ATOM      3  C   UNL A   1      34.539  23.154  23.711  1.00  0.00     0.331 C 
ATOM      4  O   UNL A   1      34.494  23.117  22.485  1.00  0.00    -0.249 OA
BRANCH   3   5
ATOM      5  C   UNL A   1      33.268  23.224  24.624  1.00  0.00     0.136 C 
ATOM      6  C   UNL A   1      32.168  22.481  23.808  1.00  0.00     0.047 C 
BRANCH   5   7
ATOM      7  C   UNL A   1      32.824  24.720  24.696  1.00  0.00     0.037 C 
ATOM      8  C   UNL A   1      33.750  25.691  25.403  1.00  0.00     0.007 C 
ENDBRANCH   5   7
BRANCH   5   9
ATOM      9  N   UNL A   1      33.293  22.519  25.946  1.00  0.00    -0.322 N 
ATOM     10  C   UNL A   1      33.723  21.374  26.488  1.00  0.00     0.315 C 
ATOM     11  H   UNL A   1      32.856  23.074  26.632  1.00  0.00     0.166 HD
ATOM     12  O   UNL A   1      33.882  21.361  27.712  1.00  0.00    -0.249 OA
ATOM     13  N   UNL A   1      34.001  20.259  25.806  1.00  0.00    -0.335 N 
ATOM     14  H   UNL A   1      34.536  19.590  26.293  1.00  0.00     0.165 HD
BRANCH  13  15
ATOM     15  C   UNL A   1      33.631  19.896  24.471  1.00  0.00     0.152 C 
BRANCH  15  16
ATOM     16  C   UNL A   1      32.378  19.029  24.257  1.00  0.00     0.163 C 
ATOM     17  C   UNL A   1      32.473  18.366  22.873  1.00  0.00     0.194 C 
ATOM     18  O   UNL A   1      32.147  18.039  25.268  1.00  0.00    -0.372 OA
ATOM     19  O   UNL A   1      33.564  17.434  22.860  1.00  0.00    -0.376 OA
ATOM     20  C   UNL A   1      33.109  16.980  25.240  1.00  0.00     0.189 C 
ATOM     21  C   UNL A   1      33.338  16.410  23.838  1.00  0.00     0.188 C 
ENDBRANCH  15  16
ENDBRANCH  13  15
ENDBRANCH   5   9
ENDBRANCH   3   5
ENDBRANCH   2   3
ENDBRANCH   1   2
BRANCH   1  22
ATOM     22  C   UNL A   1      37.266  21.313  24.973  1.00  0.00     0.275 C 
BRANCH  22  23
ATOM     23  O   UNL A   1      38.484  21.885  25.476  1.00  0.00    -0.458 OA
BRANCH  23  24
ATOM     24  C   UNL A   1      39.381  20.979  25.935  1.00  0.00     0.338 C 
ATOM     25  O   UNL A   1      39.427  19.786  25.717  1.00  0.00    -0.246 OA
BRANCH  24  26
ATOM     26  C   UNL A   1      40.507  21.779  26.429  1.00  0.00     0.060 A 
ATOM     27  C   UNL A   1      41.765  21.182  26.352  1.00  0.00     0.016 A 
ATOM     28  C   UNL A   1      40.363  23.081  26.882  1.00  0.00     0.016 A 
ATOM     29  C   UNL A   1      42.906  21.866  26.722  1.00  0.00     0.010 A 
ATOM     30  C   UNL A   1      41.513  23.786  27.244  1.00  0.00     0.010 A 
ATOM     31  C   UNL A   1      42.786  23.181  27.160  1.00  0.00    -0.014 A 
BRANCH  31  32
ATOM     32  C   UNL A   1      43.985  23.906  27.620  1.00  0.00     0.031 A 
ATOM     33  C   UNL A   1      44.236  23.991  29.090  1.00  0.00     0.074 A 
ATOM     34  C   UNL A   1      44.825  24.473  26.735  1.00  0.00     0.049 A 
ATOM     35  N   UNL A   1      45.009  24.808  29.750  1.00  0.00    -0.248 NA
ATOM     36  C   UNL A   1      43.493  23.039  29.933  1.00  0.00     0.031 C 
ATOM     37  C   UNL A   1      44.741  24.351  25.277  1.00  0.00     0.029 A 
ATOM     38  N   UNL A   1      45.914  25.278  26.939  1.00  0.00    -0.354 N 
ATOM     39  C   UNL A   1      44.783  24.527  31.090  1.00  0.00     0.074 A 
ATOM     40  C   UNL A   1      43.825  23.445  31.150  1.00  0.00     0.031 C 
ATOM     41  C   UNL A   1      45.735  25.061  24.720  1.00  0.00     0.029 A 
ATOM     42  C   UNL A   1      46.463  25.756  25.774  1.00  0.00     0.049 A 
ATOM     43  H   UNL A   1      46.268  25.494  27.832  1.00  0.00     0.167 HD
ATOM     44  C   UNL A   1      45.316  25.146  32.166  1.00  0.00     0.031 A 
ATOM     45  C   UNL A   1      47.401  26.701  25.586  1.00  0.00     0.031 A 
ATOM     46  C   UNL A   1      46.291  26.197  32.066  1.00  0.00     0.049 A 
ATOM     47  C   UNL A   1      47.958  27.400  26.795  1.00  0.00     0.074 A 
ATOM     48  C   UNL A   1      46.895  26.921  33.077  1.00  0.00     0.029 A 
ATOM     49  N   UNL A   1      46.820  26.657  30.867  1.00  0.00    -0.354 N 
ATOM     50  N   UNL A   1      47.672  27.209  28.062  1.00  0.00    -0.248 NA
ATOM     51  C   UNL A   1      48.945  28.459  26.551  1.00  0.00     0.031 C 
ATOM     52  C   UNL A   1      47.771  27.840  32.486  1.00  0.00     0.029 A 
ATOM     53  C   UNL A   1      47.742  27.657  31.112  1.00  0.00     0.049 A 
ATOM     54  H   UNL A   1      46.574  26.320  29.976  1.00  0.00     0.167 HD
ATOM     55  C   UNL A   1      48.447  28.118  28.767  1.00  0.00     0.074 A 
ATOM     56  C   UNL A   1      49.233  28.842  27.786  1.00  0.00     0.031 C 
ATOM     57  C   UNL A   1      48.502  28.347  30.101  1.00  0.00     0.031 A 
BRANCH  44  58
ATOM     58  C   UNL A   1      44.798  24.749  33.517  1.00  0.00    -0.014 A 
ATOM     59  C   UNL A   1      45.362  23.692  34.246  1.00  0.00     0.009 A 
ATOM     60  C   UNL A   1      43.713  25.450  34.067  1.00  0.00     0.009 A 
ATOM     61  C   UNL A   1      44.829  23.325  35.484  1.00  0.00     0.001 A 
ATOM     62  C   UNL A   1      43.198  25.099  35.316  1.00  0.00     0.001 A 
ATOM     63  C   UNL A   1      43.750  24.031  36.020  1.00  0.00     0.000 A 
ENDBRANCH  44  58
BRANCH  45  64
ATOM     64  C   UNL A   1      47.807  27.093  24.210  1.00  0.00    -0.014 A 
ATOM     65  C   UNL A   1      48.941  26.529  23.609  1.00  0.00     0.009 A 
ATOM     66  C   UNL A   1      47.055  28.033  23.486  1.00  0.00     0.009 A 
ATOM     67  C   UNL A   1      49.322  26.908  22.318  1.00  0.00     0.001 A 
ATOM     68  C   UNL A   1      47.420  28.387  22.184  1.00  0.00     0.001 A 
ATOM     69  C   UNL A   1      48.558  27.830  21.605  1.00  0.00     0.000 A 
ENDBRANCH  45  64
BRANCH  57  70
ATOM     70  C   UNL A   1      49.469  29.396  30.563  1.00  0.00    -0.014 A 
ATOM     71  C   UNL A   1      50.786  29.061  30.910  1.00  0.00     0.009 A 
ATOM     72  C   UNL A   1      49.061  30.737  30.615  1.00  0.00     0.009 A 
ATOM     73  C   UNL A   1      51.671  30.053  31.332  1.00  0.00     0.001 A 
ATOM     74  C   UNL A   1      49.956  31.729  31.015  1.00  0.00     0.001 A 
ATOM     75  C   UNL A   1      51.257  31.385  31.381  1.00  0.00     0.000 A 
ENDBRANCH  57  70
ENDBRANCH  31  32
ENDBRANCH  24  26
ENDBRANCH  23  24
ENDBRANCH  22  23
ENDBRANCH   1  22
TORSDOF 15
ENDMDL
MODEL 3
REMARK VINA RESULT:      -9.8      2.365      7.012
REMARK SMILES CC[C@](C)(NC(=O)NC[C@H]1COCCO1)C(=O)OCCOC(=O)c1ccc(-c2c3nc(c(-c4ccccc4)c4ccc([nH]4)c(-c4ccccc4)c4nc(c(-c5ccccc5)c5ccc2[nH]5)C=C4)C=C3)cc1
REMARK SMILES IDX 19 1 18 2 16 3 17 4 3 5 4 6 2 7 1 8 5 9 6 10 7 12 8 13 9 15
REMARK SMILES IDX 10 16 11 17 15 18 12 19 14 20 13 21 20 22 21 23 22 24 23 25
REMARK SMILES IDX 24 26 25 27 71 28 26 29 70 30 27 31 28 32 29 33 64 34 30 35
REMARK SMILES IDX 69 36 63 37 65 38 31 39 68 40 62 41 61 42 32 44 54 45 39 46
REMARK SMILES IDX 53 47 40 48 43 49 52 50 66 51 41 52 42 53 51 55 67 56 44 57
REMARK SMILES IDX 33 58 34 59 38 60 35 61 37 62 36 63 55 64 56 65 60 66 57 67
REMARK SMILES IDX 59 68 58 69 45 70 46 71 50 72 47 73 49 74 48 75
REMARK H PARENT 5 11 8 14 65 43 43 54
REMARK Flexibility Score: inf
ROOT
ATOM      1  C   UNL A   1      32.525  29.776  25.763  1.00  0.00     0.274 C 
ENDROOT
BRANCH   1   2
ATOM      2  O   UNL A   1      32.853  28.367  25.726  1.00  0.00    -0.460 OA
BRANCH   2   3
ATOM      3  C   UNL A   1      31.793  27.513  25.782  1.00  0.00     0.331 C 
ATOM      4  O   UNL A   1      31.162  27.305  26.814  1.00  0.00    -0.249 OA
BRANCH   3   5
ATOM      5  C   UNL A   1      31.440  26.859  24.402  1.00  0.00     0.136 C 
ATOM      6  C   UNL A   1      30.262  27.722  23.860  1.00  0.00     0.047 C 
BRANCH   5   7
ATOM      7  C   UNL A   1      30.847  25.443  24.692  1.00  0.00     0.037 C 
ATOM      8  C   UNL A   1      30.317  24.653  23.511  1.00  0.00     0.007 C 
ENDBRANCH   5   7
BRANCH   5   9
ATOM      9  N   UNL A   1      32.463  26.892  23.309  1.00  0.00    -0.322 N 
ATOM     10  C   UNL A   1      33.447  26.139  22.804  1.00  0.00     0.315 C 
ATOM     11  H   UNL A   1      32.387  27.733  22.801  1.00  0.00     0.166 HD
ATOM     12  O   UNL A   1      33.793  26.378  21.643  1.00  0.00    -0.249 OA
ATOM     13  N   UNL A   1      34.069  25.152  23.455  1.00  0.00    -0.335 N 
ATOM     14  H   UNL A   1      34.585  24.533  22.888  1.00  0.00     0.165 HD
BRANCH  13  15
ATOM     15  C   UNL A   1      34.093  24.864  24.858  1.00  0.00     0.152 C 
BRANCH  15  16
ATOM     16  C   UNL A   1      34.461  23.443  25.318  1.00  0.00     0.163 C 
ATOM     17  C   UNL A   1      34.718  22.577  24.075  1.00  0.00     0.194 C 
ATOM     18  O   UNL A   1      35.576  23.367  26.217  1.00  0.00    -0.372 OA
ATOM     19  O   UNL A   1      35.889  23.051  23.393  1.00  0.00    -0.376 OA
ATOM     20  C   UNL A   1      36.821  23.683  25.587  1.00  0.00     0.189 C 
ATOM     21  C   UNL A   1      37.027  22.949  24.258  1.00  0.00     0.188 C 
ENDBRANCH  15  16
ENDBRANCH  13  15
ENDBRANCH   5   9
ENDBRANCH   3   5
ENDBRANCH   2   3
ENDBRANCH   1   2
BRANCH   1  22
ATOM     22  C   UNL A   1      32.867  30.353  27.142  1.00  0.00     0.275 C 
BRANCH  22  23
ATOM     23  O   UNL A   1      34.187  29.916  27.502  1.00  0.00    -0.458 OA
BRANCH  23  24
ATOM     24  C   UNL A   1      34.848  30.757  28.334  1.00  0.00     0.338 C 
ATOM     25  O   UNL A   1      34.386  31.567  29.111  1.00  0.00    -0.246 OA
BRANCH  24  26
ATOM     26  C   UNL A   1      36.216  30.229  28.397  1.00  0.00     0.060 A 
ATOM     27  C   UNL A   1      36.619  29.714  29.630  1.00  0.00     0.016 A 
ATOM     28  C   UNL A   1      37.050  30.167  27.292  1.00  0.00     0.016 A 
ATOM     29  C   UNL A   1      37.859  29.127  29.789  1.00  0.00     0.010 A 
ATOM     30  C   UNL A   1      38.299  29.561  27.440  1.00  0.00     0.010 A 
ATOM     31  C   UNL A   1      38.704  29.037  28.687  1.00  0.00    -0.014 A 
BRANCH  31  32
ATOM     32  C   UNL A   1      40.056  28.471  28.852  1.00  0.00     0.031 A 
ATOM     33  C   UNL A   1      41.155  29.389  29.277  1.00  0.00     0.074 A 
ATOM     34  C   UNL A   1      40.285  27.165  28.625  1.00  0.00     0.049 A 
ATOM     35  N   UNL A   1      42.446  29.226  29.189  1.00  0.00    -0.248 NA
ATOM     36  C   UNL A   1      40.740  30.677  29.858  1.00  0.00     0.031 C 
ATOM     37  C   UNL A   1      39.265  26.157  28.323  1.00  0.00     0.029 A 
ATOM     38  N   UNL A   1      41.462  26.464  28.605  1.00  0.00    -0.354 N 
ATOM     39  C   UNL A   1      42.998  30.423  29.625  1.00  0.00     0.074 A 
ATOM     40  C   UNL A   1      41.905  31.291  30.004  1.00  0.00     0.031 C 
ATOM     41  C   UNL A   1      39.863  24.969  28.142  1.00  0.00     0.029 A 
ATOM     42  C   UNL A   1      41.306  25.153  28.226  1.00  0.00     0.049 A 
ATOM     43  H   UNL A   1      42.332  26.861  28.837  1.00  0.00     0.167 HD
ATOM     44  C   UNL A   1      44.305  30.762  29.672  1.00  0.00     0.031 A 
ATOM     45  C   UNL A   1      42.233  24.228  27.915  1.00  0.00     0.031 A 
ATOM     46  C   UNL A   1      45.366  29.859  29.316  1.00  0.00     0.049 A 
ATOM     47  C   UNL A   1      43.680  24.636  27.942  1.00  0.00     0.074 A 
ATOM     48  C   UNL A   1      46.729  30.084  29.299  1.00  0.00     0.029 A 
ATOM     49  N   UNL A   1      45.168  28.539  28.933  1.00  0.00    -0.354 N 
ATOM     50  N   UNL A   1      44.203  25.800  28.254  1.00  0.00    -0.248 NA
ATOM     51  C   UNL A   1      44.661  23.617  27.552  1.00  0.00     0.031 C 
ATOM     52  C   UNL A   1      47.356  28.905  28.878  1.00  0.00     0.029 A 
ATOM     53  C   UNL A   1      46.385  27.936  28.675  1.00  0.00     0.049 A 
ATOM     54  H   UNL A   1      44.292  28.099  28.857  1.00  0.00     0.167 HD
ATOM     55  C   UNL A   1      45.574  25.651  28.105  1.00  0.00     0.074 A 
ATOM     56  C   UNL A   1      45.801  24.277  27.698  1.00  0.00     0.031 C 
ATOM     57  C   UNL A   1      46.560  26.565  28.275  1.00  0.00     0.031 A 
BRANCH  44  58
ATOM     58  C   UNL A   1      44.638  32.177  30.046  1.00  0.00    -0.014 A 
ATOM     59  C   UNL A   1      44.700  33.201  29.090  1.00  0.00     0.009 A 
ATOM     60  C   UNL A   1      44.900  32.485  31.390  1.00  0.00     0.009 A 
ATOM     61  C   UNL A   1      45.050  34.499  29.469  1.00  0.00     0.001 A 
ATOM     62  C   UNL A   1      45.225  33.788  31.771  1.00  0.00     0.001 A 
ATOM     63  C   UNL A   1      45.308  34.792  30.809  1.00  0.00     0.000 A 
ENDBRANCH  44  58
BRANCH  45  64
ATOM     64  C   UNL A   1      41.820  22.869  27.478  1.00  0.00    -0.014 A 
ATOM     65  C   UNL A   1      41.472  22.621  26.142  1.00  0.00     0.009 A 
ATOM     66  C   UNL A   1      41.777  21.806  28.395  1.00  0.00     0.009 A 
ATOM     67  C   UNL A   1      41.077  21.342  25.738  1.00  0.00     0.001 A 
ATOM     68  C   UNL A   1      41.412  20.523  27.982  1.00  0.00     0.001 A 
ATOM     69  C   UNL A   1      41.054  20.294  26.656  1.00  0.00     0.000 A 
ENDBRANCH  45  64
BRANCH  57  70
ATOM     70  C   UNL A   1      47.964  26.085  28.055  1.00  0.00    -0.014 A 
ATOM     71  C   UNL A   1      48.557  26.145  26.785  1.00  0.00     0.009 A 
ATOM     72  C   UNL A   1      48.708  25.602  29.141  1.00  0.00     0.009 A 
ATOM     73  C   UNL A   1      49.865  25.699  26.602  1.00  0.00     0.001 A 
ATOM     74  C   UNL A   1      50.024  25.179  28.959  1.00  0.00     0.001 A 
ATOM     75  C   UNL A   1      50.598  25.220  27.688  1.00  0.00     0.000 A 
ENDBRANCH  57  70
ENDBRANCH  31  32
ENDBRANCH  24  26
ENDBRANCH  23  24
ENDBRANCH  22  23
ENDBRANCH   1  22
TORSDOF 15
ENDMDL
