MODEL 1
REMARK VINA RESULT:      -8.6      0.000      0.000
REMARK SMILES CC/C=C/C/C=C/C/C=C/C/C=C/CCSCCCC(=O)OCCOC(=O)c1ccc(-c2c3nc(c(-c4ccccc4)c4ccc([nH]4)c(-c4ccccc4)c4nc(c(-c5ccccc5)c5ccc2[nH]5)C=C4)C=C3)cc1
REMARK SMILES IDX 17 1 16 2 15 3 14 4 13 5 12 6 11 7 10 8 9 9 8 10 7 11 6 12
REMARK SMILES IDX 5 13 4 14 3 15 2 16 1 17 18 18 19 19 20 20 21 21 22 22 23 23
REMARK SMILES IDX 24 24 25 25 26 26 27 27 28 28 29 29 75 30 30 31 74 32 31 33
REMARK SMILES IDX 32 34 33 35 68 36 34 37 73 38 67 39 69 40 35 41 72 42 66 43
REMARK SMILES IDX 65 44 36 46 58 47 43 48 57 49 44 50 47 51 56 52 70 53 45 54
REMARK SMILES IDX 46 55 55 57 71 58 48 59 37 60 38 61 42 62 39 63 41 64 40 65
REMARK SMILES IDX 59 66 60 67 64 68 61 69 63 70 62 71 49 72 50 73 54 74 51 75
REMARK SMILES IDX 53 76 52 77
REMARK H PARENT 69 45 47 56
REMARK Flexibility Score: inf
ROOT
ATOM      1  C   UNL A   1      46.093  19.325  40.515  1.00  0.00     0.070 C 
ENDROOT
BRANCH   1   2
ATOM      2  S   UNL A   1      46.310  18.511  42.137  1.00  0.00    -0.162 SA
BRANCH   2   3
ATOM      3  C   UNL A   1      46.038  16.718  41.868  1.00  0.00     0.073 C 
BRANCH   3   4
ATOM      4  C   UNL A   1      46.889  15.726  42.683  1.00  0.00     0.038 C 
BRANCH   4   5
ATOM      5  C   UNL A   1      46.292  15.260  43.990  1.00  0.00    -0.030 C 
ATOM      6  C   UNL A   1      46.247  13.972  44.393  1.00  0.00    -0.027 C 
BRANCH   6   7
ATOM      7  C   UNL A   1      45.673  13.448  45.695  1.00  0.00     0.054 C 
BRANCH   7   8
ATOM      8  C   UNL A   1      44.412  12.649  45.487  1.00  0.00    -0.027 C 
ATOM      9  C   UNL A   1      43.884  12.342  44.287  1.00  0.00    -0.027 C 
BRANCH   9  10
ATOM     10  C   UNL A   1      42.666  11.475  44.122  1.00  0.00     0.054 C 
BRANCH  10  11
ATOM     11  C   UNL A   1      41.703  12.023  43.117  1.00  0.00    -0.027 C 
ATOM     12  C   UNL A   1      41.961  12.137  41.804  1.00  0.00    -0.027 C 
BRANCH  12  13
ATOM     13  C   UNL A   1      41.011  12.774  40.833  1.00  0.00     0.054 C 
BRANCH  13  14
ATOM     14  C   UNL A   1      41.375  14.219  40.675  1.00  0.00    -0.027 C 
ATOM     15  C   UNL A   1      42.425  14.677  39.978  1.00  0.00    -0.031 C 
BRANCH  15  16
ATOM     16  C   UNL A   1      42.818  16.124  39.948  1.00  0.00     0.023 C 
ATOM     17  C   UNL A   1      43.848  16.375  38.857  1.00  0.00     0.008 C 
ENDBRANCH  15  16
ENDBRANCH  13  14
ENDBRANCH  12  13
ENDBRANCH  10  11
ENDBRANCH   9  10
ENDBRANCH   7   8
ENDBRANCH   6   7
ENDBRANCH   4   5
ENDBRANCH   3   4
ENDBRANCH   2   3
ENDBRANCH   1   2
BRANCH   1  18
ATOM     18  C   UNL A   1      46.868  18.838  39.286  1.00  0.00     0.023 C 
BRANCH  18  19
ATOM     19  C   UNL A   1      47.161  19.843  38.187  1.00  0.00     0.123 C 
BRANCH  19  20
ATOM     20  C   UNL A   1      46.089  19.976  37.137  1.00  0.00     0.305 C 
ATOM     21  O   UNL A   1      45.712  19.015  36.483  1.00  0.00    -0.252 OA
BRANCH  20  22
ATOM     22  O   UNL A   1      45.669  21.254  36.963  1.00  0.00    -0.462 OA
BRANCH  22  23
ATOM     23  C   UNL A   1      46.069  22.219  37.950  1.00  0.00     0.274 C 
BRANCH  23  24
ATOM     24  C   UNL A   1      46.786  23.433  37.371  1.00  0.00     0.275 C 
BRANCH  24  25
ATOM     25  O   UNL A   1      46.045  24.044  36.308  1.00  0.00    -0.458 OA
BRANCH  25  26
ATOM     26  C   UNL A   1      46.598  25.182  35.825  1.00  0.00     0.338 C 
ATOM     27  O   UNL A   1      47.778  25.448  35.694  1.00  0.00    -0.246 OA
BRANCH  26  28
ATOM     28  C   UNL A   1      45.526  26.062  35.359  1.00  0.00     0.060 A 
ATOM     29  C   UNL A   1      44.219  25.566  35.293  1.00  0.00     0.016 A 
ATOM     30  C   UNL A   1      45.833  27.345  34.917  1.00  0.00     0.016 A 
ATOM     31  C   UNL A   1      43.206  26.344  34.757  1.00  0.00     0.010 A 
ATOM     32  C   UNL A   1      44.816  28.132  34.387  1.00  0.00     0.010 A 
ATOM     33  C   UNL A   1      43.508  27.619  34.276  1.00  0.00    -0.014 A 
BRANCH  33  34
ATOM     34  C   UNL A   1      42.512  28.337  33.462  1.00  0.00     0.031 A 
ATOM     35  C   UNL A   1      41.649  29.344  34.159  1.00  0.00     0.074 A 
ATOM     36  C   UNL A   1      42.401  28.116  32.141  1.00  0.00     0.049 A 
ATOM     37  N   UNL A   1      40.608  29.994  33.715  1.00  0.00    -0.248 NA
ATOM     38  C   UNL A   1      42.000  29.642  35.560  1.00  0.00     0.031 C 
ATOM     39  C   UNL A   1      43.247  27.221  31.351  1.00  0.00     0.029 A 
ATOM     40  N   UNL A   1      41.515  28.632  31.234  1.00  0.00    -0.354 N 
ATOM     41  C   UNL A   1      40.158  30.745  34.793  1.00  0.00     0.074 A 
ATOM     42  C   UNL A   1      41.008  30.439  35.920  1.00  0.00     0.031 C 
ATOM     43  C   UNL A   1      42.828  27.241  30.074  1.00  0.00     0.029 A 
ATOM     44  C   UNL A   1      41.663  28.113  29.971  1.00  0.00     0.049 A 
ATOM     45  H   UNL A   1      40.838  29.308  31.464  1.00  0.00     0.167 HD
ATOM     46  C   UNL A   1      39.130  31.622  34.833  1.00  0.00     0.031 A 
ATOM     47  C   UNL A   1      40.915  28.305  28.870  1.00  0.00     0.031 A 
ATOM     48  C   UNL A   1      38.304  31.924  33.699  1.00  0.00     0.049 A 
ATOM     49  C   UNL A   1      39.730  29.231  28.956  1.00  0.00     0.074 A 
ATOM     50  C   UNL A   1      37.234  32.792  33.616  1.00  0.00     0.029 A 
ATOM     51  N   UNL A   1      38.471  31.363  32.440  1.00  0.00    -0.354 N 
ATOM     52  N   UNL A   1      39.297  29.928  29.980  1.00  0.00    -0.248 NA
ATOM     53  C   UNL A   1      38.935  29.400  27.733  1.00  0.00     0.031 C 
ATOM     54  C   UNL A   1      36.721  32.721  32.317  1.00  0.00     0.029 A 
ATOM     55  C   UNL A   1      37.511  31.855  31.576  1.00  0.00     0.049 A 
ATOM     56  H   UNL A   1      39.168  30.712  32.199  1.00  0.00     0.167 HD
ATOM     57  C   UNL A   1      38.200  30.644  29.516  1.00  0.00     0.074 A 
ATOM     58  C   UNL A   1      38.047  30.305  28.115  1.00  0.00     0.031 C 
ATOM     59  C   UNL A   1      37.392  31.505  30.183  1.00  0.00     0.031 A 
BRANCH  46  60
ATOM     60  C   UNL A   1      38.836  32.266  36.157  1.00  0.00    -0.014 A 
ATOM     61  C   UNL A   1      38.003  31.648  37.105  1.00  0.00     0.009 A 
ATOM     62  C   UNL A   1      39.374  33.529  36.447  1.00  0.00     0.009 A 
ATOM     63  C   UNL A   1      37.673  32.305  38.292  1.00  0.00     0.001 A 
ATOM     64  C   UNL A   1      39.071  34.168  37.650  1.00  0.00     0.001 A 
ATOM     65  C   UNL A   1      38.210  33.562  38.565  1.00  0.00     0.000 A 
ENDBRANCH  46  60
BRANCH  47  66
ATOM     66  C   UNL A   1      41.242  27.597  27.605  1.00  0.00    -0.014 A 
ATOM     67  C   UNL A   1      42.027  28.216  26.620  1.00  0.00     0.009 A 
ATOM     68  C   UNL A   1      40.749  26.305  27.362  1.00  0.00     0.009 A 
ATOM     69  C   UNL A   1      42.280  27.572  25.406  1.00  0.00     0.001 A 
ATOM     70  C   UNL A   1      41.029  25.650  26.160  1.00  0.00     0.001 A 
ATOM     71  C   UNL A   1      41.783  26.289  25.178  1.00  0.00     0.000 A 
ENDBRANCH  47  66
BRANCH  59  72
ATOM     72  C   UNL A   1      36.305  32.178  29.395  1.00  0.00    -0.014 A 
ATOM     73  C   UNL A   1      35.133  31.496  29.035  1.00  0.00     0.009 A 
ATOM     74  C   UNL A   1      36.435  33.536  29.063  1.00  0.00     0.009 A 
ATOM     75  C   UNL A   1      34.124  32.156  28.330  1.00  0.00     0.001 A 
ATOM     76  C   UNL A   1      35.411  34.201  28.389  1.00  0.00     0.001 A 
ATOM     77  C   UNL A   1      34.261  33.508  28.015  1.00  0.00     0.000 A 
ENDBRANCH  59  72
ENDBRANCH  33  34
ENDBRANCH  26  28
ENDBRANCH  25  26
ENDBRANCH  24  25
ENDBRANCH  23  24
ENDBRANCH  22  23
ENDBRANCH  20  22
ENDBRANCH  19  20
ENDBRANCH  18  19
ENDBRANCH   1  18
TORSDOF 24
ENDMDL
MODEL 2
REMARK VINA RESULT:      -8.6      8.584     14.455
REMARK SMILES CC/C=C/C/C=C/C/C=C/C/C=C/CCSCCCC(=O)OCCOC(=O)c1ccc(-c2c3nc(c(-c4ccccc4)c4ccc([nH]4)c(-c4ccccc4)c4nc(c(-c5ccccc5)c5ccc2[nH]5)C=C4)C=C3)cc1
REMARK SMILES IDX 17 1 16 2 15 3 14 4 13 5 12 6 11 7 10 8 9 9 8 10 7 11 6 12
REMARK SMILES IDX 5 13 4 14 3 15 2 16 1 17 18 18 19 19 20 20 21 21 22 22 23 23
REMARK SMILES IDX 24 24 25 25 26 26 27 27 28 28 29 29 75 30 30 31 74 32 31 33
REMARK SMILES IDX 32 34 33 35 68 36 34 37 73 38 67 39 69 40 35 41 72 42 66 43
REMARK SMILES IDX 65 44 36 46 58 47 43 48 57 49 44 50 47 51 56 52 70 53 45 54
REMARK SMILES IDX 46 55 55 57 71 58 48 59 37 60 38 61 42 62 39 63 41 64 40 65
REMARK SMILES IDX 59 66 60 67 64 68 61 69 63 70 62 71 49 72 50 73 54 74 51 75
REMARK SMILES IDX 53 76 52 77
REMARK H PARENT 69 45 47 56
REMARK Flexibility Score: inf
ROOT
ATOM      1  C   UNL A   1      34.486  31.524  27.840  1.00  0.00     0.070 C 
ENDROOT
BRANCH   1   2
ATOM      2  S   UNL A   1      35.490  29.999  27.744  1.00  0.00    -0.162 SA
BRANCH   2   3
ATOM      3  C   UNL A   1      34.332  28.627  27.373  1.00  0.00     0.073 C 
BRANCH   3   4
ATOM      4  C   UNL A   1      33.828  28.477  25.926  1.00  0.00     0.038 C 
BRANCH   4   5
ATOM      5  C   UNL A   1      33.086  27.199  25.614  1.00  0.00    -0.030 C 
ATOM      6  C   UNL A   1      32.040  26.729  26.327  1.00  0.00    -0.027 C 
BRANCH   6   7
ATOM      7  C   UNL A   1      31.251  25.463  26.055  1.00  0.00     0.054 C 
BRANCH   7   8
ATOM      8  C   UNL A   1      31.987  24.222  26.489  1.00  0.00    -0.027 C 
ATOM      9  C   UNL A   1      32.198  23.141  25.715  1.00  0.00    -0.027 C 
BRANCH   9  10
ATOM     10  C   UNL A   1      33.006  21.954  26.162  1.00  0.00     0.054 C 
BRANCH  10  11
ATOM     11  C   UNL A   1      33.056  20.872  25.130  1.00  0.00    -0.027 C 
ATOM     12  C   UNL A   1      32.186  20.752  24.115  1.00  0.00    -0.027 C 
BRANCH  12  13
ATOM     13  C   UNL A   1      32.205  19.605  23.147  1.00  0.00     0.054 C 
BRANCH  13  14
ATOM     14  C   UNL A   1      32.863  18.428  23.803  1.00  0.00    -0.027 C 
ATOM     15  C   UNL A   1      33.470  17.426  23.152  1.00  0.00    -0.031 C 
BRANCH  15  16
ATOM     16  C   UNL A   1      34.009  16.209  23.845  1.00  0.00     0.023 C 
ATOM     17  C   UNL A   1      33.228  15.930  25.120  1.00  0.00     0.008 C 
ENDBRANCH  15  16
ENDBRANCH  13  14
ENDBRANCH  12  13
ENDBRANCH  10  11
ENDBRANCH   9  10
ENDBRANCH   7   8
ENDBRANCH   6   7
ENDBRANCH   4   5
ENDBRANCH   3   4
ENDBRANCH   2   3
ENDBRANCH   1   2
BRANCH   1  18
ATOM     18  C   UNL A   1      35.088  32.824  28.387  1.00  0.00     0.023 C 
BRANCH  18  19
ATOM     19  C   UNL A   1      34.446  34.134  27.971  1.00  0.00     0.123 C 
BRANCH  19  20
ATOM     20  C   UNL A   1      32.947  34.187  28.110  1.00  0.00     0.305 C 
ATOM     21  O   UNL A   1      32.212  33.589  27.338  1.00  0.00    -0.252 OA
BRANCH  20  22
ATOM     22  O   UNL A   1      32.533  35.007  29.108  1.00  0.00    -0.462 OA
BRANCH  22  23
ATOM     23  C   UNL A   1      33.246  36.243  29.283  1.00  0.00     0.274 C 
BRANCH  23  24
ATOM     24  C   UNL A   1      32.907  36.972  30.578  1.00  0.00     0.275 C 
BRANCH  24  25
ATOM     25  O   UNL A   1      33.779  36.601  31.653  1.00  0.00    -0.458 OA
BRANCH  25  26
ATOM     26  C   UNL A   1      33.369  35.519  32.355  1.00  0.00     0.338 C 
ATOM     27  O   UNL A   1      32.235  35.101  32.499  1.00  0.00    -0.246 OA
BRANCH  26  28
ATOM     28  C   UNL A   1      34.548  34.819  32.867  1.00  0.00     0.060 A 
ATOM     29  C   UNL A   1      35.820  35.295  32.534  1.00  0.00     0.016 A 
ATOM     30  C   UNL A   1      34.387  33.650  33.606  1.00  0.00     0.016 A 
ATOM     31  C   UNL A   1      36.950  34.592  32.917  1.00  0.00     0.010 A 
ATOM     32  C   UNL A   1      35.520  32.947  34.000  1.00  0.00     0.010 A 
ATOM     33  C   UNL A   1      36.801  33.400  33.627  1.00  0.00    -0.014 A 
BRANCH  33  34
ATOM     34  C   UNL A   1      37.964  32.511  33.795  1.00  0.00     0.031 A 
ATOM     35  C   UNL A   1      38.787  32.680  35.036  1.00  0.00     0.074 A 
ATOM     36  C   UNL A   1      38.258  31.568  32.884  1.00  0.00     0.049 A 
ATOM     37  N   UNL A   1      39.932  32.140  35.353  1.00  0.00    -0.248 NA
ATOM     38  C   UNL A   1      38.250  33.606  36.051  1.00  0.00     0.031 C 
ATOM     39  C   UNL A   1      37.476  31.264  31.687  1.00  0.00     0.029 A 
ATOM     40  N   UNL A   1      39.312  30.694  32.831  1.00  0.00    -0.354 N 
ATOM     41  C   UNL A   1      40.270  32.691  36.582  1.00  0.00     0.074 A 
ATOM     42  C   UNL A   1      39.235  33.636  36.933  1.00  0.00     0.031 C 
ATOM     43  C   UNL A   1      38.086  30.278  31.007  1.00  0.00     0.029 A 
ATOM     44  C   UNL A   1      39.318  29.917  31.699  1.00  0.00     0.049 A 
ATOM     45  H   UNL A   1      39.996  30.630  33.535  1.00  0.00     0.167 HD
ATOM     46  C   UNL A   1      41.345  32.421  37.355  1.00  0.00     0.031 A 
ATOM     47  C   UNL A   1      40.239  29.037  31.266  1.00  0.00     0.031 A 
ATOM     48  C   UNL A   1      42.356  31.468  36.997  1.00  0.00     0.049 A 
ATOM     49  C   UNL A   1      41.466  28.806  32.108  1.00  0.00     0.074 A 
ATOM     50  C   UNL A   1      43.492  31.110  37.695  1.00  0.00     0.029 A 
ATOM     51  N   UNL A   1      42.341  30.714  35.832  1.00  0.00    -0.354 N 
ATOM     52  N   UNL A   1      41.791  29.339  33.262  1.00  0.00    -0.248 NA
ATOM     53  C   UNL A   1      42.451  27.847  31.589  1.00  0.00     0.031 C 
ATOM     54  C   UNL A   1      44.191  30.172  36.929  1.00  0.00     0.029 A 
ATOM     55  C   UNL A   1      43.458  29.902  35.783  1.00  0.00     0.049 A 
ATOM     56  H   UNL A   1      41.639  30.752  35.143  1.00  0.00     0.167 HD
ATOM     57  C   UNL A   1      42.999  28.755  33.624  1.00  0.00     0.074 A 
ATOM     58  C   UNL A   1      43.339  27.818  32.572  1.00  0.00     0.031 C 
ATOM     59  C   UNL A   1      43.761  28.971  34.725  1.00  0.00     0.031 A 
BRANCH  46  60
ATOM     60  C   UNL A   1      41.482  33.206  38.628  1.00  0.00    -0.014 A 
ATOM     61  C   UNL A   1      40.982  32.719  39.847  1.00  0.00     0.009 A 
ATOM     62  C   UNL A   1      42.091  34.470  38.600  1.00  0.00     0.009 A 
ATOM     63  C   UNL A   1      41.043  33.504  41.000  1.00  0.00     0.001 A 
ATOM     64  C   UNL A   1      42.182  35.238  39.761  1.00  0.00     0.001 A 
ATOM     65  C   UNL A   1      41.646  34.761  40.956  1.00  0.00     0.000 A 
ENDBRANCH  46  60
BRANCH  47  66
ATOM     66  C   UNL A   1      40.055  28.331  29.971  1.00  0.00    -0.014 A 
ATOM     67  C   UNL A   1      39.395  27.094  29.919  1.00  0.00     0.009 A 
ATOM     68  C   UNL A   1      40.562  28.877  28.781  1.00  0.00     0.009 A 
ATOM     69  C   UNL A   1      39.279  26.403  28.710  1.00  0.00     0.001 A 
ATOM     70  C   UNL A   1      40.418  28.200  27.569  1.00  0.00     0.001 A 
ATOM     71  C   UNL A   1      39.788  26.957  27.536  1.00  0.00     0.000 A 
ENDBRANCH  47  66
BRANCH  59  72
ATOM     72  C   UNL A   1      45.006  28.144  34.872  1.00  0.00    -0.014 A 
ATOM     73  C   UNL A   1      44.982  26.890  35.500  1.00  0.00     0.009 A 
ATOM     74  C   UNL A   1      46.210  28.607  34.317  1.00  0.00     0.009 A 
ATOM     75  C   UNL A   1      46.148  26.128  35.595  1.00  0.00     0.001 A 
ATOM     76  C   UNL A   1      47.365  27.828  34.382  1.00  0.00     0.001 A 
ATOM     77  C   UNL A   1      47.335  26.594  35.029  1.00  0.00     0.000 A 
ENDBRANCH  59  72
ENDBRANCH  33  34
ENDBRANCH  26  28
ENDBRANCH  25  26
ENDBRANCH  24  25
ENDBRANCH  23  24
ENDBRANCH  22  23
ENDBRANCH  20  22
ENDBRANCH  19  20
ENDBRANCH  18  19
ENDBRANCH   1  18
TORSDOF 24
ENDMDL
MODEL 3
REMARK VINA RESULT:      -8.6     10.367     15.319
REMARK SMILES CC/C=C/C/C=C/C/C=C/C/C=C/CCSCCCC(=O)OCCOC(=O)c1ccc(-c2c3nc(c(-c4ccccc4)c4ccc([nH]4)c(-c4ccccc4)c4nc(c(-c5ccccc5)c5ccc2[nH]5)C=C4)C=C3)cc1
REMARK SMILES IDX 17 1 16 2 15 3 14 4 13 5 12 6 11 7 10 8 9 9 8 10 7 11 6 12
REMARK SMILES IDX 5 13 4 14 3 15 2 16 1 17 18 18 19 19 20 20 21 21 22 22 23 23
REMARK SMILES IDX 24 24 25 25 26 26 27 27 28 28 29 29 75 30 30 31 74 32 31 33
REMARK SMILES IDX 32 34 33 35 68 36 34 37 73 38 67 39 69 40 35 41 72 42 66 43
REMARK SMILES IDX 65 44 36 46 58 47 43 48 57 49 44 50 47 51 56 52 70 53 45 54
REMARK SMILES IDX 46 55 55 57 71 58 48 59 37 60 38 61 42 62 39 63 41 64 40 65
REMARK SMILES IDX 59 66 60 67 64 68 61 69 63 70 62 71 49 72 50 73 54 74 51 75
REMARK SMILES IDX 53 76 52 77
REMARK H PARENT 69 45 47 56
REMARK Flexibility Score: inf
ROOT
ATOM      1  C   UNL A   1      34.052  31.212  27.603  1.00  0.00     0.070 C 
ENDROOT
BRANCH   1   2
ATOM      2  S   UNL A   1      34.556  29.505  27.185  1.00  0.00    -0.162 SA
BRANCH   2   3
ATOM      3  C   UNL A   1      33.024  28.499  27.138  1.00  0.00     0.073 C 
BRANCH   3   4
ATOM      4  C   UNL A   1      31.863  28.989  26.253  1.00  0.00     0.038 C 
BRANCH   4   5
ATOM      5  C   UNL A   1      31.371  28.016  25.208  1.00  0.00    -0.030 C 
ATOM      6  C   UNL A   1      30.430  28.299  24.282  1.00  0.00    -0.027 C 
BRANCH   6   7
ATOM      7  C   UNL A   1      29.907  27.369  23.205  1.00  0.00     0.054 C 
BRANCH   7   8
ATOM      8  C   UNL A   1      30.929  26.345  22.783  1.00  0.00    -0.027 C 
ATOM      9  C   UNL A   1      31.882  26.546  21.853  1.00  0.00    -0.027 C 
BRANCH   9  10
ATOM     10  C   UNL A   1      32.932  25.524  21.517  1.00  0.00     0.054 C 
BRANCH  10  11
ATOM     11  C   UNL A   1      33.560  24.924  22.734  1.00  0.00    -0.027 C 
ATOM     12  C   UNL A   1      33.850  25.608  23.853  1.00  0.00    -0.027 C 
BRANCH  12  13
ATOM     13  C   UNL A   1      34.562  25.000  25.026  1.00  0.00     0.054 C 
BRANCH  13  14
ATOM     14  C   UNL A   1      33.548  24.588  26.049  1.00  0.00    -0.027 C 
ATOM     15  C   UNL A   1      33.221  23.321  26.340  1.00  0.00    -0.031 C 
BRANCH  15  16
ATOM     16  C   UNL A   1      32.114  22.959  27.286  1.00  0.00     0.023 C 
ATOM     17  C   UNL A   1      30.771  23.417  26.738  1.00  0.00     0.008 C 
ENDBRANCH  15  16
ENDBRANCH  13  14
ENDBRANCH  12  13
ENDBRANCH  10  11
ENDBRANCH   9  10
ENDBRANCH   7   8
ENDBRANCH   6   7
ENDBRANCH   4   5
ENDBRANCH   3   4
ENDBRANCH   2   3
ENDBRANCH   1   2
BRANCH   1  18
ATOM     18  C   UNL A   1      35.086  32.238  28.083  1.00  0.00     0.023 C 
BRANCH  18  19
ATOM     19  C   UNL A   1      34.710  33.707  28.023  1.00  0.00     0.123 C 
BRANCH  19  20
ATOM     20  C   UNL A   1      33.344  34.041  28.561  1.00  0.00     0.305 C 
ATOM     21  O   UNL A   1      32.386  34.200  27.819  1.00  0.00    -0.252 OA
BRANCH  20  22
ATOM     22  O   UNL A   1      33.329  34.214  29.907  1.00  0.00    -0.462 OA
BRANCH  22  23
ATOM     23  C   UNL A   1      34.498  34.793  30.509  1.00  0.00     0.274 C 
BRANCH  23  24
ATOM     24  C   UNL A   1      34.575  34.598  32.019  1.00  0.00     0.275 C 
BRANCH  24  25
ATOM     25  O   UNL A   1      35.816  34.011  32.427  1.00  0.00    -0.458 OA
BRANCH  25  26
ATOM     26  C   UNL A   1      35.865  32.664  32.296  1.00  0.00     0.338 C 
ATOM     27  O   UNL A   1      34.974  31.857  32.486  1.00  0.00    -0.246 OA
BRANCH  26  28
ATOM     28  C   UNL A   1      37.179  32.292  31.769  1.00  0.00     0.060 A 
ATOM     29  C   UNL A   1      37.522  32.673  30.468  1.00  0.00     0.016 A 
ATOM     30  C   UNL A   1      38.029  31.501  32.537  1.00  0.00     0.016 A 
ATOM     31  C   UNL A   1      38.714  32.244  29.908  1.00  0.00     0.010 A 
ATOM     32  C   UNL A   1      39.231  31.077  31.981  1.00  0.00     0.010 A 
ATOM     33  C   UNL A   1      39.559  31.421  30.654  1.00  0.00    -0.014 A 
BRANCH  33  34
ATOM     34  C   UNL A   1      40.679  30.739  29.982  1.00  0.00     0.031 A 
ATOM     35  C   UNL A   1      41.969  31.492  29.859  1.00  0.00     0.074 A 
ATOM     36  C   UNL A   1      40.556  29.483  29.522  1.00  0.00     0.049 A 
ATOM     37  N   UNL A   1      43.047  31.187  29.189  1.00  0.00    -0.248 NA
ATOM     38  C   UNL A   1      42.043  32.778  30.577  1.00  0.00     0.031 C 
ATOM     39  C   UNL A   1      39.375  28.633  29.666  1.00  0.00     0.029 A 
ATOM     40  N   UNL A   1      41.448  28.708  28.830  1.00  0.00    -0.354 N 
ATOM     41  C   UNL A   1      43.908  32.261  29.373  1.00  0.00     0.074 A 
ATOM     42  C   UNL A   1      43.215  33.240  30.178  1.00  0.00     0.031 C 
ATOM     43  C   UNL A   1      39.610  27.454  29.065  1.00  0.00     0.029 A 
ATOM     44  C   UNL A   1      40.938  27.488  28.462  1.00  0.00     0.049 A 
ATOM     45  H   UNL A   1      42.364  28.998  28.617  1.00  0.00     0.167 HD
ATOM     46  C   UNL A   1      45.172  32.411  28.917  1.00  0.00     0.031 A 
ATOM     47  C   UNL A   1      41.482  26.525  27.695  1.00  0.00     0.031 A 
ATOM     48  C   UNL A   1      45.850  31.420  28.131  1.00  0.00     0.049 A 
ATOM     49  C   UNL A   1      42.864  26.742  27.138  1.00  0.00     0.074 A 
ATOM     50  C   UNL A   1      47.129  31.457  27.610  1.00  0.00     0.029 A 
ATOM     51  N   UNL A   1      45.295  30.203  27.759  1.00  0.00    -0.354 N 
ATOM     52  N   UNL A   1      43.671  27.765  27.300  1.00  0.00    -0.248 NA
ATOM     53  C   UNL A   1      43.412  25.671  26.296  1.00  0.00     0.031 C 
ATOM     54  C   UNL A   1      47.331  30.281  26.881  1.00  0.00     0.029 A 
ATOM     55  C   UNL A   1      46.200  29.486  27.000  1.00  0.00     0.049 A 
ATOM     56  H   UNL A   1      44.391  29.897  27.999  1.00  0.00     0.167 HD
ATOM     57  C   UNL A   1      44.833  27.445  26.609  1.00  0.00     0.074 A 
ATOM     58  C   UNL A   1      44.629  26.127  26.041  1.00  0.00     0.031 C 
ATOM     59  C   UNL A   1      45.969  28.171  26.458  1.00  0.00     0.031 A 
BRANCH  46  60
ATOM     60  C   UNL A   1      45.861  33.707  29.232  1.00  0.00    -0.014 A 
ATOM     61  C   UNL A   1      46.625  33.866  30.400  1.00  0.00     0.009 A 
ATOM     62  C   UNL A   1      45.712  34.798  28.364  1.00  0.00     0.009 A 
ATOM     63  C   UNL A   1      47.183  35.107  30.716  1.00  0.00     0.001 A 
ATOM     64  C   UNL A   1      46.300  36.027  28.664  1.00  0.00     0.001 A 
ATOM     65  C   UNL A   1      47.023  36.185  29.846  1.00  0.00     0.000 A 
ENDBRANCH  46  60
BRANCH  47  66
ATOM     66  C   UNL A   1      40.720  25.286  27.389  1.00  0.00    -0.014 A 
ATOM     67  C   UNL A   1      39.500  25.349  26.701  1.00  0.00     0.009 A 
ATOM     68  C   UNL A   1      41.196  24.033  27.808  1.00  0.00     0.009 A 
ATOM     69  C   UNL A   1      38.755  24.188  26.470  1.00  0.00     0.001 A 
ATOM     70  C   UNL A   1      40.466  22.871  27.549  1.00  0.00     0.001 A 
ATOM     71  C   UNL A   1      39.240  22.951  26.892  1.00  0.00     0.000 A 
ENDBRANCH  47  66
BRANCH  59  72
ATOM     72  C   UNL A   1      47.094  27.535  25.692  1.00  0.00    -0.014 A 
ATOM     73  C   UNL A   1      47.193  27.663  24.298  1.00  0.00     0.009 A 
ATOM     74  C   UNL A   1      48.101  26.850  26.389  1.00  0.00     0.009 A 
ATOM     75  C   UNL A   1      48.268  27.089  23.615  1.00  0.00     0.001 A 
ATOM     76  C   UNL A   1      49.190  26.308  25.708  1.00  0.00     0.001 A 
ATOM     77  C   UNL A   1      49.267  26.420  24.320  1.00  0.00     0.000 A 
ENDBRANCH  59  72
ENDBRANCH  33  34
ENDBRANCH  26  28
ENDBRANCH  25  26
ENDBRANCH  24  25
ENDBRANCH  23  24
ENDBRANCH  22  23
ENDBRANCH  20  22
ENDBRANCH  19  20
ENDBRANCH  18  19
ENDBRANCH   1  18
TORSDOF 24
ENDMDL
