MODEL 1
REMARK VINA RESULT:     -10.6      0.000      0.000
REMARK SMILES CCCCCCNC(=O)Oc1cccc(-c2ccc([C@H](C)C(=O)OCCOC(=O)c3ccc(-c4c5nc(c(-c6ccccc6)c6ccc([nH]6)c(-c6ccccc6)c6nc(c(-c7ccccc7)c7ccc4[nH]7)C=C6)C=C5)cc3)cc2F)c1
REMARK SMILES IDX 20 1 21 2 19 3 16 4 17 5 79 6 18 7 78 8 80 9 15 10 11 11
REMARK SMILES IDX 12 12 81 13 13 14 14 15 10 16 8 17 7 18 9 20 6 21 5 22 4 23
REMARK SMILES IDX 3 24 2 25 1 26 22 27 23 28 24 29 25 30 26 31 27 32 28 33
REMARK SMILES IDX 29 34 30 35 31 36 77 37 32 38 76 39 33 40 34 41 35 42 70 43
REMARK SMILES IDX 36 44 75 45 69 46 71 47 37 48 74 49 68 50 67 51 38 53 60 54
REMARK SMILES IDX 45 55 59 56 46 57 49 58 58 59 72 60 47 61 48 62 57 64 73 65
REMARK SMILES IDX 50 66 39 67 40 68 44 69 41 70 43 71 42 72 61 73 62 74 66 75
REMARK SMILES IDX 63 76 65 77 64 78 51 79 52 80 56 81 53 82 55 83 54 84
REMARK H PARENT 7 19 71 52 49 63
REMARK Flexibility Score: inf
ROOT
ATOM      1  C   UNL A   1      34.806  33.169  28.245  1.00  0.00     0.126 C 
ATOM      2  C   UNL A   1      36.324  33.387  28.365  1.00  0.00     0.025 C 
ENDROOT
BRANCH   1   3
ATOM      3  C   UNL A   1      34.383  31.783  27.779  1.00  0.00    -0.031 A 
ATOM      4  C   UNL A   1      33.490  29.190  27.037  1.00  0.00     0.018 A 
ATOM      5  C   UNL A   1      34.757  29.381  27.600  1.00  0.00     0.012 A 
ATOM      6  C   UNL A   1      32.672  30.313  26.875  1.00  0.00     0.131 A 
ATOM      7  C   UNL A   1      35.197  30.654  27.964  1.00  0.00     0.005 A 
ATOM      8  C   UNL A   1      33.099  31.585  27.249  1.00  0.00     0.044 A 
ATOM      9  F   UNL A   1      31.443  30.189  26.352  1.00  0.00    -0.206 F 
BRANCH   4  10
ATOM     10  C   UNL A   1      33.081  27.858  26.586  1.00  0.00    -0.012 A 
ATOM     11  C   UNL A   1      33.637  25.758  25.521  1.00  0.00     0.133 A 
ATOM     12  C   UNL A   1      32.380  25.243  25.818  1.00  0.00     0.047 A 
ATOM     13  C   UNL A   1      33.984  27.059  25.875  1.00  0.00     0.056 A 
ATOM     14  C   UNL A   1      31.465  26.034  26.509  1.00  0.00     0.004 A 
ATOM     15  C   UNL A   1      31.816  27.332  26.894  1.00  0.00     0.009 A 
BRANCH  11  16
ATOM     16  O   UNL A   1      34.500  24.965  24.754  1.00  0.00    -0.410 OA
BRANCH  16  17
ATOM     17  C   UNL A   1      34.127  24.673  23.450  1.00  0.00     0.412 C 
ATOM     18  N   UNL A   1      33.859  23.346  23.259  1.00  0.00    -0.321 N 
ATOM     19  H   UNL A   1      33.617  23.068  22.347  1.00  0.00     0.167 HD
ATOM     20  O   UNL A   1      34.034  25.473  22.526  1.00  0.00    -0.224 OA
BRANCH  18  21
ATOM     21  C   UNL A   1      33.896  22.312  24.271  1.00  0.00     0.119 C 
BRANCH  21  22
ATOM     22  C   UNL A   1      32.737  21.328  24.123  1.00  0.00     0.021 C 
BRANCH  22  23
ATOM     23  C   UNL A   1      32.902  20.018  24.903  1.00  0.00     0.002 C 
BRANCH  23  24
ATOM     24  C   UNL A   1      34.186  19.234  24.607  1.00  0.00    -0.000 C 
BRANCH  24  25
ATOM     25  C   UNL A   1      34.031  17.711  24.568  1.00  0.00    -0.003 C 
ATOM     26  C   UNL A   1      33.636  17.184  23.199  1.00  0.00     0.004 C 
ENDBRANCH  24  25
ENDBRANCH  23  24
ENDBRANCH  22  23
ENDBRANCH  21  22
ENDBRANCH  18  21
ENDBRANCH  16  17
ENDBRANCH  11  16
ENDBRANCH   4  10
ENDBRANCH   1   3
BRANCH   1  27
ATOM     27  C   UNL A   1      34.033  33.659  29.468  1.00  0.00     0.313 C 
ATOM     28  O   UNL A   1      33.049  34.388  29.381  1.00  0.00    -0.252 OA
BRANCH  27  29
ATOM     29  O   UNL A   1      34.500  33.148  30.638  1.00  0.00    -0.462 OA
BRANCH  29  30
ATOM     30  C   UNL A   1      34.263  33.939  31.817  1.00  0.00     0.274 C 
BRANCH  30  31
ATOM     31  C   UNL A   1      34.911  33.321  33.062  1.00  0.00     0.275 C 
BRANCH  31  32
ATOM     32  O   UNL A   1      36.351  33.330  32.991  1.00  0.00    -0.458 OA
BRANCH  32  33
ATOM     33  C   UNL A   1      36.961  32.254  33.539  1.00  0.00     0.338 C 
ATOM     34  O   UNL A   1      36.739  31.755  34.630  1.00  0.00    -0.246 OA
BRANCH  33  35
ATOM     35  C   UNL A   1      37.865  31.631  32.560  1.00  0.00     0.060 A 
ATOM     36  C   UNL A   1      39.084  31.123  33.023  1.00  0.00     0.016 A 
ATOM     37  C   UNL A   1      37.571  31.626  31.198  1.00  0.00     0.016 A 
ATOM     38  C   UNL A   1      40.022  30.614  32.135  1.00  0.00     0.010 A 
ATOM     39  C   UNL A   1      38.519  31.124  30.300  1.00  0.00     0.010 A 
ATOM     40  C   UNL A   1      39.752  30.631  30.764  1.00  0.00    -0.014 A 
BRANCH  40  41
ATOM     41  C   UNL A   1      40.807  30.228  29.809  1.00  0.00     0.031 A 
ATOM     42  C   UNL A   1      40.716  28.885  29.146  1.00  0.00     0.074 A 
ATOM     43  C   UNL A   1      41.816  31.067  29.518  1.00  0.00     0.049 A 
ATOM     44  N   UNL A   1      41.588  28.279  28.382  1.00  0.00    -0.248 NA
ATOM     45  C   UNL A   1      39.477  28.122  29.373  1.00  0.00     0.031 C 
ATOM     46  C   UNL A   1      41.962  32.429  30.032  1.00  0.00     0.029 A 
ATOM     47  N   UNL A   1      42.915  30.889  28.717  1.00  0.00    -0.354 N 
ATOM     48  C   UNL A   1      41.016  27.055  28.060  1.00  0.00     0.074 A 
ATOM     49  C   UNL A   1      39.728  26.999  28.715  1.00  0.00     0.031 C 
ATOM     50  C   UNL A   1      43.094  32.961  29.541  1.00  0.00     0.029 A 
ATOM     51  C   UNL A   1      43.775  31.959  28.724  1.00  0.00     0.049 A 
ATOM     52  H   UNL A   1      43.072  30.073  28.188  1.00  0.00     0.167 HD
ATOM     53  C   UNL A   1      41.527  26.065  27.289  1.00  0.00     0.031 A 
ATOM     54  C   UNL A   1      44.993  32.097  28.166  1.00  0.00     0.031 A 
ATOM     55  C   UNL A   1      42.808  26.129  26.641  1.00  0.00     0.049 A 
ATOM     56  C   UNL A   1      45.574  30.949  27.387  1.00  0.00     0.074 A 
ATOM     57  C   UNL A   1      43.426  25.173  25.854  1.00  0.00     0.029 A 
ATOM     58  N   UNL A   1      43.667  27.215  26.704  1.00  0.00    -0.354 N 
ATOM     59  N   UNL A   1      45.044  29.781  27.118  1.00  0.00    -0.248 NA
ATOM     60  C   UNL A   1      46.924  31.139  26.838  1.00  0.00     0.031 C 
ATOM     61  C   UNL A   1      44.678  25.666  25.474  1.00  0.00     0.029 A 
ATOM     62  C   UNL A   1      44.816  26.949  25.981  1.00  0.00     0.049 A 
ATOM     63  H   UNL A   1      43.486  28.052  27.189  1.00  0.00     0.167 HD
ATOM     64  C   UNL A   1      45.983  29.107  26.347  1.00  0.00     0.074 A 
ATOM     65  C   UNL A   1      47.110  30.003  26.182  1.00  0.00     0.031 C 
ATOM     66  C   UNL A   1      45.919  27.860  25.822  1.00  0.00     0.031 A 
BRANCH  53  67
ATOM     67  C   UNL A   1      40.713  24.812  27.147  1.00  0.00    -0.014 A 
ATOM     68  C   UNL A   1      39.480  24.812  26.475  1.00  0.00     0.009 A 
ATOM     69  C   UNL A   1      41.204  23.605  27.668  1.00  0.00     0.009 A 
ATOM     70  C   UNL A   1      38.744  23.631  26.352  1.00  0.00     0.001 A 
ATOM     71  C   UNL A   1      40.478  22.421  27.521  1.00  0.00     0.001 A 
ATOM     72  C   UNL A   1      39.246  22.437  26.871  1.00  0.00     0.000 A 
ENDBRANCH  53  67
BRANCH  54  73
ATOM     73  C   UNL A   1      45.767  33.350  28.363  1.00  0.00    -0.014 A 
ATOM     74  C   UNL A   1      46.692  33.464  29.411  1.00  0.00     0.009 A 
ATOM     75  C   UNL A   1      45.567  34.448  27.512  1.00  0.00     0.009 A 
ATOM     76  C   UNL A   1      47.381  34.662  29.619  1.00  0.00     0.001 A 
ATOM     77  C   UNL A   1      46.278  35.635  27.704  1.00  0.00     0.001 A 
ATOM     78  C   UNL A   1      47.176  35.744  28.764  1.00  0.00     0.000 A 
ENDBRANCH  54  73
BRANCH  66  79
ATOM     79  C   UNL A   1      47.078  27.411  24.979  1.00  0.00    -0.014 A 
ATOM     80  C   UNL A   1      47.226  27.842  23.652  1.00  0.00     0.009 A 
ATOM     81  C   UNL A   1      48.058  26.577  25.540  1.00  0.00     0.009 A 
ATOM     82  C   UNL A   1      48.320  27.422  22.894  1.00  0.00     0.001 A 
ATOM     83  C   UNL A   1      49.164  26.181  24.789  1.00  0.00     0.001 A 
ATOM     84  C   UNL A   1      49.290  26.596  23.463  1.00  0.00     0.000 A 
ENDBRANCH  66  79
ENDBRANCH  40  41
ENDBRANCH  33  35
ENDBRANCH  32  33
ENDBRANCH  31  32
ENDBRANCH  30  31
ENDBRANCH  29  30
ENDBRANCH  27  29
ENDBRANCH   1  27
TORSDOF 20
ENDMDL
MODEL 2
REMARK VINA RESULT:     -10.5      4.358      9.771
REMARK SMILES CCCCCCNC(=O)Oc1cccc(-c2ccc([C@H](C)C(=O)OCCOC(=O)c3ccc(-c4c5nc(c(-c6ccccc6)c6ccc([nH]6)c(-c6ccccc6)c6nc(c(-c7ccccc7)c7ccc4[nH]7)C=C6)C=C5)cc3)cc2F)c1
REMARK SMILES IDX 20 1 21 2 19 3 16 4 17 5 79 6 18 7 78 8 80 9 15 10 11 11
REMARK SMILES IDX 12 12 81 13 13 14 14 15 10 16 8 17 7 18 9 20 6 21 5 22 4 23
REMARK SMILES IDX 3 24 2 25 1 26 22 27 23 28 24 29 25 30 26 31 27 32 28 33
REMARK SMILES IDX 29 34 30 35 31 36 77 37 32 38 76 39 33 40 34 41 35 42 70 43
REMARK SMILES IDX 36 44 75 45 69 46 71 47 37 48 74 49 68 50 67 51 38 53 60 54
REMARK SMILES IDX 45 55 59 56 46 57 49 58 58 59 72 60 47 61 48 62 57 64 73 65
REMARK SMILES IDX 50 66 39 67 40 68 44 69 41 70 43 71 42 72 61 73 62 74 66 75
REMARK SMILES IDX 63 76 65 77 64 78 51 79 52 80 56 81 53 82 55 83 54 84
REMARK H PARENT 7 19 71 52 49 63
REMARK Flexibility Score: inf
ROOT
ATOM      1  C   UNL A   1      41.135  21.679  26.542  1.00  0.00     0.126 C 
ATOM      2  C   UNL A   1      41.646  21.599  27.990  1.00  0.00     0.025 C 
ENDROOT
BRANCH   1   3
ATOM      3  C   UNL A   1      39.708  22.184  26.383  1.00  0.00    -0.031 A 
ATOM      4  C   UNL A   1      37.074  23.147  25.926  1.00  0.00     0.018 A 
ATOM      5  C   UNL A   1      38.026  23.937  26.580  1.00  0.00     0.012 A 
ATOM      6  C   UNL A   1      37.470  21.879  25.486  1.00  0.00     0.131 A 
ATOM      7  C   UNL A   1      39.319  23.465  26.805  1.00  0.00     0.005 A 
ATOM      8  C   UNL A   1      38.763  21.407  25.695  1.00  0.00     0.044 A 
ATOM      9  F   UNL A   1      36.603  21.082  24.843  1.00  0.00    -0.206 F 
BRANCH   4  10
ATOM     10  C   UNL A   1      35.700  23.629  25.774  1.00  0.00    -0.012 A 
ATOM     11  C   UNL A   1      33.415  23.694  26.568  1.00  0.00     0.133 A 
ATOM     12  C   UNL A   1      33.076  24.634  25.600  1.00  0.00     0.047 A 
ATOM     13  C   UNL A   1      34.704  23.174  26.646  1.00  0.00     0.056 A 
ATOM     14  C   UNL A   1      34.053  25.082  24.714  1.00  0.00     0.004 A 
ATOM     15  C   UNL A   1      35.357  24.586  24.804  1.00  0.00     0.009 A 
BRANCH  11  16
ATOM     16  O   UNL A   1      32.389  23.205  27.387  1.00  0.00    -0.410 OA
BRANCH  16  17
ATOM     17  C   UNL A   1      31.122  23.076  26.834  1.00  0.00     0.412 C 
ATOM     18  N   UNL A   1      31.018  22.004  25.992  1.00  0.00    -0.321 N 
ATOM     19  H   UNL A   1      30.153  21.874  25.543  1.00  0.00     0.167 HD
ATOM     20  O   UNL A   1      30.164  23.812  27.036  1.00  0.00    -0.224 OA
BRANCH  18  21
ATOM     21  C   UNL A   1      32.060  21.042  25.698  1.00  0.00     0.119 C 
BRANCH  21  22
ATOM     22  C   UNL A   1      32.325  20.930  24.198  1.00  0.00     0.021 C 
BRANCH  22  23
ATOM     23  C   UNL A   1      32.821  19.555  23.734  1.00  0.00     0.002 C 
BRANCH  23  24
ATOM     24  C   UNL A   1      33.716  18.808  24.730  1.00  0.00    -0.000 C 
BRANCH  24  25
ATOM     25  C   UNL A   1      34.619  17.732  24.122  1.00  0.00    -0.003 C 
ATOM     26  C   UNL A   1      33.852  16.675  23.344  1.00  0.00     0.004 C 
ENDBRANCH  24  25
ENDBRANCH  23  24
ENDBRANCH  22  23
ENDBRANCH  21  22
ENDBRANCH  18  21
ENDBRANCH  16  17
ENDBRANCH  11  16
ENDBRANCH   4  10
ENDBRANCH   1   3
BRANCH   1  27
ATOM     27  C   UNL A   1      42.125  22.355  25.595  1.00  0.00     0.313 C 
ATOM     28  O   UNL A   1      42.115  23.564  25.380  1.00  0.00    -0.252 OA
BRANCH  27  29
ATOM     29  O   UNL A   1      43.049  21.499  25.084  1.00  0.00    -0.462 OA
BRANCH  29  30
ATOM     30  C   UNL A   1      44.328  21.477  25.742  1.00  0.00     0.274 C 
BRANCH  30  31
ATOM     31  C   UNL A   1      45.264  22.572  25.216  1.00  0.00     0.275 C 
BRANCH  31  32
ATOM     32  O   UNL A   1      45.589  23.546  26.227  1.00  0.00    -0.458 OA
BRANCH  32  33
ATOM     33  C   UNL A   1      45.383  24.836  25.872  1.00  0.00     0.338 C 
ATOM     34  O   UNL A   1      45.714  25.375  24.829  1.00  0.00    -0.246 OA
BRANCH  33  35
ATOM     35  C   UNL A   1      44.543  25.509  26.873  1.00  0.00     0.060 A 
ATOM     36  C   UNL A   1      44.617  26.904  26.961  1.00  0.00     0.016 A 
ATOM     37  C   UNL A   1      43.765  24.786  27.776  1.00  0.00     0.016 A 
ATOM     38  C   UNL A   1      43.924  27.588  27.951  1.00  0.00     0.010 A 
ATOM     39  C   UNL A   1      43.076  25.473  28.781  1.00  0.00     0.010 A 
ATOM     40  C   UNL A   1      43.166  26.873  28.881  1.00  0.00    -0.014 A 
BRANCH  40  41
ATOM     41  C   UNL A   1      42.551  27.586  30.021  1.00  0.00     0.031 A 
ATOM     42  C   UNL A   1      41.225  28.262  29.829  1.00  0.00     0.074 A 
ATOM     43  C   UNL A   1      43.158  27.601  31.221  1.00  0.00     0.049 A 
ATOM     44  N   UNL A   1      40.570  29.046  30.646  1.00  0.00    -0.248 NA
ATOM     45  C   UNL A   1      40.545  28.022  28.545  1.00  0.00     0.031 C 
ATOM     46  C   UNL A   1      44.403  26.906  31.549  1.00  0.00     0.029 A 
ATOM     47  N   UNL A   1      42.805  28.231  32.386  1.00  0.00    -0.354 N 
ATOM     48  C   UNL A   1      39.417  29.415  29.967  1.00  0.00     0.074 A 
ATOM     49  C   UNL A   1      39.462  28.777  28.669  1.00  0.00     0.031 C 
ATOM     50  C   UNL A   1      44.716  27.158  32.832  1.00  0.00     0.029 A 
ATOM     51  C   UNL A   1      43.725  28.071  33.393  1.00  0.00     0.049 A 
ATOM     52  H   UNL A   1      41.974  28.748  32.490  1.00  0.00     0.167 HD
ATOM     53  C   UNL A   1      38.413  30.219  30.389  1.00  0.00     0.031 A 
ATOM     54  C   UNL A   1      43.778  28.633  34.616  1.00  0.00     0.031 A 
ATOM     55  C   UNL A   1      38.375  30.849  31.681  1.00  0.00     0.049 A 
ATOM     56  C   UNL A   1      42.695  29.591  35.028  1.00  0.00     0.074 A 
ATOM     57  C   UNL A   1      37.412  31.697  32.200  1.00  0.00     0.029 A 
ATOM     58  N   UNL A   1      39.344  30.694  32.660  1.00  0.00    -0.354 N 
ATOM     59  N   UNL A   1      41.626  29.965  34.366  1.00  0.00    -0.248 NA
ATOM     60  C   UNL A   1      42.827  30.208  36.355  1.00  0.00     0.031 C 
ATOM     61  C   UNL A   1      37.821  32.087  33.479  1.00  0.00     0.029 A 
ATOM     62  C   UNL A   1      39.011  31.441  33.775  1.00  0.00     0.049 A 
ATOM     63  H   UNL A   1      40.149  30.133  32.574  1.00  0.00     0.167 HD
ATOM     64  C   UNL A   1      40.946  30.838  35.205  1.00  0.00     0.074 A 
ATOM     65  C   UNL A   1      41.717  30.929  36.429  1.00  0.00     0.031 C 
ATOM     66  C   UNL A   1      39.788  31.506  34.985  1.00  0.00     0.031 A 
BRANCH  53  67
ATOM     67  C   UNL A   1      37.298  30.497  29.423  1.00  0.00    -0.014 A 
ATOM     68  C   UNL A   1      36.326  29.529  29.128  1.00  0.00     0.009 A 
ATOM     69  C   UNL A   1      37.203  31.762  28.822  1.00  0.00     0.009 A 
ATOM     70  C   UNL A   1      35.295  29.814  28.230  1.00  0.00     0.001 A 
ATOM     71  C   UNL A   1      36.158  32.053  27.943  1.00  0.00     0.001 A 
ATOM     72  C   UNL A   1      35.210  31.077  27.642  1.00  0.00     0.000 A 
ENDBRANCH  53  67
BRANCH  54  73
ATOM     73  C   UNL A   1      44.920  28.344  35.522  1.00  0.00    -0.014 A 
ATOM     74  C   UNL A   1      44.860  27.282  36.436  1.00  0.00     0.009 A 
ATOM     75  C   UNL A   1      46.071  29.148  35.490  1.00  0.00     0.009 A 
ATOM     76  C   UNL A   1      45.917  27.048  37.319  1.00  0.00     0.001 A 
ATOM     77  C   UNL A   1      47.138  28.893  36.354  1.00  0.00     0.001 A 
ATOM     78  C   UNL A   1      47.056  27.851  37.275  1.00  0.00     0.000 A 
ENDBRANCH  54  73
BRANCH  66  79
ATOM     79  C   UNL A   1      39.260  32.351  36.108  1.00  0.00    -0.014 A 
ATOM     80  C   UNL A   1      39.702  33.668  36.301  1.00  0.00     0.009 A 
ATOM     81  C   UNL A   1      38.272  31.829  36.959  1.00  0.00     0.009 A 
ATOM     82  C   UNL A   1      39.184  34.438  37.344  1.00  0.00     0.001 A 
ATOM     83  C   UNL A   1      37.738  32.610  37.984  1.00  0.00     0.001 A 
ATOM     84  C   UNL A   1      38.200  33.911  38.181  1.00  0.00     0.000 A 
ENDBRANCH  66  79
ENDBRANCH  40  41
ENDBRANCH  33  35
ENDBRANCH  32  33
ENDBRANCH  31  32
ENDBRANCH  30  31
ENDBRANCH  29  30
ENDBRANCH  27  29
ENDBRANCH   1  27
TORSDOF 20
ENDMDL
MODEL 3
REMARK VINA RESULT:     -10.5      4.890     11.563
REMARK SMILES CCCCCCNC(=O)Oc1cccc(-c2ccc([C@H](C)C(=O)OCCOC(=O)c3ccc(-c4c5nc(c(-c6ccccc6)c6ccc([nH]6)c(-c6ccccc6)c6nc(c(-c7ccccc7)c7ccc4[nH]7)C=C6)C=C5)cc3)cc2F)c1
REMARK SMILES IDX 20 1 21 2 19 3 16 4 17 5 79 6 18 7 78 8 80 9 15 10 11 11
REMARK SMILES IDX 12 12 81 13 13 14 14 15 10 16 8 17 7 18 9 20 6 21 5 22 4 23
REMARK SMILES IDX 3 24 2 25 1 26 22 27 23 28 24 29 25 30 26 31 27 32 28 33
REMARK SMILES IDX 29 34 30 35 31 36 77 37 32 38 76 39 33 40 34 41 35 42 70 43
REMARK SMILES IDX 36 44 75 45 69 46 71 47 37 48 74 49 68 50 67 51 38 53 60 54
REMARK SMILES IDX 45 55 59 56 46 57 49 58 58 59 72 60 47 61 48 62 57 64 73 65
REMARK SMILES IDX 50 66 39 67 40 68 44 69 41 70 43 71 42 72 61 73 62 74 66 75
REMARK SMILES IDX 63 76 65 77 64 78 51 79 52 80 56 81 53 82 55 83 54 84
REMARK H PARENT 7 19 71 52 49 63
REMARK Flexibility Score: inf
ROOT
ATOM      1  C   UNL A   1      42.167  22.168  26.237  1.00  0.00     0.126 C 
ATOM      2  C   UNL A   1      42.244  20.966  27.194  1.00  0.00     0.025 C 
ENDROOT
BRANCH   1   3
ATOM      3  C   UNL A   1      41.659  23.462  26.857  1.00  0.00    -0.031 A 
ATOM      4  C   UNL A   1      40.851  25.949  27.966  1.00  0.00     0.018 A 
ATOM      5  C   UNL A   1      41.259  24.894  28.789  1.00  0.00     0.012 A 
ATOM      6  C   UNL A   1      40.876  25.745  26.582  1.00  0.00     0.131 A 
ATOM      7  C   UNL A   1      41.656  23.671  28.245  1.00  0.00     0.005 A 
ATOM      8  C   UNL A   1      41.284  24.533  26.032  1.00  0.00     0.044 A 
ATOM      9  F   UNL A   1      40.507  26.726  25.744  1.00  0.00    -0.206 F 
BRANCH   4  10
ATOM     10  C   UNL A   1      40.359  27.194  28.560  1.00  0.00    -0.012 A 
ATOM     11  C   UNL A   1      38.912  28.319  30.140  1.00  0.00     0.133 A 
ATOM     12  C   UNL A   1      39.479  29.550  29.824  1.00  0.00     0.047 A 
ATOM     13  C   UNL A   1      39.325  27.153  29.502  1.00  0.00     0.056 A 
ATOM     14  C   UNL A   1      40.497  29.608  28.874  1.00  0.00     0.004 A 
ATOM     15  C   UNL A   1      40.936  28.437  28.251  1.00  0.00     0.009 A 
BRANCH  11  16
ATOM     16  O   UNL A   1      37.836  28.310  31.036  1.00  0.00    -0.410 OA
BRANCH  16  17
ATOM     17  C   UNL A   1      38.112  28.096  32.380  1.00  0.00     0.412 C 
ATOM     18  N   UNL A   1      37.734  29.144  33.171  1.00  0.00    -0.321 N 
ATOM     19  H   UNL A   1      37.929  29.069  34.133  1.00  0.00     0.167 HD
ATOM     20  O   UNL A   1      38.638  27.101  32.863  1.00  0.00    -0.224 OA
BRANCH  18  21
ATOM     21  C   UNL A   1      37.074  30.356  32.731  1.00  0.00     0.119 C 
BRANCH  21  22
ATOM     22  C   UNL A   1      37.896  31.602  33.054  1.00  0.00     0.021 C 
BRANCH  22  23
ATOM     23  C   UNL A   1      37.705  32.769  32.078  1.00  0.00     0.002 C 
BRANCH  23  24
ATOM     24  C   UNL A   1      38.992  33.477  31.639  1.00  0.00    -0.000 C 
BRANCH  24  25
ATOM     25  C   UNL A   1      39.379  33.284  30.171  1.00  0.00    -0.003 C 
ATOM     26  C   UNL A   1      38.686  34.260  29.235  1.00  0.00     0.004 C 
ENDBRANCH  24  25
ENDBRANCH  23  24
ENDBRANCH  22  23
ENDBRANCH  21  22
ENDBRANCH  18  21
ENDBRANCH  16  17
ENDBRANCH  11  16
ENDBRANCH   4  10
ENDBRANCH   1   3
BRANCH   1  27
ATOM     27  C   UNL A   1      43.436  22.352  25.406  1.00  0.00     0.313 C 
ATOM     28  O   UNL A   1      43.414  22.745  24.242  1.00  0.00    -0.252 OA
BRANCH  27  29
ATOM     29  O   UNL A   1      44.576  22.110  26.105  1.00  0.00    -0.462 OA
BRANCH  29  30
ATOM     30  C   UNL A   1      45.308  23.267  26.548  1.00  0.00     0.274 C 
BRANCH  30  31
ATOM     31  C   UNL A   1      46.420  23.654  25.565  1.00  0.00     0.275 C 
BRANCH  31  32
ATOM     32  O   UNL A   1      46.016  24.709  24.669  1.00  0.00    -0.458 OA
BRANCH  32  33
ATOM     33  C   UNL A   1      46.717  25.860  24.781  1.00  0.00     0.338 C 
ATOM     34  O   UNL A   1      47.681  26.205  24.116  1.00  0.00    -0.246 OA
BRANCH  33  35
ATOM     35  C   UNL A   1      46.065  26.761  25.744  1.00  0.00     0.060 A 
ATOM     36  C   UNL A   1      46.873  27.423  26.674  1.00  0.00     0.016 A 
ATOM     37  C   UNL A   1      44.677  26.884  25.800  1.00  0.00     0.016 A 
ATOM     38  C   UNL A   1      46.307  28.208  27.670  1.00  0.00     0.010 A 
ATOM     39  C   UNL A   1      44.105  27.664  26.810  1.00  0.00     0.010 A 
ATOM     40  C   UNL A   1      44.917  28.315  27.756  1.00  0.00    -0.014 A 
BRANCH  40  41
ATOM     41  C   UNL A   1      44.311  29.027  28.903  1.00  0.00     0.031 A 
ATOM     42  C   UNL A   1      44.037  30.497  28.786  1.00  0.00     0.074 A 
ATOM     43  C   UNL A   1      43.983  28.357  30.021  1.00  0.00     0.049 A 
ATOM     44  N   UNL A   1      43.634  31.339  29.703  1.00  0.00    -0.248 NA
ATOM     45  C   UNL A   1      44.242  31.101  27.459  1.00  0.00     0.031 C 
ATOM     46  C   UNL A   1      44.121  26.914  30.216  1.00  0.00     0.029 A 
ATOM     47  N   UNL A   1      43.469  28.811  31.208  1.00  0.00    -0.354 N 
ATOM     48  C   UNL A   1      43.565  32.574  29.072  1.00  0.00     0.074 A 
ATOM     49  C   UNL A   1      43.972  32.376  27.698  1.00  0.00     0.031 C 
ATOM     50  C   UNL A   1      43.711  26.601  31.458  1.00  0.00     0.029 A 
ATOM     51  C   UNL A   1      43.334  27.827  32.157  1.00  0.00     0.049 A 
ATOM     52  H   UNL A   1      43.221  29.751  31.366  1.00  0.00     0.167 HD
ATOM     53  C   UNL A   1      43.198  33.767  29.598  1.00  0.00     0.031 A 
ATOM     54  C   UNL A   1      42.983  27.914  33.454  1.00  0.00     0.031 A 
ATOM     55  C   UNL A   1      42.794  33.955  30.964  1.00  0.00     0.049 A 
ATOM     56  C   UNL A   1      42.664  29.264  34.035  1.00  0.00     0.074 A 
ATOM     57  C   UNL A   1      42.421  35.126  31.602  1.00  0.00     0.029 A 
ATOM     58  N   UNL A   1      42.707  32.940  31.905  1.00  0.00    -0.354 N 
ATOM     59  N   UNL A   1      42.637  30.434  33.442  1.00  0.00    -0.248 NA
ATOM     60  C   UNL A   1      42.332  29.307  35.466  1.00  0.00     0.031 C 
ATOM     61  C   UNL A   1      42.147  34.824  32.939  1.00  0.00     0.029 A 
ATOM     62  C   UNL A   1      42.299  33.458  33.121  1.00  0.00     0.049 A 
ATOM     63  H   UNL A   1      42.904  31.991  31.732  1.00  0.00     0.167 HD
ATOM     64  C   UNL A   1      42.259  31.345  34.420  1.00  0.00     0.074 A 
ATOM     65  C   UNL A   1      42.056  30.591  35.640  1.00  0.00     0.031 C 
ATOM     66  C   UNL A   1      42.093  32.687  34.318  1.00  0.00     0.031 A 
BRANCH  53  67
ATOM     67  C   UNL A   1      43.263  34.967  28.698  1.00  0.00    -0.014 A 
ATOM     68  C   UNL A   1      44.464  35.664  28.492  1.00  0.00     0.009 A 
ATOM     69  C   UNL A   1      42.108  35.387  28.021  1.00  0.00     0.009 A 
ATOM     70  C   UNL A   1      44.499  36.774  27.645  1.00  0.00     0.001 A 
ATOM     71  C   UNL A   1      42.151  36.483  27.157  1.00  0.00     0.001 A 
ATOM     72  C   UNL A   1      43.344  37.179  26.976  1.00  0.00     0.000 A 
ENDBRANCH  53  67
BRANCH  54  73
ATOM     73  C   UNL A   1      42.962  26.698  34.306  1.00  0.00    -0.014 A 
ATOM     74  C   UNL A   1      44.156  26.073  34.694  1.00  0.00     0.009 A 
ATOM     75  C   UNL A   1      41.740  26.143  34.720  1.00  0.00     0.009 A 
ATOM     76  C   UNL A   1      44.127  24.901  35.455  1.00  0.00     0.001 A 
ATOM     77  C   UNL A   1      41.714  24.988  35.504  1.00  0.00     0.001 A 
ATOM     78  C   UNL A   1      42.906  24.362  35.862  1.00  0.00     0.000 A 
ENDBRANCH  54  73
BRANCH  66  79
ATOM     79  C   UNL A   1      41.624  33.414  35.545  1.00  0.00    -0.014 A 
ATOM     80  C   UNL A   1      42.533  33.970  36.457  1.00  0.00     0.009 A 
ATOM     81  C   UNL A   1      40.247  33.581  35.764  1.00  0.00     0.009 A 
ATOM     82  C   UNL A   1      42.071  34.654  37.582  1.00  0.00     0.001 A 
ATOM     83  C   UNL A   1      39.789  34.288  36.875  1.00  0.00     0.001 A 
ATOM     84  C   UNL A   1      40.701  34.817  37.788  1.00  0.00     0.000 A 
ENDBRANCH  66  79
ENDBRANCH  40  41
ENDBRANCH  33  35
ENDBRANCH  32  33
ENDBRANCH  31  32
ENDBRANCH  30  31
ENDBRANCH  29  30
ENDBRANCH  27  29
ENDBRANCH   1  27
TORSDOF 20
ENDMDL
