MODEL 1
REMARK VINA RESULT:     -11.0      0.000      0.000
REMARK SMILES O=C(OCCOC(=O)c1ccc(-c2c3nc(c(-c4ccccc4)c4ccc([nH]4)c(-c4ccccc4)c4nc(c(-c5ccccc5)c5ccc2[nH]5)C=C4)C=C3)cc1)c1ccc(NS(=O)(=O)Cc2c(Cl)cccc2Cl)cc1
REMARK SMILES IDX 4 1 3 2 2 3 1 4 57 5 58 6 75 7 59 8 74 9 60 10 61 11 62 13
REMARK SMILES IDX 63 14 64 15 65 16 66 17 67 18 72 19 68 20 69 21 71 22 73 23
REMARK SMILES IDX 70 24 5 25 6 26 7 27 8 28 9 29 10 30 56 31 11 32 55 33 12 34
REMARK SMILES IDX 13 35 14 36 49 37 15 38 54 39 48 40 50 41 16 42 53 43 47 44
REMARK SMILES IDX 46 45 17 47 39 48 24 49 38 50 25 51 28 52 37 53 51 54 26 55
REMARK SMILES IDX 27 56 36 58 52 59 29 60 18 61 19 62 23 63 20 64 22 65 21 66
REMARK SMILES IDX 40 67 41 68 45 69 42 70 44 71 43 72 30 73 31 74 35 75 32 76
REMARK SMILES IDX 34 77 33 78
REMARK H PARENT 61 12 50 46 28 57
REMARK Flexibility Score: inf
ROOT
ATOM      1  C   UNL A   1      42.656  20.559  25.962  1.00  0.00     0.275 C 
ENDROOT
BRANCH   1   2
ATOM      2  O   UNL A   1      41.290  20.950  25.695  1.00  0.00    -0.458 OA
BRANCH   2   3
ATOM      3  C   UNL A   1      40.392  21.434  26.591  1.00  0.00     0.338 C 
ATOM      4  O   UNL A   1      40.649  21.392  27.792  1.00  0.00    -0.246 OA
BRANCH   3   5
ATOM      5  C   UNL A   1      39.015  21.858  26.177  1.00  0.00     0.060 A 
ATOM      6  C   UNL A   1      38.474  23.104  26.442  1.00  0.00     0.018 A 
ATOM      7  C   UNL A   1      38.224  20.976  25.421  1.00  0.00     0.018 A 
ATOM      8  C   UNL A   1      37.249  23.499  25.928  1.00  0.00     0.027 A 
ATOM      9  C   UNL A   1      36.927  21.335  25.002  1.00  0.00     0.027 A 
ATOM     10  C   UNL A   1      36.432  22.614  25.260  1.00  0.00     0.049 A 
BRANCH  10  11
ATOM     11  N   UNL A   1      35.051  22.893  25.073  1.00  0.00    -0.283 N 
ATOM     12  H   UNL A   1      34.462  22.853  25.860  1.00  0.00     0.180 HD
BRANCH  11  13
ATOM     13  S   UNL A   1      34.363  23.282  23.603  1.00  0.00     0.237 S 
ATOM     14  O   UNL A   1      35.388  23.871  22.763  1.00  0.00    -0.206 OA
ATOM     15  O   UNL A   1      33.718  22.054  23.179  1.00  0.00    -0.206 OA
BRANCH  13  16
ATOM     16  C   UNL A   1      33.030  24.504  23.850  1.00  0.00     0.198 C 
BRANCH  16  17
ATOM     17  C   UNL A   1      33.362  25.950  23.536  1.00  0.00     0.006 A 
ATOM     18  C   UNL A   1      33.307  26.463  22.218  1.00  0.00     0.046 A 
ATOM     19  C   UNL A   1      33.691  26.865  24.554  1.00  0.00     0.046 A 
ATOM     20  Cl  UNL A   1      32.862  25.491  20.856  1.00  0.00    -0.084 Cl
ATOM     21  C   UNL A   1      33.641  27.797  21.932  1.00  0.00     0.021 A 
ATOM     22  C   UNL A   1      34.058  28.186  24.261  1.00  0.00     0.021 A 
ATOM     23  Cl  UNL A   1      33.620  26.435  26.229  1.00  0.00    -0.084 Cl
ATOM     24  C   UNL A   1      34.041  28.652  22.950  1.00  0.00     0.003 A 
ENDBRANCH  16  17
ENDBRANCH  13  16
ENDBRANCH  11  13
ENDBRANCH  10  11
ENDBRANCH   3   5
ENDBRANCH   2   3
ENDBRANCH   1   2
BRANCH   1  25
ATOM     25  C   UNL A   1      43.662  21.546  25.329  1.00  0.00     0.275 C 
BRANCH  25  26
ATOM     26  O   UNL A   1      43.021  22.740  24.827  1.00  0.00    -0.458 OA
BRANCH  26  27
ATOM     27  C   UNL A   1      43.734  23.888  24.959  1.00  0.00     0.338 C 
ATOM     28  O   UNL A   1      44.634  24.255  24.220  1.00  0.00    -0.246 OA
BRANCH  27  29
ATOM     29  C   UNL A   1      43.149  24.757  26.020  1.00  0.00     0.060 A 
ATOM     30  C   UNL A   1      43.774  25.987  26.261  1.00  0.00     0.016 A 
ATOM     31  C   UNL A   1      41.998  24.425  26.743  1.00  0.00     0.016 A 
ATOM     32  C   UNL A   1      43.283  26.859  27.239  1.00  0.00     0.010 A 
ATOM     33  C   UNL A   1      41.484  25.320  27.700  1.00  0.00     0.010 A 
ATOM     34  C   UNL A   1      42.142  26.529  27.985  1.00  0.00    -0.014 A 
BRANCH  34  35
ATOM     35  C   UNL A   1      41.735  27.386  29.138  1.00  0.00     0.031 A 
ATOM     36  C   UNL A   1      40.471  28.204  29.045  1.00  0.00     0.074 A 
ATOM     37  C   UNL A   1      42.432  27.411  30.293  1.00  0.00     0.049 A 
ATOM     38  N   UNL A   1      39.879  28.926  29.967  1.00  0.00    -0.248 NA
ATOM     39  C   UNL A   1      39.775  28.201  27.749  1.00  0.00     0.031 C 
ATOM     40  C   UNL A   1      43.659  26.667  30.565  1.00  0.00     0.029 A 
ATOM     41  N   UNL A   1      42.193  28.095  31.464  1.00  0.00    -0.354 N 
ATOM     42  C   UNL A   1      38.739  29.445  29.367  1.00  0.00     0.074 A 
ATOM     43  C   UNL A   1      38.750  29.005  27.988  1.00  0.00     0.031 C 
ATOM     44  C   UNL A   1      44.071  26.940  31.816  1.00  0.00     0.029 A 
ATOM     45  C   UNL A   1      43.138  27.879  32.438  1.00  0.00     0.049 A 
ATOM     46  H   UNL A   1      41.416  28.687  31.592  1.00  0.00     0.167 HD
ATOM     47  C   UNL A   1      37.749  30.193  29.909  1.00  0.00     0.031 A 
ATOM     48  C   UNL A   1      43.242  28.371  33.689  1.00  0.00     0.031 A 
ATOM     49  C   UNL A   1      37.712  30.657  31.269  1.00  0.00     0.049 A 
ATOM     50  C   UNL A   1      42.176  29.280  34.242  1.00  0.00     0.074 A 
ATOM     51  C   UNL A   1      36.719  31.384  31.903  1.00  0.00     0.029 A 
ATOM     52  N   UNL A   1      38.717  30.456  32.199  1.00  0.00    -0.354 N 
ATOM     53  N   UNL A   1      41.060  29.681  33.688  1.00  0.00    -0.248 NA
ATOM     54  C   UNL A   1      42.378  29.783  35.613  1.00  0.00     0.031 C 
ATOM     55  C   UNL A   1      37.147  31.669  33.204  1.00  0.00     0.029 A 
ATOM     56  C   UNL A   1      38.384  31.075  33.393  1.00  0.00     0.049 A 
ATOM     57  H   UNL A   1      39.545  29.949  32.036  1.00  0.00     0.167 HD
ATOM     58  C   UNL A   1      40.410  30.444  34.652  1.00  0.00     0.074 A 
ATOM     59  C   UNL A   1      41.252  30.448  35.828  1.00  0.00     0.031 C 
ATOM     60  C   UNL A   1      39.214  31.076  34.567  1.00  0.00     0.031 A 
BRANCH  47  61
ATOM     61  C   UNL A   1      36.604  30.562  29.009  1.00  0.00    -0.014 A 
ATOM     62  C   UNL A   1      36.423  31.887  28.584  1.00  0.00     0.009 A 
ATOM     63  C   UNL A   1      35.721  29.572  28.557  1.00  0.00     0.009 A 
ATOM     64  C   UNL A   1      35.356  32.219  27.748  1.00  0.00     0.001 A 
ATOM     65  C   UNL A   1      34.669  29.904  27.701  1.00  0.00     0.001 A 
ATOM     66  C   UNL A   1      34.483  31.227  27.305  1.00  0.00     0.000 A 
ENDBRANCH  47  61
BRANCH  48  67
ATOM     67  C   UNL A   1      44.409  28.012  34.540  1.00  0.00    -0.014 A 
ATOM     68  C   UNL A   1      45.592  28.766  34.487  1.00  0.00     0.009 A 
ATOM     69  C   UNL A   1      44.365  26.873  35.357  1.00  0.00     0.009 A 
ATOM     70  C   UNL A   1      46.717  28.365  35.211  1.00  0.00     0.001 A 
ATOM     71  C   UNL A   1      45.484  26.489  36.098  1.00  0.00     0.001 A 
ATOM     72  C   UNL A   1      46.663  27.228  36.016  1.00  0.00     0.000 A 
ENDBRANCH  48  67
BRANCH  60  73
ATOM     73  C   UNL A   1      38.712  31.793  35.791  1.00  0.00    -0.014 A 
ATOM     74  C   UNL A   1      38.003  31.117  36.795  1.00  0.00     0.009 A 
ATOM     75  C   UNL A   1      38.998  33.158  35.963  1.00  0.00     0.009 A 
ATOM     76  C   UNL A   1      37.565  31.800  37.933  1.00  0.00     0.001 A 
ATOM     77  C   UNL A   1      38.583  33.830  37.113  1.00  0.00     0.001 A 
ATOM     78  C   UNL A   1      37.860  33.154  38.094  1.00  0.00     0.000 A 
ENDBRANCH  60  73
ENDBRANCH  34  35
ENDBRANCH  27  29
ENDBRANCH  26  27
ENDBRANCH  25  26
ENDBRANCH   1  25
TORSDOF 15
ENDMDL
MODEL 2
REMARK VINA RESULT:     -10.9      4.669      9.739
REMARK SMILES O=C(OCCOC(=O)c1ccc(-c2c3nc(c(-c4ccccc4)c4ccc([nH]4)c(-c4ccccc4)c4nc(c(-c5ccccc5)c5ccc2[nH]5)C=C4)C=C3)cc1)c1ccc(NS(=O)(=O)Cc2c(Cl)cccc2Cl)cc1
REMARK SMILES IDX 4 1 3 2 2 3 1 4 57 5 58 6 75 7 59 8 74 9 60 10 61 11 62 13
REMARK SMILES IDX 63 14 64 15 65 16 66 17 67 18 72 19 68 20 69 21 71 22 73 23
REMARK SMILES IDX 70 24 5 25 6 26 7 27 8 28 9 29 10 30 56 31 11 32 55 33 12 34
REMARK SMILES IDX 13 35 14 36 49 37 15 38 54 39 48 40 50 41 16 42 53 43 47 44
REMARK SMILES IDX 46 45 17 47 39 48 24 49 38 50 25 51 28 52 37 53 51 54 26 55
REMARK SMILES IDX 27 56 36 58 52 59 29 60 18 61 19 62 23 63 20 64 22 65 21 66
REMARK SMILES IDX 40 67 41 68 45 69 42 70 44 71 43 72 30 73 31 74 35 75 32 76
REMARK SMILES IDX 34 77 33 78
REMARK H PARENT 61 12 50 46 28 57
REMARK Flexibility Score: inf
ROOT
ATOM      1  C   UNL A   1      34.039  34.394  30.210  1.00  0.00     0.275 C 
ENDROOT
BRANCH   1   2
ATOM      2  O   UNL A   1      33.657  33.332  29.307  1.00  0.00    -0.458 OA
BRANCH   2   3
ATOM      3  C   UNL A   1      34.396  32.830  28.284  1.00  0.00     0.338 C 
ATOM      4  O   UNL A   1      35.222  33.546  27.723  1.00  0.00    -0.246 OA
BRANCH   3   5
ATOM      5  C   UNL A   1      34.115  31.480  27.697  1.00  0.00     0.060 A 
ATOM      6  C   UNL A   1      35.040  30.453  27.631  1.00  0.00     0.018 A 
ATOM      7  C   UNL A   1      32.821  31.192  27.228  1.00  0.00     0.018 A 
ATOM      8  C   UNL A   1      34.699  29.181  27.199  1.00  0.00     0.027 A 
ATOM      9  C   UNL A   1      32.508  29.934  26.676  1.00  0.00     0.027 A 
ATOM     10  C   UNL A   1      33.459  28.915  26.660  1.00  0.00     0.049 A 
BRANCH  10  11
ATOM     11  N   UNL A   1      33.237  27.746  25.882  1.00  0.00    -0.283 N 
ATOM     12  H   UNL A   1      33.972  27.427  25.310  1.00  0.00     0.180 HD
BRANCH  11  13
ATOM     13  S   UNL A   1      31.811  26.880  25.876  1.00  0.00     0.237 S 
ATOM     14  O   UNL A   1      31.390  26.686  27.250  1.00  0.00    -0.206 OA
ATOM     15  O   UNL A   1      30.953  27.619  24.970  1.00  0.00    -0.206 OA
BRANCH  13  16
ATOM     16  C   UNL A   1      32.085  25.246  25.108  1.00  0.00     0.198 C 
BRANCH  16  17
ATOM     17  C   UNL A   1      32.662  24.162  25.996  1.00  0.00     0.006 A 
ATOM     18  C   UNL A   1      34.056  23.961  26.126  1.00  0.00     0.046 A 
ATOM     19  C   UNL A   1      31.831  23.335  26.777  1.00  0.00     0.046 A 
ATOM     20  Cl  UNL A   1      35.221  24.927  25.285  1.00  0.00    -0.084 Cl
ATOM     21  C   UNL A   1      34.582  22.937  26.931  1.00  0.00     0.021 A 
ATOM     22  C   UNL A   1      32.357  22.292  27.552  1.00  0.00     0.021 A 
ATOM     23  Cl  UNL A   1      30.121  23.580  26.868  1.00  0.00    -0.084 Cl
ATOM     24  C   UNL A   1      33.731  22.085  27.625  1.00  0.00     0.003 A 
ENDBRANCH  16  17
ENDBRANCH  13  16
ENDBRANCH  11  13
ENDBRANCH  10  11
ENDBRANCH   3   5
ENDBRANCH   2   3
ENDBRANCH   1   2
BRANCH   1  25
ATOM     25  C   UNL A   1      34.112  33.897  31.671  1.00  0.00     0.275 C 
BRANCH  25  26
ATOM     26  O   UNL A   1      34.568  32.528  31.765  1.00  0.00    -0.458 OA
BRANCH  26  27
ATOM     27  C   UNL A   1      35.653  32.323  32.554  1.00  0.00     0.338 C 
ATOM     28  O   UNL A   1      35.681  32.434  33.769  1.00  0.00    -0.246 OA
BRANCH  27  29
ATOM     29  C   UNL A   1      36.781  31.752  31.764  1.00  0.00     0.060 A 
ATOM     30  C   UNL A   1      37.713  30.964  32.452  1.00  0.00     0.016 A 
ATOM     31  C   UNL A   1      36.925  31.926  30.384  1.00  0.00     0.016 A 
ATOM     32  C   UNL A   1      38.798  30.390  31.780  1.00  0.00     0.010 A 
ATOM     33  C   UNL A   1      37.996  31.317  29.704  1.00  0.00     0.010 A 
ATOM     34  C   UNL A   1      38.965  30.574  30.400  1.00  0.00    -0.014 A 
BRANCH  34  35
ATOM     35  C   UNL A   1      40.216  30.103  29.733  1.00  0.00     0.031 A 
ATOM     36  C   UNL A   1      40.248  28.734  29.099  1.00  0.00     0.074 A 
ATOM     37  C   UNL A   1      41.308  30.886  29.626  1.00  0.00     0.049 A 
ATOM     38  N   UNL A   1      41.190  28.177  28.376  1.00  0.00    -0.248 NA
ATOM     39  C   UNL A   1      39.061  27.887  29.294  1.00  0.00     0.031 C 
ATOM     40  C   UNL A   1      41.443  32.240  30.157  1.00  0.00     0.029 A 
ATOM     41  N   UNL A   1      42.521  30.646  29.019  1.00  0.00    -0.354 N 
ATOM     42  C   UNL A   1      40.702  26.926  28.019  1.00  0.00     0.074 A 
ATOM     43  C   UNL A   1      39.408  26.782  28.651  1.00  0.00     0.031 C 
ATOM     44  C   UNL A   1      42.669  32.709  29.862  1.00  0.00     0.029 A 
ATOM     45  C   UNL A   1      43.411  31.689  29.121  1.00  0.00     0.049 A 
ATOM     46  H   UNL A   1      42.733  29.804  28.556  1.00  0.00     0.167 HD
ATOM     47  C   UNL A   1      41.254  25.987  27.214  1.00  0.00     0.031 A 
ATOM     48  C   UNL A   1      44.673  31.818  28.665  1.00  0.00     0.031 A 
ATOM     49  C   UNL A   1      42.541  26.092  26.583  1.00  0.00     0.049 A 
ATOM     50  C   UNL A   1      45.306  30.719  27.851  1.00  0.00     0.074 A 
ATOM     51  C   UNL A   1      43.150  25.199  25.717  1.00  0.00     0.029 A 
ATOM     52  N   UNL A   1      43.423  27.143  26.759  1.00  0.00    -0.354 N 
ATOM     53  N   UNL A   1      44.790  29.586  27.447  1.00  0.00    -0.248 NA
ATOM     54  C   UNL A   1      46.693  30.938  27.406  1.00  0.00     0.031 C 
ATOM     55  C   UNL A   1      44.426  25.685  25.411  1.00  0.00     0.029 A 
ATOM     56  C   UNL A   1      44.587  26.905  26.045  1.00  0.00     0.049 A 
ATOM     57  H   UNL A   1      43.250  27.940  27.309  1.00  0.00     0.167 HD
ATOM     58  C   UNL A   1      45.771  28.978  26.670  1.00  0.00     0.074 A 
ATOM     59  C   UNL A   1      46.911  29.869  26.653  1.00  0.00     0.031 C 
ATOM     60  C   UNL A   1      45.721  27.790  26.020  1.00  0.00     0.031 A 
BRANCH  47  61
ATOM     61  C   UNL A   1      40.451  24.742  26.971  1.00  0.00    -0.014 A 
ATOM     62  C   UNL A   1      40.892  23.498  27.451  1.00  0.00     0.009 A 
ATOM     63  C   UNL A   1      39.230  24.817  26.287  1.00  0.00     0.009 A 
ATOM     64  C   UNL A   1      40.138  22.346  27.219  1.00  0.00     0.001 A 
ATOM     65  C   UNL A   1      38.467  23.667  26.079  1.00  0.00     0.001 A 
ATOM     66  C   UNL A   1      38.925  22.433  26.537  1.00  0.00     0.000 A 
ENDBRANCH  47  61
BRANCH  48  67
ATOM     67  C   UNL A   1      45.452  33.052  28.955  1.00  0.00    -0.014 A 
ATOM     68  C   UNL A   1      45.441  34.133  28.059  1.00  0.00     0.009 A 
ATOM     69  C   UNL A   1      46.263  33.124  30.098  1.00  0.00     0.009 A 
ATOM     70  C   UNL A   1      46.253  35.246  28.286  1.00  0.00     0.001 A 
ATOM     71  C   UNL A   1      47.055  34.249  30.333  1.00  0.00     0.001 A 
ATOM     72  C   UNL A   1      47.059  35.304  29.422  1.00  0.00     0.000 A 
ENDBRANCH  48  67
BRANCH  60  73
ATOM     73  C   UNL A   1      46.914  27.391  25.195  1.00  0.00    -0.014 A 
ATOM     74  C   UNL A   1      47.062  27.820  23.868  1.00  0.00     0.009 A 
ATOM     75  C   UNL A   1      47.932  26.615  25.775  1.00  0.00     0.009 A 
ATOM     76  C   UNL A   1      48.189  27.454  23.128  1.00  0.00     0.001 A 
ATOM     77  C   UNL A   1      49.070  26.275  25.042  1.00  0.00     0.001 A 
ATOM     78  C   UNL A   1      49.194  26.688  23.717  1.00  0.00     0.000 A 
ENDBRANCH  60  73
ENDBRANCH  34  35
ENDBRANCH  27  29
ENDBRANCH  26  27
ENDBRANCH  25  26
ENDBRANCH   1  25
TORSDOF 15
ENDMDL
MODEL 3
REMARK VINA RESULT:     -10.8      1.007      6.035
REMARK SMILES O=C(OCCOC(=O)c1ccc(-c2c3nc(c(-c4ccccc4)c4ccc([nH]4)c(-c4ccccc4)c4nc(c(-c5ccccc5)c5ccc2[nH]5)C=C4)C=C3)cc1)c1ccc(NS(=O)(=O)Cc2c(Cl)cccc2Cl)cc1
REMARK SMILES IDX 4 1 3 2 2 3 1 4 57 5 58 6 75 7 59 8 74 9 60 10 61 11 62 13
REMARK SMILES IDX 63 14 64 15 65 16 66 17 67 18 72 19 68 20 69 21 71 22 73 23
REMARK SMILES IDX 70 24 5 25 6 26 7 27 8 28 9 29 10 30 56 31 11 32 55 33 12 34
REMARK SMILES IDX 13 35 14 36 49 37 15 38 54 39 48 40 50 41 16 42 53 43 47 44
REMARK SMILES IDX 46 45 17 47 39 48 24 49 38 50 25 51 28 52 37 53 51 54 26 55
REMARK SMILES IDX 27 56 36 58 52 59 29 60 18 61 19 62 23 63 20 64 22 65 21 66
REMARK SMILES IDX 40 67 41 68 45 69 42 70 44 71 43 72 30 73 31 74 35 75 32 76
REMARK SMILES IDX 34 77 33 78
REMARK H PARENT 61 12 50 46 28 57
REMARK Flexibility Score: inf
ROOT
ATOM      1  C   UNL A   1      43.049  20.640  25.797  1.00  0.00     0.275 C 
ENDROOT
BRANCH   1   2
ATOM      2  O   UNL A   1      41.675  21.051  25.618  1.00  0.00    -0.458 OA
BRANCH   2   3
ATOM      3  C   UNL A   1      40.764  21.295  26.596  1.00  0.00     0.338 C 
ATOM      4  O   UNL A   1      40.885  20.746  27.688  1.00  0.00    -0.246 OA
BRANCH   3   5
ATOM      5  C   UNL A   1      39.514  22.077  26.330  1.00  0.00     0.060 A 
ATOM      6  C   UNL A   1      39.288  23.362  26.793  1.00  0.00     0.018 A 
ATOM      7  C   UNL A   1      38.515  21.518  25.515  1.00  0.00     0.018 A 
ATOM      8  C   UNL A   1      38.174  24.096  26.416  1.00  0.00     0.027 A 
ATOM      9  C   UNL A   1      37.326  22.220  25.231  1.00  0.00     0.027 A 
ATOM     10  C   UNL A   1      37.152  23.526  25.689  1.00  0.00     0.049 A 
BRANCH  10  11
ATOM     11  N   UNL A   1      35.870  24.136  25.629  1.00  0.00    -0.283 N 
ATOM     12  H   UNL A   1      35.829  25.105  25.458  1.00  0.00     0.180 HD
BRANCH  11  13
ATOM     13  S   UNL A   1      34.430  23.318  25.832  1.00  0.00     0.237 S 
ATOM     14  O   UNL A   1      34.394  22.219  24.886  1.00  0.00    -0.206 OA
ATOM     15  O   UNL A   1      34.385  23.031  27.253  1.00  0.00    -0.206 OA
BRANCH  13  16
ATOM     16  C   UNL A   1      33.030  24.437  25.487  1.00  0.00     0.198 C 
BRANCH  16  17
ATOM     17  C   UNL A   1      33.198  25.405  24.333  1.00  0.00     0.006 A 
ATOM     18  C   UNL A   1      33.637  26.736  24.526  1.00  0.00     0.046 A 
ATOM     19  C   UNL A   1      32.972  25.004  23.001  1.00  0.00     0.046 A 
ATOM     20  Cl  UNL A   1      34.017  27.376  26.090  1.00  0.00    -0.084 Cl
ATOM     21  C   UNL A   1      33.765  27.633  23.453  1.00  0.00     0.021 A 
ATOM     22  C   UNL A   1      33.066  25.912  21.938  1.00  0.00     0.021 A 
ATOM     23  Cl  UNL A   1      32.612  23.363  22.589  1.00  0.00    -0.084 Cl
ATOM     24  C   UNL A   1      33.455  27.229  22.161  1.00  0.00     0.003 A 
ENDBRANCH  16  17
ENDBRANCH  13  16
ENDBRANCH  11  13
ENDBRANCH  10  11
ENDBRANCH   3   5
ENDBRANCH   2   3
ENDBRANCH   1   2
BRANCH   1  25
ATOM     25  C   UNL A   1      44.024  21.586  25.062  1.00  0.00     0.275 C 
BRANCH  25  26
ATOM     26  O   UNL A   1      43.465  22.902  24.855  1.00  0.00    -0.458 OA
BRANCH  26  27
ATOM     27  C   UNL A   1      44.313  23.941  25.066  1.00  0.00     0.338 C 
ATOM     28  O   UNL A   1      45.245  24.256  24.342  1.00  0.00    -0.246 OA
BRANCH  27  29
ATOM     29  C   UNL A   1      43.848  24.782  26.206  1.00  0.00     0.060 A 
ATOM     30  C   UNL A   1      42.951  24.199  27.110  1.00  0.00     0.016 A 
ATOM     31  C   UNL A   1      44.292  26.088  26.434  1.00  0.00     0.016 A 
ATOM     32  C   UNL A   1      42.472  24.923  28.208  1.00  0.00     0.010 A 
ATOM     33  C   UNL A   1      43.837  26.802  27.558  1.00  0.00     0.010 A 
ATOM     34  C   UNL A   1      42.893  26.241  28.437  1.00  0.00    -0.014 A 
BRANCH  34  35
ATOM     35  C   UNL A   1      42.242  27.055  29.506  1.00  0.00     0.031 A 
ATOM     36  C   UNL A   1      42.868  27.116  30.877  1.00  0.00     0.074 A 
ATOM     37  C   UNL A   1      41.135  27.790  29.273  1.00  0.00     0.049 A 
ATOM     38  N   UNL A   1      42.531  27.847  31.913  1.00  0.00    -0.248 NA
ATOM     39  C   UNL A   1      44.036  26.251  31.110  1.00  0.00     0.031 C 
ATOM     40  C   UNL A   1      40.414  27.867  28.006  1.00  0.00     0.029 A 
ATOM     41  N   UNL A   1      40.426  28.623  30.109  1.00  0.00    -0.354 N 
ATOM     42  C   UNL A   1      43.450  27.541  32.908  1.00  0.00     0.074 A 
ATOM     43  C   UNL A   1      44.324  26.518  32.375  1.00  0.00     0.031 C 
ATOM     44  C   UNL A   1      39.361  28.693  28.147  1.00  0.00     0.029 A 
ATOM     45  C   UNL A   1      39.331  29.206  29.517  1.00  0.00     0.049 A 
ATOM     46  H   UNL A   1      40.680  28.787  31.046  1.00  0.00     0.167 HD
ATOM     47  C   UNL A   1      43.587  28.077  34.144  1.00  0.00     0.031 A 
ATOM     48  C   UNL A   1      38.412  30.059  30.011  1.00  0.00     0.031 A 
ATOM     49  C   UNL A   1      42.730  29.083  34.709  1.00  0.00     0.049 A 
ATOM     50  C   UNL A   1      38.528  30.571  31.424  1.00  0.00     0.074 A 
ATOM     51  C   UNL A   1      42.832  29.707  35.941  1.00  0.00     0.029 A 
ATOM     52  N   UNL A   1      41.606  29.601  34.090  1.00  0.00    -0.354 N 
ATOM     53  N   UNL A   1      39.459  30.340  32.314  1.00  0.00    -0.248 NA
ATOM     54  C   UNL A   1      37.472  31.488  31.886  1.00  0.00     0.031 C 
ATOM     55  C   UNL A   1      41.737  30.566  36.090  1.00  0.00     0.029 A 
ATOM     56  C   UNL A   1      40.985  30.513  34.929  1.00  0.00     0.049 A 
ATOM     57  H   UNL A   1      41.295  29.358  33.189  1.00  0.00     0.167 HD
ATOM     58  C   UNL A   1      39.125  31.112  33.422  1.00  0.00     0.074 A 
ATOM     59  C   UNL A   1      37.909  31.823  33.092  1.00  0.00     0.031 C 
ATOM     60  C   UNL A   1      39.780  31.226  34.603  1.00  0.00     0.031 A 
BRANCH  47  61
ATOM     61  C   UNL A   1      44.726  27.572  34.982  1.00  0.00    -0.014 A 
ATOM     62  C   UNL A   1      45.983  28.196  34.937  1.00  0.00     0.009 A 
ATOM     63  C   UNL A   1      44.532  26.486  35.848  1.00  0.00     0.009 A 
ATOM     64  C   UNL A   1      47.035  27.718  35.720  1.00  0.00     0.001 A 
ATOM     65  C   UNL A   1      45.580  26.027  36.647  1.00  0.00     0.001 A 
ATOM     66  C   UNL A   1      46.831  26.637  36.577  1.00  0.00     0.000 A 
ENDBRANCH  47  61
BRANCH  48  67
ATOM     67  C   UNL A   1      37.277  30.511  29.163  1.00  0.00    -0.014 A 
ATOM     68  C   UNL A   1      37.177  31.851  28.754  1.00  0.00     0.009 A 
ATOM     69  C   UNL A   1      36.253  29.617  28.816  1.00  0.00     0.009 A 
ATOM     70  C   UNL A   1      36.058  32.291  28.044  1.00  0.00     0.001 A 
ATOM     71  C   UNL A   1      35.147  30.056  28.085  1.00  0.00     0.001 A 
ATOM     72  C   UNL A   1      35.044  31.394  27.710  1.00  0.00     0.000 A 
ENDBRANCH  48  67
BRANCH  60  73
ATOM     73  C   UNL A   1      39.226  32.186  35.621  1.00  0.00    -0.014 A 
ATOM     74  C   UNL A   1      38.309  31.769  36.597  1.00  0.00     0.009 A 
ATOM     75  C   UNL A   1      39.670  33.519  35.633  1.00  0.00     0.009 A 
ATOM     76  C   UNL A   1      37.824  32.674  37.544  1.00  0.00     0.001 A 
ATOM     77  C   UNL A   1      39.206  34.413  36.598  1.00  0.00     0.001 A 
ATOM     78  C   UNL A   1      38.278  33.993  37.548  1.00  0.00     0.000 A 
ENDBRANCH  60  73
ENDBRANCH  34  35
ENDBRANCH  27  29
ENDBRANCH  26  27
ENDBRANCH  25  26
ENDBRANCH   1  25
TORSDOF 15
ENDMDL
