MODEL 1
REMARK VINA RESULT:     -12.5      0.000      0.000
REMARK SMILES COc1ccc(NC(=O)N[C@@H]2C=C[C@H](C(=O)OCCOC(=O)c3ccc(-c4c5nc(c(-c6ccccc6)c6ccc([nH]6)c(-c6ccccc6)c6nc(c(-c7ccccc7)c7ccc4[nH]7)C=C6)C=C5)cc3)C2)c(C)c1
REMARK SMILES IDX 18 1 17 2 15 3 16 4 14 5 11 6 12 7 71 8 13 9 10 10 7 11 8 12
REMARK SMILES IDX 9 14 6 16 3 17 4 18 74 19 5 20 72 21 73 22 2 23 1 24 19 25
REMARK SMILES IDX 20 26 21 27 22 28 23 29 24 30 70 31 25 32 69 33 26 34 27 35
REMARK SMILES IDX 28 36 63 37 29 38 68 39 62 40 64 41 30 42 67 43 61 44 60 45
REMARK SMILES IDX 31 47 53 48 38 49 52 50 39 51 42 52 51 53 65 54 40 55 41 56
REMARK SMILES IDX 50 58 66 59 43 60 32 61 33 62 37 63 34 64 36 65 35 66 54 67
REMARK SMILES IDX 55 68 59 69 56 70 58 71 57 72 44 73 45 74 49 75 46 76 48 77
REMARK SMILES IDX 47 78
REMARK H PARENT 7 13 10 15 64 46 42 57
REMARK Flexibility Score: inf
ROOT
ATOM      1  C   UNL A   1      33.973  30.027  26.900  1.00  0.00     0.274 C 
ENDROOT
BRANCH   1   2
ATOM      2  O   UNL A   1      32.910  30.263  25.875  1.00  0.00    -0.462 OA
BRANCH   2   3
ATOM      3  C   UNL A   1      32.652  29.407  24.819  1.00  0.00     0.312 C 
ATOM      4  O   UNL A   1      33.499  29.265  23.941  1.00  0.00    -0.252 OA
BRANCH   3   5
ATOM      5  C   UNL A   1      30.988  28.759  24.743  1.00  0.00     0.124 C 
ATOM      6  C   UNL A   1      31.451  26.471  24.683  1.00  0.00     0.107 C 
ATOM      7  C   UNL A   1      30.214  26.390  23.924  1.00  0.00    -0.006 C 
ATOM      8  C   UNL A   1      31.095  27.599  25.680  1.00  0.00     0.048 C 
ATOM      9  C   UNL A   1      30.126  27.701  23.722  1.00  0.00    -0.014 C 
BRANCH   6  10
ATOM     10  N   UNL A   1      32.413  26.829  23.569  1.00  0.00    -0.332 N 
ATOM     11  N   UNL A   1      33.316  24.785  22.375  1.00  0.00    -0.308 N 
ATOM     12  C   UNL A   1      33.391  26.179  22.800  1.00  0.00     0.319 C 
ATOM     13  H   UNL A   1      32.630  24.744  21.670  1.00  0.00     0.171 HD
ATOM     14  O   UNL A   1      33.918  27.024  22.060  1.00  0.00    -0.248 OA
ATOM     15  H   UNL A   1      32.329  27.776  23.315  1.00  0.00     0.165 HD
BRANCH  11  16
ATOM     16  C   UNL A   1      33.930  23.117  22.579  1.00  0.00     0.046 A 
ATOM     17  C   UNL A   1      33.253  20.116  24.506  1.00  0.00     0.119 A 
ATOM     18  C   UNL A   1      32.116  20.756  23.419  1.00  0.00     0.048 A 
ATOM     19  C   UNL A   1      34.800  20.904  24.877  1.00  0.00     0.052 A 
ATOM     20  C   UNL A   1      32.477  22.038  22.396  1.00  0.00     0.030 A 
ATOM     21  C   UNL A   1      35.265  22.465  23.999  1.00  0.00    -0.024 A 
ATOM     22  C   UNL A   1      36.387  23.213  24.833  1.00  0.00     0.047 C 
BRANCH  17  23
ATOM     23  O   UNL A   1      33.280  18.669  24.392  1.00  0.00    -0.497 OA
ATOM     24  C   UNL A   1      32.816  17.942  25.587  1.00  0.00     0.278 C 
ENDBRANCH  17  23
ENDBRANCH  11  16
ENDBRANCH   6  10
ENDBRANCH   3   5
ENDBRANCH   2   3
ENDBRANCH   1   2
BRANCH   1  25
ATOM     25  C   UNL A   1      34.792  31.244  27.675  1.00  0.00     0.275 C 
BRANCH  25  26
ATOM     26  O   UNL A   1      36.353  31.469  27.934  1.00  0.00    -0.458 OA
BRANCH  26  27
ATOM     27  C   UNL A   1      37.501  31.387  28.745  1.00  0.00     0.338 C 
ATOM     28  O   UNL A   1      38.105  32.370  29.137  1.00  0.00    -0.246 OA
BRANCH  27  29
ATOM     29  C   UNL A   1      37.938  30.002  29.075  1.00  0.00     0.060 A 
ATOM     30  C   UNL A   1      37.706  28.543  30.227  1.00  0.00     0.016 A 
ATOM     31  C   UNL A   1      39.135  29.689  27.718  1.00  0.00     0.016 A 
ATOM     32  C   UNL A   1      38.914  26.997  29.686  1.00  0.00     0.010 A 
ATOM     33  C   UNL A   1      40.082  28.328  27.432  1.00  0.00     0.010 A 
ATOM     34  C   UNL A   1      40.151  27.153  28.458  1.00  0.00    -0.014 A 
BRANCH  34  35
ATOM     35  C   UNL A   1      41.727  27.090  28.917  1.00  0.00     0.031 A 
ATOM     36  C   UNL A   1      42.139  25.768  28.389  1.00  0.00     0.074 A 
ATOM     37  C   UNL A   1      42.546  28.024  29.616  1.00  0.00     0.049 A 
ATOM     38  N   UNL A   1      42.605  24.771  29.070  1.00  0.00    -0.248 NA
ATOM     39  C   UNL A   1      41.683  25.321  27.038  1.00  0.00     0.031 C 
ATOM     40  C   UNL A   1      44.001  28.268  29.815  1.00  0.00     0.029 A 
ATOM     41  N   UNL A   1      42.203  29.167  30.369  1.00  0.00    -0.354 N 
ATOM     42  C   UNL A   1      43.092  23.949  28.071  1.00  0.00     0.074 A 
ATOM     43  C   UNL A   1      42.131  24.063  27.017  1.00  0.00     0.031 C 
ATOM     44  C   UNL A   1      44.258  29.080  30.896  1.00  0.00     0.029 A 
ATOM     45  C   UNL A   1      42.987  29.515  31.463  1.00  0.00     0.049 A 
ATOM     46  H   UNL A   1      41.420  29.709  30.123  1.00  0.00     0.167 HD
ATOM     47  C   UNL A   1      44.452  23.869  27.922  1.00  0.00     0.031 A 
ATOM     48  C   UNL A   1      42.525  29.596  32.759  1.00  0.00     0.031 A 
ATOM     49  C   UNL A   1      45.126  24.640  28.982  1.00  0.00     0.049 A 
ATOM     50  C   UNL A   1      43.036  28.306  33.323  1.00  0.00     0.074 A 
ATOM     51  C   UNL A   1      45.900  25.785  28.972  1.00  0.00     0.029 A 
ATOM     52  N   UNL A   1      44.711  24.479  30.303  1.00  0.00    -0.354 N 
ATOM     53  N   UNL A   1      43.248  27.273  32.550  1.00  0.00    -0.248 NA
ATOM     54  C   UNL A   1      43.489  28.124  34.691  1.00  0.00     0.031 C 
ATOM     55  C   UNL A   1      45.978  26.267  30.321  1.00  0.00     0.029 A 
ATOM     56  C   UNL A   1      45.120  25.517  31.116  1.00  0.00     0.049 A 
ATOM     57  H   UNL A   1      44.184  23.710  30.621  1.00  0.00     0.167 HD
ATOM     58  C   UNL A   1      44.120  26.458  33.177  1.00  0.00     0.074 A 
ATOM     59  C   UNL A   1      44.171  26.976  34.545  1.00  0.00     0.031 C 
ATOM     60  C   UNL A   1      44.807  25.465  32.548  1.00  0.00     0.031 A 
BRANCH  47  61
ATOM     61  C   UNL A   1      45.152  23.399  26.653  1.00  0.00    -0.014 A 
ATOM     62  C   UNL A   1      45.122  22.030  26.335  1.00  0.00     0.009 A 
ATOM     63  C   UNL A   1      45.822  24.222  25.722  1.00  0.00     0.009 A 
ATOM     64  C   UNL A   1      45.710  21.516  25.169  1.00  0.00     0.001 A 
ATOM     65  C   UNL A   1      46.420  23.715  24.556  1.00  0.00     0.001 A 
ATOM     66  C   UNL A   1      46.353  22.360  24.274  1.00  0.00     0.000 A 
ENDBRANCH  47  61
BRANCH  48  67
ATOM     67  C   UNL A   1      41.158  30.184  33.142  1.00  0.00    -0.014 A 
ATOM     68  C   UNL A   1      40.735  31.443  32.628  1.00  0.00     0.009 A 
ATOM     69  C   UNL A   1      40.146  29.384  33.706  1.00  0.00     0.009 A 
ATOM     70  C   UNL A   1      39.360  31.757  32.473  1.00  0.00     0.001 A 
ATOM     71  C   UNL A   1      38.775  29.687  33.526  1.00  0.00     0.001 A 
ATOM     72  C   UNL A   1      38.384  30.852  32.879  1.00  0.00     0.000 A 
ENDBRANCH  48  67
BRANCH  60  73
ATOM     73  C   UNL A   1      45.312  24.305  33.328  1.00  0.00    -0.014 A 
ATOM     74  C   UNL A   1      46.588  24.274  33.896  1.00  0.00     0.009 A 
ATOM     75  C   UNL A   1      44.434  23.254  33.638  1.00  0.00     0.009 A 
ATOM     76  C   UNL A   1      47.035  23.154  34.579  1.00  0.00     0.001 A 
ATOM     77  C   UNL A   1      44.833  22.192  34.430  1.00  0.00     0.001 A 
ATOM     78  C   UNL A   1      46.152  22.116  34.850  1.00  0.00     0.000 A 
ENDBRANCH  60  73
ENDBRANCH  34  35
ENDBRANCH  27  29
ENDBRANCH  26  27
ENDBRANCH  25  26
ENDBRANCH   1  25
TORSDOF 14
ENDMDL
MODEL 2
REMARK VINA RESULT:     -12.2      3.630      9.441
REMARK SMILES COc1ccc(NC(=O)N[C@@H]2C=C[C@H](C(=O)OCCOC(=O)c3ccc(-c4c5nc(c(-c6ccccc6)c6ccc([nH]6)c(-c6ccccc6)c6nc(c(-c7ccccc7)c7ccc4[nH]7)C=C6)C=C5)cc3)C2)c(C)c1
REMARK SMILES IDX 18 1 17 2 15 3 16 4 14 5 11 6 12 7 71 8 13 9 10 10 7 11 8 12
REMARK SMILES IDX 9 14 6 16 3 17 4 18 74 19 5 20 72 21 73 22 2 23 1 24 19 25
REMARK SMILES IDX 20 26 21 27 22 28 23 29 24 30 70 31 25 32 69 33 26 34 27 35
REMARK SMILES IDX 28 36 63 37 29 38 68 39 62 40 64 41 30 42 67 43 61 44 60 45
REMARK SMILES IDX 31 47 53 48 38 49 52 50 39 51 42 52 51 53 65 54 40 55 41 56
REMARK SMILES IDX 50 58 66 59 43 60 32 61 33 62 37 63 34 64 36 65 35 66 54 67
REMARK SMILES IDX 55 68 59 69 56 70 58 71 57 72 44 73 45 74 49 75 46 76 48 77
REMARK SMILES IDX 47 78
REMARK H PARENT 7 13 10 15 64 46 42 57
REMARK Flexibility Score: inf
ROOT
ATOM      1  C   UNL A   1      37.878  22.501  25.996  1.00  0.00     0.274 C 
ENDROOT
BRANCH   1   2
ATOM      2  O   UNL A   1      36.920  21.445  25.549  1.00  0.00    -0.462 OA
BRANCH   2   3
ATOM      3  C   UNL A   1      35.552  21.508  25.747  1.00  0.00     0.312 C 
ATOM      4  O   UNL A   1      35.117  21.626  26.890  1.00  0.00    -0.252 OA
BRANCH   3   5
ATOM      5  C   UNL A   1      34.548  21.185  24.304  1.00  0.00     0.124 C 
ATOM      6  C   UNL A   1      33.509  23.263  24.065  1.00  0.00     0.107 C 
ATOM      7  C   UNL A   1      32.421  22.488  23.493  1.00  0.00    -0.006 C 
ATOM      8  C   UNL A   1      34.726  22.461  23.547  1.00  0.00     0.048 C 
ATOM      9  C   UNL A   1      32.897  21.316  23.901  1.00  0.00    -0.014 C 
BRANCH   6  10
ATOM     10  N   UNL A   1      33.180  23.121  25.537  1.00  0.00    -0.332 N 
ATOM     11  N   UNL A   1      31.332  24.689  26.273  1.00  0.00    -0.308 N 
ATOM     12  C   UNL A   1      32.507  23.860  26.521  1.00  0.00     0.319 C 
ATOM     13  H   UNL A   1      30.581  24.070  26.120  1.00  0.00     0.171 HD
ATOM     14  O   UNL A   1      32.621  23.254  27.598  1.00  0.00    -0.248 OA
ATOM     15  H   UNL A   1      33.537  22.279  25.903  1.00  0.00     0.165 HD
BRANCH  11  16
ATOM     16  C   UNL A   1      30.662  26.342  26.124  1.00  0.00     0.046 A 
ATOM     17  C   UNL A   1      30.244  28.965  23.651  1.00  0.00     0.119 A 
ATOM     18  C   UNL A   1      29.504  27.447  23.477  1.00  0.00     0.048 A 
ATOM     19  C   UNL A   1      31.360  29.362  24.974  1.00  0.00     0.052 A 
ATOM     20  C   UNL A   1      29.544  26.286  24.689  1.00  0.00     0.030 A 
ATOM     21  C   UNL A   1      31.701  28.107  26.290  1.00  0.00    -0.024 A 
ATOM     22  C   UNL A   1      33.052  28.485  27.029  1.00  0.00     0.047 C 
BRANCH  17  23
ATOM     23  O   UNL A   1      29.318  30.011  23.257  1.00  0.00    -0.497 OA
ATOM     24  C   UNL A   1      29.427  30.444  21.853  1.00  0.00     0.278 C 
ENDBRANCH  17  23
ENDBRANCH  11  16
ENDBRANCH   6  10
ENDBRANCH   3   5
ENDBRANCH   2   3
ENDBRANCH   1   2
BRANCH   1  25
ATOM     25  C   UNL A   1      39.430  22.188  26.490  1.00  0.00     0.275 C 
BRANCH  25  26
ATOM     26  O   UNL A   1      40.618  23.166  26.922  1.00  0.00    -0.458 OA
BRANCH  26  27
ATOM     27  C   UNL A   1      41.170  24.156  27.758  1.00  0.00     0.338 C 
ATOM     28  O   UNL A   1      41.931  23.898  28.675  1.00  0.00    -0.246 OA
BRANCH  27  29
ATOM     29  C   UNL A   1      40.740  25.547  27.451  1.00  0.00     0.060 A 
ATOM     30  C   UNL A   1      40.775  26.932  26.189  1.00  0.00     0.016 A 
ATOM     31  C   UNL A   1      39.744  25.934  28.944  1.00  0.00     0.016 A 
ATOM     32  C   UNL A   1      39.726  28.544  26.857  1.00  0.00     0.010 A 
ATOM     33  C   UNL A   1      38.947  27.361  29.349  1.00  0.00     0.010 A 
ATOM     34  C   UNL A   1      39.108  28.654  28.490  1.00  0.00    -0.014 A 
BRANCH  34  35
ATOM     35  C   UNL A   1      39.778  29.753  29.511  1.00  0.00     0.031 A 
ATOM     36  C   UNL A   1      38.721  30.790  29.570  1.00  0.00     0.074 A 
ATOM     37  C   UNL A   1      41.022  29.763  30.207  1.00  0.00     0.049 A 
ATOM     38  N   UNL A   1      38.836  32.036  29.240  1.00  0.00    -0.248 NA
ATOM     39  C   UNL A   1      37.282  30.395  29.654  1.00  0.00     0.031 C 
ATOM     40  C   UNL A   1      41.619  30.473  31.371  1.00  0.00     0.029 A 
ATOM     41  N   UNL A   1      42.181  28.977  30.031  1.00  0.00    -0.354 N 
ATOM     42  C   UNL A   1      37.680  32.578  29.769  1.00  0.00     0.074 A 
ATOM     43  C   UNL A   1      36.680  31.581  29.532  1.00  0.00     0.031 C 
ATOM     44  C   UNL A   1      42.993  30.388  31.394  1.00  0.00     0.029 A 
ATOM     45  C   UNL A   1      43.425  29.542  30.288  1.00  0.00     0.049 A 
ATOM     46  H   UNL A   1      42.109  28.043  29.731  1.00  0.00     0.167 HD
ATOM     47  C   UNL A   1      37.797  33.354  30.892  1.00  0.00     0.031 A 
ATOM     48  C   UNL A   1      44.430  29.672  29.354  1.00  0.00     0.031 A 
ATOM     49  C   UNL A   1      39.219  33.529  31.241  1.00  0.00     0.049 A 
ATOM     50  C   UNL A   1      44.301  31.122  29.001  1.00  0.00     0.074 A 
ATOM     51  C   UNL A   1      39.990  33.108  32.309  1.00  0.00     0.029 A 
ATOM     52  N   UNL A   1      40.124  33.876  30.239  1.00  0.00    -0.354 N 
ATOM     53  N   UNL A   1      43.159  31.744  29.123  1.00  0.00    -0.248 NA
ATOM     54  C   UNL A   1      45.415  31.992  28.661  1.00  0.00     0.031 C 
ATOM     55  C   UNL A   1      41.366  33.262  31.937  1.00  0.00     0.029 A 
ATOM     56  C   UNL A   1      41.432  33.615  30.595  1.00  0.00     0.049 A 
ATOM     57  H   UNL A   1      39.860  34.263  29.373  1.00  0.00     0.167 HD
ATOM     58  C   UNL A   1      43.413  33.065  29.213  1.00  0.00     0.074 A 
ATOM     59  C   UNL A   1      44.819  33.184  28.826  1.00  0.00     0.031 C 
ATOM     60  C   UNL A   1      42.508  33.976  29.666  1.00  0.00     0.031 A 
BRANCH  47  61
ATOM     61  C   UNL A   1      36.655  33.659  31.851  1.00  0.00    -0.014 A 
ATOM     62  C   UNL A   1      36.710  33.132  33.154  1.00  0.00     0.009 A 
ATOM     63  C   UNL A   1      35.528  34.462  31.572  1.00  0.00     0.009 A 
ATOM     64  C   UNL A   1      35.720  33.392  34.113  1.00  0.00     0.001 A 
ATOM     65  C   UNL A   1      34.527  34.721  32.523  1.00  0.00     0.001 A 
ATOM     66  C   UNL A   1      34.631  34.194  33.801  1.00  0.00     0.000 A 
ENDBRANCH  47  61
BRANCH  48  67
ATOM     67  C   UNL A   1      44.774  28.593  28.316  1.00  0.00    -0.014 A 
ATOM     68  C   UNL A   1      44.991  27.242  28.712  1.00  0.00     0.009 A 
ATOM     69  C   UNL A   1      44.550  28.798  26.941  1.00  0.00     0.009 A 
ATOM     70  C   UNL A   1      44.751  26.161  27.824  1.00  0.00     0.001 A 
ATOM     71  C   UNL A   1      44.284  27.718  26.065  1.00  0.00     0.001 A 
ATOM     72  C   UNL A   1      44.349  26.406  26.514  1.00  0.00     0.000 A 
ENDBRANCH  48  67
BRANCH  60  73
ATOM     73  C   UNL A   1      42.625  35.401  29.258  1.00  0.00    -0.014 A 
ATOM     74  C   UNL A   1      43.389  36.330  29.969  1.00  0.00     0.009 A 
ATOM     75  C   UNL A   1      42.072  35.810  28.034  1.00  0.00     0.009 A 
ATOM     76  C   UNL A   1      43.435  37.659  29.578  1.00  0.00     0.001 A 
ATOM     77  C   UNL A   1      42.224  37.106  27.572  1.00  0.00     0.001 A 
ATOM     78  C   UNL A   1      42.856  38.043  28.374  1.00  0.00     0.000 A 
ENDBRANCH  60  73
ENDBRANCH  34  35
ENDBRANCH  27  29
ENDBRANCH  26  27
ENDBRANCH  25  26
ENDBRANCH   1  25
TORSDOF 14
ENDMDL
MODEL 3
REMARK VINA RESULT:     -11.7      1.452      2.023
REMARK SMILES COc1ccc(NC(=O)N[C@@H]2C=C[C@H](C(=O)OCCOC(=O)c3ccc(-c4c5nc(c(-c6ccccc6)c6ccc([nH]6)c(-c6ccccc6)c6nc(c(-c7ccccc7)c7ccc4[nH]7)C=C6)C=C5)cc3)C2)c(C)c1
REMARK SMILES IDX 18 1 17 2 15 3 16 4 14 5 11 6 12 7 71 8 13 9 10 10 7 11 8 12
REMARK SMILES IDX 9 14 6 16 3 17 4 18 74 19 5 20 72 21 73 22 2 23 1 24 19 25
REMARK SMILES IDX 20 26 21 27 22 28 23 29 24 30 70 31 25 32 69 33 26 34 27 35
REMARK SMILES IDX 28 36 63 37 29 38 68 39 62 40 64 41 30 42 67 43 61 44 60 45
REMARK SMILES IDX 31 47 53 48 38 49 52 50 39 51 42 52 51 53 65 54 40 55 41 56
REMARK SMILES IDX 50 58 66 59 43 60 32 61 33 62 37 63 34 64 36 65 35 66 54 67
REMARK SMILES IDX 55 68 59 69 56 70 58 71 57 72 44 73 45 74 49 75 46 76 48 77
REMARK SMILES IDX 47 78
REMARK H PARENT 7 13 10 15 64 46 42 57
REMARK Flexibility Score: inf
ROOT
ATOM      1  C   UNL A   1      33.694  29.972  26.689  1.00  0.00     0.274 C 
ENDROOT
BRANCH   1   2
ATOM      2  O   UNL A   1      32.649  30.225  25.651  1.00  0.00    -0.462 OA
BRANCH   2   3
ATOM      3  C   UNL A   1      32.376  29.364  24.602  1.00  0.00     0.312 C 
ATOM      4  O   UNL A   1      33.127  29.347  23.631  1.00  0.00    -0.252 OA
BRANCH   3   5
ATOM      5  C   UNL A   1      30.806  28.516  24.691  1.00  0.00     0.124 C 
ATOM      6  C   UNL A   1      31.550  26.306  24.817  1.00  0.00     0.107 C 
ATOM      7  C   UNL A   1      30.297  26.001  24.147  1.00  0.00    -0.006 C 
ATOM      8  C   UNL A   1      31.105  27.477  25.724  1.00  0.00     0.048 C 
ATOM      9  C   UNL A   1      30.034  27.264  23.829  1.00  0.00    -0.014 C 
BRANCH   6  10
ATOM     10  N   UNL A   1      32.402  26.664  23.616  1.00  0.00    -0.332 N 
ATOM     11  N   UNL A   1      33.280  24.618  22.407  1.00  0.00    -0.308 N 
ATOM     12  C   UNL A   1      33.337  26.026  22.786  1.00  0.00     0.319 C 
ATOM     13  H   UNL A   1      32.540  24.532  21.764  1.00  0.00     0.171 HD
ATOM     14  O   UNL A   1      33.768  26.866  21.981  1.00  0.00    -0.248 OA
ATOM     15  H   UNL A   1      32.263  27.600  23.345  1.00  0.00     0.165 HD
BRANCH  11  16
ATOM     16  C   UNL A   1      33.971  22.979  22.604  1.00  0.00     0.046 A 
ATOM     17  C   UNL A   1      33.681  20.076  24.763  1.00  0.00     0.119 A 
ATOM     18  C   UNL A   1      32.378  20.625  23.825  1.00  0.00     0.048 A 
ATOM     19  C   UNL A   1      35.240  20.921  24.859  1.00  0.00     0.052 A 
ATOM     20  C   UNL A   1      32.542  21.857  22.694  1.00  0.00     0.030 A 
ATOM     21  C   UNL A   1      35.520  22.441  23.843  1.00  0.00    -0.024 A 
ATOM     22  C   UNL A   1      36.727  23.262  24.461  1.00  0.00     0.047 C 
BRANCH  17  23
ATOM     23  O   UNL A   1      33.738  18.626  24.722  1.00  0.00    -0.497 OA
ATOM     24  C   UNL A   1      32.772  17.939  25.596  1.00  0.00     0.278 C 
ENDBRANCH  17  23
ENDBRANCH  11  16
ENDBRANCH   6  10
ENDBRANCH   3   5
ENDBRANCH   2   3
ENDBRANCH   1   2
BRANCH   1  25
ATOM     25  C   UNL A   1      34.373  31.162  27.623  1.00  0.00     0.275 C 
BRANCH  25  26
ATOM     26  O   UNL A   1      35.334  31.085  28.898  1.00  0.00    -0.458 OA
BRANCH  26  27
ATOM     27  C   UNL A   1      36.577  31.283  29.529  1.00  0.00     0.338 C 
ATOM     28  O   UNL A   1      37.022  32.390  29.781  1.00  0.00    -0.246 OA
BRANCH  27  29
ATOM     29  C   UNL A   1      37.322  30.035  29.853  1.00  0.00     0.060 A 
ATOM     30  C   UNL A   1      37.783  28.817  31.200  1.00  0.00     0.016 A 
ATOM     31  C   UNL A   1      37.944  29.568  28.190  1.00  0.00     0.016 A 
ATOM     32  C   UNL A   1      38.922  27.308  30.448  1.00  0.00     0.010 A 
ATOM     33  C   UNL A   1      38.914  28.266  27.747  1.00  0.00     0.010 A 
ATOM     34  C   UNL A   1      39.555  27.327  28.817  1.00  0.00    -0.014 A 
BRANCH  34  35
ATOM     35  C   UNL A   1      41.175  27.495  28.605  1.00  0.00     0.031 A 
ATOM     36  C   UNL A   1      41.598  26.089  28.403  1.00  0.00     0.074 A 
ATOM     37  C   UNL A   1      42.012  28.649  28.584  1.00  0.00     0.049 A 
ATOM     38  N   UNL A   1      42.446  25.423  29.119  1.00  0.00    -0.248 NA
ATOM     39  C   UNL A   1      40.774  25.168  27.563  1.00  0.00     0.031 C 
ATOM     40  C   UNL A   1      43.373  29.006  28.100  1.00  0.00     0.029 A 
ATOM     41  N   UNL A   1      41.765  29.973  29.008  1.00  0.00    -0.354 N 
ATOM     42  C   UNL A   1      42.680  24.317  28.324  1.00  0.00     0.074 A 
ATOM     43  C   UNL A   1      41.400  24.005  27.764  1.00  0.00     0.031 C 
ATOM     44  C   UNL A   1      43.853  30.163  28.671  1.00  0.00     0.029 A 
ATOM     45  C   UNL A   1      42.815  30.722  29.528  1.00  0.00     0.049 A 
ATOM     46  H   UNL A   1      40.863  30.359  28.937  1.00  0.00     0.167 HD
ATOM     47  C   UNL A   1      43.886  24.241  27.679  1.00  0.00     0.031 A 
ATOM     48  C   UNL A   1      42.842  31.246  30.803  1.00  0.00     0.031 A 
ATOM     49  C   UNL A   1      44.748  25.368  28.080  1.00  0.00     0.049 A 
ATOM     50  C   UNL A   1      43.742  30.267  31.491  1.00  0.00     0.074 A 
ATOM     51  C   UNL A   1      45.251  26.463  27.401  1.00  0.00     0.029 A 
ATOM     52  N   UNL A   1      44.871  25.678  29.434  1.00  0.00    -0.354 N 
ATOM     53  N   UNL A   1      43.841  29.034  31.069  1.00  0.00    -0.248 NA
ATOM     54  C   UNL A   1      44.680  30.608  32.546  1.00  0.00     0.031 C 
ATOM     55  C   UNL A   1      45.721  27.401  28.379  1.00  0.00     0.029 A 
ATOM     56  C   UNL A   1      45.353  26.954  29.642  1.00  0.00     0.049 A 
ATOM     57  H   UNL A   1      44.638  25.055  30.160  1.00  0.00     0.167 HD
ATOM     58  C   UNL A   1      45.010  28.534  31.518  1.00  0.00     0.074 A 
ATOM     59  C   UNL A   1      45.456  29.512  32.512  1.00  0.00     0.031 C 
ATOM     60  C   UNL A   1      45.590  27.409  31.016  1.00  0.00     0.031 A 
BRANCH  47  61
ATOM     61  C   UNL A   1      44.155  23.374  26.457  1.00  0.00    -0.014 A 
ATOM     62  C   UNL A   1      44.545  23.999  25.259  1.00  0.00     0.009 A 
ATOM     63  C   UNL A   1      44.080  21.965  26.406  1.00  0.00     0.009 A 
ATOM     64  C   UNL A   1      44.848  23.275  24.097  1.00  0.00     0.001 A 
ATOM     65  C   UNL A   1      44.373  21.232  25.244  1.00  0.00     0.001 A 
ATOM     66  C   UNL A   1      44.770  21.889  24.090  1.00  0.00     0.000 A 
ENDBRANCH  47  61
BRANCH  48  67
ATOM     67  C   UNL A   1      41.623  31.879  31.491  1.00  0.00    -0.014 A 
ATOM     68  C   UNL A   1      40.810  31.119  32.380  1.00  0.00     0.009 A 
ATOM     69  C   UNL A   1      41.461  33.276  31.557  1.00  0.00     0.009 A 
ATOM     70  C   UNL A   1      40.077  31.737  33.425  1.00  0.00     0.001 A 
ATOM     71  C   UNL A   1      40.750  33.889  32.617  1.00  0.00     0.001 A 
ATOM     72  C   UNL A   1      40.091  33.122  33.569  1.00  0.00     0.000 A 
ENDBRANCH  48  67
BRANCH  60  73
ATOM     73  C   UNL A   1      46.538  26.629  31.853  1.00  0.00    -0.014 A 
ATOM     74  C   UNL A   1      46.123  25.838  32.928  1.00  0.00     0.009 A 
ATOM     75  C   UNL A   1      47.888  26.557  31.473  1.00  0.00     0.009 A 
ATOM     76  C   UNL A   1      47.047  25.161  33.709  1.00  0.00     0.001 A 
ATOM     77  C   UNL A   1      48.793  25.778  32.172  1.00  0.00     0.001 A 
ATOM     78  C   UNL A   1      48.381  25.128  33.325  1.00  0.00     0.000 A 
ENDBRANCH  60  73
ENDBRANCH  34  35
ENDBRANCH  27  29
ENDBRANCH  26  27
ENDBRANCH  25  26
ENDBRANCH   1  25
TORSDOF 14
ENDMDL
