MODEL 1
REMARK VINA RESULT:     -10.0      0.000      0.000
REMARK SMILES CC(C)(Cn1ccnc1C(N)=S)C(=O)OCCOC(=O)c1ccc(-c2c3nc(c(-c4ccccc4)c4ccc([nH]4)c(-c4ccccc4)c4nc(c(-c5ccccc5)c5ccc2[nH]5)C=C4)C=C3)cc1
REMARK SMILES IDX 16 1 15 2 13 3 14 4 2 5 1 6 3 7 4 8 5 9 6 10 9 11 7 12 8 13
REMARK SMILES IDX 10 14 12 15 11 16 17 19 18 20 19 21 20 22 21 23 22 24 68 25
REMARK SMILES IDX 23 26 67 27 24 28 25 29 26 30 61 31 27 32 66 33 60 34 62 35
REMARK SMILES IDX 28 36 65 37 59 38 58 39 29 41 51 42 36 43 50 44 37 45 40 46
REMARK SMILES IDX 49 47 63 48 38 49 39 50 48 52 64 53 41 54 30 55 31 56 35 57
REMARK SMILES IDX 32 58 34 59 33 60 52 61 53 62 57 63 54 64 56 65 55 66 42 67
REMARK SMILES IDX 43 68 47 69 44 70 46 71 45 72
REMARK H PARENT 11 17 11 18 62 40 40 51
REMARK Flexibility Score: inf
ROOT
ATOM      1  C   UNL A   1      33.361  31.008  27.590  1.00  0.00     0.274 C 
ENDROOT
BRANCH   1   2
ATOM      2  O   UNL A   1      33.468  30.292  26.338  1.00  0.00    -0.462 OA
BRANCH   2   3
ATOM      3  C   UNL A   1      33.858  28.990  26.427  1.00  0.00     0.313 C 
ATOM      4  O   UNL A   1      34.704  28.587  27.224  1.00  0.00    -0.252 OA
BRANCH   3   5
ATOM      5  C   UNL A   1      33.176  28.072  25.401  1.00  0.00     0.080 C 
ATOM      6  C   UNL A   1      33.654  26.621  25.625  1.00  0.00     0.025 C 
ATOM      7  C   UNL A   1      33.756  28.555  24.055  1.00  0.00     0.025 C 
BRANCH   5   8
ATOM      8  C   UNL A   1      31.620  28.159  25.290  1.00  0.00     0.142 C 
BRANCH   8   9
ATOM      9  N   UNL A   1      30.958  28.523  24.044  1.00  0.00    -0.328 N 
ATOM     10  C   UNL A   1      30.260  29.703  23.878  1.00  0.00     0.108 A 
ATOM     11  C   UNL A   1      30.756  27.775  22.889  1.00  0.00     0.167 A 
ATOM     12  C   UNL A   1      29.784  29.686  22.594  1.00  0.00     0.131 A 
ATOM     13  N   UNL A   1      30.118  28.517  21.982  1.00  0.00    -0.235 NA
BRANCH  11  14
ATOM     14  C   UNL A   1      31.129  26.423  22.506  1.00  0.00     0.140 C 
ATOM     15  S   UNL A   1      30.738  25.030  23.320  1.00  0.00    -0.057 S 
BRANCH  14  16
ATOM     16  N   UNL A   1      31.779  26.331  21.301  1.00  0.00    -0.387 N 
ATOM     17  H   UNL A   1      32.667  25.911  21.251  1.00  0.00     0.157 HD
ATOM     18  H   UNL A   1      31.357  26.687  20.486  1.00  0.00     0.157 HD
ENDBRANCH  14  16
ENDBRANCH  11  14
ENDBRANCH   8   9
ENDBRANCH   5   8
ENDBRANCH   3   5
ENDBRANCH   2   3
ENDBRANCH   1   2
BRANCH   1  19
ATOM     19  C   UNL A   1      34.549  31.944  27.832  1.00  0.00     0.275 C 
BRANCH  19  20
ATOM     20  O   UNL A   1      35.257  31.737  29.067  1.00  0.00    -0.458 OA
BRANCH  20  21
ATOM     21  C   UNL A   1      36.557  32.074  28.996  1.00  0.00     0.338 C 
ATOM     22  O   UNL A   1      37.037  32.992  28.365  1.00  0.00    -0.246 OA
BRANCH  21  23
ATOM     23  C   UNL A   1      37.457  31.046  29.491  1.00  0.00     0.060 A 
ATOM     24  C   UNL A   1      38.761  31.481  29.775  1.00  0.00     0.016 A 
ATOM     25  C   UNL A   1      37.133  29.695  29.369  1.00  0.00     0.016 A 
ATOM     26  C   UNL A   1      39.779  30.564  29.791  1.00  0.00     0.010 A 
ATOM     27  C   UNL A   1      38.153  28.771  29.430  1.00  0.00     0.010 A 
ATOM     28  C   UNL A   1      39.469  29.220  29.586  1.00  0.00    -0.014 A 
BRANCH  28  29
ATOM     29  C   UNL A   1      40.553  28.275  29.775  1.00  0.00     0.031 A 
ATOM     30  C   UNL A   1      40.997  28.204  31.191  1.00  0.00     0.074 A 
ATOM     31  C   UNL A   1      40.986  27.455  28.802  1.00  0.00     0.049 A 
ATOM     32  N   UNL A   1      42.180  28.406  31.666  1.00  0.00    -0.248 NA
ATOM     33  C   UNL A   1      39.951  28.048  32.221  1.00  0.00     0.031 C 
ATOM     34  C   UNL A   1      40.409  27.295  27.465  1.00  0.00     0.029 A 
ATOM     35  N   UNL A   1      41.936  26.482  28.856  1.00  0.00    -0.354 N 
ATOM     36  C   UNL A   1      42.064  28.210  33.041  1.00  0.00     0.074 A 
ATOM     37  C   UNL A   1      40.659  28.176  33.341  1.00  0.00     0.031 C 
ATOM     38  C   UNL A   1      40.832  26.125  26.942  1.00  0.00     0.029 A 
ATOM     39  C   UNL A   1      41.810  25.540  27.846  1.00  0.00     0.049 A 
ATOM     40  H   UNL A   1      42.642  26.451  29.542  1.00  0.00     0.167 HD
ATOM     41  C   UNL A   1      43.123  27.774  33.773  1.00  0.00     0.031 A 
ATOM     42  C   UNL A   1      42.414  24.331  27.788  1.00  0.00     0.031 A 
ATOM     43  C   UNL A   1      44.366  27.970  33.075  1.00  0.00     0.049 A 
ATOM     44  C   UNL A   1      43.571  24.343  28.703  1.00  0.00     0.074 A 
ATOM     45  C   UNL A   1      45.202  29.024  32.788  1.00  0.00     0.029 A 
ATOM     46  N   UNL A   1      44.702  26.936  32.242  1.00  0.00    -0.354 N 
ATOM     47  N   UNL A   1      44.637  25.060  28.494  1.00  0.00    -0.248 NA
ATOM     48  C   UNL A   1      43.441  23.799  30.051  1.00  0.00     0.031 C 
ATOM     49  C   UNL A   1      45.922  28.646  31.616  1.00  0.00     0.029 A 
ATOM     50  C   UNL A   1      45.519  27.367  31.235  1.00  0.00     0.049 A 
ATOM     51  H   UNL A   1      44.396  26.007  32.354  1.00  0.00     0.167 HD
ATOM     52  C   UNL A   1      45.060  25.420  29.759  1.00  0.00     0.074 A 
ATOM     53  C   UNL A   1      44.424  24.469  30.661  1.00  0.00     0.031 C 
ATOM     54  C   UNL A   1      45.616  26.644  29.984  1.00  0.00     0.031 A 
BRANCH  41  55
ATOM     55  C   UNL A   1      42.988  26.680  34.814  1.00  0.00    -0.014 A 
ATOM     56  C   UNL A   1      43.026  25.344  34.376  1.00  0.00     0.009 A 
ATOM     57  C   UNL A   1      42.505  26.897  36.119  1.00  0.00     0.009 A 
ATOM     58  C   UNL A   1      42.523  24.301  35.164  1.00  0.00     0.001 A 
ATOM     59  C   UNL A   1      42.034  25.857  36.922  1.00  0.00     0.001 A 
ATOM     60  C   UNL A   1      42.014  24.560  36.432  1.00  0.00     0.000 A 
ENDBRANCH  41  55
BRANCH  42  61
ATOM     61  C   UNL A   1      41.947  23.096  27.133  1.00  0.00    -0.014 A 
ATOM     62  C   UNL A   1      42.806  22.358  26.308  1.00  0.00     0.009 A 
ATOM     63  C   UNL A   1      40.733  22.505  27.524  1.00  0.00     0.009 A 
ATOM     64  C   UNL A   1      42.480  21.052  25.922  1.00  0.00     0.001 A 
ATOM     65  C   UNL A   1      40.404  21.203  27.135  1.00  0.00     0.001 A 
ATOM     66  C   UNL A   1      41.287  20.472  26.347  1.00  0.00     0.000 A 
ENDBRANCH  42  61
BRANCH  54  67
ATOM     67  C   UNL A   1      46.175  27.372  28.796  1.00  0.00    -0.014 A 
ATOM     68  C   UNL A   1      47.499  27.219  28.352  1.00  0.00     0.009 A 
ATOM     69  C   UNL A   1      45.309  28.191  28.059  1.00  0.00     0.009 A 
ATOM     70  C   UNL A   1      47.951  27.898  27.217  1.00  0.00     0.001 A 
ATOM     71  C   UNL A   1      45.753  28.850  26.914  1.00  0.00     0.001 A 
ATOM     72  C   UNL A   1      47.076  28.711  26.498  1.00  0.00     0.000 A 
ENDBRANCH  54  67
ENDBRANCH  28  29
ENDBRANCH  21  23
ENDBRANCH  20  21
ENDBRANCH  19  20
ENDBRANCH   1  19
TORSDOF 15
ENDMDL
MODEL 2
REMARK VINA RESULT:      -9.9      3.301      7.225
REMARK SMILES CC(C)(Cn1ccnc1C(N)=S)C(=O)OCCOC(=O)c1ccc(-c2c3nc(c(-c4ccccc4)c4ccc([nH]4)c(-c4ccccc4)c4nc(c(-c5ccccc5)c5ccc2[nH]5)C=C4)C=C3)cc1
REMARK SMILES IDX 16 1 15 2 13 3 14 4 2 5 1 6 3 7 4 8 5 9 6 10 9 11 7 12 8 13
REMARK SMILES IDX 10 14 12 15 11 16 17 19 18 20 19 21 20 22 21 23 22 24 68 25
REMARK SMILES IDX 23 26 67 27 24 28 25 29 26 30 61 31 27 32 66 33 60 34 62 35
REMARK SMILES IDX 28 36 65 37 59 38 58 39 29 41 51 42 36 43 50 44 37 45 40 46
REMARK SMILES IDX 49 47 63 48 38 49 39 50 48 52 64 53 41 54 30 55 31 56 35 57
REMARK SMILES IDX 32 58 34 59 33 60 52 61 53 62 57 63 54 64 56 65 55 66 42 67
REMARK SMILES IDX 43 68 47 69 44 70 46 71 45 72
REMARK H PARENT 11 17 11 18 62 40 40 51
REMARK Flexibility Score: inf
ROOT
ATOM      1  C   UNL A   1      32.348  31.696  26.373  1.00  0.00     0.274 C 
ENDROOT
BRANCH   1   2
ATOM      2  O   UNL A   1      31.796  30.370  26.538  1.00  0.00    -0.462 OA
BRANCH   2   3
ATOM      3  C   UNL A   1      32.300  29.408  25.717  1.00  0.00     0.313 C 
ATOM      4  O   UNL A   1      32.948  29.652  24.701  1.00  0.00    -0.252 OA
BRANCH   3   5
ATOM      5  C   UNL A   1      31.943  27.978  26.153  1.00  0.00     0.080 C 
ATOM      6  C   UNL A   1      31.562  27.985  27.648  1.00  0.00     0.025 C 
ATOM      7  C   UNL A   1      33.281  27.222  26.012  1.00  0.00     0.025 C 
BRANCH   5   8
ATOM      8  C   UNL A   1      30.889  27.213  25.290  1.00  0.00     0.142 C 
BRANCH   8   9
ATOM      9  N   UNL A   1      31.144  26.859  23.900  1.00  0.00    -0.328 N 
ATOM     10  C   UNL A   1      31.835  25.724  23.525  1.00  0.00     0.108 A 
ATOM     11  C   UNL A   1      30.915  27.588  22.737  1.00  0.00     0.167 A 
ATOM     12  C   UNL A   1      31.875  25.738  22.157  1.00  0.00     0.131 A 
ATOM     13  N   UNL A   1      31.281  26.865  21.678  1.00  0.00    -0.235 NA
BRANCH  11  14
ATOM     14  C   UNL A   1      30.344  28.901  22.487  1.00  0.00     0.140 C 
ATOM     15  S   UNL A   1      28.779  29.364  22.793  1.00  0.00    -0.057 S 
BRANCH  14  16
ATOM     16  N   UNL A   1      31.244  29.840  22.051  1.00  0.00    -0.387 N 
ATOM     17  H   UNL A   1      31.874  29.620  21.327  1.00  0.00     0.157 HD
ATOM     18  H   UNL A   1      31.260  30.734  22.461  1.00  0.00     0.157 HD
ENDBRANCH  14  16
ENDBRANCH  11  14
ENDBRANCH   8   9
ENDBRANCH   5   8
ENDBRANCH   3   5
ENDBRANCH   2   3
ENDBRANCH   1   2
BRANCH   1  19
ATOM     19  C   UNL A   1      32.194  32.555  27.632  1.00  0.00     0.275 C 
BRANCH  19  20
ATOM     20  O   UNL A   1      32.679  33.906  27.522  1.00  0.00    -0.458 OA
BRANCH  20  21
ATOM     21  C   UNL A   1      33.000  34.453  28.708  1.00  0.00     0.338 C 
ATOM     22  O   UNL A   1      32.370  35.291  29.317  1.00  0.00    -0.246 OA
BRANCH  21  23
ATOM     23  C   UNL A   1      34.374  34.208  29.113  1.00  0.00     0.060 A 
ATOM     24  C   UNL A   1      35.303  34.149  28.062  1.00  0.00     0.016 A 
ATOM     25  C   UNL A   1      34.670  33.744  30.394  1.00  0.00     0.016 A 
ATOM     26  C   UNL A   1      36.486  33.485  28.257  1.00  0.00     0.010 A 
ATOM     27  C   UNL A   1      35.878  33.116  30.599  1.00  0.00     0.010 A 
ATOM     28  C   UNL A   1      36.748  32.946  29.516  1.00  0.00    -0.014 A 
BRANCH  28  29
ATOM     29  C   UNL A   1      38.077  32.401  29.716  1.00  0.00     0.031 A 
ATOM     30  C   UNL A   1      38.122  30.932  29.501  1.00  0.00     0.074 A 
ATOM     31  C   UNL A   1      39.160  33.171  29.917  1.00  0.00     0.049 A 
ATOM     32  N   UNL A   1      38.511  30.017  30.325  1.00  0.00    -0.248 NA
ATOM     33  C   UNL A   1      37.496  30.409  28.270  1.00  0.00     0.031 C 
ATOM     34  C   UNL A   1      39.220  34.634  29.874  1.00  0.00     0.029 A 
ATOM     35  N   UNL A   1      40.465  32.805  30.050  1.00  0.00    -0.354 N 
ATOM     36  C   UNL A   1      38.362  28.814  29.638  1.00  0.00     0.074 A 
ATOM     37  C   UNL A   1      37.573  29.095  28.470  1.00  0.00     0.031 C 
ATOM     38  C   UNL A   1      40.504  35.016  29.709  1.00  0.00     0.029 A 
ATOM     39  C   UNL A   1      41.351  33.836  29.780  1.00  0.00     0.049 A 
ATOM     40  H   UNL A   1      40.749  31.899  30.311  1.00  0.00     0.167 HD
ATOM     41  C   UNL A   1      39.162  27.751  29.916  1.00  0.00     0.031 A 
ATOM     42  C   UNL A   1      42.681  33.724  29.561  1.00  0.00     0.031 A 
ATOM     43  C   UNL A   1      39.801  27.889  31.197  1.00  0.00     0.049 A 
ATOM     44  C   UNL A   1      43.134  32.427  30.101  1.00  0.00     0.074 A 
ATOM     45  C   UNL A   1      39.442  27.760  32.518  1.00  0.00     0.029 A 
ATOM     46  N   UNL A   1      40.982  28.582  31.155  1.00  0.00    -0.354 N 
ATOM     47  N   UNL A   1      43.162  32.155  31.374  1.00  0.00    -0.248 NA
ATOM     48  C   UNL A   1      43.267  31.275  29.216  1.00  0.00     0.031 C 
ATOM     49  C   UNL A   1      40.354  28.574  33.255  1.00  0.00     0.029 A 
ATOM     50  C   UNL A   1      41.253  29.158  32.364  1.00  0.00     0.049 A 
ATOM     51  H   UNL A   1      41.559  28.655  30.360  1.00  0.00     0.167 HD
ATOM     52  C   UNL A   1      42.868  30.807  31.442  1.00  0.00     0.074 A 
ATOM     53  C   UNL A   1      43.141  30.288  30.109  1.00  0.00     0.031 C 
ATOM     54  C   UNL A   1      42.124  30.309  32.470  1.00  0.00     0.031 A 
BRANCH  41  55
ATOM     55  C   UNL A   1      39.799  26.915  28.822  1.00  0.00    -0.014 A 
ATOM     56  C   UNL A   1      40.703  27.547  27.950  1.00  0.00     0.009 A 
ATOM     57  C   UNL A   1      39.313  25.657  28.417  1.00  0.00     0.009 A 
ATOM     58  C   UNL A   1      41.026  26.993  26.705  1.00  0.00     0.001 A 
ATOM     59  C   UNL A   1      39.658  25.084  27.191  1.00  0.00     0.001 A 
ATOM     60  C   UNL A   1      40.492  25.768  26.320  1.00  0.00     0.000 A 
ENDBRANCH  41  55
BRANCH  42  61
ATOM     61  C   UNL A   1      43.559  34.581  28.746  1.00  0.00    -0.014 A 
ATOM     62  C   UNL A   1      43.533  34.504  27.347  1.00  0.00     0.009 A 
ATOM     63  C   UNL A   1      44.241  35.660  29.337  1.00  0.00     0.009 A 
ATOM     64  C   UNL A   1      44.132  35.498  26.564  1.00  0.00     0.001 A 
ATOM     65  C   UNL A   1      44.844  36.650  28.557  1.00  0.00     0.001 A 
ATOM     66  C   UNL A   1      44.775  36.576  27.169  1.00  0.00     0.000 A 
ENDBRANCH  42  61
BRANCH  54  67
ATOM     67  C   UNL A   1      42.045  31.135  33.721  1.00  0.00    -0.014 A 
ATOM     68  C   UNL A   1      43.051  31.148  34.701  1.00  0.00     0.009 A 
ATOM     69  C   UNL A   1      40.940  31.983  33.880  1.00  0.00     0.009 A 
ATOM     70  C   UNL A   1      42.935  31.966  35.829  1.00  0.00     0.001 A 
ATOM     71  C   UNL A   1      40.835  32.816  34.994  1.00  0.00     0.001 A 
ATOM     72  C   UNL A   1      41.828  32.801  35.972  1.00  0.00     0.000 A 
ENDBRANCH  54  67
ENDBRANCH  28  29
ENDBRANCH  21  23
ENDBRANCH  20  21
ENDBRANCH  19  20
ENDBRANCH   1  19
TORSDOF 15
ENDMDL
MODEL 3
REMARK VINA RESULT:      -9.7      4.594      9.106
REMARK SMILES CC(C)(Cn1ccnc1C(N)=S)C(=O)OCCOC(=O)c1ccc(-c2c3nc(c(-c4ccccc4)c4ccc([nH]4)c(-c4ccccc4)c4nc(c(-c5ccccc5)c5ccc2[nH]5)C=C4)C=C3)cc1
REMARK SMILES IDX 16 1 15 2 13 3 14 4 2 5 1 6 3 7 4 8 5 9 6 10 9 11 7 12 8 13
REMARK SMILES IDX 10 14 12 15 11 16 17 19 18 20 19 21 20 22 21 23 22 24 68 25
REMARK SMILES IDX 23 26 67 27 24 28 25 29 26 30 61 31 27 32 66 33 60 34 62 35
REMARK SMILES IDX 28 36 65 37 59 38 58 39 29 41 51 42 36 43 50 44 37 45 40 46
REMARK SMILES IDX 49 47 63 48 38 49 39 50 48 52 64 53 41 54 30 55 31 56 35 57
REMARK SMILES IDX 32 58 34 59 33 60 52 61 53 62 57 63 54 64 56 65 55 66 42 67
REMARK SMILES IDX 43 68 47 69 44 70 46 71 45 72
REMARK H PARENT 11 17 11 18 62 40 40 51
REMARK Flexibility Score: inf
ROOT
ATOM      1  C   UNL A   1      39.729  21.064  26.168  1.00  0.00     0.274 C 
ENDROOT
BRANCH   1   2
ATOM      2  O   UNL A   1      38.571  21.914  25.999  1.00  0.00    -0.462 OA
BRANCH   2   3
ATOM      3  C   UNL A   1      37.549  21.390  25.268  1.00  0.00     0.313 C 
ATOM      4  O   UNL A   1      37.636  20.343  24.631  1.00  0.00    -0.252 OA
BRANCH   3   5
ATOM      5  C   UNL A   1      36.282  22.259  25.272  1.00  0.00     0.080 C 
ATOM      6  C   UNL A   1      35.792  22.448  23.821  1.00  0.00     0.025 C 
ATOM      7  C   UNL A   1      36.793  23.626  25.777  1.00  0.00     0.025 C 
BRANCH   5   8
ATOM      8  C   UNL A   1      35.121  21.822  26.223  1.00  0.00     0.142 C 
BRANCH   8   9
ATOM      9  N   UNL A   1      33.746  21.708  25.754  1.00  0.00    -0.328 N 
ATOM     10  C   UNL A   1      32.873  22.777  25.710  1.00  0.00     0.108 A 
ATOM     11  C   UNL A   1      33.008  20.577  25.422  1.00  0.00     0.167 A 
ATOM     12  C   UNL A   1      31.692  22.283  25.224  1.00  0.00     0.131 A 
ATOM     13  N   UNL A   1      31.790  20.941  25.019  1.00  0.00    -0.235 NA
BRANCH  11  14
ATOM     14  C   UNL A   1      33.324  19.158  25.400  1.00  0.00     0.140 C 
ATOM     15  S   UNL A   1      34.228  18.373  24.249  1.00  0.00    -0.057 S 
BRANCH  14  16
ATOM     16  N   UNL A   1      32.899  18.463  26.504  1.00  0.00    -0.387 N 
ATOM     17  H   UNL A   1      32.781  18.927  27.363  1.00  0.00     0.157 HD
ATOM     18  H   UNL A   1      32.713  17.498  26.436  1.00  0.00     0.157 HD
ENDBRANCH  14  16
ENDBRANCH  11  14
ENDBRANCH   8   9
ENDBRANCH   5   8
ENDBRANCH   3   5
ENDBRANCH   2   3
ENDBRANCH   1   2
BRANCH   1  19
ATOM     19  C   UNL A   1      40.647  21.543  27.297  1.00  0.00     0.275 C 
BRANCH  19  20
ATOM     20  O   UNL A   1      40.643  22.961  27.538  1.00  0.00    -0.458 OA
BRANCH  20  21
ATOM     21  C   UNL A   1      41.601  23.618  26.860  1.00  0.00     0.338 C 
ATOM     22  O   UNL A   1      42.578  23.133  26.328  1.00  0.00    -0.246 OA
BRANCH  21  23
ATOM     23  C   UNL A   1      41.581  25.057  27.063  1.00  0.00     0.060 A 
ATOM     24  C   UNL A   1      42.020  25.487  28.324  1.00  0.00     0.016 A 
ATOM     25  C   UNL A   1      40.873  25.890  26.197  1.00  0.00     0.016 A 
ATOM     26  C   UNL A   1      41.620  26.713  28.785  1.00  0.00     0.010 A 
ATOM     27  C   UNL A   1      40.510  27.140  26.646  1.00  0.00     0.010 A 
ATOM     28  C   UNL A   1      40.840  27.516  27.953  1.00  0.00    -0.014 A 
BRANCH  28  29
ATOM     29  C   UNL A   1      40.583  28.865  28.420  1.00  0.00     0.031 A 
ATOM     30  C   UNL A   1      41.762  29.753  28.257  1.00  0.00     0.074 A 
ATOM     31  C   UNL A   1      39.365  29.283  28.807  1.00  0.00     0.049 A 
ATOM     32  N   UNL A   1      42.380  30.432  29.163  1.00  0.00    -0.248 NA
ATOM     33  C   UNL A   1      42.434  29.750  26.942  1.00  0.00     0.031 C 
ATOM     34  C   UNL A   1      38.112  28.528  28.737  1.00  0.00     0.029 A 
ATOM     35  N   UNL A   1      38.966  30.524  29.199  1.00  0.00    -0.354 N 
ATOM     36  C   UNL A   1      43.404  31.098  28.493  1.00  0.00     0.074 A 
ATOM     37  C   UNL A   1      43.502  30.505  27.187  1.00  0.00     0.031 C 
ATOM     38  C   UNL A   1      37.076  29.391  28.813  1.00  0.00     0.029 A 
ATOM     39  C   UNL A   1      37.599  30.722  29.078  1.00  0.00     0.049 A 
ATOM     40  H   UNL A   1      39.586  31.212  29.534  1.00  0.00     0.167 HD
ATOM     41  C   UNL A   1      43.873  32.289  28.948  1.00  0.00     0.031 A 
ATOM     42  C   UNL A   1      36.944  31.904  29.124  1.00  0.00     0.031 A 
ATOM     43  C   UNL A   1      43.517  32.509  30.325  1.00  0.00     0.049 A 
ATOM     44  C   UNL A   1      37.821  32.897  29.775  1.00  0.00     0.074 A 
ATOM     45  C   UNL A   1      43.936  32.056  31.555  1.00  0.00     0.029 A 
ATOM     46  N   UNL A   1      42.290  33.093  30.494  1.00  0.00    -0.354 N 
ATOM     47  N   UNL A   1      38.141  32.847  31.036  1.00  0.00    -0.248 NA
ATOM     48  C   UNL A   1      38.631  33.799  28.963  1.00  0.00     0.031 C 
ATOM     49  C   UNL A   1      42.822  32.217  32.432  1.00  0.00     0.029 A 
ATOM     50  C   UNL A   1      41.766  32.782  31.717  1.00  0.00     0.049 A 
ATOM     51  H   UNL A   1      41.845  33.660  29.824  1.00  0.00     0.167 HD
ATOM     52  C   UNL A   1      39.429  33.343  31.081  1.00  0.00     0.074 A 
ATOM     53  C   UNL A   1      39.597  34.087  29.840  1.00  0.00     0.031 C 
ATOM     54  C   UNL A   1      40.340  32.834  31.959  1.00  0.00     0.031 A 
BRANCH  41  55
ATOM     55  C   UNL A   1      44.126  33.463  28.021  1.00  0.00    -0.014 A 
ATOM     56  C   UNL A   1      43.845  34.755  28.501  1.00  0.00     0.009 A 
ATOM     57  C   UNL A   1      44.304  33.336  26.630  1.00  0.00     0.009 A 
ATOM     58  C   UNL A   1      43.662  35.835  27.628  1.00  0.00     0.001 A 
ATOM     59  C   UNL A   1      44.156  34.417  25.758  1.00  0.00     0.001 A 
ATOM     60  C   UNL A   1      43.804  35.663  26.255  1.00  0.00     0.000 A 
ENDBRANCH  41  55
BRANCH  42  61
ATOM     61  C   UNL A   1      35.680  32.286  28.471  1.00  0.00    -0.014 A 
ATOM     62  C   UNL A   1      34.835  31.310  27.926  1.00  0.00     0.009 A 
ATOM     63  C   UNL A   1      35.179  33.593  28.612  1.00  0.00     0.009 A 
ATOM     64  C   UNL A   1      33.517  31.621  27.572  1.00  0.00     0.001 A 
ATOM     65  C   UNL A   1      33.864  33.906  28.254  1.00  0.00     0.001 A 
ATOM     66  C   UNL A   1      33.029  32.914  27.749  1.00  0.00     0.000 A 
ENDBRANCH  42  61
BRANCH  54  67
ATOM     67  C   UNL A   1      39.804  32.092  33.149  1.00  0.00    -0.014 A 
ATOM     68  C   UNL A   1      39.527  30.715  33.138  1.00  0.00     0.009 A 
ATOM     69  C   UNL A   1      39.637  32.802  34.346  1.00  0.00     0.009 A 
ATOM     70  C   UNL A   1      39.062  30.074  34.289  1.00  0.00     0.001 A 
ATOM     71  C   UNL A   1      39.195  32.158  35.501  1.00  0.00     0.001 A 
ATOM     72  C   UNL A   1      38.899  30.796  35.470  1.00  0.00     0.000 A 
ENDBRANCH  54  67
ENDBRANCH  28  29
ENDBRANCH  21  23
ENDBRANCH  20  21
ENDBRANCH  19  20
ENDBRANCH   1  19
TORSDOF 15
ENDMDL
