MODEL 1
REMARK VINA RESULT:      -9.9      0.000      0.000
REMARK SMILES O=C(OCCOC(=O)c1ccc(C(F)(F)F)nc1NC[C@@H]1CCOC1)c1ccc(-c2c3nc(c(-c4ccccc4)c4ccc([nH]4)c(-c4ccccc4)c4nc(c(-c5ccccc5)c5ccc2[nH]5)C=C4)C=C3)cc1
REMARK SMILES IDX 5 1 4 2 3 3 2 4 1 5 26 6 27 7 73 8 28 9 72 10 29 11 30 12
REMARK SMILES IDX 31 13 66 14 32 15 71 16 65 17 67 18 33 19 70 20 64 21 63 22
REMARK SMILES IDX 34 24 56 25 41 26 55 27 42 28 45 29 54 30 68 31 43 32 44 33
REMARK SMILES IDX 53 35 69 36 46 37 35 38 36 39 40 40 37 41 39 42 38 43 57 44
REMARK SMILES IDX 58 45 62 46 59 47 61 48 60 49 47 50 48 51 52 52 49 53 51 54
REMARK SMILES IDX 50 55 6 56 7 57 8 58 9 59 10 60 18 61 11 62 17 63 12 64
REMARK SMILES IDX 19 65 20 67 21 68 22 69 25 70 23 71 24 72 13 73 14 74 15 75
REMARK SMILES IDX 16 76
REMARK H PARENT 67 23 45 34 19 66
REMARK Flexibility Score: inf
ROOT
ATOM      1  C   UNL A   1      42.348  18.448  26.319  1.00  0.00     0.275 C 
ENDROOT
BRANCH   1   2
ATOM      2  C   UNL A   1      43.809  18.176  25.946  1.00  0.00     0.275 C 
BRANCH   2   3
ATOM      3  O   UNL A   1      44.144  18.507  24.589  1.00  0.00    -0.458 OA
BRANCH   3   4
ATOM      4  C   UNL A   1      45.125  19.339  24.161  1.00  0.00     0.338 C 
ATOM      5  O   UNL A   1      46.159  18.865  23.698  1.00  0.00    -0.246 OA
BRANCH   4   6
ATOM      6  C   UNL A   1      45.077  20.811  24.428  1.00  0.00     0.060 A 
ATOM      7  C   UNL A   1      44.819  21.822  23.498  1.00  0.00     0.016 A 
ATOM      8  C   UNL A   1      45.311  21.192  25.757  1.00  0.00     0.016 A 
ATOM      9  C   UNL A   1      44.711  23.160  23.891  1.00  0.00     0.010 A 
ATOM     10  C   UNL A   1      45.164  22.515  26.168  1.00  0.00     0.010 A 
ATOM     11  C   UNL A   1      44.888  23.513  25.226  1.00  0.00    -0.014 A 
BRANCH  11  12
ATOM     12  C   UNL A   1      45.069  24.926  25.612  1.00  0.00     0.031 A 
ATOM     13  C   UNL A   1      46.479  25.429  25.682  1.00  0.00     0.074 A 
ATOM     14  C   UNL A   1      44.034  25.733  25.903  1.00  0.00     0.049 A 
ATOM     15  N   UNL A   1      46.930  26.581  26.099  1.00  0.00    -0.248 NA
ATOM     16  C   UNL A   1      47.523  24.504  25.207  1.00  0.00     0.031 C 
ATOM     17  C   UNL A   1      42.622  25.395  25.754  1.00  0.00     0.029 A 
ATOM     18  N   UNL A   1      44.018  26.999  26.428  1.00  0.00    -0.354 N 
ATOM     19  C   UNL A   1      48.305  26.512  25.931  1.00  0.00     0.074 A 
ATOM     20  C   UNL A   1      48.624  25.183  25.469  1.00  0.00     0.031 C 
ATOM     21  C   UNL A   1      41.875  26.379  26.283  1.00  0.00     0.029 A 
ATOM     22  C   UNL A   1      42.761  27.424  26.784  1.00  0.00     0.049 A 
ATOM     23  H   UNL A   1      44.826  27.550  26.538  1.00  0.00     0.167 HD
ATOM     24  C   UNL A   1      49.220  27.490  26.100  1.00  0.00     0.031 A 
ATOM     25  C   UNL A   1      42.377  28.524  27.458  1.00  0.00     0.031 A 
ATOM     26  C   UNL A   1      48.887  28.799  26.577  1.00  0.00     0.049 A 
ATOM     27  C   UNL A   1      43.420  29.555  27.787  1.00  0.00     0.074 A 
ATOM     28  C   UNL A   1      49.714  29.887  26.773  1.00  0.00     0.029 A 
ATOM     29  N   UNL A   1      47.606  29.187  26.951  1.00  0.00    -0.354 N 
ATOM     30  N   UNL A   1      44.713  29.512  27.571  1.00  0.00    -0.248 NA
ATOM     31  C   UNL A   1      42.952  30.808  28.394  1.00  0.00     0.031 C 
ATOM     32  C   UNL A   1      48.944  30.915  27.324  1.00  0.00     0.029 A 
ATOM     33  C   UNL A   1      47.624  30.490  27.405  1.00  0.00     0.049 A 
ATOM     34  H   UNL A   1      46.805  28.616  26.900  1.00  0.00     0.167 HD
ATOM     35  C   UNL A   1      45.206  30.754  27.947  1.00  0.00     0.074 A 
ATOM     36  C   UNL A   1      44.072  31.519  28.432  1.00  0.00     0.031 C 
ATOM     37  C   UNL A   1      46.473  31.228  27.866  1.00  0.00     0.031 A 
BRANCH  24  38
ATOM     38  C   UNL A   1      50.646  27.130  25.793  1.00  0.00    -0.014 A 
ATOM     39  C   UNL A   1      51.569  26.860  26.820  1.00  0.00     0.009 A 
ATOM     40  C   UNL A   1      51.096  27.152  24.465  1.00  0.00     0.009 A 
ATOM     41  C   UNL A   1      52.924  26.698  26.530  1.00  0.00     0.001 A 
ATOM     42  C   UNL A   1      52.446  26.950  24.175  1.00  0.00     0.001 A 
ATOM     43  C   UNL A   1      53.362  26.745  25.207  1.00  0.00     0.000 A 
ENDBRANCH  24  38
BRANCH  25  44
ATOM     44  C   UNL A   1      40.949  28.707  27.828  1.00  0.00    -0.014 A 
ATOM     45  C   UNL A   1      40.013  29.181  26.897  1.00  0.00     0.009 A 
ATOM     46  C   UNL A   1      40.510  28.380  29.122  1.00  0.00     0.009 A 
ATOM     47  C   UNL A   1      38.672  29.339  27.258  1.00  0.00     0.001 A 
ATOM     48  C   UNL A   1      39.165  28.522  29.474  1.00  0.00     0.001 A 
ATOM     49  C   UNL A   1      38.248  29.007  28.544  1.00  0.00     0.000 A 
ENDBRANCH  25  44
BRANCH  37  50
ATOM     50  C   UNL A   1      46.703  32.664  28.237  1.00  0.00    -0.014 A 
ATOM     51  C   UNL A   1      47.096  33.035  29.530  1.00  0.00     0.009 A 
ATOM     52  C   UNL A   1      46.633  33.643  27.232  1.00  0.00     0.009 A 
ATOM     53  C   UNL A   1      47.408  34.366  29.810  1.00  0.00     0.001 A 
ATOM     54  C   UNL A   1      46.976  34.965  27.509  1.00  0.00     0.001 A 
ATOM     55  C   UNL A   1      47.359  35.326  28.799  1.00  0.00     0.000 A 
ENDBRANCH  37  50
ENDBRANCH  11  12
ENDBRANCH   4   6
ENDBRANCH   3   4
ENDBRANCH   2   3
ENDBRANCH   1   2
BRANCH   1  56
ATOM     56  O   UNL A   1      41.707  19.456  25.516  1.00  0.00    -0.458 OA
BRANCH  56  57
ATOM     57  C   UNL A   1      40.395  19.681  25.811  1.00  0.00     0.342 C 
ATOM     58  O   UNL A   1      39.494  18.869  25.751  1.00  0.00    -0.246 OA
BRANCH  57  59
ATOM     59  C   UNL A   1      40.222  21.060  26.311  1.00  0.00     0.102 A 
ATOM     60  C   UNL A   1      41.187  21.638  27.140  1.00  0.00     0.022 A 
ATOM     61  C   UNL A   1      39.091  21.799  25.956  1.00  0.00     0.141 A 
ATOM     62  C   UNL A   1      40.971  22.915  27.654  1.00  0.00     0.034 A 
ATOM     63  N   UNL A   1      38.873  23.019  26.505  1.00  0.00    -0.226 NA
ATOM     64  C   UNL A   1      39.773  23.561  27.370  1.00  0.00     0.146 A 
BRANCH  61  65
ATOM     65  N   UNL A   1      38.091  21.274  25.155  1.00  0.00    -0.369 N 
ATOM     66  H   UNL A   1      37.887  20.312  25.205  1.00  0.00     0.162 HD
BRANCH  65  67
ATOM     67  C   UNL A   1      37.338  22.115  24.241  1.00  0.00     0.120 C 
BRANCH  67  68
ATOM     68  C   UNL A   1      35.820  21.890  24.293  1.00  0.00     0.036 C 
ATOM     69  C   UNL A   1      35.076  23.112  24.797  1.00  0.00     0.036 C 
ATOM     70  C   UNL A   1      35.354  20.832  25.278  1.00  0.00     0.165 C 
ATOM     71  C   UNL A   1      35.068  22.915  26.295  1.00  0.00     0.160 C 
ATOM     72  O   UNL A   1      35.118  21.500  26.527  1.00  0.00    -0.381 OA
ENDBRANCH  67  68
ENDBRANCH  65  67
ENDBRANCH  61  65
BRANCH  64  73
ATOM     73  C   UNL A   1      39.400  24.858  28.076  1.00  0.00     0.433 C 
ATOM     74  F   UNL A   1      40.412  25.360  28.840  1.00  0.00    -0.165 F 
ATOM     75  F   UNL A   1      39.059  25.853  27.206  1.00  0.00    -0.165 F 
ATOM     76  F   UNL A   1      38.336  24.732  28.924  1.00  0.00    -0.165 F 
ENDBRANCH  64  73
ENDBRANCH  57  59
ENDBRANCH  56  57
ENDBRANCH   1  56
TORSDOF 15
ENDMDL
MODEL 2
REMARK VINA RESULT:      -9.7      2.788      4.284
REMARK SMILES O=C(OCCOC(=O)c1ccc(C(F)(F)F)nc1NC[C@@H]1CCOC1)c1ccc(-c2c3nc(c(-c4ccccc4)c4ccc([nH]4)c(-c4ccccc4)c4nc(c(-c5ccccc5)c5ccc2[nH]5)C=C4)C=C3)cc1
REMARK SMILES IDX 5 1 4 2 3 3 2 4 1 5 26 6 27 7 73 8 28 9 72 10 29 11 30 12
REMARK SMILES IDX 31 13 66 14 32 15 71 16 65 17 67 18 33 19 70 20 64 21 63 22
REMARK SMILES IDX 34 24 56 25 41 26 55 27 42 28 45 29 54 30 68 31 43 32 44 33
REMARK SMILES IDX 53 35 69 36 46 37 35 38 36 39 40 40 37 41 39 42 38 43 57 44
REMARK SMILES IDX 58 45 62 46 59 47 61 48 60 49 47 50 48 51 52 52 49 53 51 54
REMARK SMILES IDX 50 55 6 56 7 57 8 58 9 59 10 60 18 61 11 62 17 63 12 64
REMARK SMILES IDX 19 65 20 67 21 68 22 69 25 70 23 71 24 72 13 73 14 74 15 75
REMARK SMILES IDX 16 76
REMARK H PARENT 67 23 45 34 19 66
REMARK Flexibility Score: inf
ROOT
ATOM      1  C   UNL A   1      37.706  19.656  24.999  1.00  0.00     0.275 C 
ENDROOT
BRANCH   1   2
ATOM      2  C   UNL A   1      38.952  20.131  25.755  1.00  0.00     0.275 C 
BRANCH   2   3
ATOM      3  O   UNL A   1      40.046  19.200  25.735  1.00  0.00    -0.458 OA
BRANCH   3   4
ATOM      4  C   UNL A   1      41.345  19.447  26.033  1.00  0.00     0.338 C 
ATOM      5  O   UNL A   1      42.137  18.510  26.104  1.00  0.00    -0.246 OA
BRANCH   4   6
ATOM      6  C   UNL A   1      41.803  20.798  26.485  1.00  0.00     0.060 A 
ATOM      7  C   UNL A   1      41.944  21.236  27.804  1.00  0.00     0.016 A 
ATOM      8  C   UNL A   1      42.125  21.701  25.460  1.00  0.00     0.016 A 
ATOM      9  C   UNL A   1      42.470  22.498  28.099  1.00  0.00     0.010 A 
ATOM     10  C   UNL A   1      42.690  22.943  25.741  1.00  0.00     0.010 A 
ATOM     11  C   UNL A   1      42.841  23.358  27.069  1.00  0.00    -0.014 A 
BRANCH  11  12
ATOM     12  C   UNL A   1      43.118  24.782  27.342  1.00  0.00     0.031 A 
ATOM     13  C   UNL A   1      44.558  25.199  27.341  1.00  0.00     0.074 A 
ATOM     14  C   UNL A   1      42.144  25.672  27.592  1.00  0.00     0.049 A 
ATOM     15  N   UNL A   1      45.090  26.348  27.657  1.00  0.00    -0.248 NA
ATOM     16  C   UNL A   1      45.531  24.176  26.915  1.00  0.00     0.031 C 
ATOM     17  C   UNL A   1      40.710  25.415  27.501  1.00  0.00     0.029 A 
ATOM     18  N   UNL A   1      42.219  26.974  28.017  1.00  0.00    -0.354 N 
ATOM     19  C   UNL A   1      46.454  26.180  27.465  1.00  0.00     0.074 A 
ATOM     20  C   UNL A   1      46.677  24.802  27.100  1.00  0.00     0.031 C 
ATOM     21  C   UNL A   1      40.040  26.481  27.968  1.00  0.00     0.029 A 
ATOM     22  C   UNL A   1      41.001  27.503  28.368  1.00  0.00     0.049 A 
ATOM     23  H   UNL A   1      43.063  27.479  28.066  1.00  0.00     0.167 HD
ATOM     24  C   UNL A   1      47.432  27.108  27.537  1.00  0.00     0.031 A 
ATOM     25  C   UNL A   1      40.705  28.673  28.963  1.00  0.00     0.031 A 
ATOM     26  C   UNL A   1      47.192  28.468  27.919  1.00  0.00     0.049 A 
ATOM     27  C   UNL A   1      41.817  29.658  29.188  1.00  0.00     0.074 A 
ATOM     28  C   UNL A   1      48.090  29.513  28.012  1.00  0.00     0.029 A 
ATOM     29  N   UNL A   1      45.948  28.963  28.290  1.00  0.00    -0.354 N 
ATOM     30  N   UNL A   1      43.099  29.516  28.947  1.00  0.00    -0.248 NA
ATOM     31  C   UNL A   1      41.443  30.980  29.707  1.00  0.00     0.031 C 
ATOM     32  C   UNL A   1      47.399  30.626  28.499  1.00  0.00     0.029 A 
ATOM     33  C   UNL A   1      46.058  30.293  28.642  1.00  0.00     0.049 A 
ATOM     34  H   UNL A   1      45.113  28.442  28.301  1.00  0.00     0.167 HD
ATOM     35  C   UNL A   1      43.677  30.750  29.215  1.00  0.00     0.074 A 
ATOM     36  C   UNL A   1      42.606  31.620  29.665  1.00  0.00     0.031 C 
ATOM     37  C   UNL A   1      44.968  31.135  29.070  1.00  0.00     0.031 A 
BRANCH  24  38
ATOM     38  C   UNL A   1      48.823  26.636  27.227  1.00  0.00    -0.014 A 
ATOM     39  C   UNL A   1      49.303  26.594  25.905  1.00  0.00     0.009 A 
ATOM     40  C   UNL A   1      49.633  26.140  28.259  1.00  0.00     0.009 A 
ATOM     41  C   UNL A   1      50.529  25.993  25.615  1.00  0.00     0.001 A 
ATOM     42  C   UNL A   1      50.877  25.576  27.969  1.00  0.00     0.001 A 
ATOM     43  C   UNL A   1      51.314  25.483  26.647  1.00  0.00     0.000 A 
ENDBRANCH  24  38
BRANCH  25  44
ATOM     44  C   UNL A   1      39.301  28.974  29.349  1.00  0.00    -0.014 A 
ATOM     45  C   UNL A   1      38.817  28.662  30.628  1.00  0.00     0.009 A 
ATOM     46  C   UNL A   1      38.439  29.605  28.436  1.00  0.00     0.009 A 
ATOM     47  C   UNL A   1      37.497  28.959  30.979  1.00  0.00     0.001 A 
ATOM     48  C   UNL A   1      37.125  29.918  28.796  1.00  0.00     0.001 A 
ATOM     49  C   UNL A   1      36.653  29.590  30.065  1.00  0.00     0.000 A 
ENDBRANCH  25  44
BRANCH  37  50
ATOM     50  C   UNL A   1      45.296  32.577  29.324  1.00  0.00    -0.014 A 
ATOM     51  C   UNL A   1      45.733  33.022  30.578  1.00  0.00     0.009 A 
ATOM     52  C   UNL A   1      45.272  33.478  28.245  1.00  0.00     0.009 A 
ATOM     53  C   UNL A   1      46.134  34.348  30.749  1.00  0.00     0.001 A 
ATOM     54  C   UNL A   1      45.704  34.792  28.413  1.00  0.00     0.001 A 
ATOM     55  C   UNL A   1      46.131  35.227  29.666  1.00  0.00     0.000 A 
ENDBRANCH  37  50
ENDBRANCH  11  12
ENDBRANCH   4   6
ENDBRANCH   3   4
ENDBRANCH   2   3
ENDBRANCH   1   2
BRANCH   1  56
ATOM     56  O   UNL A   1      36.510  20.398  25.299  1.00  0.00    -0.458 OA
BRANCH  56  57
ATOM     57  C   UNL A   1      36.324  21.521  24.550  1.00  0.00     0.342 C 
ATOM     58  O   UNL A   1      37.075  21.950  23.697  1.00  0.00    -0.246 OA
BRANCH  57  59
ATOM     59  C   UNL A   1      35.011  22.120  24.859  1.00  0.00     0.102 A 
ATOM     60  C   UNL A   1      34.919  23.454  25.264  1.00  0.00     0.022 A 
ATOM     61  C   UNL A   1      33.846  21.355  24.748  1.00  0.00     0.141 A 
ATOM     62  C   UNL A   1      33.677  23.979  25.615  1.00  0.00     0.034 A 
ATOM     63  N   UNL A   1      32.654  21.866  25.142  1.00  0.00    -0.226 NA
ATOM     64  C   UNL A   1      32.566  23.143  25.605  1.00  0.00     0.146 A 
BRANCH  61  65
ATOM     65  N   UNL A   1      33.875  20.023  24.372  1.00  0.00    -0.369 N 
ATOM     66  H   UNL A   1      34.313  19.768  23.528  1.00  0.00     0.162 HD
BRANCH  65  67
ATOM     67  C   UNL A   1      33.271  18.994  25.201  1.00  0.00     0.120 C 
BRANCH  67  68
ATOM     68  C   UNL A   1      32.466  17.951  24.413  1.00  0.00     0.036 C 
ATOM     69  C   UNL A   1      33.013  16.548  24.594  1.00  0.00     0.036 C 
ATOM     70  C   UNL A   1      32.518  18.097  22.902  1.00  0.00     0.165 C 
ATOM     71  C   UNL A   1      34.053  16.441  23.504  1.00  0.00     0.160 C 
ATOM     72  O   UNL A   1      33.636  17.317  22.447  1.00  0.00    -0.381 OA
ENDBRANCH  67  68
ENDBRANCH  65  67
ENDBRANCH  61  65
BRANCH  64  73
ATOM     73  C   UNL A   1      31.235  23.608  26.181  1.00  0.00     0.433 C 
ATOM     74  F   UNL A   1      30.452  22.580  26.617  1.00  0.00    -0.165 F 
ATOM     75  F   UNL A   1      31.385  24.443  27.251  1.00  0.00    -0.165 F 
ATOM     76  F   UNL A   1      30.463  24.295  25.286  1.00  0.00    -0.165 F 
ENDBRANCH  64  73
ENDBRANCH  57  59
ENDBRANCH  56  57
ENDBRANCH   1  56
TORSDOF 15
ENDMDL
MODEL 3
REMARK VINA RESULT:      -9.6      6.485     11.312
REMARK SMILES O=C(OCCOC(=O)c1ccc(C(F)(F)F)nc1NC[C@@H]1CCOC1)c1ccc(-c2c3nc(c(-c4ccccc4)c4ccc([nH]4)c(-c4ccccc4)c4nc(c(-c5ccccc5)c5ccc2[nH]5)C=C4)C=C3)cc1
REMARK SMILES IDX 5 1 4 2 3 3 2 4 1 5 26 6 27 7 73 8 28 9 72 10 29 11 30 12
REMARK SMILES IDX 31 13 66 14 32 15 71 16 65 17 67 18 33 19 70 20 64 21 63 22
REMARK SMILES IDX 34 24 56 25 41 26 55 27 42 28 45 29 54 30 68 31 43 32 44 33
REMARK SMILES IDX 53 35 69 36 46 37 35 38 36 39 40 40 37 41 39 42 38 43 57 44
REMARK SMILES IDX 58 45 62 46 59 47 61 48 60 49 47 50 48 51 52 52 49 53 51 54
REMARK SMILES IDX 50 55 6 56 7 57 8 58 9 59 10 60 18 61 11 62 17 63 12 64
REMARK SMILES IDX 19 65 20 67 21 68 22 69 25 70 23 71 24 72 13 73 14 74 15 75
REMARK SMILES IDX 16 76
REMARK H PARENT 67 23 45 34 19 66
REMARK Flexibility Score: inf
ROOT
ATOM      1  C   UNL A   1      35.106  34.077  29.158  1.00  0.00     0.275 C 
ENDROOT
BRANCH   1   2
ATOM      2  C   UNL A   1      34.709  33.299  27.897  1.00  0.00     0.275 C 
BRANCH   2   3
ATOM      3  O   UNL A   1      34.017  32.068  28.156  1.00  0.00    -0.458 OA
BRANCH   3   4
ATOM      4  C   UNL A   1      34.431  30.812  27.858  1.00  0.00     0.338 C 
ATOM      5  O   UNL A   1      33.649  30.030  27.322  1.00  0.00    -0.246 OA
BRANCH   4   6
ATOM      6  C   UNL A   1      35.740  30.279  28.350  1.00  0.00     0.060 A 
ATOM      7  C   UNL A   1      36.012  29.771  29.624  1.00  0.00     0.016 A 
ATOM      8  C   UNL A   1      36.788  30.296  27.418  1.00  0.00     0.016 A 
ATOM      9  C   UNL A   1      37.257  29.217  29.935  1.00  0.00     0.010 A 
ATOM     10  C   UNL A   1      38.019  29.708  27.703  1.00  0.00     0.010 A 
ATOM     11  C   UNL A   1      38.267  29.187  28.978  1.00  0.00    -0.014 A 
BRANCH  11  12
ATOM     12  C   UNL A   1      39.660  28.882  29.362  1.00  0.00     0.031 A 
ATOM     13  C   UNL A   1      40.191  27.541  28.956  1.00  0.00     0.074 A 
ATOM     14  C   UNL A   1      40.424  29.745  30.052  1.00  0.00     0.049 A 
ATOM     15  N   UNL A   1      41.326  26.972  29.256  1.00  0.00    -0.248 NA
ATOM     16  C   UNL A   1      39.320  26.734  28.083  1.00  0.00     0.031 C 
ATOM     17  C   UNL A   1      40.062  31.117  30.396  1.00  0.00     0.029 A 
ATOM     18  N   UNL A   1      41.657  29.575  30.627  1.00  0.00    -0.354 N 
ATOM     19  C   UNL A   1      41.300  25.747  28.605  1.00  0.00     0.074 A 
ATOM     20  C   UNL A   1      40.008  25.613  27.978  1.00  0.00     0.031 C 
ATOM     21  C   UNL A   1      40.996  31.627  31.217  1.00  0.00     0.029 A 
ATOM     22  C   UNL A   1      42.030  30.622  31.434  1.00  0.00     0.049 A 
ATOM     23  H   UNL A   1      42.219  28.781  30.475  1.00  0.00     0.167 HD
ATOM     24  C   UNL A   1      42.288  24.833  28.497  1.00  0.00     0.031 A 
ATOM     25  C   UNL A   1      43.081  30.740  32.267  1.00  0.00     0.031 A 
ATOM     26  C   UNL A   1      43.559  24.976  29.143  1.00  0.00     0.049 A 
ATOM     27  C   UNL A   1      44.115  29.650  32.267  1.00  0.00     0.074 A 
ATOM     28  C   UNL A   1      44.653  24.135  29.098  1.00  0.00     0.029 A 
ATOM     29  N   UNL A   1      43.894  26.039  29.972  1.00  0.00    -0.354 N 
ATOM     30  N   UNL A   1      44.114  28.520  31.602  1.00  0.00    -0.248 NA
ATOM     31  C   UNL A   1      45.319  29.872  33.078  1.00  0.00     0.031 C 
ATOM     32  C   UNL A   1      45.628  24.658  29.951  1.00  0.00     0.029 A 
ATOM     33  C   UNL A   1      45.169  25.861  30.471  1.00  0.00     0.049 A 
ATOM     34  H   UNL A   1      43.308  26.804  30.174  1.00  0.00     0.167 HD
ATOM     35  C   UNL A   1      45.344  27.927  31.854  1.00  0.00     0.074 A 
ATOM     36  C   UNL A   1      46.053  28.813  32.758  1.00  0.00     0.031 C 
ATOM     37  C   UNL A   1      45.851  26.773  31.357  1.00  0.00     0.031 A 
BRANCH  24  38
ATOM     38  C   UNL A   1      41.980  23.611  27.680  1.00  0.00    -0.014 A 
ATOM     39  C   UNL A   1      41.333  22.497  28.247  1.00  0.00     0.009 A 
ATOM     40  C   UNL A   1      42.424  23.535  26.352  1.00  0.00     0.009 A 
ATOM     41  C   UNL A   1      41.209  21.308  27.527  1.00  0.00     0.001 A 
ATOM     42  C   UNL A   1      42.262  22.356  25.622  1.00  0.00     0.001 A 
ATOM     43  C   UNL A   1      41.676  21.238  26.215  1.00  0.00     0.000 A 
ENDBRANCH  24  38
BRANCH  25  44
ATOM     44  C   UNL A   1      43.209  31.942  33.133  1.00  0.00    -0.014 A 
ATOM     45  C   UNL A   1      42.679  31.961  34.431  1.00  0.00     0.009 A 
ATOM     46  C   UNL A   1      43.892  33.078  32.665  1.00  0.00     0.009 A 
ATOM     47  C   UNL A   1      42.815  33.096  35.236  1.00  0.00     0.001 A 
ATOM     48  C   UNL A   1      44.043  34.204  33.478  1.00  0.00     0.001 A 
ATOM     49  C   UNL A   1      43.499  34.215  34.761  1.00  0.00     0.000 A 
ENDBRANCH  25  44
BRANCH  37  50
ATOM     50  C   UNL A   1      47.268  26.426  31.711  1.00  0.00    -0.014 A 
ATOM     51  C   UNL A   1      47.579  25.678  32.854  1.00  0.00     0.009 A 
ATOM     52  C   UNL A   1      48.294  26.765  30.811  1.00  0.00     0.009 A 
ATOM     53  C   UNL A   1      48.895  25.281  33.093  1.00  0.00     0.001 A 
ATOM     54  C   UNL A   1      49.601  26.339  31.037  1.00  0.00     0.001 A 
ATOM     55  C   UNL A   1      49.901  25.601  32.180  1.00  0.00     0.000 A 
ENDBRANCH  37  50
ENDBRANCH  11  12
ENDBRANCH   4   6
ENDBRANCH   3   4
ENDBRANCH   2   3
ENDBRANCH   1   2
BRANCH   1  56
ATOM     56  O   UNL A   1      35.991  33.364  30.041  1.00  0.00    -0.458 OA
BRANCH  56  57
ATOM     57  C   UNL A   1      35.488  33.114  31.283  1.00  0.00     0.342 C 
ATOM     58  O   UNL A   1      34.397  32.645  31.538  1.00  0.00    -0.246 OA
BRANCH  57  59
ATOM     59  C   UNL A   1      36.507  33.416  32.308  1.00  0.00     0.102 A 
ATOM     60  C   UNL A   1      37.511  32.489  32.602  1.00  0.00     0.022 A 
ATOM     61  C   UNL A   1      36.477  34.634  32.992  1.00  0.00     0.141 A 
ATOM     62  C   UNL A   1      38.422  32.767  33.619  1.00  0.00     0.034 A 
ATOM     63  N   UNL A   1      37.339  34.866  34.012  1.00  0.00    -0.226 NA
ATOM     64  C   UNL A   1      38.275  33.939  34.353  1.00  0.00     0.146 A 
BRANCH  61  65
ATOM     65  N   UNL A   1      35.495  35.583  32.759  1.00  0.00    -0.369 N 
ATOM     66  H   UNL A   1      35.576  36.182  31.983  1.00  0.00     0.162 HD
BRANCH  65  67
ATOM     67  C   UNL A   1      34.348  35.710  33.642  1.00  0.00     0.120 C 
BRANCH  67  68
ATOM     68  C   UNL A   1      33.294  36.714  33.153  1.00  0.00     0.036 C 
ATOM     69  C   UNL A   1      32.116  36.030  32.486  1.00  0.00     0.036 C 
ATOM     70  C   UNL A   1      33.754  37.654  32.052  1.00  0.00     0.165 C 
ATOM     71  C   UNL A   1      32.553  35.922  31.044  1.00  0.00     0.160 C 
ATOM     72  O   UNL A   1      33.459  37.009  30.803  1.00  0.00    -0.381 OA
ENDBRANCH  67  68
ENDBRANCH  65  67
ENDBRANCH  61  65
BRANCH  64  73
ATOM     73  C   UNL A   1      39.108  34.185  35.604  1.00  0.00     0.433 C 
ATOM     74  F   UNL A   1      40.168  35.015  35.385  1.00  0.00    -0.165 F 
ATOM     75  F   UNL A   1      38.388  34.757  36.613  1.00  0.00    -0.165 F 
ATOM     76  F   UNL A   1      39.644  33.046  36.136  1.00  0.00    -0.165 F 
ENDBRANCH  64  73
ENDBRANCH  57  59
ENDBRANCH  56  57
ENDBRANCH   1  56
TORSDOF 15
ENDMDL
