MODEL 1
REMARK VINA RESULT:      -9.3      0.000      0.000
REMARK SMILES O=C(OCCOC(=O)[C@H](O)Cc1ccc(O)cc1)c1ccc(-c2c3nc(c(-c4ccccc4)c4ccc([nH]4)c(-c4ccccc4)c4nc(c(-c5ccccc5)c5ccc2[nH]5)C=C4)C=C3)cc1
REMARK SMILES IDX 5 1 4 2 3 3 2 4 1 5 19 6 20 7 66 8 21 9 65 10 22 11 23 12
REMARK SMILES IDX 24 13 59 14 25 15 64 16 58 17 60 18 26 19 63 20 57 21 56 22
REMARK SMILES IDX 27 24 49 25 34 26 48 27 35 28 38 29 47 30 61 31 36 32 37 33
REMARK SMILES IDX 46 35 62 36 39 37 28 38 29 39 33 40 30 41 32 42 31 43 50 44
REMARK SMILES IDX 51 45 55 46 52 47 54 48 53 49 40 50 41 51 45 52 42 53 44 54
REMARK SMILES IDX 43 55 6 56 7 57 8 58 9 59 11 60 12 61 13 62 18 63 14 64
REMARK SMILES IDX 17 65 15 66 16 67 10 69
REMARK H PARENT 60 23 38 34 16 68 10 70
REMARK Flexibility Score: inf
ROOT
ATOM      1  C   UNL A   1      32.561  36.407  30.687  1.00  0.00     0.274 C 
ENDROOT
BRANCH   1   2
ATOM      2  C   UNL A   1      33.106  36.378  29.256  1.00  0.00     0.275 C 
BRANCH   2   3
ATOM      3  O   UNL A   1      32.538  35.354  28.417  1.00  0.00    -0.458 OA
BRANCH   3   4
ATOM      4  C   UNL A   1      32.997  34.115  28.126  1.00  0.00     0.338 C 
ATOM      5  O   UNL A   1      32.224  33.296  27.630  1.00  0.00    -0.246 OA
BRANCH   4   6
ATOM      6  C   UNL A   1      34.347  33.624  28.534  1.00  0.00     0.060 A 
ATOM      7  C   UNL A   1      35.545  33.887  27.869  1.00  0.00     0.016 A 
ATOM      8  C   UNL A   1      34.396  32.815  29.690  1.00  0.00     0.016 A 
ATOM      9  C   UNL A   1      36.763  33.425  28.374  1.00  0.00     0.010 A 
ATOM     10  C   UNL A   1      35.611  32.352  30.203  1.00  0.00     0.010 A 
ATOM     11  C   UNL A   1      36.802  32.649  29.536  1.00  0.00    -0.014 A 
BRANCH  11  12
ATOM     12  C   UNL A   1      38.080  32.017  29.922  1.00  0.00     0.031 A 
ATOM     13  C   UNL A   1      38.946  32.719  30.923  1.00  0.00     0.074 A 
ATOM     14  C   UNL A   1      38.410  30.794  29.471  1.00  0.00     0.049 A 
ATOM     15  N   UNL A   1      40.009  32.280  31.542  1.00  0.00    -0.248 NA
ATOM     16  C   UNL A   1      38.538  34.081  31.305  1.00  0.00     0.031 C 
ATOM     17  C   UNL A   1      37.613  29.990  28.549  1.00  0.00     0.029 A 
ATOM     18  N   UNL A   1      39.504  30.012  29.738  1.00  0.00    -0.354 N 
ATOM     19  C   UNL A   1      40.364  33.288  32.426  1.00  0.00     0.074 A 
ATOM     20  C   UNL A   1      39.448  34.387  32.216  1.00  0.00     0.031 C 
ATOM     21  C   UNL A   1      38.260  28.838  28.298  1.00  0.00     0.029 A 
ATOM     22  C   UNL A   1      39.512  28.827  29.046  1.00  0.00     0.049 A 
ATOM     23  H   UNL A   1      40.214  30.275  30.367  1.00  0.00     0.167 HD
ATOM     24  C   UNL A   1      41.347  33.286  33.355  1.00  0.00     0.031 A 
ATOM     25  C   UNL A   1      40.433  27.845  29.022  1.00  0.00     0.031 A 
ATOM     26  C   UNL A   1      42.296  32.221  33.514  1.00  0.00     0.049 A 
ATOM     27  C   UNL A   1      41.617  27.939  29.941  1.00  0.00     0.074 A 
ATOM     28  C   UNL A   1      43.343  32.120  34.412  1.00  0.00     0.029 A 
ATOM     29  N   UNL A   1      42.326  31.078  32.728  1.00  0.00    -0.354 N 
ATOM     30  N   UNL A   1      41.905  28.868  30.821  1.00  0.00    -0.248 NA
ATOM     31  C   UNL A   1      42.581  26.832  29.893  1.00  0.00     0.031 C 
ATOM     32  C   UNL A   1      44.038  30.937  34.134  1.00  0.00     0.029 A 
ATOM     33  C   UNL A   1      43.392  30.278  33.099  1.00  0.00     0.049 A 
ATOM     34  H   UNL A   1      41.684  30.869  32.012  1.00  0.00     0.167 HD
ATOM     35  C   UNL A   1      43.049  28.431  31.472  1.00  0.00     0.074 A 
ATOM     36  C   UNL A   1      43.411  27.160  30.874  1.00  0.00     0.031 C 
ATOM     37  C   UNL A   1      43.727  29.016  32.491  1.00  0.00     0.031 A 
BRANCH  24  38
ATOM     38  C   UNL A   1      41.434  34.496  34.236  1.00  0.00    -0.014 A 
ATOM     39  C   UNL A   1      40.626  34.612  35.380  1.00  0.00     0.009 A 
ATOM     40  C   UNL A   1      42.294  35.551  33.900  1.00  0.00     0.009 A 
ATOM     41  C   UNL A   1      40.646  35.780  36.145  1.00  0.00     0.001 A 
ATOM     42  C   UNL A   1      42.327  36.708  34.679  1.00  0.00     0.001 A 
ATOM     43  C   UNL A   1      41.496  36.827  35.793  1.00  0.00     0.000 A 
ENDBRANCH  24  38
BRANCH  25  44
ATOM     44  C   UNL A   1      40.266  26.686  28.107  1.00  0.00    -0.014 A 
ATOM     45  C   UNL A   1      40.862  26.672  26.838  1.00  0.00     0.009 A 
ATOM     46  C   UNL A   1      39.483  25.590  28.501  1.00  0.00     0.009 A 
ATOM     47  C   UNL A   1      40.656  25.595  25.972  1.00  0.00     0.001 A 
ATOM     48  C   UNL A   1      39.296  24.504  27.643  1.00  0.00     0.001 A 
ATOM     49  C   UNL A   1      39.876  24.512  26.376  1.00  0.00     0.000 A 
ENDBRANCH  25  44
BRANCH  37  50
ATOM     50  C   UNL A   1      44.884  28.252  33.064  1.00  0.00    -0.014 A 
ATOM     51  C   UNL A   1      46.199  28.474  32.629  1.00  0.00     0.009 A 
ATOM     52  C   UNL A   1      44.649  27.314  34.082  1.00  0.00     0.009 A 
ATOM     53  C   UNL A   1      47.254  27.745  33.181  1.00  0.00     0.001 A 
ATOM     54  C   UNL A   1      45.708  26.608  34.651  1.00  0.00     0.001 A 
ATOM     55  C   UNL A   1      47.008  26.817  34.193  1.00  0.00     0.000 A 
ENDBRANCH  37  50
ENDBRANCH  11  12
ENDBRANCH   4   6
ENDBRANCH   3   4
ENDBRANCH   2   3
ENDBRANCH   1   2
BRANCH   1  56
ATOM     56  O   UNL A   1      33.297  35.560  31.586  1.00  0.00    -0.460 OA
BRANCH  56  57
ATOM     57  C   UNL A   1      33.754  36.182  32.713  1.00  0.00     0.335 C 
ATOM     58  O   UNL A   1      33.170  37.092  33.292  1.00  0.00    -0.249 OA
BRANCH  57  59
ATOM     59  C   UNL A   1      35.008  35.501  33.273  1.00  0.00     0.228 C 
BRANCH  59  60
ATOM     60  C   UNL A   1      34.727  34.104  33.837  1.00  0.00     0.079 C 
BRANCH  60  61
ATOM     61  C   UNL A   1      35.939  33.274  34.241  1.00  0.00    -0.045 A 
ATOM     62  C   UNL A   1      36.622  33.613  35.422  1.00  0.00     0.007 A 
ATOM     63  C   UNL A   1      36.398  32.166  33.513  1.00  0.00     0.007 A 
ATOM     64  C   UNL A   1      37.743  32.888  35.845  1.00  0.00     0.046 A 
ATOM     65  C   UNL A   1      37.512  31.436  33.937  1.00  0.00     0.046 A 
ATOM     66  C   UNL A   1      38.179  31.804  35.095  1.00  0.00     0.115 A 
BRANCH  66  67
ATOM     67  O   UNL A   1      39.260  31.061  35.467  1.00  0.00    -0.508 OA
ATOM     68  H   UNL A   1      39.356  30.790  36.359  1.00  0.00     0.293 HD
ENDBRANCH  66  67
ENDBRANCH  60  61
ENDBRANCH  59  60
BRANCH  59  69
ATOM     69  O   UNL A   1      36.003  35.413  32.245  1.00  0.00    -0.381 OA
ATOM     70  H   UNL A   1      36.515  34.598  32.360  1.00  0.00     0.211 HD
ENDBRANCH  59  69
ENDBRANCH  57  59
ENDBRANCH  56  57
ENDBRANCH   1  56
TORSDOF 15
ENDMDL
MODEL 2
REMARK VINA RESULT:      -8.8      5.327     11.274
REMARK SMILES O=C(OCCOC(=O)[C@H](O)Cc1ccc(O)cc1)c1ccc(-c2c3nc(c(-c4ccccc4)c4ccc([nH]4)c(-c4ccccc4)c4nc(c(-c5ccccc5)c5ccc2[nH]5)C=C4)C=C3)cc1
REMARK SMILES IDX 5 1 4 2 3 3 2 4 1 5 19 6 20 7 66 8 21 9 65 10 22 11 23 12
REMARK SMILES IDX 24 13 59 14 25 15 64 16 58 17 60 18 26 19 63 20 57 21 56 22
REMARK SMILES IDX 27 24 49 25 34 26 48 27 35 28 38 29 47 30 61 31 36 32 37 33
REMARK SMILES IDX 46 35 62 36 39 37 28 38 29 39 33 40 30 41 32 42 31 43 50 44
REMARK SMILES IDX 51 45 55 46 52 47 54 48 53 49 40 50 41 51 45 52 42 53 44 54
REMARK SMILES IDX 43 55 6 56 7 57 8 58 9 59 11 60 12 61 13 62 18 63 14 64
REMARK SMILES IDX 17 65 15 66 16 67 10 69
REMARK H PARENT 60 23 38 34 16 68 10 70
REMARK Flexibility Score: inf
ROOT
ATOM      1  C   UNL A   1      44.800  21.517  24.951  1.00  0.00     0.274 C 
ENDROOT
BRANCH   1   2
ATOM      2  C   UNL A   1      45.223  22.668  24.033  1.00  0.00     0.275 C 
BRANCH   2   3
ATOM      3  O   UNL A   1      44.583  23.927  24.315  1.00  0.00    -0.458 OA
BRANCH   3   4
ATOM      4  C   UNL A   1      45.062  25.025  24.945  1.00  0.00     0.338 C 
ATOM      5  O   UNL A   1      46.229  25.360  24.749  1.00  0.00    -0.246 OA
BRANCH   4   6
ATOM      6  C   UNL A   1      44.306  25.757  26.006  1.00  0.00     0.060 A 
ATOM      7  C   UNL A   1      44.512  27.084  26.385  1.00  0.00     0.016 A 
ATOM      8  C   UNL A   1      43.307  25.023  26.681  1.00  0.00     0.016 A 
ATOM      9  C   UNL A   1      43.704  27.687  27.351  1.00  0.00     0.010 A 
ATOM     10  C   UNL A   1      42.493  25.622  27.647  1.00  0.00     0.010 A 
ATOM     11  C   UNL A   1      42.698  26.959  27.994  1.00  0.00    -0.014 A 
BRANCH  11  12
ATOM     12  C   UNL A   1      42.005  27.574  29.144  1.00  0.00     0.031 A 
ATOM     13  C   UNL A   1      42.632  27.449  30.499  1.00  0.00     0.074 A 
ATOM     14  C   UNL A   1      40.899  28.317  28.968  1.00  0.00     0.049 A 
ATOM     15  N   UNL A   1      42.308  28.050  31.613  1.00  0.00    -0.248 NA
ATOM     16  C   UNL A   1      43.801  26.561  30.604  1.00  0.00     0.031 C 
ATOM     17  C   UNL A   1      40.241  28.562  27.688  1.00  0.00     0.029 A 
ATOM     18  N   UNL A   1      40.139  29.009  29.874  1.00  0.00    -0.354 N 
ATOM     19  C   UNL A   1      43.266  27.656  32.537  1.00  0.00     0.074 A 
ATOM     20  C   UNL A   1      44.140  26.713  31.874  1.00  0.00     0.031 C 
ATOM     21  C   UNL A   1      39.152  29.324  27.893  1.00  0.00     0.029 A 
ATOM     22  C   UNL A   1      39.044  29.620  29.317  1.00  0.00     0.049 A 
ATOM     23  H   UNL A   1      40.357  29.064  30.833  1.00  0.00     0.167 HD
ATOM     24  C   UNL A   1      43.423  28.069  33.815  1.00  0.00     0.031 A 
ATOM     25  C   UNL A   1      38.063  30.338  29.897  1.00  0.00     0.031 A 
ATOM     26  C   UNL A   1      42.514  28.952  34.488  1.00  0.00     0.049 A 
ATOM     27  C   UNL A   1      38.162  30.645  31.365  1.00  0.00     0.074 A 
ATOM     28  C   UNL A   1      42.566  29.425  35.787  1.00  0.00     0.029 A 
ATOM     29  N   UNL A   1      41.364  29.475  33.914  1.00  0.00    -0.354 N 
ATOM     30  N   UNL A   1      39.109  30.321  32.212  1.00  0.00    -0.248 NA
ATOM     31  C   UNL A   1      37.079  31.450  31.946  1.00  0.00     0.031 C 
ATOM     32  C   UNL A   1      41.419  30.194  36.014  1.00  0.00     0.029 A 
ATOM     33  C   UNL A   1      40.681  30.242  34.841  1.00  0.00     0.049 A 
ATOM     34  H   UNL A   1      41.077  29.322  32.986  1.00  0.00     0.167 HD
ATOM     35  C   UNL A   1      38.768  30.931  33.411  1.00  0.00     0.074 A 
ATOM     36  C   UNL A   1      37.518  31.630  33.184  1.00  0.00     0.031 C 
ATOM     37  C   UNL A   1      39.442  30.932  34.588  1.00  0.00     0.031 A 
BRANCH  24  38
ATOM     38  C   UNL A   1      44.615  27.530  34.547  1.00  0.00    -0.014 A 
ATOM     39  C   UNL A   1      45.877  28.133  34.406  1.00  0.00     0.009 A 
ATOM     40  C   UNL A   1      44.491  26.387  35.348  1.00  0.00     0.009 A 
ATOM     41  C   UNL A   1      47.000  27.572  35.019  1.00  0.00     0.001 A 
ATOM     42  C   UNL A   1      45.612  25.842  35.977  1.00  0.00     0.001 A 
ATOM     43  C   UNL A   1      46.866  26.427  35.803  1.00  0.00     0.000 A 
ENDBRANCH  24  38
BRANCH  25  44
ATOM     44  C   UNL A   1      36.914  30.822  29.091  1.00  0.00    -0.014 A 
ATOM     45  C   UNL A   1      36.808  32.169  28.715  1.00  0.00     0.009 A 
ATOM     46  C   UNL A   1      35.897  29.931  28.713  1.00  0.00     0.009 A 
ATOM     47  C   UNL A   1      35.696  32.617  27.997  1.00  0.00     0.001 A 
ATOM     48  C   UNL A   1      34.798  30.376  27.976  1.00  0.00     0.001 A 
ATOM     49  C   UNL A   1      34.694  31.721  27.626  1.00  0.00     0.000 A 
ENDBRANCH  25  44
BRANCH  37  50
ATOM     50  C   UNL A   1      38.872  31.770  35.696  1.00  0.00    -0.014 A 
ATOM     51  C   UNL A   1      38.082  31.209  36.709  1.00  0.00     0.009 A 
ATOM     52  C   UNL A   1      39.163  33.142  35.734  1.00  0.00     0.009 A 
ATOM     53  C   UNL A   1      37.565  32.016  37.724  1.00  0.00     0.001 A 
ATOM     54  C   UNL A   1      38.669  33.941  36.765  1.00  0.00     0.001 A 
ATOM     55  C   UNL A   1      37.862  33.379  37.753  1.00  0.00     0.000 A 
ENDBRANCH  37  50
ENDBRANCH  11  12
ENDBRANCH   4   6
ENDBRANCH   3   4
ENDBRANCH   2   3
ENDBRANCH   1   2
BRANCH   1  56
ATOM     56  O   UNL A   1      44.042  20.503  24.269  1.00  0.00    -0.460 OA
BRANCH  56  57
ATOM     57  C   UNL A   1      44.348  19.221  24.626  1.00  0.00     0.335 C 
ATOM     58  O   UNL A   1      45.025  18.453  23.949  1.00  0.00    -0.249 OA
BRANCH  57  59
ATOM     59  C   UNL A   1      43.885  18.897  26.050  1.00  0.00     0.228 C 
BRANCH  59  60
ATOM     60  C   UNL A   1      42.365  18.733  26.160  1.00  0.00     0.079 C 
BRANCH  60  61
ATOM     61  C   UNL A   1      41.568  19.980  26.519  1.00  0.00    -0.045 A 
ATOM     62  C   UNL A   1      42.092  20.858  27.483  1.00  0.00     0.007 A 
ATOM     63  C   UNL A   1      40.345  20.319  25.919  1.00  0.00     0.007 A 
ATOM     64  C   UNL A   1      41.404  22.020  27.856  1.00  0.00     0.046 A 
ATOM     65  C   UNL A   1      39.661  21.482  26.284  1.00  0.00     0.046 A 
ATOM     66  C   UNL A   1      40.192  22.321  27.252  1.00  0.00     0.115 A 
BRANCH  66  67
ATOM     67  O   UNL A   1      39.487  23.443  27.573  1.00  0.00    -0.508 OA
ATOM     68  H   UNL A   1      39.940  24.225  27.819  1.00  0.00     0.293 HD
ENDBRANCH  66  67
ENDBRANCH  60  61
ENDBRANCH  59  60
BRANCH  59  69
ATOM     69  O   UNL A   1      44.532  17.700  26.501  1.00  0.00    -0.381 OA
ATOM     70  H   UNL A   1      43.870  17.002  26.624  1.00  0.00     0.211 HD
ENDBRANCH  59  69
ENDBRANCH  57  59
ENDBRANCH  56  57
ENDBRANCH   1  56
TORSDOF 15
ENDMDL
MODEL 3
REMARK VINA RESULT:      -8.6      1.929      3.102
REMARK SMILES O=C(OCCOC(=O)[C@H](O)Cc1ccc(O)cc1)c1ccc(-c2c3nc(c(-c4ccccc4)c4ccc([nH]4)c(-c4ccccc4)c4nc(c(-c5ccccc5)c5ccc2[nH]5)C=C4)C=C3)cc1
REMARK SMILES IDX 5 1 4 2 3 3 2 4 1 5 19 6 20 7 66 8 21 9 65 10 22 11 23 12
REMARK SMILES IDX 24 13 59 14 25 15 64 16 58 17 60 18 26 19 63 20 57 21 56 22
REMARK SMILES IDX 27 24 49 25 34 26 48 27 35 28 38 29 47 30 61 31 36 32 37 33
REMARK SMILES IDX 46 35 62 36 39 37 28 38 29 39 33 40 30 41 32 42 31 43 50 44
REMARK SMILES IDX 51 45 55 46 52 47 54 48 53 49 40 50 41 51 45 52 42 53 44 54
REMARK SMILES IDX 43 55 6 56 7 57 8 58 9 59 11 60 12 61 13 62 18 63 14 64
REMARK SMILES IDX 17 65 15 66 16 67 10 69
REMARK H PARENT 60 23 38 34 16 68 10 70
REMARK Flexibility Score: inf
ROOT
ATOM      1  C   UNL A   1      33.575  35.332  28.985  1.00  0.00     0.274 C 
ENDROOT
BRANCH   1   2
ATOM      2  C   UNL A   1      34.581  34.181  28.882  1.00  0.00     0.275 C 
BRANCH   2   3
ATOM      3  O   UNL A   1      34.007  32.867  29.020  1.00  0.00    -0.458 OA
BRANCH   3   4
ATOM      4  C   UNL A   1      34.398  31.688  28.484  1.00  0.00     0.338 C 
ATOM      5  O   UNL A   1      33.610  31.070  27.768  1.00  0.00    -0.246 OA
BRANCH   4   6
ATOM      6  C   UNL A   1      35.672  31.001  28.854  1.00  0.00     0.060 A 
ATOM      7  C   UNL A   1      35.792  29.924  29.732  1.00  0.00     0.016 A 
ATOM      8  C   UNL A   1      36.850  31.507  28.261  1.00  0.00     0.016 A 
ATOM      9  C   UNL A   1      37.031  29.320  29.960  1.00  0.00     0.010 A 
ATOM     10  C   UNL A   1      38.092  30.905  28.483  1.00  0.00     0.010 A 
ATOM     11  C   UNL A   1      38.187  29.811  29.346  1.00  0.00    -0.014 A 
BRANCH  11  12
ATOM     12  C   UNL A   1      39.495  29.273  29.768  1.00  0.00     0.031 A 
ATOM     13  C   UNL A   1      40.173  29.900  30.948  1.00  0.00     0.074 A 
ATOM     14  C   UNL A   1      40.016  28.181  29.181  1.00  0.00     0.049 A 
ATOM     15  N   UNL A   1      41.226  29.491  31.605  1.00  0.00    -0.248 NA
ATOM     16  C   UNL A   1      39.564  31.130  31.480  1.00  0.00     0.031 C 
ATOM     17  C   UNL A   1      39.412  27.450  28.072  1.00  0.00     0.029 A 
ATOM     18  N   UNL A   1      41.173  27.495  29.446  1.00  0.00    -0.354 N 
ATOM     19  C   UNL A   1      41.371  30.380  32.661  1.00  0.00     0.074 A 
ATOM     20  C   UNL A   1      40.344  31.388  32.517  1.00  0.00     0.031 C 
ATOM     21  C   UNL A   1      40.220  26.432  27.726  1.00  0.00     0.029 A 
ATOM     22  C   UNL A   1      41.392  26.442  28.593  1.00  0.00     0.049 A 
ATOM     23  H   UNL A   1      41.786  27.732  30.178  1.00  0.00     0.167 HD
ATOM     24  C   UNL A   1      42.261  30.341  33.679  1.00  0.00     0.031 A 
ATOM     25  C   UNL A   1      42.429  25.586  28.522  1.00  0.00     0.031 A 
ATOM     26  C   UNL A   1      43.319  29.377  33.779  1.00  0.00     0.049 A 
ATOM     27  C   UNL A   1      43.506  25.666  29.567  1.00  0.00     0.074 A 
ATOM     28  C   UNL A   1      44.287  29.253  34.759  1.00  0.00     0.029 A 
ATOM     29  N   UNL A   1      43.563  28.384  32.842  1.00  0.00    -0.354 N 
ATOM     30  N   UNL A   1      43.596  26.470  30.598  1.00  0.00    -0.248 NA
ATOM     31  C   UNL A   1      44.604  24.695  29.459  1.00  0.00     0.031 C 
ATOM     32  C   UNL A   1      45.148  28.214  34.387  1.00  0.00     0.029 A 
ATOM     33  C   UNL A   1      44.685  27.659  33.203  1.00  0.00     0.049 A 
ATOM     34  H   UNL A   1      43.019  28.220  32.039  1.00  0.00     0.167 HD
ATOM     35  C   UNL A   1      44.724  26.066  31.296  1.00  0.00     0.074 A 
ATOM     36  C   UNL A   1      45.295  24.955  30.560  1.00  0.00     0.031 C 
ATOM     37  C   UNL A   1      45.230  26.555  32.457  1.00  0.00     0.031 A 
BRANCH  24  38
ATOM     38  C   UNL A   1      42.115  31.398  34.731  1.00  0.00    -0.014 A 
ATOM     39  C   UNL A   1      41.236  31.219  35.814  1.00  0.00     0.009 A 
ATOM     40  C   UNL A   1      42.824  32.602  34.621  1.00  0.00     0.009 A 
ATOM     41  C   UNL A   1      41.038  32.244  36.740  1.00  0.00     0.001 A 
ATOM     42  C   UNL A   1      42.639  33.617  35.562  1.00  0.00     0.001 A 
ATOM     43  C   UNL A   1      41.739  33.442  36.613  1.00  0.00     0.000 A 
ENDBRANCH  24  38
BRANCH  25  44
ATOM     44  C   UNL A   1      42.492  24.576  27.436  1.00  0.00    -0.014 A 
ATOM     45  C   UNL A   1      41.940  23.297  27.601  1.00  0.00     0.009 A 
ATOM     46  C   UNL A   1      43.132  24.887  26.226  1.00  0.00     0.009 A 
ATOM     47  C   UNL A   1      42.050  22.343  26.586  1.00  0.00     0.001 A 
ATOM     48  C   UNL A   1      43.222  23.939  25.204  1.00  0.00     0.001 A 
ATOM     49  C   UNL A   1      42.687  22.665  25.388  1.00  0.00     0.000 A 
ENDBRANCH  25  44
BRANCH  37  50
ATOM     50  C   UNL A   1      46.420  25.844  33.031  1.00  0.00    -0.014 A 
ATOM     51  C   UNL A   1      47.730  26.236  32.719  1.00  0.00     0.009 A 
ATOM     52  C   UNL A   1      46.217  24.782  33.926  1.00  0.00     0.009 A 
ATOM     53  C   UNL A   1      48.816  25.552  33.269  1.00  0.00     0.001 A 
ATOM     54  C   UNL A   1      47.304  24.120  34.496  1.00  0.00     0.001 A 
ATOM     55  C   UNL A   1      48.602  24.499  34.159  1.00  0.00     0.000 A 
ENDBRANCH  37  50
ENDBRANCH  11  12
ENDBRANCH   4   6
ENDBRANCH   3   4
ENDBRANCH   2   3
ENDBRANCH   1   2
BRANCH   1  56
ATOM     56  O   UNL A   1      32.773  35.272  30.177  1.00  0.00    -0.460 OA
BRANCH  56  57
ATOM     57  C   UNL A   1      32.924  36.334  31.023  1.00  0.00     0.335 C 
ATOM     58  O   UNL A   1      32.887  37.511  30.677  1.00  0.00    -0.249 OA
BRANCH  57  59
ATOM     59  C   UNL A   1      32.983  35.893  32.489  1.00  0.00     0.228 C 
BRANCH  59  60
ATOM     60  C   UNL A   1      34.397  35.959  33.076  1.00  0.00     0.079 C 
BRANCH  60  61
ATOM     61  C   UNL A   1      35.115  34.630  33.277  1.00  0.00    -0.045 A 
ATOM     62  C   UNL A   1      34.925  33.612  32.326  1.00  0.00     0.007 A 
ATOM     63  C   UNL A   1      35.983  34.372  34.349  1.00  0.00     0.007 A 
ATOM     64  C   UNL A   1      35.557  32.369  32.458  1.00  0.00     0.046 A 
ATOM     65  C   UNL A   1      36.621  33.135  34.479  1.00  0.00     0.046 A 
ATOM     66  C   UNL A   1      36.401  32.142  33.537  1.00  0.00     0.115 A 
BRANCH  66  67
ATOM     67  O   UNL A   1      37.046  30.953  33.707  1.00  0.00    -0.508 OA
ATOM     68  H   UNL A   1      37.829  30.773  33.225  1.00  0.00     0.293 HD
ENDBRANCH  66  67
ENDBRANCH  60  61
ENDBRANCH  59  60
BRANCH  59  69
ATOM     69  O   UNL A   1      32.101  36.711  33.269  1.00  0.00    -0.381 OA
ATOM     70  H   UNL A   1      32.332  36.632  34.208  1.00  0.00     0.211 HD
ENDBRANCH  59  69
ENDBRANCH  57  59
ENDBRANCH  56  57
ENDBRANCH   1  56
TORSDOF 15
ENDMDL
