MODEL 1
REMARK VINA RESULT:      -9.7      0.000      0.000
REMARK SMILES C#CCN(CC(=O)OCCOC(=O)c1ccc(-c2c3nc(c(-c4ccccc4)c4ccc([nH]4)c(-c4ccccc4)c4nc(c(-c5ccccc5)c5ccc2[nH]5)C=C4)C=C3)cc1)C(=O)NCc1ccnc(C)n1
REMARK SMILES IDX 9 1 8 2 6 3 7 4 5 5 4 6 3 7 2 8 1 9 62 10 63 11 64 12 65 14
REMARK SMILES IDX 66 15 67 16 72 17 68 18 70 19 69 20 71 21 10 22 11 23 12 24
REMARK SMILES IDX 13 25 14 26 15 27 61 28 16 29 60 30 17 31 18 32 19 33 54 34
REMARK SMILES IDX 20 35 59 36 53 37 55 38 21 39 58 40 52 41 51 42 22 44 44 45
REMARK SMILES IDX 29 46 43 47 30 48 33 49 42 50 56 51 31 52 32 53 41 55 57 56
REMARK SMILES IDX 34 57 23 58 24 59 28 60 25 61 27 62 26 63 45 64 46 65 50 66
REMARK SMILES IDX 47 67 49 68 48 69 35 70 36 71 40 72 37 73 39 74 38 75
REMARK H PARENT 64 13 55 43 33 54
REMARK Flexibility Score: inf
ROOT
ATOM      1  C   UNL A   1      37.904  19.829  24.644  1.00  0.00     0.274 C 
ENDROOT
BRANCH   1   2
ATOM      2  O   UNL A   1      36.644  20.428  25.041  1.00  0.00    -0.461 OA
BRANCH   2   3
ATOM      3  C   UNL A   1      36.512  21.759  24.793  1.00  0.00     0.325 C 
ATOM      4  O   UNL A   1      36.876  22.295  23.746  1.00  0.00    -0.250 OA
BRANCH   3   5
ATOM      5  C   UNL A   1      35.631  22.505  25.813  1.00  0.00     0.245 C 
BRANCH   5   6
ATOM      6  N   UNL A   1      34.243  22.717  25.461  1.00  0.00    -0.303 N 
BRANCH   6   7
ATOM      7  C   UNL A   1      33.622  23.763  26.258  1.00  0.00     0.211 C 
BRANCH   7   8
ATOM      8  C   UNL A   1      33.784  25.124  25.600  1.00  0.00    -0.085 C 
ATOM      9  C   UNL A   1      33.922  26.291  25.036  1.00  0.00     0.006 C 
ENDBRANCH   7   8
ENDBRANCH   6   7
BRANCH   6  10
ATOM     10  C   UNL A   1      33.431  22.017  24.623  1.00  0.00     0.319 C 
ATOM     11  O   UNL A   1      33.172  22.457  23.494  1.00  0.00    -0.249 OA
ATOM     12  N   UNL A   1      32.850  20.844  24.878  1.00  0.00    -0.332 N 
ATOM     13  H   UNL A   1      32.162  20.678  24.194  1.00  0.00     0.165 HD
BRANCH  12  14
ATOM     14  C   UNL A   1      32.866  19.716  25.806  1.00  0.00     0.174 C 
BRANCH  14  15
ATOM     15  C   UNL A   1      33.115  18.396  25.079  1.00  0.00     0.063 A 
ATOM     16  C   UNL A   1      33.730  18.371  23.839  1.00  0.00     0.046 A 
ATOM     17  N   UNL A   1      32.718  17.250  25.682  1.00  0.00    -0.236 NA
ATOM     18  C   UNL A   1      34.076  17.138  23.340  1.00  0.00     0.115 A 
ATOM     19  C   UNL A   1      33.046  16.090  25.079  1.00  0.00     0.125 A 
ATOM     20  N   UNL A   1      33.747  15.982  23.935  1.00  0.00    -0.242 NA
ATOM     21  C   UNL A   1      32.535  14.828  25.696  1.00  0.00     0.089 C 
ENDBRANCH  14  15
ENDBRANCH  12  14
ENDBRANCH   6  10
ENDBRANCH   5   6
ENDBRANCH   3   5
ENDBRANCH   2   3
ENDBRANCH   1   2
BRANCH   1  22
ATOM     22  C   UNL A   1      38.814  19.416  25.828  1.00  0.00     0.275 C 
BRANCH  22  23
ATOM     23  O   UNL A   1      40.136  18.948  25.443  1.00  0.00    -0.458 OA
BRANCH  23  24
ATOM     24  C   UNL A   1      41.080  19.532  26.200  1.00  0.00     0.338 C 
ATOM     25  O   UNL A   1      42.118  18.983  26.533  1.00  0.00    -0.246 OA
BRANCH  24  26
ATOM     26  C   UNL A   1      40.935  20.897  26.698  1.00  0.00     0.060 A 
ATOM     27  C   UNL A   1      41.252  21.919  25.790  1.00  0.00     0.016 A 
ATOM     28  C   UNL A   1      41.175  21.076  28.063  1.00  0.00     0.016 A 
ATOM     29  C   UNL A   1      41.896  23.076  26.229  1.00  0.00     0.010 A 
ATOM     30  C   UNL A   1      41.788  22.250  28.509  1.00  0.00     0.010 A 
ATOM     31  C   UNL A   1      42.165  23.250  27.596  1.00  0.00    -0.014 A 
BRANCH  31  32
ATOM     32  C   UNL A   1      42.490  24.598  28.109  1.00  0.00     0.031 A 
ATOM     33  C   UNL A   1      41.484  25.678  28.367  1.00  0.00     0.074 A 
ATOM     34  C   UNL A   1      43.807  24.835  28.238  1.00  0.00     0.049 A 
ATOM     35  N   UNL A   1      41.700  26.911  28.757  1.00  0.00    -0.248 NA
ATOM     36  C   UNL A   1      40.067  25.354  28.156  1.00  0.00     0.031 C 
ATOM     37  C   UNL A   1      44.858  23.843  27.984  1.00  0.00     0.029 A 
ATOM     38  N   UNL A   1      44.487  25.967  28.577  1.00  0.00    -0.354 N 
ATOM     39  C   UNL A   1      40.452  27.519  28.836  1.00  0.00     0.074 A 
ATOM     40  C   UNL A   1      39.481  26.517  28.435  1.00  0.00     0.031 C 
ATOM     41  C   UNL A   1      46.051  24.413  28.166  1.00  0.00     0.029 A 
ATOM     42  C   UNL A   1      45.848  25.808  28.520  1.00  0.00     0.049 A 
ATOM     43  H   UNL A   1      44.048  26.810  28.837  1.00  0.00     0.167 HD
ATOM     44  C   UNL A   1      40.160  28.793  29.202  1.00  0.00     0.031 A 
ATOM     45  C   UNL A   1      46.839  26.688  28.724  1.00  0.00     0.031 A 
ATOM     46  C   UNL A   1      41.153  29.778  29.573  1.00  0.00     0.049 A 
ATOM     47  C   UNL A   1      46.487  28.077  29.130  1.00  0.00     0.074 A 
ATOM     48  C   UNL A   1      40.963  31.078  30.015  1.00  0.00     0.029 A 
ATOM     49  N   UNL A   1      42.526  29.576  29.531  1.00  0.00    -0.354 N 
ATOM     50  N   UNL A   1      45.301  28.617  29.261  1.00  0.00    -0.248 NA
ATOM     51  C   UNL A   1      47.608  28.965  29.448  1.00  0.00     0.031 C 
ATOM     52  C   UNL A   1      42.218  31.675  30.193  1.00  0.00     0.029 A 
ATOM     53  C   UNL A   1      43.192  30.731  29.916  1.00  0.00     0.049 A 
ATOM     54  H   UNL A   1      42.964  28.735  29.265  1.00  0.00     0.167 HD
ATOM     55  C   UNL A   1      45.527  29.906  29.711  1.00  0.00     0.074 A 
ATOM     56  C   UNL A   1      46.966  30.058  29.835  1.00  0.00     0.031 C 
ATOM     57  C   UNL A   1      44.624  30.873  30.006  1.00  0.00     0.031 A 
BRANCH  44  58
ATOM     58  C   UNL A   1      38.712  29.220  29.207  1.00  0.00    -0.014 A 
ATOM     59  C   UNL A   1      37.910  29.085  30.353  1.00  0.00     0.009 A 
ATOM     60  C   UNL A   1      38.162  29.849  28.076  1.00  0.00     0.009 A 
ATOM     61  C   UNL A   1      36.588  29.541  30.355  1.00  0.00     0.001 A 
ATOM     62  C   UNL A   1      36.849  30.327  28.090  1.00  0.00     0.001 A 
ATOM     63  C   UNL A   1      36.059  30.166  29.226  1.00  0.00     0.000 A 
ENDBRANCH  44  58
BRANCH  45  64
ATOM     64  C   UNL A   1      48.234  26.210  28.619  1.00  0.00    -0.014 A 
ATOM     65  C   UNL A   1      48.938  26.381  27.419  1.00  0.00     0.009 A 
ATOM     66  C   UNL A   1      48.908  25.721  29.749  1.00  0.00     0.009 A 
ATOM     67  C   UNL A   1      50.295  26.068  27.351  1.00  0.00     0.001 A 
ATOM     68  C   UNL A   1      50.271  25.430  29.683  1.00  0.00     0.001 A 
ATOM     69  C   UNL A   1      50.962  25.602  28.483  1.00  0.00     0.000 A 
ENDBRANCH  45  64
BRANCH  57  70
ATOM     70  C   UNL A   1      45.189  32.166  30.516  1.00  0.00    -0.014 A 
ATOM     71  C   UNL A   1      45.425  32.367  31.885  1.00  0.00     0.009 A 
ATOM     72  C   UNL A   1      45.452  33.210  29.616  1.00  0.00     0.009 A 
ATOM     73  C   UNL A   1      45.866  33.608  32.349  1.00  0.00     0.001 A 
ATOM     74  C   UNL A   1      45.919  34.441  30.080  1.00  0.00     0.001 A 
ATOM     75  C   UNL A   1      46.112  34.642  31.447  1.00  0.00     0.000 A 
ENDBRANCH  57  70
ENDBRANCH  31  32
ENDBRANCH  24  26
ENDBRANCH  23  24
ENDBRANCH  22  23
ENDBRANCH   1  22
TORSDOF 17
ENDMDL
MODEL 2
REMARK VINA RESULT:      -9.5      1.720      3.341
REMARK SMILES C#CCN(CC(=O)OCCOC(=O)c1ccc(-c2c3nc(c(-c4ccccc4)c4ccc([nH]4)c(-c4ccccc4)c4nc(c(-c5ccccc5)c5ccc2[nH]5)C=C4)C=C3)cc1)C(=O)NCc1ccnc(C)n1
REMARK SMILES IDX 9 1 8 2 6 3 7 4 5 5 4 6 3 7 2 8 1 9 62 10 63 11 64 12 65 14
REMARK SMILES IDX 66 15 67 16 72 17 68 18 70 19 69 20 71 21 10 22 11 23 12 24
REMARK SMILES IDX 13 25 14 26 15 27 61 28 16 29 60 30 17 31 18 32 19 33 54 34
REMARK SMILES IDX 20 35 59 36 53 37 55 38 21 39 58 40 52 41 51 42 22 44 44 45
REMARK SMILES IDX 29 46 43 47 30 48 33 49 42 50 56 51 31 52 32 53 41 55 57 56
REMARK SMILES IDX 34 57 23 58 24 59 28 60 25 61 27 62 26 63 45 64 46 65 50 66
REMARK SMILES IDX 47 67 49 68 48 69 35 70 36 71 40 72 37 73 39 74 38 75
REMARK H PARENT 64 13 55 43 33 54
REMARK Flexibility Score: inf
ROOT
ATOM      1  C   UNL A   1      38.245  21.312  25.546  1.00  0.00     0.274 C 
ENDROOT
BRANCH   1   2
ATOM      2  O   UNL A   1      37.145  21.540  24.629  1.00  0.00    -0.461 OA
BRANCH   2   3
ATOM      3  C   UNL A   1      35.983  20.893  24.917  1.00  0.00     0.325 C 
ATOM      4  O   UNL A   1      35.867  19.668  24.910  1.00  0.00    -0.250 OA
BRANCH   3   5
ATOM      5  C   UNL A   1      34.888  21.801  25.510  1.00  0.00     0.245 C 
BRANCH   5   6
ATOM      6  N   UNL A   1      33.612  21.833  24.827  1.00  0.00    -0.303 N 
BRANCH   6   7
ATOM      7  C   UNL A   1      33.638  22.681  23.645  1.00  0.00     0.211 C 
BRANCH   7   8
ATOM      8  C   UNL A   1      33.974  24.118  24.006  1.00  0.00    -0.085 C 
ATOM      9  C   UNL A   1      34.263  25.351  24.316  1.00  0.00     0.006 C 
ENDBRANCH   7   8
ENDBRANCH   6   7
BRANCH   6  10
ATOM     10  C   UNL A   1      32.406  21.317  25.190  1.00  0.00     0.319 C 
ATOM     11  O   UNL A   1      32.061  20.197  24.785  1.00  0.00    -0.249 OA
ATOM     12  N   UNL A   1      31.500  21.896  25.978  1.00  0.00    -0.332 N 
ATOM     13  H   UNL A   1      30.652  21.403  25.898  1.00  0.00     0.165 HD
BRANCH  12  14
ATOM     14  C   UNL A   1      31.311  22.998  26.918  1.00  0.00     0.174 C 
BRANCH  14  15
ATOM     15  C   UNL A   1      31.091  24.323  26.191  1.00  0.00     0.063 A 
ATOM     16  C   UNL A   1      30.545  24.355  24.919  1.00  0.00     0.046 A 
ATOM     17  N   UNL A   1      31.442  25.466  26.827  1.00  0.00    -0.236 NA
ATOM     18  C   UNL A   1      30.217  25.591  24.413  1.00  0.00     0.115 A 
ATOM     19  C   UNL A   1      31.138  26.630  26.217  1.00  0.00     0.125 A 
ATOM     20  N   UNL A   1      30.501  26.743  25.037  1.00  0.00    -0.242 NA
ATOM     21  C   UNL A   1      31.602  27.889  26.874  1.00  0.00     0.089 C 
ENDBRANCH  14  15
ENDBRANCH  12  14
ENDBRANCH   6  10
ENDBRANCH   5   6
ENDBRANCH   3   5
ENDBRANCH   2   3
ENDBRANCH   1   2
BRANCH   1  22
ATOM     22  C   UNL A   1      39.150  20.112  25.169  1.00  0.00     0.275 C 
BRANCH  22  23
ATOM     23  O   UNL A   1      39.957  19.594  26.263  1.00  0.00    -0.458 OA
BRANCH  23  24
ATOM     24  C   UNL A   1      41.264  19.755  25.999  1.00  0.00     0.338 C 
ATOM     25  O   UNL A   1      41.914  18.995  25.299  1.00  0.00    -0.246 OA
BRANCH  24  26
ATOM     26  C   UNL A   1      42.030  20.874  26.542  1.00  0.00     0.060 A 
ATOM     27  C   UNL A   1      41.827  21.152  27.903  1.00  0.00     0.016 A 
ATOM     28  C   UNL A   1      42.309  21.912  25.650  1.00  0.00     0.016 A 
ATOM     29  C   UNL A   1      41.806  22.472  28.355  1.00  0.00     0.010 A 
ATOM     30  C   UNL A   1      42.322  23.232  26.109  1.00  0.00     0.010 A 
ATOM     31  C   UNL A   1      42.058  23.522  27.459  1.00  0.00    -0.014 A 
BRANCH  31  32
ATOM     32  C   UNL A   1      42.408  24.860  27.983  1.00  0.00     0.031 A 
ATOM     33  C   UNL A   1      41.417  25.934  28.312  1.00  0.00     0.074 A 
ATOM     34  C   UNL A   1      43.730  25.095  28.052  1.00  0.00     0.049 A 
ATOM     35  N   UNL A   1      41.652  27.158  28.716  1.00  0.00    -0.248 NA
ATOM     36  C   UNL A   1      39.991  25.613  28.165  1.00  0.00     0.031 C 
ATOM     37  C   UNL A   1      44.767  24.108  27.727  1.00  0.00     0.029 A 
ATOM     38  N   UNL A   1      44.427  26.220  28.381  1.00  0.00    -0.354 N 
ATOM     39  C   UNL A   1      40.411  27.764  28.869  1.00  0.00     0.074 A 
ATOM     40  C   UNL A   1      39.420  26.769  28.496  1.00  0.00     0.031 C 
ATOM     41  C   UNL A   1      45.969  24.675  27.862  1.00  0.00     0.029 A 
ATOM     42  C   UNL A   1      45.783  26.062  28.254  1.00  0.00     0.049 A 
ATOM     43  H   UNL A   1      44.002  27.056  28.679  1.00  0.00     0.167 HD
ATOM     44  C   UNL A   1      40.137  29.030  29.275  1.00  0.00     0.031 A 
ATOM     45  C   UNL A   1      46.783  26.939  28.427  1.00  0.00     0.031 A 
ATOM     46  C   UNL A   1      41.147  30.008  29.617  1.00  0.00     0.049 A 
ATOM     47  C   UNL A   1      46.453  28.319  28.878  1.00  0.00     0.074 A 
ATOM     48  C   UNL A   1      40.980  31.298  30.095  1.00  0.00     0.029 A 
ATOM     49  N   UNL A   1      42.516  29.808  29.503  1.00  0.00    -0.354 N 
ATOM     50  N   UNL A   1      45.275  28.855  29.078  1.00  0.00    -0.248 NA
ATOM     51  C   UNL A   1      47.588  29.201  29.159  1.00  0.00     0.031 C 
ATOM     52  C   UNL A   1      42.242  31.892  30.222  1.00  0.00     0.029 A 
ATOM     53  C   UNL A   1      43.201  30.955  29.879  1.00  0.00     0.049 A 
ATOM     54  H   UNL A   1      42.941  28.972  29.200  1.00  0.00     0.167 HD
ATOM     55  C   UNL A   1      45.523  30.135  29.543  1.00  0.00     0.074 A 
ATOM     56  C   UNL A   1      46.966  30.285  29.600  1.00  0.00     0.031 C 
ATOM     57  C   UNL A   1      44.636  31.095  29.902  1.00  0.00     0.031 A 
BRANCH  44  58
ATOM     58  C   UNL A   1      38.691  29.456  29.360  1.00  0.00    -0.014 A 
ATOM     59  C   UNL A   1      37.941  29.281  30.535  1.00  0.00     0.009 A 
ATOM     60  C   UNL A   1      38.092  30.124  28.277  1.00  0.00     0.009 A 
ATOM     61  C   UNL A   1      36.621  29.736  30.612  1.00  0.00     0.001 A 
ATOM     62  C   UNL A   1      36.781  30.601  28.367  1.00  0.00     0.001 A 
ATOM     63  C   UNL A   1      36.043  30.399  29.530  1.00  0.00     0.000 A 
ENDBRANCH  44  58
BRANCH  45  64
ATOM     64  C   UNL A   1      48.172  26.464  28.244  1.00  0.00    -0.014 A 
ATOM     65  C   UNL A   1      48.826  25.813  29.299  1.00  0.00     0.009 A 
ATOM     66  C   UNL A   1      48.788  26.526  26.985  1.00  0.00     0.009 A 
ATOM     67  C   UNL A   1      50.078  25.233  29.096  1.00  0.00     0.001 A 
ATOM     68  C   UNL A   1      50.030  25.924  26.780  1.00  0.00     0.001 A 
ATOM     69  C   UNL A   1      50.675  25.281  27.837  1.00  0.00     0.000 A 
ENDBRANCH  45  64
BRANCH  57  70
ATOM     70  C   UNL A   1      45.226  32.378  30.410  1.00  0.00    -0.014 A 
ATOM     71  C   UNL A   1      45.548  33.427  29.535  1.00  0.00     0.009 A 
ATOM     72  C   UNL A   1      45.499  32.521  31.779  1.00  0.00     0.009 A 
ATOM     73  C   UNL A   1      46.179  34.577  30.015  1.00  0.00     0.001 A 
ATOM     74  C   UNL A   1      46.104  33.683  32.260  1.00  0.00     0.001 A 
ATOM     75  C   UNL A   1      46.456  34.703  31.376  1.00  0.00     0.000 A 
ENDBRANCH  57  70
ENDBRANCH  31  32
ENDBRANCH  24  26
ENDBRANCH  23  24
ENDBRANCH  22  23
ENDBRANCH   1  22
TORSDOF 17
ENDMDL
MODEL 3
REMARK VINA RESULT:      -9.5      1.181      6.137
REMARK SMILES C#CCN(CC(=O)OCCOC(=O)c1ccc(-c2c3nc(c(-c4ccccc4)c4ccc([nH]4)c(-c4ccccc4)c4nc(c(-c5ccccc5)c5ccc2[nH]5)C=C4)C=C3)cc1)C(=O)NCc1ccnc(C)n1
REMARK SMILES IDX 9 1 8 2 6 3 7 4 5 5 4 6 3 7 2 8 1 9 62 10 63 11 64 12 65 14
REMARK SMILES IDX 66 15 67 16 72 17 68 18 70 19 69 20 71 21 10 22 11 23 12 24
REMARK SMILES IDX 13 25 14 26 15 27 61 28 16 29 60 30 17 31 18 32 19 33 54 34
REMARK SMILES IDX 20 35 59 36 53 37 55 38 21 39 58 40 52 41 51 42 22 44 44 45
REMARK SMILES IDX 29 46 43 47 30 48 33 49 42 50 56 51 31 52 32 53 41 55 57 56
REMARK SMILES IDX 34 57 23 58 24 59 28 60 25 61 27 62 26 63 45 64 46 65 50 66
REMARK SMILES IDX 47 67 49 68 48 69 35 70 36 71 40 72 37 73 39 74 38 75
REMARK H PARENT 64 13 55 43 33 54
REMARK Flexibility Score: inf
ROOT
ATOM      1  C   UNL A   1      38.157  21.338  25.382  1.00  0.00     0.274 C 
ENDROOT
BRANCH   1   2
ATOM      2  O   UNL A   1      36.978  21.266  24.541  1.00  0.00    -0.461 OA
BRANCH   2   3
ATOM      3  C   UNL A   1      35.827  21.748  25.085  1.00  0.00     0.325 C 
ATOM      4  O   UNL A   1      35.496  21.557  26.254  1.00  0.00    -0.250 OA
BRANCH   3   5
ATOM      5  C   UNL A   1      35.094  22.773  24.199  1.00  0.00     0.245 C 
BRANCH   5   6
ATOM      6  N   UNL A   1      33.651  22.677  24.128  1.00  0.00    -0.303 N 
BRANCH   6   7
ATOM      7  C   UNL A   1      32.988  23.667  24.962  1.00  0.00     0.211 C 
BRANCH   7   8
ATOM      8  C   UNL A   1      31.765  24.241  24.266  1.00  0.00    -0.085 C 
ATOM      9  C   UNL A   1      30.716  24.734  23.669  1.00  0.00     0.006 C 
ENDBRANCH   7   8
ENDBRANCH   6   7
BRANCH   6  10
ATOM     10  C   UNL A   1      32.860  21.747  23.527  1.00  0.00     0.319 C 
ATOM     11  O   UNL A   1      32.519  21.890  22.344  1.00  0.00    -0.249 OA
ATOM     12  N   UNL A   1      32.383  20.632  24.083  1.00  0.00    -0.332 N 
ATOM     13  H   UNL A   1      31.681  20.265  23.499  1.00  0.00     0.165 HD
BRANCH  12  14
ATOM     14  C   UNL A   1      32.527  19.759  25.245  1.00  0.00     0.174 C 
BRANCH  14  15
ATOM     15  C   UNL A   1      32.968  18.354  24.838  1.00  0.00     0.063 A 
ATOM     16  C   UNL A   1      33.947  18.165  23.878  1.00  0.00     0.046 A 
ATOM     17  N   UNL A   1      32.374  17.299  25.445  1.00  0.00    -0.236 NA
ATOM     18  C   UNL A   1      34.408  16.881  23.703  1.00  0.00     0.115 A 
ATOM     19  C   UNL A   1      32.854  16.072  25.156  1.00  0.00     0.125 A 
ATOM     20  N   UNL A   1      33.881  15.817  24.325  1.00  0.00    -0.242 NA
ATOM     21  C   UNL A   1      32.144  14.901  25.756  1.00  0.00     0.089 C 
ENDBRANCH  14  15
ENDBRANCH  12  14
ENDBRANCH   6  10
ENDBRANCH   5   6
ENDBRANCH   3   5
ENDBRANCH   2   3
ENDBRANCH   1   2
BRANCH   1  22
ATOM     22  C   UNL A   1      39.022  20.052  25.377  1.00  0.00     0.275 C 
BRANCH  22  23
ATOM     23  O   UNL A   1      39.826  19.857  26.573  1.00  0.00    -0.458 OA
BRANCH  23  24
ATOM     24  C   UNL A   1      41.126  19.747  26.253  1.00  0.00     0.338 C 
ATOM     25  O   UNL A   1      41.617  18.753  25.744  1.00  0.00    -0.246 OA
BRANCH  24  26
ATOM     26  C   UNL A   1      42.075  20.830  26.495  1.00  0.00     0.060 A 
ATOM     27  C   UNL A   1      42.154  21.292  27.818  1.00  0.00     0.016 A 
ATOM     28  C   UNL A   1      42.277  21.714  25.432  1.00  0.00     0.016 A 
ATOM     29  C   UNL A   1      42.334  22.651  28.079  1.00  0.00     0.010 A 
ATOM     30  C   UNL A   1      42.493  23.070  25.693  1.00  0.00     0.010 A 
ATOM     31  C   UNL A   1      42.510  23.549  27.014  1.00  0.00    -0.014 A 
BRANCH  31  32
ATOM     32  C   UNL A   1      43.069  24.892  27.279  1.00  0.00     0.031 A 
ATOM     33  C   UNL A   1      44.528  25.231  27.243  1.00  0.00     0.074 A 
ATOM     34  C   UNL A   1      42.158  25.801  27.667  1.00  0.00     0.049 A 
ATOM     35  N   UNL A   1      45.102  26.375  27.527  1.00  0.00    -0.248 NA
ATOM     36  C   UNL A   1      45.465  24.169  26.855  1.00  0.00     0.031 C 
ATOM     37  C   UNL A   1      40.715  25.547  27.751  1.00  0.00     0.029 A 
ATOM     38  N   UNL A   1      42.298  27.091  28.087  1.00  0.00    -0.354 N 
ATOM     39  C   UNL A   1      46.468  26.177  27.360  1.00  0.00     0.074 A 
ATOM     40  C   UNL A   1      46.637  24.791  26.964  1.00  0.00     0.031 C 
ATOM     41  C   UNL A   1      40.103  26.643  28.206  1.00  0.00     0.029 A 
ATOM     42  C   UNL A   1      41.109  27.659  28.468  1.00  0.00     0.049 A 
ATOM     43  H   UNL A   1      43.160  27.565  28.113  1.00  0.00     0.167 HD
ATOM     44  C   UNL A   1      47.474  27.073  27.532  1.00  0.00     0.031 A 
ATOM     45  C   UNL A   1      40.845  28.868  28.983  1.00  0.00     0.031 A 
ATOM     46  C   UNL A   1      47.276  28.443  27.953  1.00  0.00     0.049 A 
ATOM     47  C   UNL A   1      41.969  29.831  29.155  1.00  0.00     0.074 A 
ATOM     48  C   UNL A   1      48.218  29.450  28.102  1.00  0.00     0.029 A 
ATOM     49  N   UNL A   1      46.053  28.996  28.307  1.00  0.00    -0.354 N 
ATOM     50  N   UNL A   1      43.246  29.648  28.932  1.00  0.00    -0.248 NA
ATOM     51  C   UNL A   1      41.609  31.174  29.615  1.00  0.00     0.031 C 
ATOM     52  C   UNL A   1      47.573  30.593  28.592  1.00  0.00     0.029 A 
ATOM     53  C   UNL A   1      46.219  30.319  28.694  1.00  0.00     0.049 A 
ATOM     54  H   UNL A   1      45.192  28.520  28.286  1.00  0.00     0.167 HD
ATOM     55  C   UNL A   1      43.848  30.867  29.194  1.00  0.00     0.074 A 
ATOM     56  C   UNL A   1      42.788  31.779  29.584  1.00  0.00     0.031 C 
ATOM     57  C   UNL A   1      45.158  31.203  29.107  1.00  0.00     0.031 A 
BRANCH  44  58
ATOM     58  C   UNL A   1      48.890  26.611  27.288  1.00  0.00    -0.014 A 
ATOM     59  C   UNL A   1      49.669  26.054  28.316  1.00  0.00     0.009 A 
ATOM     60  C   UNL A   1      49.427  26.652  25.989  1.00  0.00     0.009 A 
ATOM     61  C   UNL A   1      50.958  25.578  28.056  1.00  0.00     0.001 A 
ATOM     62  C   UNL A   1      50.706  26.151  25.727  1.00  0.00     0.001 A 
ATOM     63  C   UNL A   1      51.474  25.622  26.762  1.00  0.00     0.000 A 
ENDBRANCH  44  58
BRANCH  45  64
ATOM     64  C   UNL A   1      39.437  29.215  29.273  1.00  0.00    -0.014 A 
ATOM     65  C   UNL A   1      38.610  29.676  28.240  1.00  0.00     0.009 A 
ATOM     66  C   UNL A   1      38.882  28.951  30.535  1.00  0.00     0.009 A 
ATOM     67  C   UNL A   1      37.247  29.869  28.466  1.00  0.00     0.001 A 
ATOM     68  C   UNL A   1      37.514  29.123  30.750  1.00  0.00     0.001 A 
ATOM     69  C   UNL A   1      36.699  29.584  29.716  1.00  0.00     0.000 A 
ENDBRANCH  45  64
BRANCH  57  70
ATOM     70  C   UNL A   1      45.492  32.632  29.421  1.00  0.00    -0.014 A 
ATOM     71  C   UNL A   1      45.809  33.034  30.727  1.00  0.00     0.009 A 
ATOM     72  C   UNL A   1      45.449  33.594  28.400  1.00  0.00     0.009 A 
ATOM     73  C   UNL A   1      46.029  34.383  31.015  1.00  0.00     0.001 A 
ATOM     74  C   UNL A   1      45.696  34.937  28.686  1.00  0.00     0.001 A 
ATOM     75  C   UNL A   1      45.971  35.332  29.995  1.00  0.00     0.000 A 
ENDBRANCH  57  70
ENDBRANCH  31  32
ENDBRANCH  24  26
ENDBRANCH  23  24
ENDBRANCH  22  23
ENDBRANCH   1  22
TORSDOF 17
ENDMDL
