MODEL 1
REMARK VINA RESULT:      -9.8      0.000      0.000
REMARK SMILES Cc1cc(Cl)c2c(c1)C=C(C(=O)OCCOC(=O)c1ccc(-c3c4nc(c(-c5ccccc5)c5ccc([nH]5)c(-c5ccccc5)c5nc(c(-c6ccccc6)c6ccc3[nH]6)C=C5)C=C4)cc1)[C@@H](C(F)(F)F)O2
REMARK SMILES IDX 15 1 14 2 13 3 11 4 12 5 10 6 1 7 2 8 3 9 8 10 4 11 7 12
REMARK SMILES IDX 5 13 6 14 9 15 72 16 67 17 68 18 69 19 70 20 71 21 16 22
REMARK SMILES IDX 17 23 18 24 19 25 20 26 66 27 21 28 65 29 22 30 23 31 24 32
REMARK SMILES IDX 59 33 25 34 64 35 58 36 60 37 26 38 63 39 57 40 56 41 27 43
REMARK SMILES IDX 49 44 34 45 48 46 35 47 38 48 47 49 61 50 36 51 37 52 46 54
REMARK SMILES IDX 62 55 39 56 28 57 29 58 33 59 30 60 32 61 31 62 50 63 51 64
REMARK SMILES IDX 55 65 52 66 54 67 53 68 40 69 41 70 45 71 42 72 44 73 43 74
REMARK H PARENT 60 42 38 53
REMARK Flexibility Score: inf
ROOT
ATOM      1  C   UNL A   1      40.875  20.020  26.209  1.00  0.00     0.275 C 
ENDROOT
BRANCH   1   2
ATOM      2  C   UNL A   1      42.273  19.881  26.813  1.00  0.00     0.275 C 
BRANCH   2   3
ATOM      3  O   UNL A   1      43.289  20.390  25.920  1.00  0.00    -0.459 OA
BRANCH   3   4
ATOM      4  C   UNL A   1      43.231  21.718  25.676  1.00  0.00     0.338 C 
ATOM      5  O   UNL A   1      42.377  22.305  25.031  1.00  0.00    -0.246 OA
BRANCH   4   6
ATOM      6  C   UNL A   1      44.351  22.419  26.332  1.00  0.00     0.087 C 
ATOM      7  C   UNL A   1      45.397  26.616  30.714  1.00  0.00     0.044 C 
ATOM      8  C   UNL A   1      45.750  25.712  29.570  1.00  0.00    -0.049 A 
ATOM      9  C   UNL A   1      47.041  25.689  29.031  1.00  0.00     0.028 A 
ATOM     10  C   UNL A   1      44.791  24.842  29.047  1.00  0.00     0.015 A 
ATOM     11  C   UNL A   1      47.357  24.823  27.975  1.00  0.00     0.084 A 
ATOM     12  C   UNL A   1      45.103  23.991  27.976  1.00  0.00     0.019 A 
ATOM     13  Cl  UNL A   1      48.966  24.855  27.346  1.00  0.00    -0.080 Cl
ATOM     14  C   UNL A   1      46.387  23.970  27.434  1.00  0.00     0.146 A 
ATOM     15  C   UNL A   1      44.066  23.158  27.408  1.00  0.00     0.027 C 
ATOM     16  O   UNL A   1      46.738  23.132  26.409  1.00  0.00    -0.474 OA
ATOM     17  C   UNL A   1      45.705  22.406  25.685  1.00  0.00     0.316 C 
BRANCH  17  18
ATOM     18  C   UNL A   1      45.637  22.932  24.242  1.00  0.00     0.430 C 
ATOM     19  F   UNL A   1      46.857  23.299  23.788  1.00  0.00    -0.167 F 
ATOM     20  F   UNL A   1      45.177  21.982  23.390  1.00  0.00    -0.167 F 
ATOM     21  F   UNL A   1      44.819  24.003  24.130  1.00  0.00    -0.167 F 
ENDBRANCH  17  18
ENDBRANCH   4   6
ENDBRANCH   3   4
ENDBRANCH   2   3
ENDBRANCH   1   2
BRANCH   1  22
ATOM     22  O   UNL A   1      40.032  20.811  27.066  1.00  0.00    -0.458 OA
BRANCH  22  23
ATOM     23  C   UNL A   1      39.309  21.767  26.440  1.00  0.00     0.338 C 
ATOM     24  O   UNL A   1      38.419  21.610  25.622  1.00  0.00    -0.246 OA
BRANCH  23  25
ATOM     25  C   UNL A   1      39.681  23.098  26.941  1.00  0.00     0.060 A 
ATOM     26  C   UNL A   1      39.274  24.213  26.220  1.00  0.00     0.016 A 
ATOM     27  C   UNL A   1      40.602  23.237  27.976  1.00  0.00     0.016 A 
ATOM     28  C   UNL A   1      39.918  25.433  26.403  1.00  0.00     0.010 A 
ATOM     29  C   UNL A   1      41.127  24.503  28.266  1.00  0.00     0.010 A 
ATOM     30  C   UNL A   1      40.839  25.608  27.444  1.00  0.00    -0.014 A 
BRANCH  30  31
ATOM     31  C   UNL A   1      41.509  26.927  27.647  1.00  0.00     0.031 A 
ATOM     32  C   UNL A   1      42.829  27.230  26.977  1.00  0.00     0.074 A 
ATOM     33  C   UNL A   1      40.928  27.880  28.407  1.00  0.00     0.049 A 
ATOM     34  N   UNL A   1      43.642  28.239  27.170  1.00  0.00    -0.248 NA
ATOM     35  C   UNL A   1      43.306  26.268  25.967  1.00  0.00     0.031 C 
ATOM     36  C   UNL A   1      39.626  27.766  29.069  1.00  0.00     0.029 A 
ATOM     37  N   UNL A   1      41.350  29.146  28.739  1.00  0.00    -0.354 N 
ATOM     38  C   UNL A   1      44.747  28.002  26.358  1.00  0.00     0.074 A 
ATOM     39  C   UNL A   1      44.506  26.751  25.673  1.00  0.00     0.031 C 
ATOM     40  C   UNL A   1      39.324  28.929  29.661  1.00  0.00     0.029 A 
ATOM     41  C   UNL A   1      40.460  29.833  29.531  1.00  0.00     0.049 A 
ATOM     42  H   UNL A   1      42.206  29.525  28.436  1.00  0.00     0.167 HD
ATOM     43  C   UNL A   1      45.860  28.757  26.198  1.00  0.00     0.031 A 
ATOM     44  C   UNL A   1      40.556  31.032  30.136  1.00  0.00     0.031 A 
ATOM     45  C   UNL A   1      46.078  30.025  26.844  1.00  0.00     0.049 A 
ATOM     46  C   UNL A   1      41.825  31.817  30.000  1.00  0.00     0.074 A 
ATOM     47  C   UNL A   1      47.174  30.866  26.743  1.00  0.00     0.029 A 
ATOM     48  N   UNL A   1      45.177  30.644  27.695  1.00  0.00    -0.354 N 
ATOM     49  N   UNL A   1      42.891  31.542  29.289  1.00  0.00    -0.248 NA
ATOM     50  C   UNL A   1      41.917  33.065  30.771  1.00  0.00     0.031 C 
ATOM     51  C   UNL A   1      46.956  31.970  27.570  1.00  0.00     0.029 A 
ATOM     52  C   UNL A   1      45.699  31.846  28.142  1.00  0.00     0.049 A 
ATOM     53  H   UNL A   1      44.296  30.282  27.946  1.00  0.00     0.167 HD
ATOM     54  C   UNL A   1      43.777  32.585  29.519  1.00  0.00     0.074 A 
ATOM     55  C   UNL A   1      43.114  33.511  30.416  1.00  0.00     0.031 C 
ATOM     56  C   UNL A   1      45.031  32.754  29.035  1.00  0.00     0.031 A 
BRANCH  43  57
ATOM     57  C   UNL A   1      46.953  28.223  25.312  1.00  0.00    -0.014 A 
ATOM     58  C   UNL A   1      46.800  28.144  23.920  1.00  0.00     0.009 A 
ATOM     59  C   UNL A   1      48.186  27.859  25.879  1.00  0.00     0.009 A 
ATOM     60  C   UNL A   1      47.849  27.685  23.117  1.00  0.00     0.001 A 
ATOM     61  C   UNL A   1      49.242  27.429  25.074  1.00  0.00     0.001 A 
ATOM     62  C   UNL A   1      49.070  27.336  23.694  1.00  0.00     0.000 A 
ENDBRANCH  43  57
BRANCH  44  63
ATOM     63  C   UNL A   1      39.429  31.530  30.970  1.00  0.00    -0.014 A 
ATOM     64  C   UNL A   1      39.367  31.226  32.338  1.00  0.00     0.009 A 
ATOM     65  C   UNL A   1      38.426  32.339  30.410  1.00  0.00     0.009 A 
ATOM     66  C   UNL A   1      38.323  31.720  33.125  1.00  0.00     0.001 A 
ATOM     67  C   UNL A   1      37.404  32.859  31.206  1.00  0.00     0.001 A 
ATOM     68  C   UNL A   1      37.350  32.544  32.561  1.00  0.00     0.000 A 
ENDBRANCH  44  63
BRANCH  56  69
ATOM     69  C   UNL A   1      45.766  33.998  29.446  1.00  0.00    -0.014 A 
ATOM     70  C   UNL A   1      46.607  34.004  30.570  1.00  0.00     0.009 A 
ATOM     71  C   UNL A   1      45.663  35.158  28.663  1.00  0.00     0.009 A 
ATOM     72  C   UNL A   1      47.314  35.158  30.913  1.00  0.00     0.001 A 
ATOM     73  C   UNL A   1      46.394  36.300  28.992  1.00  0.00     0.001 A 
ATOM     74  C   UNL A   1      47.214  36.300  30.121  1.00  0.00     0.000 A 
ENDBRANCH  56  69
ENDBRANCH  30  31
ENDBRANCH  23  25
ENDBRANCH  22  23
ENDBRANCH   1  22
TORSDOF 12
ENDMDL
MODEL 2
REMARK VINA RESULT:      -9.6      4.876      9.301
REMARK SMILES Cc1cc(Cl)c2c(c1)C=C(C(=O)OCCOC(=O)c1ccc(-c3c4nc(c(-c5ccccc5)c5ccc([nH]5)c(-c5ccccc5)c5nc(c(-c6ccccc6)c6ccc3[nH]6)C=C5)C=C4)cc1)[C@@H](C(F)(F)F)O2
REMARK SMILES IDX 15 1 14 2 13 3 11 4 12 5 10 6 1 7 2 8 3 9 8 10 4 11 7 12
REMARK SMILES IDX 5 13 6 14 9 15 72 16 67 17 68 18 69 19 70 20 71 21 16 22
REMARK SMILES IDX 17 23 18 24 19 25 20 26 66 27 21 28 65 29 22 30 23 31 24 32
REMARK SMILES IDX 59 33 25 34 64 35 58 36 60 37 26 38 63 39 57 40 56 41 27 43
REMARK SMILES IDX 49 44 34 45 48 46 35 47 38 48 47 49 61 50 36 51 37 52 46 54
REMARK SMILES IDX 62 55 39 56 28 57 29 58 33 59 30 60 32 61 31 62 50 63 51 64
REMARK SMILES IDX 55 65 52 66 54 67 53 68 40 69 41 70 45 71 42 72 44 73 43 74
REMARK H PARENT 60 42 38 53
REMARK Flexibility Score: inf
ROOT
ATOM      1  C   UNL A   1      36.312  20.704  25.325  1.00  0.00     0.275 C 
ENDROOT
BRANCH   1   2
ATOM      2  C   UNL A   1      35.006  21.444  25.031  1.00  0.00     0.275 C 
BRANCH   2   3
ATOM      3  O   UNL A   1      35.216  22.871  24.944  1.00  0.00    -0.459 OA
BRANCH   3   4
ATOM      4  C   UNL A   1      35.008  23.413  23.723  1.00  0.00     0.338 C 
ATOM      5  O   UNL A   1      35.494  23.038  22.667  1.00  0.00    -0.246 OA
BRANCH   4   6
ATOM      6  C   UNL A   1      34.060  24.539  23.804  1.00  0.00     0.087 C 
ATOM      7  C   UNL A   1      32.811  29.437  27.320  1.00  0.00     0.044 C 
ATOM      8  C   UNL A   1      32.566  28.432  26.234  1.00  0.00    -0.049 A 
ATOM      9  C   UNL A   1      31.395  28.455  25.470  1.00  0.00     0.028 A 
ATOM     10  C   UNL A   1      33.536  27.470  25.943  1.00  0.00     0.015 A 
ATOM     11  C   UNL A   1      31.193  27.518  24.446  1.00  0.00     0.084 A 
ATOM     12  C   UNL A   1      33.323  26.521  24.932  1.00  0.00     0.019 A 
ATOM     13  Cl  UNL A   1      29.716  27.594  23.551  1.00  0.00    -0.080 Cl
ATOM     14  C   UNL A   1      32.154  26.539  24.173  1.00  0.00     0.146 A 
ATOM     15  C   UNL A   1      34.315  25.490  24.706  1.00  0.00     0.027 C 
ATOM     16  O   UNL A   1      31.923  25.648  23.158  1.00  0.00    -0.474 OA
ATOM     17  C   UNL A   1      32.793  24.491  23.002  1.00  0.00     0.316 C 
BRANCH  17  18
ATOM     18  C   UNL A   1      31.992  23.215  23.305  1.00  0.00     0.430 C 
ATOM     19  F   UNL A   1      32.068  22.878  24.613  1.00  0.00    -0.167 F 
ATOM     20  F   UNL A   1      30.675  23.378  23.024  1.00  0.00    -0.167 F 
ATOM     21  F   UNL A   1      32.429  22.158  22.584  1.00  0.00    -0.167 F 
ENDBRANCH  17  18
ENDBRANCH   4   6
ENDBRANCH   3   4
ENDBRANCH   2   3
ENDBRANCH   1   2
BRANCH   1  22
ATOM     22  O   UNL A   1      37.443  21.554  25.060  1.00  0.00    -0.458 OA
BRANCH  22  23
ATOM     23  C   UNL A   1      38.579  21.219  25.712  1.00  0.00     0.338 C 
ATOM     24  O   UNL A   1      39.154  20.145  25.702  1.00  0.00    -0.246 OA
BRANCH  23  25
ATOM     25  C   UNL A   1      39.125  22.388  26.418  1.00  0.00     0.060 A 
ATOM     26  C   UNL A   1      38.574  23.636  26.157  1.00  0.00     0.016 A 
ATOM     27  C   UNL A   1      40.303  22.287  27.153  1.00  0.00     0.016 A 
ATOM     28  C   UNL A   1      39.288  24.790  26.464  1.00  0.00     0.010 A 
ATOM     29  C   UNL A   1      40.935  23.454  27.605  1.00  0.00     0.010 A 
ATOM     30  C   UNL A   1      40.470  24.723  27.214  1.00  0.00    -0.014 A 
BRANCH  30  31
ATOM     31  C   UNL A   1      41.218  25.969  27.558  1.00  0.00     0.031 A 
ATOM     32  C   UNL A   1      40.638  26.971  28.528  1.00  0.00     0.074 A 
ATOM     33  C   UNL A   1      42.438  26.201  27.028  1.00  0.00     0.049 A 
ATOM     34  N   UNL A   1      41.052  28.181  28.813  1.00  0.00    -0.248 NA
ATOM     35  C   UNL A   1      39.429  26.568  29.268  1.00  0.00     0.031 C 
ATOM     36  C   UNL A   1      43.162  25.302  26.126  1.00  0.00     0.029 A 
ATOM     37  N   UNL A   1      43.299  27.262  27.187  1.00  0.00    -0.354 N 
ATOM     38  C   UNL A   1      40.125  28.702  29.710  1.00  0.00     0.074 A 
ATOM     39  C   UNL A   1      39.122  27.681  29.920  1.00  0.00     0.031 C 
ATOM     40  C   UNL A   1      44.375  25.809  25.872  1.00  0.00     0.029 A 
ATOM     41  C   UNL A   1      44.475  27.126  26.487  1.00  0.00     0.049 A 
ATOM     42  H   UNL A   1      43.094  28.043  27.750  1.00  0.00     0.167 HD
ATOM     43  C   UNL A   1      40.110  29.919  30.305  1.00  0.00     0.031 A 
ATOM     44  C   UNL A   1      45.502  27.977  26.308  1.00  0.00     0.031 A 
ATOM     45  C   UNL A   1      41.134  30.917  30.131  1.00  0.00     0.049 A 
ATOM     46  C   UNL A   1      45.430  29.344  26.919  1.00  0.00     0.074 A 
ATOM     47  C   UNL A   1      41.208  32.180  30.693  1.00  0.00     0.029 A 
ATOM     48  N   UNL A   1      42.269  30.758  29.353  1.00  0.00    -0.354 N 
ATOM     49  N   UNL A   1      44.509  29.848  27.703  1.00  0.00    -0.248 NA
ATOM     50  C   UNL A   1      46.526  30.270  26.598  1.00  0.00     0.031 C 
ATOM     51  C   UNL A   1      42.364  32.803  30.217  1.00  0.00     0.029 A 
ATOM     52  C   UNL A   1      43.040  31.907  29.405  1.00  0.00     0.049 A 
ATOM     53  H   UNL A   1      42.494  29.948  28.840  1.00  0.00     0.167 HD
ATOM     54  C   UNL A   1      44.917  31.146  27.978  1.00  0.00     0.074 A 
ATOM     55  C   UNL A   1      46.180  31.344  27.296  1.00  0.00     0.031 C 
ATOM     56  C   UNL A   1      44.293  32.091  28.721  1.00  0.00     0.031 A 
BRANCH  43  57
ATOM     57  C   UNL A   1      38.934  30.264  31.177  1.00  0.00    -0.014 A 
ATOM     58  C   UNL A   1      38.959  30.053  32.564  1.00  0.00     0.009 A 
ATOM     59  C   UNL A   1      37.806  30.876  30.606  1.00  0.00     0.009 A 
ATOM     60  C   UNL A   1      37.868  30.424  33.356  1.00  0.00     0.001 A 
ATOM     61  C   UNL A   1      36.730  31.273  31.403  1.00  0.00     0.001 A 
ATOM     62  C   UNL A   1      36.760  31.040  32.777  1.00  0.00     0.000 A 
ENDBRANCH  43  57
BRANCH  44  63
ATOM     63  C   UNL A   1      46.660  27.571  25.465  1.00  0.00    -0.014 A 
ATOM     64  C   UNL A   1      46.699  27.901  24.103  1.00  0.00     0.009 A 
ATOM     65  C   UNL A   1      47.746  26.879  26.027  1.00  0.00     0.009 A 
ATOM     66  C   UNL A   1      47.801  27.544  23.321  1.00  0.00     0.001 A 
ATOM     67  C   UNL A   1      48.860  26.554  25.251  1.00  0.00     0.001 A 
ATOM     68  C   UNL A   1      48.885  26.881  23.898  1.00  0.00     0.000 A 
ENDBRANCH  44  63
BRANCH  56  69
ATOM     69  C   UNL A   1      44.976  33.421  28.859  1.00  0.00    -0.014 A 
ATOM     70  C   UNL A   1      45.924  33.647  29.869  1.00  0.00     0.009 A 
ATOM     71  C   UNL A   1      44.713  34.439  27.929  1.00  0.00     0.009 A 
ATOM     72  C   UNL A   1      46.580  34.876  29.957  1.00  0.00     0.001 A 
ATOM     73  C   UNL A   1      45.391  35.655  28.002  1.00  0.00     0.001 A 
ATOM     74  C   UNL A   1      46.319  35.875  29.020  1.00  0.00     0.000 A 
ENDBRANCH  56  69
ENDBRANCH  30  31
ENDBRANCH  23  25
ENDBRANCH  22  23
ENDBRANCH   1  22
TORSDOF 12
ENDMDL
MODEL 3
REMARK VINA RESULT:      -9.6      6.099      9.489
REMARK SMILES Cc1cc(Cl)c2c(c1)C=C(C(=O)OCCOC(=O)c1ccc(-c3c4nc(c(-c5ccccc5)c5ccc([nH]5)c(-c5ccccc5)c5nc(c(-c6ccccc6)c6ccc3[nH]6)C=C5)C=C4)cc1)[C@@H](C(F)(F)F)O2
REMARK SMILES IDX 15 1 14 2 13 3 11 4 12 5 10 6 1 7 2 8 3 9 8 10 4 11 7 12
REMARK SMILES IDX 5 13 6 14 9 15 72 16 67 17 68 18 69 19 70 20 71 21 16 22
REMARK SMILES IDX 17 23 18 24 19 25 20 26 66 27 21 28 65 29 22 30 23 31 24 32
REMARK SMILES IDX 59 33 25 34 64 35 58 36 60 37 26 38 63 39 57 40 56 41 27 43
REMARK SMILES IDX 49 44 34 45 48 46 35 47 38 48 47 49 61 50 36 51 37 52 46 54
REMARK SMILES IDX 62 55 39 56 28 57 29 58 33 59 30 60 32 61 31 62 50 63 51 64
REMARK SMILES IDX 55 65 52 66 54 67 53 68 40 69 41 70 45 71 42 72 44 73 43 74
REMARK H PARENT 60 42 38 53
REMARK Flexibility Score: inf
ROOT
ATOM      1  C   UNL A   1      31.601  30.464  25.745  1.00  0.00     0.275 C 
ENDROOT
BRANCH   1   2
ATOM      2  C   UNL A   1      31.743  29.119  25.031  1.00  0.00     0.275 C 
BRANCH   2   3
ATOM      3  O   UNL A   1      32.537  28.191  25.803  1.00  0.00    -0.459 OA
BRANCH   3   4
ATOM      4  C   UNL A   1      31.839  27.226  26.443  1.00  0.00     0.338 C 
ATOM      5  O   UNL A   1      30.969  27.390  27.284  1.00  0.00    -0.246 OA
BRANCH   4   6
ATOM      6  C   UNL A   1      32.240  25.888  25.968  1.00  0.00     0.087 C 
ATOM      7  C   UNL A   1      37.303  22.688  24.541  1.00  0.00     0.044 C 
ATOM      8  C   UNL A   1      35.829  22.955  24.623  1.00  0.00    -0.049 A 
ATOM      9  C   UNL A   1      34.894  22.060  24.094  1.00  0.00     0.028 A 
ATOM     10  C   UNL A   1      35.364  24.101  25.274  1.00  0.00     0.015 A 
ATOM     11  C   UNL A   1      33.520  22.319  24.198  1.00  0.00     0.084 A 
ATOM     12  C   UNL A   1      33.990  24.368  25.359  1.00  0.00     0.019 A 
ATOM     13  Cl  UNL A   1      32.420  21.178  23.509  1.00  0.00    -0.080 Cl
ATOM     14  C   UNL A   1      33.057  23.480  24.828  1.00  0.00     0.146 A 
ATOM     15  C   UNL A   1      33.544  25.602  25.973  1.00  0.00     0.027 C 
ATOM     16  O   UNL A   1      31.706  23.691  24.918  1.00  0.00    -0.474 OA
ATOM     17  C   UNL A   1      31.207  24.985  25.361  1.00  0.00     0.316 C 
BRANCH  17  18
ATOM     18  C   UNL A   1      30.485  25.673  24.191  1.00  0.00     0.430 C 
ATOM     19  F   UNL A   1      29.855  24.777  23.398  1.00  0.00    -0.167 F 
ATOM     20  F   UNL A   1      29.534  26.533  24.633  1.00  0.00    -0.167 F 
ATOM     21  F   UNL A   1      31.337  26.379  23.414  1.00  0.00    -0.167 F 
ENDBRANCH  17  18
ENDBRANCH   4   6
ENDBRANCH   3   4
ENDBRANCH   2   3
ENDBRANCH   1   2
BRANCH   1  22
ATOM     22  O   UNL A   1      32.346  30.460  26.977  1.00  0.00    -0.458 OA
BRANCH  22  23
ATOM     23  C   UNL A   1      33.048  31.588  27.227  1.00  0.00     0.338 C 
ATOM     24  O   UNL A   1      32.640  32.737  27.213  1.00  0.00    -0.246 OA
BRANCH  23  25
ATOM     25  C   UNL A   1      34.425  31.256  27.621  1.00  0.00     0.060 A 
ATOM     26  C   UNL A   1      34.741  29.925  27.863  1.00  0.00     0.016 A 
ATOM     27  C   UNL A   1      35.328  32.258  27.965  1.00  0.00     0.016 A 
ATOM     28  C   UNL A   1      35.868  29.601  28.611  1.00  0.00     0.010 A 
ATOM     29  C   UNL A   1      36.542  31.913  28.573  1.00  0.00     0.010 A 
ATOM     30  C   UNL A   1      36.802  30.586  28.960  1.00  0.00    -0.014 A 
BRANCH  30  31
ATOM     31  C   UNL A   1      38.021  30.226  29.745  1.00  0.00     0.031 A 
ATOM     32  C   UNL A   1      39.134  29.425  29.112  1.00  0.00     0.074 A 
ATOM     33  C   UNL A   1      38.158  30.639  31.023  1.00  0.00     0.049 A 
ATOM     34  N   UNL A   1      40.179  28.871  29.677  1.00  0.00    -0.248 NA
ATOM     35  C   UNL A   1      39.061  29.206  27.657  1.00  0.00     0.031 C 
ATOM     36  C   UNL A   1      37.202  31.473  31.757  1.00  0.00     0.029 A 
ATOM     37  N   UNL A   1      39.168  30.430  31.932  1.00  0.00    -0.354 N 
ATOM     38  C   UNL A   1      40.846  28.190  28.664  1.00  0.00     0.074 A 
ATOM     39  C   UNL A   1      40.089  28.394  27.449  1.00  0.00     0.031 C 
ATOM     40  C   UNL A   1      37.700  31.763  32.965  1.00  0.00     0.029 A 
ATOM     41  C   UNL A   1      38.951  31.037  33.146  1.00  0.00     0.049 A 
ATOM     42  H   UNL A   1      39.971  29.898  31.731  1.00  0.00     0.167 HD
ATOM     43  C   UNL A   1      41.986  27.462  28.739  1.00  0.00     0.031 A 
ATOM     44  C   UNL A   1      39.642  30.982  34.300  1.00  0.00     0.031 A 
ATOM     45  C   UNL A   1      42.765  27.298  29.939  1.00  0.00     0.049 A 
ATOM     46  C   UNL A   1      40.861  30.114  34.378  1.00  0.00     0.074 A 
ATOM     47  C   UNL A   1      43.937  26.581  30.114  1.00  0.00     0.029 A 
ATOM     48  N   UNL A   1      42.463  27.874  31.162  1.00  0.00    -0.354 N 
ATOM     49  N   UNL A   1      41.437  29.416  33.430  1.00  0.00    -0.248 NA
ATOM     50  C   UNL A   1      41.513  30.004  35.691  1.00  0.00     0.031 C 
ATOM     51  C   UNL A   1      44.316  26.684  31.454  1.00  0.00     0.029 A 
ATOM     52  C   UNL A   1      43.414  27.513  32.101  1.00  0.00     0.049 A 
ATOM     53  H   UNL A   1      41.687  28.455  31.337  1.00  0.00     0.167 HD
ATOM     54  C   UNL A   1      42.522  28.790  34.027  1.00  0.00     0.074 A 
ATOM     55  C   UNL A   1      42.539  29.211  35.414  1.00  0.00     0.031 C 
ATOM     56  C   UNL A   1      43.417  27.937  33.477  1.00  0.00     0.031 A 
BRANCH  43  57
ATOM     57  C   UNL A   1      42.453  26.752  27.497  1.00  0.00    -0.014 A 
ATOM     58  C   UNL A   1      42.015  25.458  27.179  1.00  0.00     0.009 A 
ATOM     59  C   UNL A   1      43.294  27.423  26.592  1.00  0.00     0.009 A 
ATOM     60  C   UNL A   1      42.431  24.840  25.996  1.00  0.00     0.001 A 
ATOM     61  C   UNL A   1      43.684  26.816  25.398  1.00  0.00     0.001 A 
ATOM     62  C   UNL A   1      43.258  25.522  25.104  1.00  0.00     0.000 A 
ENDBRANCH  43  57
BRANCH  44  63
ATOM     63  C   UNL A   1      39.157  31.734  35.489  1.00  0.00    -0.014 A 
ATOM     64  C   UNL A   1      39.586  33.048  35.724  1.00  0.00     0.009 A 
ATOM     65  C   UNL A   1      38.237  31.153  36.378  1.00  0.00     0.009 A 
ATOM     66  C   UNL A   1      39.105  33.762  36.825  1.00  0.00     0.001 A 
ATOM     67  C   UNL A   1      37.732  31.881  37.457  1.00  0.00     0.001 A 
ATOM     68  C   UNL A   1      38.172  33.182  37.683  1.00  0.00     0.000 A 
ENDBRANCH  44  63
BRANCH  56  69
ATOM     69  C   UNL A   1      44.509  27.414  34.366  1.00  0.00    -0.014 A 
ATOM     70  C   UNL A   1      44.360  26.203  35.060  1.00  0.00     0.009 A 
ATOM     71  C   UNL A   1      45.723  28.112  34.461  1.00  0.00     0.009 A 
ATOM     72  C   UNL A   1      45.402  25.712  35.849  1.00  0.00     0.001 A 
ATOM     73  C   UNL A   1      46.771  27.604  35.228  1.00  0.00     0.001 A 
ATOM     74  C   UNL A   1      46.608  26.408  35.926  1.00  0.00     0.000 A 
ENDBRANCH  56  69
ENDBRANCH  30  31
ENDBRANCH  23  25
ENDBRANCH  22  23
ENDBRANCH   1  22
TORSDOF 12
ENDMDL
