MODEL 1
REMARK VINA RESULT:      -8.8      0.000      0.000
REMARK SMILES Cc1ccc(S(=O)(=O)n2cc(C(=O)C(=O)NCC(=O)N[C@@H](Cc3c[nH]c4ccccc34)C(=O)OCCOC(=O)c3ccc(-c4c5nc(c(-c6ccccc6)c6ccc([nH]6)c(-c6ccccc6)c6nc(c(-c7ccccc7)c7ccc4[nH]7)C=C6)C=C5)cc3)c3ccccc32)cc1
REMARK SMILES IDX 32 1 33 2 21 3 20 4 18 5 19 6 17 8 16 9 14 10 15 11 12 13
REMARK SMILES IDX 13 14 11 15 9 16 10 17 93 18 88 19 92 20 89 21 91 22 90 23
REMARK SMILES IDX 6 24 7 25 8 26 5 27 1 28 2 29 3 30 95 31 4 32 94 33 22 34
REMARK SMILES IDX 23 35 24 36 31 37 25 38 26 39 30 40 27 42 29 43 28 44 34 45
REMARK SMILES IDX 35 46 36 47 37 48 38 49 39 50 40 51 41 52 87 53 42 54 86 55
REMARK SMILES IDX 43 56 44 57 45 58 80 59 46 60 85 61 79 62 81 63 47 64 84 65
REMARK SMILES IDX 78 66 77 67 48 69 70 70 55 71 69 72 56 73 59 74 68 75 82 76
REMARK SMILES IDX 57 77 58 78 67 80 83 81 60 82 49 83 50 84 54 85 51 86 53 87
REMARK SMILES IDX 52 88 71 89 72 90 76 91 73 92 75 93 74 94 61 95 62 96 66 97
REMARK SMILES IDX 63 98 65 99 64 100
REMARK H PARENT 20 7 16 12 25 41 81 68 59 79
REMARK Flexibility Score: inf
ROOT
ATOM      1  C   UNL A   1      47.469  28.382  34.645  1.00  0.00     0.329 C 
ATOM      2  O   UNL A   1      47.487  28.660  35.837  1.00  0.00    -0.250 OA
ENDROOT
BRANCH   1   3
ATOM      3  C   UNL A   1      46.162  28.269  33.866  1.00  0.00     0.196 C 
BRANCH   3   4
ATOM      4  N   UNL A   1      45.569  29.534  33.443  1.00  0.00    -0.341 N 
ATOM      5  C   UNL A   1      44.256  29.900  33.359  1.00  0.00     0.240 C 
ATOM      6  O   UNL A   1      44.021  31.078  33.075  1.00  0.00    -0.273 OA
ATOM      7  H   UNL A   1      46.214  30.229  33.179  1.00  0.00     0.164 HD
BRANCH   5   8
ATOM      8  C   UNL A   1      43.111  28.933  33.733  1.00  0.00     0.216 C 
BRANCH   8   9
ATOM      9  N   UNL A   1      42.411  29.215  34.986  1.00  0.00    -0.340 N 
ATOM     10  C   UNL A   1      41.038  29.243  35.189  1.00  0.00     0.292 C 
ATOM     11  O   UNL A   1      40.598  29.470  36.311  1.00  0.00    -0.265 OA
ATOM     12  H   UNL A   1      42.975  29.407  35.769  1.00  0.00     0.164 HD
BRANCH  10  13
ATOM     13  C   UNL A   1      40.074  29.000  34.002  1.00  0.00     0.252 C 
ATOM     14  O   UNL A   1      39.966  27.843  33.600  1.00  0.00    -0.283 OA
BRANCH  13  15
ATOM     15  C   UNL A   1      39.321  30.099  33.372  1.00  0.00     0.054 A 
ATOM     16  N   UNL A   1      37.727  31.595  32.840  1.00  0.00    -0.240 N 
ATOM     17  C   UNL A   1      38.086  30.610  33.744  1.00  0.00     0.117 A 
ATOM     18  C   UNL A   1      38.761  31.841  31.955  1.00  0.00     0.065 A 
ATOM     19  C   UNL A   1      39.746  30.877  32.234  1.00  0.00     0.012 A 
ATOM     20  C   UNL A   1      38.957  32.823  30.966  1.00  0.00     0.028 A 
ATOM     21  C   UNL A   1      40.926  30.875  31.456  1.00  0.00     0.011 A 
ATOM     22  C   UNL A   1      40.154  32.818  30.243  1.00  0.00     0.002 A 
ATOM     23  C   UNL A   1      41.121  31.847  30.472  1.00  0.00     0.001 A 
BRANCH  16  24
ATOM     24  S   UNL A   1      36.173  32.328  32.925  1.00  0.00     0.268 S 
ATOM     25  O   UNL A   1      35.855  31.591  31.693  1.00  0.00    -0.201 OA
ATOM     26  O   UNL A   1      36.907  33.509  33.337  1.00  0.00    -0.201 OA
BRANCH  24  27
ATOM     27  C   UNL A   1      34.993  33.546  32.326  1.00  0.00     0.088 A 
ATOM     28  C   UNL A   1      32.535  36.650  30.616  1.00  0.00     0.044 C 
ATOM     29  C   UNL A   1      33.351  35.535  31.207  1.00  0.00    -0.051 A 
ATOM     30  C   UNL A   1      33.459  35.402  32.599  1.00  0.00     0.005 A 
ATOM     31  C   UNL A   1      34.037  34.637  30.381  1.00  0.00     0.005 A 
ATOM     32  C   UNL A   1      34.273  34.411  33.162  1.00  0.00     0.022 A 
ATOM     33  C   UNL A   1      34.857  33.649  30.934  1.00  0.00     0.022 A 
ENDBRANCH  24  27
ENDBRANCH  16  24
ENDBRANCH  13  15
ENDBRANCH  10  13
ENDBRANCH   8   9
ENDBRANCH   5   8
ENDBRANCH   3   4
BRANCH   3  34
ATOM     34  C   UNL A   1      46.278  27.259  32.706  1.00  0.00     0.074 C 
BRANCH  34  35
ATOM     35  C   UNL A   1      45.559  25.929  32.782  1.00  0.00    -0.020 A 
ATOM     36  C   UNL A   1      44.974  25.287  33.861  1.00  0.00     0.087 A 
ATOM     37  C   UNL A   1      45.245  25.115  31.636  1.00  0.00     0.003 A 
ATOM     38  N   UNL A   1      44.202  24.255  33.399  1.00  0.00    -0.361 N 
ATOM     39  C   UNL A   1      44.395  24.092  32.055  1.00  0.00     0.046 A 
ATOM     40  C   UNL A   1      45.582  25.180  30.269  1.00  0.00     0.010 A 
ATOM     41  H   UNL A   1      43.597  23.711  33.954  1.00  0.00     0.166 HD
ATOM     42  C   UNL A   1      43.866  23.130  31.190  1.00  0.00     0.026 A 
ATOM     43  C   UNL A   1      45.093  24.203  29.393  1.00  0.00     0.001 A 
ATOM     44  C   UNL A   1      44.246  23.195  29.850  1.00  0.00     0.002 A 
ENDBRANCH  34  35
ENDBRANCH   3  34
ENDBRANCH   1   3
BRANCH   1  45
ATOM     45  O   UNL A   1      48.605  28.222  33.915  1.00  0.00    -0.461 OA
BRANCH  45  46
ATOM     46  C   UNL A   1      49.305  29.457  33.677  1.00  0.00     0.274 C 
BRANCH  46  47
ATOM     47  C   UNL A   1      50.612  29.275  32.904  1.00  0.00     0.275 C 
BRANCH  47  48
ATOM     48  O   UNL A   1      50.782  29.978  31.639  1.00  0.00    -0.458 OA
BRANCH  48  49
ATOM     49  C   UNL A   1      50.651  29.521  30.371  1.00  0.00     0.338 C 
ATOM     50  O   UNL A   1      51.626  29.256  29.677  1.00  0.00    -0.246 OA
BRANCH  49  51
ATOM     51  C   UNL A   1      49.300  29.294  29.835  1.00  0.00     0.060 A 
ATOM     52  C   UNL A   1      48.769  30.195  28.887  1.00  0.00     0.016 A 
ATOM     53  C   UNL A   1      48.601  28.153  30.193  1.00  0.00     0.016 A 
ATOM     54  C   UNL A   1      47.590  29.884  28.204  1.00  0.00     0.010 A 
ATOM     55  C   UNL A   1      47.522  27.785  29.433  1.00  0.00     0.010 A 
ATOM     56  C   UNL A   1      46.989  28.654  28.464  1.00  0.00    -0.014 A 
BRANCH  56  57
ATOM     57  C   UNL A   1      45.727  28.203  27.886  1.00  0.00     0.031 A 
ATOM     58  C   UNL A   1      44.492  28.100  28.691  1.00  0.00     0.074 A 
ATOM     59  C   UNL A   1      45.785  27.969  26.552  1.00  0.00     0.049 A 
ATOM     60  N   UNL A   1      43.546  27.250  28.479  1.00  0.00    -0.248 NA
ATOM     61  C   UNL A   1      44.209  28.951  29.844  1.00  0.00     0.031 C 
ATOM     62  C   UNL A   1      44.741  27.667  25.595  1.00  0.00     0.029 A 
ATOM     63  N   UNL A   1      46.954  27.796  25.796  1.00  0.00    -0.354 N 
ATOM     64  C   UNL A   1      42.433  27.719  29.158  1.00  0.00     0.074 A 
ATOM     65  C   UNL A   1      42.940  28.645  30.130  1.00  0.00     0.031 C 
ATOM     66  C   UNL A   1      45.296  26.996  24.563  1.00  0.00     0.029 A 
ATOM     67  C   UNL A   1      46.694  26.761  24.900  1.00  0.00     0.049 A 
ATOM     68  H   UNL A   1      47.792  28.305  25.882  1.00  0.00     0.167 HD
ATOM     69  C   UNL A   1      41.193  27.468  28.648  1.00  0.00     0.031 A 
ATOM     70  C   UNL A   1      47.306  25.547  25.061  1.00  0.00     0.031 A 
ATOM     71  C   UNL A   1      41.310  26.620  27.467  1.00  0.00     0.049 A 
ATOM     72  C   UNL A   1      46.279  24.490  25.414  1.00  0.00     0.074 A 
ATOM     73  C   UNL A   1      41.315  26.917  26.115  1.00  0.00     0.029 A 
ATOM     74  N   UNL A   1      41.864  25.356  27.603  1.00  0.00    -0.354 N 
ATOM     75  N   UNL A   1      45.137  24.748  25.993  1.00  0.00    -0.248 NA
ATOM     76  C   UNL A   1      46.434  23.078  25.083  1.00  0.00     0.031 C 
ATOM     77  C   UNL A   1      41.993  25.862  25.448  1.00  0.00     0.029 A 
ATOM     78  C   UNL A   1      42.378  24.929  26.395  1.00  0.00     0.049 A 
ATOM     79  H   UNL A   1      41.888  24.838  28.440  1.00  0.00     0.167 HD
ATOM     80  C   UNL A   1      44.353  23.625  25.963  1.00  0.00     0.074 A 
ATOM     81  C   UNL A   1      45.228  22.594  25.430  1.00  0.00     0.031 C 
ATOM     82  C   UNL A   1      43.031  23.633  26.307  1.00  0.00     0.031 A 
BRANCH  69  83
ATOM     83  C   UNL A   1      39.939  28.252  28.971  1.00  0.00    -0.014 A 
ATOM     84  C   UNL A   1      39.175  27.873  30.096  1.00  0.00     0.009 A 
ATOM     85  C   UNL A   1      39.429  29.326  28.222  1.00  0.00     0.009 A 
ATOM     86  C   UNL A   1      37.951  28.474  30.418  1.00  0.00     0.001 A 
ATOM     87  C   UNL A   1      38.194  29.927  28.532  1.00  0.00     0.001 A 
ATOM     88  C   UNL A   1      37.452  29.495  29.626  1.00  0.00     0.000 A 
ENDBRANCH  69  83
BRANCH  70  89
ATOM     89  C   UNL A   1      48.671  25.661  25.672  1.00  0.00    -0.014 A 
ATOM     90  C   UNL A   1      49.576  26.599  25.120  1.00  0.00     0.009 A 
ATOM     91  C   UNL A   1      48.861  25.272  27.001  1.00  0.00     0.009 A 
ATOM     92  C   UNL A   1      50.527  27.247  25.919  1.00  0.00     0.001 A 
ATOM     93  C   UNL A   1      49.822  25.918  27.783  1.00  0.00     0.001 A 
ATOM     94  C   UNL A   1      50.613  26.940  27.267  1.00  0.00     0.000 A 
ENDBRANCH  70  89
BRANCH  82  95
ATOM     95  C   UNL A   1      42.154  22.424  26.502  1.00  0.00    -0.014 A 
ATOM     96  C   UNL A   1      40.833  22.334  26.060  1.00  0.00     0.009 A 
ATOM     97  C   UNL A   1      42.731  21.244  27.035  1.00  0.00     0.009 A 
ATOM     98  C   UNL A   1      40.107  21.145  26.199  1.00  0.00     0.001 A 
ATOM     99  C   UNL A   1      42.034  20.043  27.113  1.00  0.00     0.001 A 
ATOM    100  C   UNL A   1      40.709  19.999  26.713  1.00  0.00     0.000 A 
ENDBRANCH  82  95
ENDBRANCH  56  57
ENDBRANCH  49  51
ENDBRANCH  48  49
ENDBRANCH  47  48
ENDBRANCH  46  47
ENDBRANCH  45  46
ENDBRANCH   1  45
TORSDOF 20
ENDMDL
MODEL 2
REMARK VINA RESULT:      -8.6      2.754      8.553
REMARK SMILES Cc1ccc(S(=O)(=O)n2cc(C(=O)C(=O)NCC(=O)N[C@@H](Cc3c[nH]c4ccccc34)C(=O)OCCOC(=O)c3ccc(-c4c5nc(c(-c6ccccc6)c6ccc([nH]6)c(-c6ccccc6)c6nc(c(-c7ccccc7)c7ccc4[nH]7)C=C6)C=C5)cc3)c3ccccc32)cc1
REMARK SMILES IDX 32 1 33 2 21 3 20 4 18 5 19 6 17 8 16 9 14 10 15 11 12 13
REMARK SMILES IDX 13 14 11 15 9 16 10 17 93 18 88 19 92 20 89 21 91 22 90 23
REMARK SMILES IDX 6 24 7 25 8 26 5 27 1 28 2 29 3 30 95 31 4 32 94 33 22 34
REMARK SMILES IDX 23 35 24 36 31 37 25 38 26 39 30 40 27 42 29 43 28 44 34 45
REMARK SMILES IDX 35 46 36 47 37 48 38 49 39 50 40 51 41 52 87 53 42 54 86 55
REMARK SMILES IDX 43 56 44 57 45 58 80 59 46 60 85 61 79 62 81 63 47 64 84 65
REMARK SMILES IDX 78 66 77 67 48 69 70 70 55 71 69 72 56 73 59 74 68 75 82 76
REMARK SMILES IDX 57 77 58 78 67 80 83 81 60 82 49 83 50 84 54 85 51 86 53 87
REMARK SMILES IDX 52 88 71 89 72 90 76 91 73 92 75 93 74 94 61 95 62 96 66 97
REMARK SMILES IDX 63 98 65 99 64 100
REMARK H PARENT 20 7 16 12 25 41 81 68 59 79
REMARK Flexibility Score: inf
ROOT
ATOM      1  C   UNL A   1      37.718  30.895  32.922  1.00  0.00     0.329 C 
ATOM      2  O   UNL A   1      36.514  30.679  32.891  1.00  0.00    -0.250 OA
ENDROOT
BRANCH   1   3
ATOM      3  C   UNL A   1      38.319  32.182  32.362  1.00  0.00     0.196 C 
BRANCH   3   4
ATOM      4  N   UNL A   1      37.836  33.418  32.970  1.00  0.00    -0.341 N 
ATOM      5  C   UNL A   1      36.960  34.347  32.485  1.00  0.00     0.240 C 
ATOM      6  O   UNL A   1      36.631  35.257  33.251  1.00  0.00    -0.273 OA
ATOM      7  H   UNL A   1      38.197  33.611  33.864  1.00  0.00     0.164 HD
BRANCH   5   8
ATOM      8  C   UNL A   1      36.300  34.204  31.096  1.00  0.00     0.216 C 
BRANCH   8   9
ATOM      9  N   UNL A   1      34.890  34.583  31.010  1.00  0.00    -0.340 N 
ATOM     10  C   UNL A   1      34.070  34.508  29.892  1.00  0.00     0.292 C 
ATOM     11  O   UNL A   1      32.893  34.839  29.982  1.00  0.00    -0.265 OA
ATOM     12  H   UNL A   1      34.479  34.930  31.834  1.00  0.00     0.164 HD
BRANCH  10  13
ATOM     13  C   UNL A   1      34.647  34.019  28.540  1.00  0.00     0.252 C 
ATOM     14  O   UNL A   1      34.615  34.812  27.602  1.00  0.00    -0.283 OA
BRANCH  13  15
ATOM     15  C   UNL A   1      35.205  32.665  28.375  1.00  0.00     0.054 A 
ATOM     16  N   UNL A   1      36.593  30.895  28.320  1.00  0.00    -0.240 N 
ATOM     17  C   UNL A   1      36.478  32.222  28.698  1.00  0.00     0.117 A 
ATOM     18  C   UNL A   1      35.375  30.412  27.875  1.00  0.00     0.065 A 
ATOM     19  C   UNL A   1      34.507  31.517  27.848  1.00  0.00     0.012 A 
ATOM     20  C   UNL A   1      34.930  29.122  27.529  1.00  0.00     0.028 A 
ATOM     21  C   UNL A   1      33.179  31.320  27.407  1.00  0.00     0.011 A 
ATOM     22  C   UNL A   1      33.598  28.954  27.137  1.00  0.00     0.002 A 
ATOM     23  C   UNL A   1      32.736  30.041  27.060  1.00  0.00     0.001 A 
BRANCH  16  24
ATOM     24  S   UNL A   1      38.105  30.084  28.439  1.00  0.00     0.268 S 
ATOM     25  O   UNL A   1      38.062  29.971  26.974  1.00  0.00    -0.201 OA
ATOM     26  O   UNL A   1      37.516  29.454  29.605  1.00  0.00    -0.201 OA
BRANCH  24  27
ATOM     27  C   UNL A   1      39.063  28.562  28.381  1.00  0.00     0.088 A 
ATOM     28  C   UNL A   1      41.179  24.852  27.783  1.00  0.00     0.044 C 
ATOM     29  C   UNL A   1      40.484  26.165  28.015  1.00  0.00    -0.051 A 
ATOM     30  C   UNL A   1      39.642  26.331  29.125  1.00  0.00     0.005 A 
ATOM     31  C   UNL A   1      40.642  27.225  27.114  1.00  0.00     0.005 A 
ATOM     32  C   UNL A   1      38.935  27.524  29.313  1.00  0.00     0.022 A 
ATOM     33  C   UNL A   1      39.934  28.418  27.292  1.00  0.00     0.022 A 
ENDBRANCH  24  27
ENDBRANCH  16  24
ENDBRANCH  13  15
ENDBRANCH  10  13
ENDBRANCH   8   9
ENDBRANCH   5   8
ENDBRANCH   3   4
BRANCH   3  34
ATOM     34  C   UNL A   1      39.858  32.114  32.311  1.00  0.00     0.074 C 
BRANCH  34  35
ATOM     35  C   UNL A   1      40.684  33.350  32.599  1.00  0.00    -0.020 A 
ATOM     36  C   UNL A   1      40.902  34.026  33.788  1.00  0.00     0.087 A 
ATOM     37  C   UNL A   1      41.527  34.001  31.629  1.00  0.00     0.003 A 
ATOM     38  N   UNL A   1      41.936  34.907  33.617  1.00  0.00    -0.361 N 
ATOM     39  C   UNL A   1      42.295  34.954  32.298  1.00  0.00     0.046 A 
ATOM     40  C   UNL A   1      41.730  33.838  30.244  1.00  0.00     0.010 A 
ATOM     41  H   UNL A   1      42.358  35.429  34.337  1.00  0.00     0.166 HD
ATOM     42  C   UNL A   1      43.250  35.753  31.664  1.00  0.00     0.026 A 
ATOM     43  C   UNL A   1      42.654  34.657  29.583  1.00  0.00     0.001 A 
ATOM     44  C   UNL A   1      43.403  35.598  30.286  1.00  0.00     0.002 A 
ENDBRANCH  34  35
ENDBRANCH   3  34
ENDBRANCH   1   3
BRANCH   1  45
ATOM     45  O   UNL A   1      38.599  30.044  33.514  1.00  0.00    -0.461 OA
BRANCH  45  46
ATOM     46  C   UNL A   1      38.972  30.450  34.843  1.00  0.00     0.274 C 
BRANCH  46  47
ATOM     47  C   UNL A   1      40.315  29.875  35.299  1.00  0.00     0.275 C 
BRANCH  47  48
ATOM     48  O   UNL A   1      40.773  28.620  34.718  1.00  0.00    -0.458 OA
BRANCH  48  49
ATOM     49  C   UNL A   1      42.021  28.099  34.661  1.00  0.00     0.338 C 
ATOM     50  O   UNL A   1      42.624  27.756  35.671  1.00  0.00    -0.246 OA
BRANCH  49  51
ATOM     51  C   UNL A   1      42.646  27.897  33.344  1.00  0.00     0.060 A 
ATOM     52  C   UNL A   1      43.987  27.463  33.272  1.00  0.00     0.016 A 
ATOM     53  C   UNL A   1      41.889  28.045  32.195  1.00  0.00     0.016 A 
ATOM     54  C   UNL A   1      44.530  27.055  32.051  1.00  0.00     0.010 A 
ATOM     55  C   UNL A   1      42.374  27.522  31.024  1.00  0.00     0.010 A 
ATOM     56  C   UNL A   1      43.698  27.060  30.932  1.00  0.00    -0.014 A 
BRANCH  56  57
ATOM     57  C   UNL A   1      44.122  26.725  29.576  1.00  0.00     0.031 A 
ATOM     58  C   UNL A   1      44.543  25.358  29.205  1.00  0.00     0.074 A 
ATOM     59  C   UNL A   1      44.019  27.752  28.697  1.00  0.00     0.049 A 
ATOM     60  N   UNL A   1      45.409  25.079  28.291  1.00  0.00    -0.248 NA
ATOM     61  C   UNL A   1      44.031  24.153  29.853  1.00  0.00     0.031 C 
ATOM     62  C   UNL A   1      44.184  27.791  27.260  1.00  0.00     0.029 A 
ATOM     63  N   UNL A   1      43.882  29.108  29.028  1.00  0.00    -0.354 N 
ATOM     64  C   UNL A   1      45.235  23.741  27.976  1.00  0.00     0.074 A 
ATOM     65  C   UNL A   1      44.526  23.175  29.088  1.00  0.00     0.031 C 
ATOM     66  C   UNL A   1      44.524  29.050  26.908  1.00  0.00     0.029 A 
ATOM     67  C   UNL A   1      44.689  29.814  28.138  1.00  0.00     0.049 A 
ATOM     68  H   UNL A   1      43.325  29.487  29.747  1.00  0.00     0.167 HD
ATOM     69  C   UNL A   1      45.481  23.324  26.701  1.00  0.00     0.031 A 
ATOM     70  C   UNL A   1      45.837  30.413  28.584  1.00  0.00     0.031 A 
ATOM     71  C   UNL A   1      46.001  24.435  25.912  1.00  0.00     0.049 A 
ATOM     72  C   UNL A   1      47.047  29.737  27.973  1.00  0.00     0.074 A 
ATOM     73  C   UNL A   1      45.386  25.309  25.031  1.00  0.00     0.029 A 
ATOM     74  N   UNL A   1      47.196  25.026  26.294  1.00  0.00    -0.354 N 
ATOM     75  N   UNL A   1      47.056  28.501  27.550  1.00  0.00    -0.248 NA
ATOM     76  C   UNL A   1      48.313  30.421  27.733  1.00  0.00     0.031 C 
ATOM     77  C   UNL A   1      46.172  26.491  24.981  1.00  0.00     0.029 A 
ATOM     78  C   UNL A   1      47.262  26.320  25.816  1.00  0.00     0.049 A 
ATOM     79  H   UNL A   1      47.896  24.586  26.829  1.00  0.00     0.167 HD
ATOM     80  C   UNL A   1      48.212  28.272  26.852  1.00  0.00     0.074 A 
ATOM     81  C   UNL A   1      48.988  29.487  27.040  1.00  0.00     0.031 C 
ATOM     82  C   UNL A   1      48.424  27.140  26.117  1.00  0.00     0.031 A 
BRANCH  69  83
ATOM     83  C   UNL A   1      44.932  22.061  26.072  1.00  0.00    -0.014 A 
ATOM     84  C   UNL A   1      43.555  21.782  26.204  1.00  0.00     0.009 A 
ATOM     85  C   UNL A   1      45.685  21.097  25.382  1.00  0.00     0.009 A 
ATOM     86  C   UNL A   1      42.974  20.593  25.743  1.00  0.00     0.001 A 
ATOM     87  C   UNL A   1      45.113  19.894  24.925  1.00  0.00     0.001 A 
ATOM     88  C   UNL A   1      43.758  19.640  25.114  1.00  0.00     0.000 A 
ENDBRANCH  69  83
BRANCH  70  89
ATOM     89  C   UNL A   1      45.735  30.877  30.006  1.00  0.00    -0.014 A 
ATOM     90  C   UNL A   1      46.519  30.220  30.984  1.00  0.00     0.009 A 
ATOM     91  C   UNL A   1      45.320  32.185  30.271  1.00  0.00     0.009 A 
ATOM     92  C   UNL A   1      47.010  30.906  32.103  1.00  0.00     0.001 A 
ATOM     93  C   UNL A   1      45.805  32.853  31.398  1.00  0.00     0.001 A 
ATOM     94  C   UNL A   1      46.691  32.243  32.280  1.00  0.00     0.000 A 
ENDBRANCH  70  89
BRANCH  82  95
ATOM     95  C   UNL A   1      49.728  26.712  25.495  1.00  0.00    -0.014 A 
ATOM     96  C   UNL A   1      50.194  27.166  24.260  1.00  0.00     0.009 A 
ATOM     97  C   UNL A   1      50.616  25.915  26.259  1.00  0.00     0.009 A 
ATOM     98  C   UNL A   1      51.457  26.793  23.786  1.00  0.00     0.001 A 
ATOM     99  C   UNL A   1      51.898  25.597  25.820  1.00  0.00     0.001 A 
ATOM    100  C   UNL A   1      52.311  26.020  24.569  1.00  0.00     0.000 A 
ENDBRANCH  82  95
ENDBRANCH  56  57
ENDBRANCH  49  51
ENDBRANCH  48  49
ENDBRANCH  47  48
ENDBRANCH  46  47
ENDBRANCH  45  46
ENDBRANCH   1  45
TORSDOF 20
ENDMDL
MODEL 3
REMARK VINA RESULT:      -8.6      4.751     10.922
REMARK SMILES Cc1ccc(S(=O)(=O)n2cc(C(=O)C(=O)NCC(=O)N[C@@H](Cc3c[nH]c4ccccc34)C(=O)OCCOC(=O)c3ccc(-c4c5nc(c(-c6ccccc6)c6ccc([nH]6)c(-c6ccccc6)c6nc(c(-c7ccccc7)c7ccc4[nH]7)C=C6)C=C5)cc3)c3ccccc32)cc1
REMARK SMILES IDX 32 1 33 2 21 3 20 4 18 5 19 6 17 8 16 9 14 10 15 11 12 13
REMARK SMILES IDX 13 14 11 15 9 16 10 17 93 18 88 19 92 20 89 21 91 22 90 23
REMARK SMILES IDX 6 24 7 25 8 26 5 27 1 28 2 29 3 30 95 31 4 32 94 33 22 34
REMARK SMILES IDX 23 35 24 36 31 37 25 38 26 39 30 40 27 42 29 43 28 44 34 45
REMARK SMILES IDX 35 46 36 47 37 48 38 49 39 50 40 51 41 52 87 53 42 54 86 55
REMARK SMILES IDX 43 56 44 57 45 58 80 59 46 60 85 61 79 62 81 63 47 64 84 65
REMARK SMILES IDX 78 66 77 67 48 69 70 70 55 71 69 72 56 73 59 74 68 75 82 76
REMARK SMILES IDX 57 77 58 78 67 80 83 81 60 82 49 83 50 84 54 85 51 86 53 87
REMARK SMILES IDX 52 88 71 89 72 90 76 91 73 92 75 93 74 94 61 95 62 96 66 97
REMARK SMILES IDX 63 98 65 99 64 100
REMARK H PARENT 20 7 16 12 25 41 81 68 59 79
REMARK Flexibility Score: inf
ROOT
ATOM      1  C   UNL A   1      34.842  32.407  30.959  1.00  0.00     0.329 C 
ATOM      2  O   UNL A   1      34.036  33.026  31.642  1.00  0.00    -0.250 OA
ENDROOT
BRANCH   1   3
ATOM      3  C   UNL A   1      35.174  32.827  29.530  1.00  0.00     0.196 C 
BRANCH   3   4
ATOM      4  N   UNL A   1      34.038  32.907  28.617  1.00  0.00    -0.341 N 
ATOM      5  C   UNL A   1      33.500  31.950  27.805  1.00  0.00     0.240 C 
ATOM      6  O   UNL A   1      32.461  32.244  27.207  1.00  0.00    -0.273 OA
ATOM      7  H   UNL A   1      33.593  33.783  28.582  1.00  0.00     0.164 HD
BRANCH   5   8
ATOM      8  C   UNL A   1      34.076  30.518  27.733  1.00  0.00     0.216 C 
BRANCH   8   9
ATOM      9  N   UNL A   1      34.465  30.045  26.405  1.00  0.00    -0.340 N 
ATOM     10  C   UNL A   1      34.062  28.872  25.783  1.00  0.00     0.292 C 
ATOM     11  O   UNL A   1      34.454  28.623  24.648  1.00  0.00    -0.265 OA
ATOM     12  H   UNL A   1      35.082  30.622  25.898  1.00  0.00     0.164 HD
BRANCH  10  13
ATOM     13  C   UNL A   1      33.131  27.882  26.526  1.00  0.00     0.252 C 
ATOM     14  O   UNL A   1      32.641  28.266  27.585  1.00  0.00    -0.283 OA
BRANCH  13  15
ATOM     15  C   UNL A   1      32.845  26.536  25.998  1.00  0.00     0.054 A 
ATOM     16  N   UNL A   1      32.924  24.333  25.548  1.00  0.00    -0.240 N 
ATOM     17  C   UNL A   1      33.468  25.341  26.326  1.00  0.00     0.117 A 
ATOM     18  C   UNL A   1      31.860  24.813  24.807  1.00  0.00     0.065 A 
ATOM     19  C   UNL A   1      31.829  26.201  25.030  1.00  0.00     0.012 A 
ATOM     20  C   UNL A   1      30.900  24.180  23.995  1.00  0.00     0.028 A 
ATOM     21  C   UNL A   1      30.840  26.967  24.372  1.00  0.00     0.011 A 
ATOM     22  C   UNL A   1      29.910  24.963  23.391  1.00  0.00     0.002 A 
ATOM     23  C   UNL A   1      29.888  26.341  23.563  1.00  0.00     0.001 A 
BRANCH  16  24
ATOM     24  S   UNL A   1      33.585  22.745  25.596  1.00  0.00     0.268 S 
ATOM     25  O   UNL A   1      34.095  23.010  24.243  1.00  0.00    -0.201 OA
ATOM     26  O   UNL A   1      32.337  22.398  26.250  1.00  0.00    -0.201 OA
BRANCH  24  27
ATOM     27  C   UNL A   1      33.534  21.022  25.080  1.00  0.00     0.088 A 
ATOM     28  C   UNL A   1      33.755  17.014  23.506  1.00  0.00     0.044 C 
ATOM     29  C   UNL A   1      33.675  18.391  24.104  1.00  0.00    -0.051 A 
ATOM     30  C   UNL A   1      32.443  19.059  24.172  1.00  0.00     0.005 A 
ATOM     31  C   UNL A   1      34.827  19.035  24.568  1.00  0.00     0.005 A 
ATOM     32  C   UNL A   1      32.367  20.369  24.660  1.00  0.00     0.022 A 
ATOM     33  C   UNL A   1      34.761  20.345  25.053  1.00  0.00     0.022 A 
ENDBRANCH  24  27
ENDBRANCH  16  24
ENDBRANCH  13  15
ENDBRANCH  10  13
ENDBRANCH   8   9
ENDBRANCH   5   8
ENDBRANCH   3   4
BRANCH   3  34
ATOM     34  C   UNL A   1      36.043  34.100  29.500  1.00  0.00     0.074 C 
BRANCH  34  35
ATOM     35  C   UNL A   1      37.498  34.038  29.915  1.00  0.00    -0.020 A 
ATOM     36  C   UNL A   1      38.645  33.926  29.148  1.00  0.00     0.087 A 
ATOM     37  C   UNL A   1      37.959  34.213  31.269  1.00  0.00     0.003 A 
ATOM     38  N   UNL A   1      39.734  34.195  29.932  1.00  0.00    -0.361 N 
ATOM     39  C   UNL A   1      39.350  34.315  31.239  1.00  0.00     0.046 A 
ATOM     40  C   UNL A   1      37.311  34.329  32.515  1.00  0.00     0.010 A 
ATOM     41  H   UNL A   1      40.657  34.288  29.603  1.00  0.00     0.166 HD
ATOM     42  C   UNL A   1      40.129  34.524  32.380  1.00  0.00     0.026 A 
ATOM     43  C   UNL A   1      38.077  34.499  33.675  1.00  0.00     0.001 A 
ATOM     44  C   UNL A   1      39.465  34.597  33.605  1.00  0.00     0.002 A 
ENDBRANCH  34  35
ENDBRANCH   3  34
ENDBRANCH   1   3
BRANCH   1  45
ATOM     45  O   UNL A   1      35.548  31.350  31.441  1.00  0.00    -0.461 OA
BRANCH  45  46
ATOM     46  C   UNL A   1      36.540  30.863  30.519  1.00  0.00     0.274 C 
BRANCH  46  47
ATOM     47  C   UNL A   1      36.462  29.354  30.283  1.00  0.00     0.275 C 
BRANCH  47  48
ATOM     48  O   UNL A   1      37.523  28.708  29.521  1.00  0.00    -0.458 OA
BRANCH  48  49
ATOM     49  C   UNL A   1      38.103  29.084  28.357  1.00  0.00     0.338 C 
ATOM     50  O   UNL A   1      37.463  29.620  27.461  1.00  0.00    -0.246 OA
BRANCH  49  51
ATOM     51  C   UNL A   1      39.551  28.882  28.189  1.00  0.00     0.060 A 
ATOM     52  C   UNL A   1      40.126  29.018  26.908  1.00  0.00     0.016 A 
ATOM     53  C   UNL A   1      40.347  28.655  29.299  1.00  0.00     0.016 A 
ATOM     54  C   UNL A   1      41.515  29.050  26.759  1.00  0.00     0.010 A 
ATOM     55  C   UNL A   1      41.702  28.820  29.174  1.00  0.00     0.010 A 
ATOM     56  C   UNL A   1      42.297  28.981  27.911  1.00  0.00    -0.014 A 
BRANCH  56  57
ATOM     57  C   UNL A   1      43.756  28.940  27.928  1.00  0.00     0.031 A 
ATOM     58  C   UNL A   1      44.575  30.066  27.433  1.00  0.00     0.074 A 
ATOM     59  C   UNL A   1      44.269  27.823  28.500  1.00  0.00     0.049 A 
ATOM     60  N   UNL A   1      45.742  29.946  26.899  1.00  0.00    -0.248 NA
ATOM     61  C   UNL A   1      44.139  31.460  27.477  1.00  0.00     0.031 C 
ATOM     62  C   UNL A   1      45.630  27.474  28.848  1.00  0.00     0.029 A 
ATOM     63  N   UNL A   1      43.573  26.630  28.745  1.00  0.00    -0.354 N 
ATOM     64  C   UNL A   1      46.327  31.202  26.939  1.00  0.00     0.074 A 
ATOM     65  C   UNL A   1      45.241  32.123  27.116  1.00  0.00     0.031 C 
ATOM     66  C   UNL A   1      45.728  26.128  28.869  1.00  0.00     0.029 A 
ATOM     67  C   UNL A   1      44.447  25.593  28.425  1.00  0.00     0.049 A 
ATOM     68  H   UNL A   1      42.651  26.542  29.077  1.00  0.00     0.167 HD
ATOM     69  C   UNL A   1      47.680  31.297  27.079  1.00  0.00     0.031 A 
ATOM     70  C   UNL A   1      44.220  24.825  27.315  1.00  0.00     0.031 A 
ATOM     71  C   UNL A   1      48.272  29.964  27.059  1.00  0.00     0.049 A 
ATOM     72  C   UNL A   1      45.313  25.054  26.291  1.00  0.00     0.074 A 
ATOM     73  C   UNL A   1      48.675  29.119  28.078  1.00  0.00     0.029 A 
ATOM     74  N   UNL A   1      48.119  29.180  25.924  1.00  0.00    -0.354 N 
ATOM     75  N   UNL A   1      46.024  26.148  26.217  1.00  0.00    -0.248 NA
ATOM     76  C   UNL A   1      45.729  24.048  25.321  1.00  0.00     0.031 C 
ATOM     77  C   UNL A   1      48.647  27.792  27.572  1.00  0.00     0.029 A 
ATOM     78  C   UNL A   1      48.244  27.844  26.249  1.00  0.00     0.049 A 
ATOM     79  H   UNL A   1      47.947  29.527  25.019  1.00  0.00     0.167 HD
ATOM     80  C   UNL A   1      47.065  25.950  25.349  1.00  0.00     0.074 A 
ATOM     81  C   UNL A   1      46.807  24.639  24.776  1.00  0.00     0.031 C 
ATOM     82  C   UNL A   1      48.096  26.835  25.212  1.00  0.00     0.031 A 
BRANCH  69  83
ATOM     83  C   UNL A   1      48.424  32.515  27.585  1.00  0.00    -0.014 A 
ATOM     84  C   UNL A   1      48.118  33.008  28.872  1.00  0.00     0.009 A 
ATOM     85  C   UNL A   1      49.389  33.241  26.868  1.00  0.00     0.009 A 
ATOM     86  C   UNL A   1      48.681  34.183  29.387  1.00  0.00     0.001 A 
ATOM     87  C   UNL A   1      49.951  34.430  27.373  1.00  0.00     0.001 A 
ATOM     88  C   UNL A   1      49.590  34.904  28.629  1.00  0.00     0.000 A 
ENDBRANCH  69  83
BRANCH  70  89
ATOM     89  C   UNL A   1      42.761  24.676  27.000  1.00  0.00    -0.014 A 
ATOM     90  C   UNL A   1      41.880  24.335  28.053  1.00  0.00     0.009 A 
ATOM     91  C   UNL A   1      42.230  25.339  25.891  1.00  0.00     0.009 A 
ATOM     92  C   UNL A   1      40.555  24.791  28.069  1.00  0.00     0.001 A 
ATOM     93  C   UNL A   1      40.903  25.776  25.913  1.00  0.00     0.001 A 
ATOM     94  C   UNL A   1      40.083  25.558  27.016  1.00  0.00     0.000 A 
ENDBRANCH  70  89
BRANCH  82  95
ATOM     95  C   UNL A   1      49.163  26.804  24.149  1.00  0.00    -0.014 A 
ATOM     96  C   UNL A   1      48.909  26.899  22.779  1.00  0.00     0.009 A 
ATOM     97  C   UNL A   1      50.522  26.826  24.549  1.00  0.00     0.009 A 
ATOM     98  C   UNL A   1      49.957  26.952  21.854  1.00  0.00     0.001 A 
ATOM     99  C   UNL A   1      51.566  26.946  23.636  1.00  0.00     0.001 A 
ATOM    100  C   UNL A   1      51.283  26.988  22.282  1.00  0.00     0.000 A 
ENDBRANCH  82  95
ENDBRANCH  56  57
ENDBRANCH  49  51
ENDBRANCH  48  49
ENDBRANCH  47  48
ENDBRANCH  46  47
ENDBRANCH  45  46
ENDBRANCH   1  45
TORSDOF 20
ENDMDL
