MODEL 1
REMARK VINA RESULT:      -9.4      0.000      0.000
REMARK SMILES CCNS(=O)(=O)c1ccc(CC(=O)OCCOC(=O)c2ccc(-c3c4nc(c(-c5ccccc5)c5ccc([nH]5)c(-c5ccccc5)c5nc(c(-c6ccccc6)c6ccc3[nH]6)C=C5)C=C4)cc2)cc1
REMARK SMILES IDX 15 1 14 2 12 3 13 4 11 5 10 6 7 7 8 8 69 9 9 10 68 11 4 12
REMARK SMILES IDX 5 13 6 14 3 15 2 17 1 18 16 19 17 20 18 21 19 22 20 23 21 24
REMARK SMILES IDX 67 25 22 26 66 27 23 28 24 29 25 30 60 31 26 32 65 33 59 34
REMARK SMILES IDX 61 35 27 36 64 37 58 38 57 39 28 41 50 42 35 43 49 44 36 45
REMARK SMILES IDX 39 46 48 47 62 48 37 49 38 50 47 52 63 53 40 54 29 55 30 56
REMARK SMILES IDX 34 57 31 58 33 59 32 60 51 61 52 62 56 63 53 64 55 65 54 66
REMARK SMILES IDX 41 67 42 68 46 69 43 70 45 71 44 72
REMARK H PARENT 3 16 61 40 39 51
REMARK Flexibility Score: inf
ROOT
ATOM      1  C   UNL A   1      43.570  21.881  25.707  1.00  0.00     0.274 C 
ENDROOT
BRANCH   1   2
ATOM      2  O   UNL A   1      42.403  21.041  25.594  1.00  0.00    -0.462 OA
BRANCH   2   3
ATOM      3  C   UNL A   1      41.732  20.805  26.751  1.00  0.00     0.310 C 
ATOM      4  O   UNL A   1      41.782  19.752  27.379  1.00  0.00    -0.252 OA
BRANCH   3   5
ATOM      5  C   UNL A   1      40.868  21.953  27.216  1.00  0.00     0.158 C 
BRANCH   5   6
ATOM      6  C   UNL A   1      39.564  22.200  26.495  1.00  0.00    -0.037 A 
ATOM      7  C   UNL A   1      37.199  22.738  25.096  1.00  0.00     0.082 A 
ATOM      8  C   UNL A   1      37.752  21.458  25.045  1.00  0.00     0.022 A 
ATOM      9  C   UNL A   1      37.816  23.750  25.835  1.00  0.00     0.022 A 
ATOM     10  C   UNL A   1      38.938  21.196  25.738  1.00  0.00     0.006 A 
ATOM     11  C   UNL A   1      38.989  23.478  26.537  1.00  0.00     0.006 A 
BRANCH   7  12
ATOM     12  S   UNL A   1      35.722  23.110  24.194  1.00  0.00     0.240 S 
ATOM     13  O   UNL A   1      36.067  23.314  22.803  1.00  0.00    -0.207 OA
ATOM     14  O   UNL A   1      34.985  24.100  24.944  1.00  0.00    -0.207 OA
BRANCH  12  15
ATOM     15  N   UNL A   1      34.826  21.685  24.277  1.00  0.00    -0.211 NA
ATOM     16  H   UNL A   1      35.151  21.079  23.523  1.00  0.00     0.141 HD
BRANCH  15  17
ATOM     17  C   UNL A   1      33.368  21.776  24.165  1.00  0.00     0.095 C 
ATOM     18  C   UNL A   1      32.730  20.859  25.196  1.00  0.00     0.022 C 
ENDBRANCH  15  17
ENDBRANCH  12  15
ENDBRANCH   7  12
ENDBRANCH   5   6
ENDBRANCH   3   5
ENDBRANCH   2   3
ENDBRANCH   1   2
BRANCH   1  19
ATOM     19  C   UNL A   1      43.600  22.931  24.598  1.00  0.00     0.275 C 
BRANCH  19  20
ATOM     20  O   UNL A   1      42.899  24.117  25.015  1.00  0.00    -0.458 OA
BRANCH  20  21
ATOM     21  C   UNL A   1      43.681  25.181  25.303  1.00  0.00     0.338 C 
ATOM     22  O   UNL A   1      44.677  25.566  24.716  1.00  0.00    -0.246 OA
BRANCH  21  23
ATOM     23  C   UNL A   1      43.149  25.874  26.482  1.00  0.00     0.060 A 
ATOM     24  C   UNL A   1      42.209  25.245  27.300  1.00  0.00     0.016 A 
ATOM     25  C   UNL A   1      43.515  27.198  26.713  1.00  0.00     0.016 A 
ATOM     26  C   UNL A   1      41.614  25.945  28.346  1.00  0.00     0.010 A 
ATOM     27  C   UNL A   1      42.968  27.878  27.801  1.00  0.00     0.010 A 
ATOM     28  C   UNL A   1      42.012  27.258  28.626  1.00  0.00    -0.014 A 
BRANCH  28  29
ATOM     29  C   UNL A   1      41.482  27.975  29.810  1.00  0.00     0.031 A 
ATOM     30  C   UNL A   1      40.284  28.870  29.687  1.00  0.00     0.074 A 
ATOM     31  C   UNL A   1      42.131  27.867  30.986  1.00  0.00     0.049 A 
ATOM     32  N   UNL A   1      39.794  29.716  30.558  1.00  0.00    -0.248 NA
ATOM     33  C   UNL A   1      39.547  28.817  28.415  1.00  0.00     0.031 C 
ATOM     34  C   UNL A   1      43.287  27.003  31.240  1.00  0.00     0.029 A 
ATOM     35  N   UNL A   1      41.925  28.505  32.182  1.00  0.00    -0.354 N 
ATOM     36  C   UNL A   1      38.711  30.318  29.930  1.00  0.00     0.074 A 
ATOM     37  C   UNL A   1      38.623  29.751  28.601  1.00  0.00     0.031 C 
ATOM     38  C   UNL A   1      43.688  27.167  32.509  1.00  0.00     0.029 A 
ATOM     39  C   UNL A   1      42.869  28.199  33.132  1.00  0.00     0.049 A 
ATOM     40  H   UNL A   1      41.174  29.121  32.344  1.00  0.00     0.167 HD
ATOM     41  C   UNL A   1      37.873  31.262  30.421  1.00  0.00     0.031 A 
ATOM     42  C   UNL A   1      43.089  28.728  34.350  1.00  0.00     0.031 A 
ATOM     43  C   UNL A   1      37.974  31.823  31.744  1.00  0.00     0.049 A 
ATOM     44  C   UNL A   1      42.200  29.837  34.834  1.00  0.00     0.074 A 
ATOM     45  C   UNL A   1      37.153  32.762  32.346  1.00  0.00     0.029 A 
ATOM     46  N   UNL A   1      38.961  31.507  32.664  1.00  0.00    -0.354 N 
ATOM     47  N   UNL A   1      41.164  30.383  34.243  1.00  0.00    -0.248 NA
ATOM     48  C   UNL A   1      42.514  30.409  36.150  1.00  0.00     0.031 C 
ATOM     49  C   UNL A   1      37.685  33.063  33.604  1.00  0.00     0.029 A 
ATOM     50  C   UNL A   1      38.797  32.263  33.813  1.00  0.00     0.049 A 
ATOM     51  H   UNL A   1      39.674  30.843  32.521  1.00  0.00     0.167 HD
ATOM     52  C   UNL A   1      40.694  31.349  35.122  1.00  0.00     0.074 A 
ATOM     53  C   UNL A   1      41.542  31.298  36.295  1.00  0.00     0.031 C 
ATOM     54  C   UNL A   1      39.654  32.204  34.968  1.00  0.00     0.031 A 
BRANCH  41  55
ATOM     55  C   UNL A   1      36.796  31.784  29.509  1.00  0.00    -0.014 A 
ATOM     56  C   UNL A   1      36.913  33.026  28.868  1.00  0.00     0.009 A 
ATOM     57  C   UNL A   1      35.667  30.990  29.247  1.00  0.00     0.009 A 
ATOM     58  C   UNL A   1      35.907  33.476  28.009  1.00  0.00     0.001 A 
ATOM     59  C   UNL A   1      34.678  31.429  28.365  1.00  0.00     0.001 A 
ATOM     60  C   UNL A   1      34.794  32.675  27.754  1.00  0.00     0.000 A 
ENDBRANCH  41  55
BRANCH  42  61
ATOM     61  C   UNL A   1      44.232  28.251  35.172  1.00  0.00    -0.014 A 
ATOM     62  C   UNL A   1      45.508  28.809  35.013  1.00  0.00     0.009 A 
ATOM     63  C   UNL A   1      44.052  27.230  36.120  1.00  0.00     0.009 A 
ATOM     64  C   UNL A   1      46.585  28.339  35.769  1.00  0.00     0.001 A 
ATOM     65  C   UNL A   1      45.122  26.786  36.899  1.00  0.00     0.001 A 
ATOM     66  C   UNL A   1      46.389  27.333  36.715  1.00  0.00     0.000 A 
ENDBRANCH  42  61
BRANCH  54  67
ATOM     67  C   UNL A   1      39.360  33.139  36.109  1.00  0.00    -0.014 A 
ATOM     68  C   UNL A   1      38.511  32.760  37.160  1.00  0.00     0.009 A 
ATOM     69  C   UNL A   1      39.982  34.397  36.154  1.00  0.00     0.009 A 
ATOM     70  C   UNL A   1      38.270  33.635  38.221  1.00  0.00     0.001 A 
ATOM     71  C   UNL A   1      39.763  35.256  37.232  1.00  0.00     0.001 A 
ATOM     72  C   UNL A   1      38.902  34.877  38.260  1.00  0.00     0.000 A 
ENDBRANCH  54  67
ENDBRANCH  28  29
ENDBRANCH  21  23
ENDBRANCH  20  21
ENDBRANCH  19  20
ENDBRANCH   1  19
TORSDOF 15
ENDMDL
MODEL 2
REMARK VINA RESULT:      -9.3      3.117      7.376
REMARK SMILES CCNS(=O)(=O)c1ccc(CC(=O)OCCOC(=O)c2ccc(-c3c4nc(c(-c5ccccc5)c5ccc([nH]5)c(-c5ccccc5)c5nc(c(-c6ccccc6)c6ccc3[nH]6)C=C5)C=C4)cc2)cc1
REMARK SMILES IDX 15 1 14 2 12 3 13 4 11 5 10 6 7 7 8 8 69 9 9 10 68 11 4 12
REMARK SMILES IDX 5 13 6 14 3 15 2 17 1 18 16 19 17 20 18 21 19 22 20 23 21 24
REMARK SMILES IDX 67 25 22 26 66 27 23 28 24 29 25 30 60 31 26 32 65 33 59 34
REMARK SMILES IDX 61 35 27 36 64 37 58 38 57 39 28 41 50 42 35 43 49 44 36 45
REMARK SMILES IDX 39 46 48 47 62 48 37 49 38 50 47 52 63 53 40 54 29 55 30 56
REMARK SMILES IDX 34 57 31 58 33 59 32 60 51 61 52 62 56 63 53 64 55 65 54 66
REMARK SMILES IDX 41 67 42 68 46 69 43 70 45 71 44 72
REMARK H PARENT 3 16 61 40 39 51
REMARK Flexibility Score: inf
ROOT
ATOM      1  C   UNL A   1      36.344  21.511  24.710  1.00  0.00     0.274 C 
ENDROOT
BRANCH   1   2
ATOM      2  O   UNL A   1      35.758  21.271  26.006  1.00  0.00    -0.462 OA
BRANCH   2   3
ATOM      3  C   UNL A   1      34.402  21.324  26.059  1.00  0.00     0.310 C 
ATOM      4  O   UNL A   1      33.662  20.362  25.879  1.00  0.00    -0.252 OA
BRANCH   3   5
ATOM      5  C   UNL A   1      33.842  22.699  26.336  1.00  0.00     0.158 C 
BRANCH   5   6
ATOM      6  C   UNL A   1      33.584  23.613  25.162  1.00  0.00    -0.037 A 
ATOM      7  C   UNL A   1      33.216  25.307  22.964  1.00  0.00     0.082 A 
ATOM      8  C   UNL A   1      32.598  24.057  22.978  1.00  0.00     0.022 A 
ATOM      9  C   UNL A   1      34.016  25.718  24.032  1.00  0.00     0.022 A 
ATOM     10  C   UNL A   1      32.792  23.210  24.074  1.00  0.00     0.006 A 
ATOM     11  C   UNL A   1      34.191  24.876  25.129  1.00  0.00     0.006 A 
BRANCH   7  12
ATOM     12  S   UNL A   1      33.024  26.383  21.570  1.00  0.00     0.240 S 
ATOM     13  O   UNL A   1      33.056  25.586  20.362  1.00  0.00    -0.207 OA
ATOM     14  O   UNL A   1      33.908  27.509  21.757  1.00  0.00    -0.207 OA
BRANCH  12  15
ATOM     15  N   UNL A   1      31.455  26.976  21.730  1.00  0.00    -0.211 NA
ATOM     16  H   UNL A   1      31.364  27.767  21.091  1.00  0.00     0.141 HD
BRANCH  15  17
ATOM     17  C   UNL A   1      31.018  27.434  23.052  1.00  0.00     0.095 C 
ATOM     18  C   UNL A   1      29.788  26.647  23.472  1.00  0.00     0.022 C 
ENDBRANCH  15  17
ENDBRANCH  12  15
ENDBRANCH   7  12
ENDBRANCH   5   6
ENDBRANCH   3   5
ENDBRANCH   2   3
ENDBRANCH   1   2
BRANCH   1  19
ATOM     19  C   UNL A   1      37.300  22.702  24.752  1.00  0.00     0.275 C 
BRANCH  19  20
ATOM     20  O   UNL A   1      37.727  22.952  26.103  1.00  0.00    -0.458 OA
BRANCH  20  21
ATOM     21  C   UNL A   1      39.064  22.949  26.298  1.00  0.00     0.338 C 
ATOM     22  O   UNL A   1      39.863  22.070  26.028  1.00  0.00    -0.246 OA
BRANCH  21  23
ATOM     23  C   UNL A   1      39.474  24.220  26.907  1.00  0.00     0.060 A 
ATOM     24  C   UNL A   1      39.114  24.514  28.223  1.00  0.00     0.016 A 
ATOM     25  C   UNL A   1      40.132  25.166  26.125  1.00  0.00     0.016 A 
ATOM     26  C   UNL A   1      39.395  25.767  28.761  1.00  0.00     0.010 A 
ATOM     27  C   UNL A   1      40.473  26.397  26.685  1.00  0.00     0.010 A 
ATOM     28  C   UNL A   1      40.105  26.709  28.007  1.00  0.00    -0.014 A 
BRANCH  28  29
ATOM     29  C   UNL A   1      40.524  28.000  28.604  1.00  0.00     0.031 A 
ATOM     30  C   UNL A   1      41.897  28.159  29.188  1.00  0.00     0.074 A 
ATOM     31  C   UNL A   1      39.634  29.007  28.677  1.00  0.00     0.049 A 
ATOM     32  N   UNL A   1      42.376  29.138  29.912  1.00  0.00    -0.248 NA
ATOM     33  C   UNL A   1      42.854  27.071  28.934  1.00  0.00     0.031 C 
ATOM     34  C   UNL A   1      38.280  28.985  28.117  1.00  0.00     0.029 A 
ATOM     35  N   UNL A   1      39.725  30.238  29.275  1.00  0.00    -0.354 N 
ATOM     36  C   UNL A   1      43.679  28.773  30.228  1.00  0.00     0.074 A 
ATOM     37  C   UNL A   1      43.911  27.476  29.628  1.00  0.00     0.031 C 
ATOM     38  C   UNL A   1      37.669  30.145  28.398  1.00  0.00     0.029 A 
ATOM     39  C   UNL A   1      38.556  30.958  29.222  1.00  0.00     0.049 A 
ATOM     40  H   UNL A   1      40.548  30.574  29.700  1.00  0.00     0.167 HD
ATOM     41  C   UNL A   1      44.591  29.458  30.958  1.00  0.00     0.031 A 
ATOM     42  C   UNL A   1      38.213  32.117  29.814  1.00  0.00     0.031 A 
ATOM     43  C   UNL A   1      44.346  30.745  31.556  1.00  0.00     0.049 A 
ATOM     44  C   UNL A   1      39.214  32.811  30.692  1.00  0.00     0.074 A 
ATOM     45  C   UNL A   1      45.217  31.534  32.287  1.00  0.00     0.029 A 
ATOM     46  N   UNL A   1      43.139  31.425  31.502  1.00  0.00    -0.354 N 
ATOM     47  N   UNL A   1      40.450  32.468  30.965  1.00  0.00    -0.248 NA
ATOM     48  C   UNL A   1      38.770  34.047  31.350  1.00  0.00     0.031 C 
ATOM     49  C   UNL A   1      44.516  32.660  32.733  1.00  0.00     0.029 A 
ATOM     50  C   UNL A   1      43.229  32.605  32.222  1.00  0.00     0.049 A 
ATOM     51  H   UNL A   1      42.338  31.115  31.022  1.00  0.00     0.167 HD
ATOM     52  C   UNL A   1      40.937  33.455  31.811  1.00  0.00     0.074 A 
ATOM     53  C   UNL A   1      39.870  34.420  31.987  1.00  0.00     0.031 C 
ATOM     54  C   UNL A   1      42.157  33.550  32.392  1.00  0.00     0.031 A 
BRANCH  41  55
ATOM     55  C   UNL A   1      45.929  28.810  31.191  1.00  0.00    -0.014 A 
ATOM     56  C   UNL A   1      47.008  29.016  30.319  1.00  0.00     0.009 A 
ATOM     57  C   UNL A   1      46.125  28.020  32.336  1.00  0.00     0.009 A 
ATOM     58  C   UNL A   1      48.246  28.419  30.571  1.00  0.00     0.001 A 
ATOM     59  C   UNL A   1      47.371  27.449  32.602  1.00  0.00     0.001 A 
ATOM     60  C   UNL A   1      48.427  27.641  31.715  1.00  0.00     0.000 A 
ENDBRANCH  41  55
BRANCH  42  61
ATOM     61  C   UNL A   1      36.841  32.664  29.638  1.00  0.00    -0.014 A 
ATOM     62  C   UNL A   1      35.848  32.423  30.598  1.00  0.00     0.009 A 
ATOM     63  C   UNL A   1      36.519  33.429  28.505  1.00  0.00     0.009 A 
ATOM     64  C   UNL A   1      34.554  32.917  30.415  1.00  0.00     0.001 A 
ATOM     65  C   UNL A   1      35.234  33.950  28.342  1.00  0.00     0.001 A 
ATOM     66  C   UNL A   1      34.250  33.685  29.291  1.00  0.00     0.000 A 
ENDBRANCH  42  61
BRANCH  54  67
ATOM     67  C   UNL A   1      42.413  34.754  33.256  1.00  0.00    -0.014 A 
ATOM     68  C   UNL A   1      43.061  35.890  32.747  1.00  0.00     0.009 A 
ATOM     69  C   UNL A   1      41.954  34.768  34.583  1.00  0.00     0.009 A 
ATOM     70  C   UNL A   1      43.269  37.006  33.560  1.00  0.00     0.001 A 
ATOM     71  C   UNL A   1      42.135  35.898  35.382  1.00  0.00     0.001 A 
ATOM     72  C   UNL A   1      42.798  37.012  34.873  1.00  0.00     0.000 A 
ENDBRANCH  54  67
ENDBRANCH  28  29
ENDBRANCH  21  23
ENDBRANCH  20  21
ENDBRANCH  19  20
ENDBRANCH   1  19
TORSDOF 15
ENDMDL
MODEL 3
REMARK VINA RESULT:      -9.3      3.796      9.010
REMARK SMILES CCNS(=O)(=O)c1ccc(CC(=O)OCCOC(=O)c2ccc(-c3c4nc(c(-c5ccccc5)c5ccc([nH]5)c(-c5ccccc5)c5nc(c(-c6ccccc6)c6ccc3[nH]6)C=C5)C=C4)cc2)cc1
REMARK SMILES IDX 15 1 14 2 12 3 13 4 11 5 10 6 7 7 8 8 69 9 9 10 68 11 4 12
REMARK SMILES IDX 5 13 6 14 3 15 2 17 1 18 16 19 17 20 18 21 19 22 20 23 21 24
REMARK SMILES IDX 67 25 22 26 66 27 23 28 24 29 25 30 60 31 26 32 65 33 59 34
REMARK SMILES IDX 61 35 27 36 64 37 58 38 57 39 28 41 50 42 35 43 49 44 36 45
REMARK SMILES IDX 39 46 48 47 62 48 37 49 38 50 47 52 63 53 40 54 29 55 30 56
REMARK SMILES IDX 34 57 31 58 33 59 32 60 51 61 52 62 56 63 53 64 55 65 54 66
REMARK SMILES IDX 41 67 42 68 46 69 43 70 45 71 44 72
REMARK H PARENT 3 16 61 40 39 51
REMARK Flexibility Score: inf
ROOT
ATOM      1  C   UNL A   1      33.202  29.234  24.882  1.00  0.00     0.274 C 
ENDROOT
BRANCH   1   2
ATOM      2  O   UNL A   1      31.956  28.849  24.268  1.00  0.00    -0.462 OA
BRANCH   2   3
ATOM      3  C   UNL A   1      31.829  27.532  23.965  1.00  0.00     0.310 C 
ATOM      4  O   UNL A   1      30.908  26.817  24.348  1.00  0.00    -0.252 OA
BRANCH   3   5
ATOM      5  C   UNL A   1      32.951  26.975  23.120  1.00  0.00     0.158 C 
BRANCH   5   6
ATOM      6  C   UNL A   1      33.669  25.741  23.613  1.00  0.00    -0.037 A 
ATOM      7  C   UNL A   1      34.929  23.450  24.612  1.00  0.00     0.082 A 
ATOM      8  C   UNL A   1      34.355  23.419  23.341  1.00  0.00     0.022 A 
ATOM      9  C   UNL A   1      34.877  24.610  25.388  1.00  0.00     0.022 A 
ATOM     10  C   UNL A   1      33.720  24.564  22.849  1.00  0.00     0.006 A 
ATOM     11  C   UNL A   1      34.256  25.751  24.886  1.00  0.00     0.006 A 
BRANCH   7  12
ATOM     12  S   UNL A   1      35.702  22.003  25.278  1.00  0.00     0.240 S 
ATOM     13  O   UNL A   1      37.139  22.158  25.179  1.00  0.00    -0.207 OA
ATOM     14  O   UNL A   1      35.026  20.851  24.732  1.00  0.00    -0.207 OA
BRANCH  12  15
ATOM     15  N   UNL A   1      35.312  22.053  26.917  1.00  0.00    -0.211 NA
ATOM     16  H   UNL A   1      36.074  21.600  27.423  1.00  0.00     0.141 HD
BRANCH  15  17
ATOM     17  C   UNL A   1      34.064  21.419  27.352  1.00  0.00     0.095 C 
ATOM     18  C   UNL A   1      33.069  22.496  27.750  1.00  0.00     0.022 C 
ENDBRANCH  15  17
ENDBRANCH  12  15
ENDBRANCH   7  12
ENDBRANCH   5   6
ENDBRANCH   3   5
ENDBRANCH   2   3
ENDBRANCH   1   2
BRANCH   1  19
ATOM     19  C   UNL A   1      32.962  29.969  26.200  1.00  0.00     0.275 C 
BRANCH  19  20
ATOM     20  O   UNL A   1      33.902  29.526  27.196  1.00  0.00    -0.458 OA
BRANCH  20  21
ATOM     21  C   UNL A   1      34.583  30.507  27.827  1.00  0.00     0.338 C 
ATOM     22  O   UNL A   1      34.210  31.638  28.086  1.00  0.00    -0.246 OA
BRANCH  21  23
ATOM     23  C   UNL A   1      35.917  30.017  28.198  1.00  0.00     0.060 A 
ATOM     24  C   UNL A   1      36.171  29.604  29.507  1.00  0.00     0.016 A 
ATOM     25  C   UNL A   1      36.944  30.067  27.259  1.00  0.00     0.016 A 
ATOM     26  C   UNL A   1      37.463  29.257  29.891  1.00  0.00     0.010 A 
ATOM     27  C   UNL A   1      38.225  29.654  27.626  1.00  0.00     0.010 A 
ATOM     28  C   UNL A   1      38.496  29.248  28.945  1.00  0.00    -0.014 A 
BRANCH  28  29
ATOM     29  C   UNL A   1      39.849  28.759  29.304  1.00  0.00     0.031 A 
ATOM     30  C   UNL A   1      40.839  29.674  29.962  1.00  0.00     0.074 A 
ATOM     31  C   UNL A   1      40.202  27.503  28.969  1.00  0.00     0.049 A 
ATOM     32  N   UNL A   1      42.117  29.487  30.179  1.00  0.00    -0.248 NA
ATOM     33  C   UNL A   1      40.331  30.974  30.429  1.00  0.00     0.031 C 
ATOM     34  C   UNL A   1      39.318  26.508  28.356  1.00  0.00     0.029 A 
ATOM     35  N   UNL A   1      41.406  26.856  29.077  1.00  0.00    -0.354 N 
ATOM     36  C   UNL A   1      42.573  30.655  30.778  1.00  0.00     0.074 A 
ATOM     37  C   UNL A   1      41.439  31.549  30.879  1.00  0.00     0.031 C 
ATOM     38  C   UNL A   1      40.009  25.380  28.141  1.00  0.00     0.029 A 
ATOM     39  C   UNL A   1      41.398  25.597  28.528  1.00  0.00     0.049 A 
ATOM     40  H   UNL A   1      42.198  27.254  29.506  1.00  0.00     0.167 HD
ATOM     41  C   UNL A   1      43.826  30.950  31.198  1.00  0.00     0.031 A 
ATOM     42  C   UNL A   1      42.405  24.731  28.308  1.00  0.00     0.031 A 
ATOM     43  C   UNL A   1      44.948  30.054  31.087  1.00  0.00     0.049 A 
ATOM     44  C   UNL A   1      43.800  25.120  28.701  1.00  0.00     0.074 A 
ATOM     45  C   UNL A   1      46.251  30.249  31.513  1.00  0.00     0.029 A 
ATOM     46  N   UNL A   1      44.903  28.800  30.499  1.00  0.00    -0.354 N 
ATOM     47  N   UNL A   1      44.217  26.216  29.288  1.00  0.00    -0.248 NA
ATOM     48  C   UNL A   1      44.866  24.157  28.394  1.00  0.00     0.031 C 
ATOM     49  C   UNL A   1      47.008  29.140  31.120  1.00  0.00     0.029 A 
ATOM     50  C   UNL A   1      46.163  28.226  30.511  1.00  0.00     0.049 A 
ATOM     51  H   UNL A   1      44.093  28.379  30.127  1.00  0.00     0.167 HD
ATOM     52  C   UNL A   1      45.589  26.067  29.436  1.00  0.00     0.074 A 
ATOM     53  C   UNL A   1      45.930  24.765  28.900  1.00  0.00     0.031 C 
ATOM     54  C   UNL A   1      46.486  26.932  29.967  1.00  0.00     0.031 A 
BRANCH  41  55
ATOM     55  C   UNL A   1      44.065  32.317  31.779  1.00  0.00    -0.014 A 
ATOM     56  C   UNL A   1      43.952  32.563  33.156  1.00  0.00     0.009 A 
ATOM     57  C   UNL A   1      44.462  33.367  30.934  1.00  0.00     0.009 A 
ATOM     58  C   UNL A   1      44.200  33.838  33.670  1.00  0.00     0.001 A 
ATOM     59  C   UNL A   1      44.739  34.633  31.454  1.00  0.00     0.001 A 
ATOM     60  C   UNL A   1      44.599  34.870  32.820  1.00  0.00     0.000 A 
ENDBRANCH  41  55
BRANCH  42  61
ATOM     61  C   UNL A   1      42.134  23.433  27.634  1.00  0.00    -0.014 A 
ATOM     62  C   UNL A   1      41.651  22.337  28.363  1.00  0.00     0.009 A 
ATOM     63  C   UNL A   1      42.361  23.283  26.256  1.00  0.00     0.009 A 
ATOM     64  C   UNL A   1      41.424  21.112  27.731  1.00  0.00     0.001 A 
ATOM     65  C   UNL A   1      42.101  22.068  25.620  1.00  0.00     0.001 A 
ATOM     66  C   UNL A   1      41.643  20.981  26.360  1.00  0.00     0.000 A 
ENDBRANCH  42  61
BRANCH  54  67
ATOM     67  C   UNL A   1      47.922  26.489  30.016  1.00  0.00    -0.014 A 
ATOM     68  C   UNL A   1      48.430  25.791  31.122  1.00  0.00     0.009 A 
ATOM     69  C   UNL A   1      48.762  26.730  28.917  1.00  0.00     0.009 A 
ATOM     70  C   UNL A   1      49.761  25.368  31.137  1.00  0.00     0.001 A 
ATOM     71  C   UNL A   1      50.082  26.277  28.922  1.00  0.00     0.001 A 
ATOM     72  C   UNL A   1      50.582  25.604  30.035  1.00  0.00     0.000 A 
ENDBRANCH  54  67
ENDBRANCH  28  29
ENDBRANCH  21  23
ENDBRANCH  20  21
ENDBRANCH  19  20
ENDBRANCH   1  19
TORSDOF 15
ENDMDL
