MODEL 1
REMARK VINA RESULT:     -11.0      0.000      0.000
REMARK SMILES CC[N@@H+](C)Cc1cc2c(cc1Cl)C=C(C(=O)OCCOC(=O)c1ccc(-c3c4nc(c(-c5ccccc5)c5ccc([nH]5)c(-c5ccccc5)c5nc(c(-c6ccccc6)c6ccc3[nH]6)C=C5)C=C4)cc1)[C@@H](C(F)(F)F)O2
REMARK SMILES IDX 18 1 17 2 15 3 16 4 14 5 6 6 7 7 11 8 8 9 10 10 12 11 9 12
REMARK SMILES IDX 76 13 13 14 71 15 5 16 3 17 4 18 2 20 1 21 72 22 73 23 74 24
REMARK SMILES IDX 75 25 19 26 20 27 21 28 22 29 23 30 24 31 70 32 25 33 69 34
REMARK SMILES IDX 26 35 27 36 28 37 63 38 29 39 68 40 62 41 64 42 30 43 67 44
REMARK SMILES IDX 61 45 60 46 31 48 53 49 38 50 52 51 39 52 42 53 51 54 65 55
REMARK SMILES IDX 40 56 41 57 50 59 66 60 43 61 32 62 33 63 37 64 34 65 36 66
REMARK SMILES IDX 35 67 54 68 55 69 59 70 56 71 58 72 57 73 44 74 45 75 49 76
REMARK SMILES IDX 46 77 48 78 47 79
REMARK H PARENT 3 19 64 47 42 58
REMARK Flexibility Score: inf
ROOT
ATOM      1  C   UNL A   1      31.684  29.089  24.668  1.00  0.00     0.275 C 
ENDROOT
BRANCH   1   2
ATOM      2  O   UNL A   1      32.073  27.749  25.040  1.00  0.00    -0.459 OA
BRANCH   2   3
ATOM      3  C   UNL A   1      32.877  27.106  24.163  1.00  0.00     0.338 C 
ATOM      4  O   UNL A   1      33.525  27.611  23.259  1.00  0.00    -0.246 OA
BRANCH   3   5
ATOM      5  C   UNL A   1      32.935  25.667  24.484  1.00  0.00     0.087 C 
ATOM      6  C   UNL A   1      34.414  20.883  24.826  1.00  0.00     0.029 A 
ATOM      7  C   UNL A   1      33.172  21.543  24.959  1.00  0.00     0.058 A 
ATOM      8  C   UNL A   1      35.580  21.662  24.779  1.00  0.00     0.050 A 
ATOM      9  C   UNL A   1      33.080  22.929  24.889  1.00  0.00     0.128 A 
ATOM     10  C   UNL A   1      35.490  23.052  24.731  1.00  0.00     0.033 A 
ATOM     11  Cl  UNL A   1      37.167  20.981  24.751  1.00  0.00    -0.084 Cl
ATOM     12  C   UNL A   1      34.239  23.674  24.734  1.00  0.00     0.019 A 
ATOM     13  O   UNL A   1      31.830  23.477  24.959  1.00  0.00    -0.475 OA
ATOM     14  C   UNL A   1      34.144  25.098  24.521  1.00  0.00     0.027 C 
ATOM     15  C   UNL A   1      31.661  24.887  24.623  1.00  0.00     0.316 C 
BRANCH   6  16
ATOM     16  C   UNL A   1      34.429  19.376  24.652  1.00  0.00     0.300 C 
BRANCH  16  17
ATOM     17  N   UNL A   1      33.108  18.730  24.492  1.00  0.00    -0.334 N 
ATOM     18  C   UNL A   1      32.709  17.970  25.678  1.00  0.00     0.333 C 
ATOM     19  H   UNL A   1      32.479  19.524  24.372  1.00  0.00     0.348 HD
BRANCH  17  20
ATOM     20  C   UNL A   1      32.939  17.913  23.284  1.00  0.00     0.258 C 
ATOM     21  C   UNL A   1      34.012  16.843  23.118  1.00  0.00     0.071 C 
ENDBRANCH  17  20
ENDBRANCH  16  17
ENDBRANCH   6  16
BRANCH  15  22
ATOM     22  C   UNL A   1      30.815  24.989  23.342  1.00  0.00     0.430 C 
ATOM     23  F   UNL A   1      30.111  23.853  23.121  1.00  0.00    -0.167 F 
ATOM     24  F   UNL A   1      29.913  25.996  23.420  1.00  0.00    -0.167 F 
ATOM     25  F   UNL A   1      31.579  25.213  22.247  1.00  0.00    -0.167 F 
ENDBRANCH  15  22
ENDBRANCH   3   5
ENDBRANCH   2   3
ENDBRANCH   1   2
BRANCH   1  26
ATOM     26  C   UNL A   1      31.868  30.062  25.834  1.00  0.00     0.275 C 
BRANCH  26  27
ATOM     27  O   UNL A   1      33.261  30.177  26.179  1.00  0.00    -0.458 OA
BRANCH  27  28
ATOM     28  C   UNL A   1      33.569  31.184  27.026  1.00  0.00     0.338 C 
ATOM     29  O   UNL A   1      32.864  32.122  27.358  1.00  0.00    -0.246 OA
BRANCH  28  30
ATOM     30  C   UNL A   1      34.889  30.938  27.622  1.00  0.00     0.060 A 
ATOM     31  C   UNL A   1      35.724  31.975  28.014  1.00  0.00     0.016 A 
ATOM     32  C   UNL A   1      35.212  29.629  27.949  1.00  0.00     0.016 A 
ATOM     33  C   UNL A   1      36.894  31.672  28.725  1.00  0.00     0.010 A 
ATOM     34  C   UNL A   1      36.269  29.351  28.809  1.00  0.00     0.010 A 
ATOM     35  C   UNL A   1      37.161  30.359  29.174  1.00  0.00    -0.014 A 
BRANCH  35  36
ATOM     36  C   UNL A   1      38.364  30.040  30.001  1.00  0.00     0.031 A 
ATOM     37  C   UNL A   1      38.492  30.536  31.427  1.00  0.00     0.074 A 
ATOM     38  C   UNL A   1      39.373  29.322  29.464  1.00  0.00     0.049 A 
ATOM     39  N   UNL A   1      39.448  30.305  32.296  1.00  0.00    -0.248 NA
ATOM     40  C   UNL A   1      37.444  31.436  31.938  1.00  0.00     0.031 C 
ATOM     41  C   UNL A   1      39.444  28.872  28.072  1.00  0.00     0.029 A 
ATOM     42  N   UNL A   1      40.520  28.817  30.030  1.00  0.00    -0.354 N 
ATOM     43  C   UNL A   1      39.126  31.051  33.426  1.00  0.00     0.074 A 
ATOM     44  C   UNL A   1      37.937  31.804  33.110  1.00  0.00     0.031 C 
ATOM     45  C   UNL A   1      40.513  28.076  27.919  1.00  0.00     0.029 A 
ATOM     46  C   UNL A   1      41.237  28.001  29.185  1.00  0.00     0.049 A 
ATOM     47  H   UNL A   1      40.801  29.020  30.952  1.00  0.00     0.167 HD
ATOM     48  C   UNL A   1      39.728  31.070  34.638  1.00  0.00     0.031 A 
ATOM     49  C   UNL A   1      42.336  27.253  29.403  1.00  0.00     0.031 A 
ATOM     50  C   UNL A   1      40.873  30.272  34.979  1.00  0.00     0.049 A 
ATOM     51  C   UNL A   1      42.955  27.236  30.772  1.00  0.00     0.074 A 
ATOM     52  C   UNL A   1      41.498  30.149  36.207  1.00  0.00     0.029 A 
ATOM     53  N   UNL A   1      41.555  29.453  34.095  1.00  0.00    -0.354 N 
ATOM     54  N   UNL A   1      42.576  27.872  31.855  1.00  0.00    -0.248 NA
ATOM     55  C   UNL A   1      44.144  26.393  30.956  1.00  0.00     0.031 C 
ATOM     56  C   UNL A   1      42.592  29.296  36.054  1.00  0.00     0.029 A 
ATOM     57  C   UNL A   1      42.608  28.836  34.747  1.00  0.00     0.049 A 
ATOM     58  H   UNL A   1      41.326  29.328  33.146  1.00  0.00     0.167 HD
ATOM     59  C   UNL A   1      43.470  27.497  32.848  1.00  0.00     0.074 A 
ATOM     60  C   UNL A   1      44.393  26.556  32.249  1.00  0.00     0.031 C 
ATOM     61  C   UNL A   1      43.523  27.904  34.140  1.00  0.00     0.031 A 
BRANCH  48  62
ATOM     62  C   UNL A   1      39.137  31.945  35.714  1.00  0.00    -0.014 A 
ATOM     63  C   UNL A   1      39.615  33.252  35.901  1.00  0.00     0.009 A 
ATOM     64  C   UNL A   1      38.168  31.448  36.601  1.00  0.00     0.009 A 
ATOM     65  C   UNL A   1      39.144  34.038  36.956  1.00  0.00     0.001 A 
ATOM     66  C   UNL A   1      37.671  32.248  37.633  1.00  0.00     0.001 A 
ATOM     67  C   UNL A   1      38.168  33.537  37.816  1.00  0.00     0.000 A 
ENDBRANCH  48  62
BRANCH  49  68
ATOM     68  C   UNL A   1      42.866  26.398  28.305  1.00  0.00    -0.014 A 
ATOM     69  C   UNL A   1      42.433  25.071  28.152  1.00  0.00     0.009 A 
ATOM     70  C   UNL A   1      43.858  26.889  27.442  1.00  0.00     0.009 A 
ATOM     71  C   UNL A   1      43.002  24.247  27.177  1.00  0.00     0.001 A 
ATOM     72  C   UNL A   1      44.403  26.072  26.449  1.00  0.00     0.001 A 
ATOM     73  C   UNL A   1      43.984  24.749  26.325  1.00  0.00     0.000 A 
ENDBRANCH  49  68
BRANCH  61  74
ATOM     74  C   UNL A   1      44.611  27.344  35.011  1.00  0.00    -0.014 A 
ATOM     75  C   UNL A   1      44.372  26.188  35.773  1.00  0.00     0.009 A 
ATOM     76  C   UNL A   1      45.828  28.023  35.169  1.00  0.00     0.009 A 
ATOM     77  C   UNL A   1      45.321  25.734  36.690  1.00  0.00     0.001 A 
ATOM     78  C   UNL A   1      46.790  27.548  36.064  1.00  0.00     0.001 A 
ATOM     79  C   UNL A   1      46.530  26.412  36.830  1.00  0.00     0.000 A 
ENDBRANCH  61  74
ENDBRANCH  35  36
ENDBRANCH  28  30
ENDBRANCH  27  28
ENDBRANCH  26  27
ENDBRANCH   1  26
TORSDOF 15
ENDMDL
MODEL 2
REMARK VINA RESULT:     -11.0      3.595      6.613
REMARK SMILES CC[N@@H+](C)Cc1cc2c(cc1Cl)C=C(C(=O)OCCOC(=O)c1ccc(-c3c4nc(c(-c5ccccc5)c5ccc([nH]5)c(-c5ccccc5)c5nc(c(-c6ccccc6)c6ccc3[nH]6)C=C5)C=C4)cc1)[C@@H](C(F)(F)F)O2
REMARK SMILES IDX 18 1 17 2 15 3 16 4 14 5 6 6 7 7 11 8 8 9 10 10 12 11 9 12
REMARK SMILES IDX 76 13 13 14 71 15 5 16 3 17 4 18 2 20 1 21 72 22 73 23 74 24
REMARK SMILES IDX 75 25 19 26 20 27 21 28 22 29 23 30 24 31 70 32 25 33 69 34
REMARK SMILES IDX 26 35 27 36 28 37 63 38 29 39 68 40 62 41 64 42 30 43 67 44
REMARK SMILES IDX 61 45 60 46 31 48 53 49 38 50 52 51 39 52 42 53 51 54 65 55
REMARK SMILES IDX 40 56 41 57 50 59 66 60 43 61 32 62 33 63 37 64 34 65 36 66
REMARK SMILES IDX 35 67 54 68 55 69 59 70 56 71 58 72 57 73 44 74 45 75 49 76
REMARK SMILES IDX 46 77 48 78 47 79
REMARK H PARENT 3 19 64 47 42 58
REMARK Flexibility Score: inf
ROOT
ATOM      1  C   UNL A   1      32.034  27.911  26.242  1.00  0.00     0.275 C 
ENDROOT
BRANCH   1   2
ATOM      2  O   UNL A   1      32.781  26.697  26.475  1.00  0.00    -0.459 OA
BRANCH   2   3
ATOM      3  C   UNL A   1      33.389  26.165  25.390  1.00  0.00     0.338 C 
ATOM      4  O   UNL A   1      34.032  26.766  24.544  1.00  0.00    -0.246 OA
BRANCH   3   5
ATOM      5  C   UNL A   1      33.234  24.698  25.386  1.00  0.00     0.087 C 
ATOM      6  C   UNL A   1      34.065  19.786  24.768  1.00  0.00     0.029 A 
ATOM      7  C   UNL A   1      32.907  20.576  24.946  1.00  0.00     0.058 A 
ATOM      8  C   UNL A   1      35.316  20.381  24.988  1.00  0.00     0.050 A 
ATOM      9  C   UNL A   1      32.995  21.944  25.180  1.00  0.00     0.128 A 
ATOM     10  C   UNL A   1      35.405  21.748  25.244  1.00  0.00     0.033 A 
ATOM     11  Cl  UNL A   1      36.800  19.501  24.933  1.00  0.00    -0.084 Cl
ATOM     12  C   UNL A   1      34.247  22.530  25.287  1.00  0.00     0.019 A 
ATOM     13  O   UNL A   1      31.822  22.640  25.272  1.00  0.00    -0.475 OA
ATOM     14  C   UNL A   1      34.352  23.965  25.390  1.00  0.00     0.027 C 
ATOM     15  C   UNL A   1      31.865  24.097  25.247  1.00  0.00     0.316 C 
BRANCH   6  16
ATOM     16  C   UNL A   1      33.912  18.364  24.264  1.00  0.00     0.300 C 
BRANCH  16  17
ATOM     17  N   UNL A   1      33.849  17.313  25.302  1.00  0.00    -0.334 N 
ATOM     18  C   UNL A   1      34.807  16.231  25.063  1.00  0.00     0.333 C 
ATOM     19  H   UNL A   1      34.111  17.814  26.150  1.00  0.00     0.348 HD
BRANCH  17  20
ATOM     20  C   UNL A   1      32.516  16.760  25.572  1.00  0.00     0.258 C 
ATOM     21  C   UNL A   1      32.513  15.248  25.771  1.00  0.00     0.071 C 
ENDBRANCH  17  20
ENDBRANCH  16  17
ENDBRANCH   6  16
BRANCH  15  22
ATOM     22  C   UNL A   1      31.183  24.587  23.958  1.00  0.00     0.430 C 
ATOM     23  F   UNL A   1      32.085  24.802  22.970  1.00  0.00    -0.167 F 
ATOM     24  F   UNL A   1      30.299  23.675  23.485  1.00  0.00    -0.167 F 
ATOM     25  F   UNL A   1      30.507  25.744  24.149  1.00  0.00    -0.167 F 
ENDBRANCH  15  22
ENDBRANCH   3   5
ENDBRANCH   2   3
ENDBRANCH   1   2
BRANCH   1  26
ATOM     26  C   UNL A   1      32.455  29.013  27.216  1.00  0.00     0.275 C 
BRANCH  26  27
ATOM     27  O   UNL A   1      33.877  28.970  27.441  1.00  0.00    -0.458 OA
BRANCH  27  28
ATOM     28  C   UNL A   1      34.436  30.130  27.852  1.00  0.00     0.338 C 
ATOM     29  O   UNL A   1      33.890  31.209  28.003  1.00  0.00    -0.246 OA
BRANCH  28  30
ATOM     30  C   UNL A   1      35.836  29.894  28.228  1.00  0.00     0.060 A 
ATOM     31  C   UNL A   1      36.186  29.311  29.438  1.00  0.00     0.016 A 
ATOM     32  C   UNL A   1      36.806  30.110  27.260  1.00  0.00     0.016 A 
ATOM     33  C   UNL A   1      37.526  28.964  29.662  1.00  0.00     0.010 A 
ATOM     34  C   UNL A   1      38.090  29.599  27.412  1.00  0.00     0.010 A 
ATOM     35  C   UNL A   1      38.490  29.060  28.635  1.00  0.00    -0.014 A 
BRANCH  35  36
ATOM     36  C   UNL A   1      39.903  28.617  28.839  1.00  0.00     0.031 A 
ATOM     37  C   UNL A   1      40.347  27.213  28.480  1.00  0.00     0.074 A 
ATOM     38  C   UNL A   1      40.799  29.470  29.379  1.00  0.00     0.049 A 
ATOM     39  N   UNL A   1      41.547  26.687  28.548  1.00  0.00    -0.248 NA
ATOM     40  C   UNL A   1      39.318  26.261  28.028  1.00  0.00     0.031 C 
ATOM     41  C   UNL A   1      40.495  30.813  29.877  1.00  0.00     0.029 A 
ATOM     42  N   UNL A   1      42.155  29.347  29.574  1.00  0.00    -0.354 N 
ATOM     43  C   UNL A   1      41.402  25.353  28.179  1.00  0.00     0.074 A 
ATOM     44  C   UNL A   1      39.993  25.125  27.968  1.00  0.00     0.031 C 
ATOM     45  C   UNL A   1      41.638  31.425  30.222  1.00  0.00     0.029 A 
ATOM     46  C   UNL A   1      42.752  30.503  30.022  1.00  0.00     0.049 A 
ATOM     47  H   UNL A   1      42.650  28.513  29.410  1.00  0.00     0.167 HD
ATOM     48  C   UNL A   1      42.354  24.412  27.979  1.00  0.00     0.031 A 
ATOM     49  C   UNL A   1      44.049  30.804  30.226  1.00  0.00     0.031 A 
ATOM     50  C   UNL A   1      43.763  24.652  28.124  1.00  0.00     0.049 A 
ATOM     51  C   UNL A   1      45.099  29.768  29.938  1.00  0.00     0.074 A 
ATOM     52  C   UNL A   1      44.812  23.792  27.851  1.00  0.00     0.029 A 
ATOM     53  N   UNL A   1      44.320  25.840  28.567  1.00  0.00    -0.354 N 
ATOM     54  N   UNL A   1      44.947  28.544  29.494  1.00  0.00    -0.248 NA
ATOM     55  C   UNL A   1      46.498  30.155  30.166  1.00  0.00     0.031 C 
ATOM     56  C   UNL A   1      46.003  24.442  28.180  1.00  0.00     0.029 A 
ATOM     57  C   UNL A   1      45.699  25.729  28.594  1.00  0.00     0.049 A 
ATOM     58  H   UNL A   1      43.811  26.643  28.823  1.00  0.00     0.167 HD
ATOM     59  C   UNL A   1      46.227  28.020  29.379  1.00  0.00     0.074 A 
ATOM     60  C   UNL A   1      47.147  29.067  29.771  1.00  0.00     0.031 C 
ATOM     61  C   UNL A   1      46.604  26.778  28.989  1.00  0.00     0.031 A 
BRANCH  48  62
ATOM     62  C   UNL A   1      41.917  23.041  27.531  1.00  0.00    -0.014 A 
ATOM     63  C   UNL A   1      41.708  22.779  26.167  1.00  0.00     0.009 A 
ATOM     64  C   UNL A   1      41.627  22.032  28.464  1.00  0.00     0.009 A 
ATOM     65  C   UNL A   1      41.209  21.543  25.749  1.00  0.00     0.001 A 
ATOM     66  C   UNL A   1      41.163  20.784  28.041  1.00  0.00     0.001 A 
ATOM     67  C   UNL A   1      40.944  20.545  26.686  1.00  0.00     0.000 A 
ENDBRANCH  48  62
BRANCH  49  68
ATOM     68  C   UNL A   1      44.420  32.181  30.656  1.00  0.00    -0.014 A 
ATOM     69  C   UNL A   1      44.706  33.179  29.711  1.00  0.00     0.009 A 
ATOM     70  C   UNL A   1      44.552  32.485  32.020  1.00  0.00     0.009 A 
ATOM     71  C   UNL A   1      45.143  34.441  30.121  1.00  0.00     0.001 A 
ATOM     72  C   UNL A   1      44.958  33.757  32.428  1.00  0.00     0.001 A 
ATOM     73  C   UNL A   1      45.265  34.730  31.479  1.00  0.00     0.000 A 
ENDBRANCH  49  68
BRANCH  61  74
ATOM     74  C   UNL A   1      48.072  26.462  28.961  1.00  0.00    -0.014 A 
ATOM     75  C   UNL A   1      48.795  26.603  27.765  1.00  0.00     0.009 A 
ATOM     76  C   UNL A   1      48.713  25.915  30.082  1.00  0.00     0.009 A 
ATOM     77  C   UNL A   1      50.124  26.186  27.686  1.00  0.00     0.001 A 
ATOM     78  C   UNL A   1      50.053  25.528  30.011  1.00  0.00     0.001 A 
ATOM     79  C   UNL A   1      50.753  25.653  28.810  1.00  0.00     0.000 A 
ENDBRANCH  61  74
ENDBRANCH  35  36
ENDBRANCH  28  30
ENDBRANCH  27  28
ENDBRANCH  26  27
ENDBRANCH   1  26
TORSDOF 15
ENDMDL
MODEL 3
REMARK VINA RESULT:     -10.7      4.347      7.270
REMARK SMILES CC[N@@H+](C)Cc1cc2c(cc1Cl)C=C(C(=O)OCCOC(=O)c1ccc(-c3c4nc(c(-c5ccccc5)c5ccc([nH]5)c(-c5ccccc5)c5nc(c(-c6ccccc6)c6ccc3[nH]6)C=C5)C=C4)cc1)[C@@H](C(F)(F)F)O2
REMARK SMILES IDX 18 1 17 2 15 3 16 4 14 5 6 6 7 7 11 8 8 9 10 10 12 11 9 12
REMARK SMILES IDX 76 13 13 14 71 15 5 16 3 17 4 18 2 20 1 21 72 22 73 23 74 24
REMARK SMILES IDX 75 25 19 26 20 27 21 28 22 29 23 30 24 31 70 32 25 33 69 34
REMARK SMILES IDX 26 35 27 36 28 37 63 38 29 39 68 40 62 41 64 42 30 43 67 44
REMARK SMILES IDX 61 45 60 46 31 48 53 49 38 50 52 51 39 52 42 53 51 54 65 55
REMARK SMILES IDX 40 56 41 57 50 59 66 60 43 61 32 62 33 63 37 64 34 65 36 66
REMARK SMILES IDX 35 67 54 68 55 69 59 70 56 71 58 72 57 73 44 74 45 75 49 76
REMARK SMILES IDX 46 77 48 78 47 79
REMARK H PARENT 3 19 64 47 42 58
REMARK Flexibility Score: inf
ROOT
ATOM      1  C   UNL A   1      32.348  30.305  26.086  1.00  0.00     0.275 C 
ENDROOT
BRANCH   1   2
ATOM      2  O   UNL A   1      31.584  29.082  26.167  1.00  0.00    -0.459 OA
BRANCH   2   3
ATOM      3  C   UNL A   1      31.174  28.566  24.986  1.00  0.00     0.338 C 
ATOM      4  O   UNL A   1      30.355  29.051  24.221  1.00  0.00    -0.246 OA
BRANCH   3   5
ATOM      5  C   UNL A   1      31.917  27.327  24.686  1.00  0.00     0.087 C 
ATOM      6  C   UNL A   1      34.680  23.160  25.132  1.00  0.00     0.029 A 
ATOM      7  C   UNL A   1      34.350  24.015  24.056  1.00  0.00     0.058 A 
ATOM      8  C   UNL A   1      33.979  23.310  26.338  1.00  0.00     0.050 A 
ATOM      9  C   UNL A   1      33.471  25.080  24.222  1.00  0.00     0.128 A 
ATOM     10  C   UNL A   1      33.081  24.363  26.499  1.00  0.00     0.033 A 
ATOM     11  Cl  UNL A   1      34.188  22.251  27.686  1.00  0.00    -0.084 Cl
ATOM     12  C   UNL A   1      32.872  25.272  25.458  1.00  0.00     0.019 A 
ATOM     13  O   UNL A   1      33.265  25.894  23.145  1.00  0.00    -0.475 OA
ATOM     14  C   UNL A   1      32.069  26.449  25.681  1.00  0.00     0.027 C 
ATOM     15  C   UNL A   1      32.572  27.162  23.345  1.00  0.00     0.316 C 
BRANCH   6  16
ATOM     16  C   UNL A   1      35.828  22.183  24.968  1.00  0.00     0.300 C 
BRANCH  16  17
ATOM     17  N   UNL A   1      36.981  22.382  25.871  1.00  0.00    -0.334 N 
ATOM     18  C   UNL A   1      37.512  23.746  25.811  1.00  0.00     0.333 C 
ATOM     19  H   UNL A   1      36.580  22.216  26.793  1.00  0.00     0.348 HD
BRANCH  17  20
ATOM     20  C   UNL A   1      38.071  21.407  25.740  1.00  0.00     0.258 C 
ATOM     21  C   UNL A   1      37.763  20.279  24.760  1.00  0.00     0.071 C 
ENDBRANCH  17  20
ENDBRANCH  16  17
ENDBRANCH   6  16
BRANCH  15  22
ATOM     22  C   UNL A   1      33.560  28.311  23.074  1.00  0.00     0.430 C 
ATOM     23  F   UNL A   1      32.912  29.474  22.827  1.00  0.00    -0.167 F 
ATOM     24  F   UNL A   1      34.366  28.534  24.140  1.00  0.00    -0.167 F 
ATOM     25  F   UNL A   1      34.357  28.055  22.011  1.00  0.00    -0.167 F 
ENDBRANCH  15  22
ENDBRANCH   3   5
ENDBRANCH   2   3
ENDBRANCH   1   2
BRANCH   1  26
ATOM     26  C   UNL A   1      33.039  30.614  27.415  1.00  0.00     0.275 C 
BRANCH  26  27
ATOM     27  O   UNL A   1      34.367  30.057  27.432  1.00  0.00    -0.458 OA
BRANCH  27  28
ATOM     28  C   UNL A   1      35.191  30.549  28.385  1.00  0.00     0.338 C 
ATOM     29  O   UNL A   1      34.923  31.354  29.260  1.00  0.00    -0.246 OA
BRANCH  28  30
ATOM     30  C   UNL A   1      36.492  29.871  28.306  1.00  0.00     0.060 A 
ATOM     31  C   UNL A   1      37.277  29.917  27.162  1.00  0.00     0.016 A 
ATOM     32  C   UNL A   1      37.005  29.324  29.473  1.00  0.00     0.016 A 
ATOM     33  C   UNL A   1      38.576  29.391  27.209  1.00  0.00     0.010 A 
ATOM     34  C   UNL A   1      38.347  28.976  29.567  1.00  0.00     0.010 A 
ATOM     35  C   UNL A   1      39.147  28.954  28.424  1.00  0.00    -0.014 A 
BRANCH  35  36
ATOM     36  C   UNL A   1      40.558  28.467  28.500  1.00  0.00     0.031 A 
ATOM     37  C   UNL A   1      40.915  27.034  28.160  1.00  0.00     0.074 A 
ATOM     38  C   UNL A   1      41.535  29.307  28.905  1.00  0.00     0.049 A 
ATOM     39  N   UNL A   1      42.097  26.466  28.127  1.00  0.00    -0.248 NA
ATOM     40  C   UNL A   1      39.812  26.104  27.862  1.00  0.00     0.031 C 
ATOM     41  C   UNL A   1      41.330  30.680  29.370  1.00  0.00     0.029 A 
ATOM     42  N   UNL A   1      42.898  29.141  28.962  1.00  0.00    -0.354 N 
ATOM     43  C   UNL A   1      41.869  25.124  27.836  1.00  0.00     0.074 A 
ATOM     44  C   UNL A   1      40.439  24.941  27.783  1.00  0.00     0.031 C 
ATOM     45  C   UNL A   1      42.522  31.263  29.566  1.00  0.00     0.029 A 
ATOM     46  C   UNL A   1      43.578  30.292  29.293  1.00  0.00     0.049 A 
ATOM     47  H   UNL A   1      43.346  28.282  28.785  1.00  0.00     0.167 HD
ATOM     48  C   UNL A   1      42.763  24.140  27.580  1.00  0.00     0.031 A 
ATOM     49  C   UNL A   1      44.899  30.551  29.346  1.00  0.00     0.031 A 
ATOM     50  C   UNL A   1      44.187  24.333  27.566  1.00  0.00     0.049 A 
ATOM     51  C   UNL A   1      45.877  29.465  28.997  1.00  0.00     0.074 A 
ATOM     52  C   UNL A   1      45.172  23.423  27.225  1.00  0.00     0.029 A 
ATOM     53  N   UNL A   1      44.827  25.516  27.894  1.00  0.00    -0.354 N 
ATOM     54  N   UNL A   1      45.638  28.230  28.628  1.00  0.00    -0.248 NA
ATOM     55  C   UNL A   1      47.305  29.808  29.061  1.00  0.00     0.031 C 
ATOM     56  C   UNL A   1      46.412  24.040  27.398  1.00  0.00     0.029 A 
ATOM     57  C   UNL A   1      46.196  25.354  27.782  1.00  0.00     0.049 A 
ATOM     58  H   UNL A   1      44.375  26.347  28.166  1.00  0.00     0.167 HD
ATOM     59  C   UNL A   1      46.881  27.654  28.403  1.00  0.00     0.074 A 
ATOM     60  C   UNL A   1      47.871  28.681  28.650  1.00  0.00     0.031 C 
ATOM     61  C   UNL A   1      47.173  26.383  28.033  1.00  0.00     0.031 A 
BRANCH  48  62
ATOM     62  C   UNL A   1      42.236  22.769  27.243  1.00  0.00    -0.014 A 
ATOM     63  C   UNL A   1      41.596  21.999  28.226  1.00  0.00     0.009 A 
ATOM     64  C   UNL A   1      42.451  22.202  25.976  1.00  0.00     0.009 A 
ATOM     65  C   UNL A   1      41.191  20.690  27.953  1.00  0.00     0.001 A 
ATOM     66  C   UNL A   1      42.013  20.906  25.692  1.00  0.00     0.001 A 
ATOM     67  C   UNL A   1      41.394  20.148  26.684  1.00  0.00     0.000 A 
ENDBRANCH  48  62
BRANCH  49  68
ATOM     68  C   UNL A   1      45.359  31.929  29.672  1.00  0.00    -0.014 A 
ATOM     69  C   UNL A   1      45.696  32.836  28.655  1.00  0.00     0.009 A 
ATOM     70  C   UNL A   1      45.523  32.323  31.010  1.00  0.00     0.009 A 
ATOM     71  C   UNL A   1      46.215  34.096  28.970  1.00  0.00     0.001 A 
ATOM     72  C   UNL A   1      46.012  33.593  31.322  1.00  0.00     0.001 A 
ATOM     73  C   UNL A   1      46.369  34.474  30.302  1.00  0.00     0.000 A 
ENDBRANCH  49  68
BRANCH  61  74
ATOM     74  C   UNL A   1      48.618  26.011  27.866  1.00  0.00    -0.014 A 
ATOM     75  C   UNL A   1      49.400  25.718  28.995  1.00  0.00     0.009 A 
ATOM     76  C   UNL A   1      49.235  26.065  26.607  1.00  0.00     0.009 A 
ATOM     77  C   UNL A   1      50.774  25.505  28.871  1.00  0.00     0.001 A 
ATOM     78  C   UNL A   1      50.604  25.819  26.480  1.00  0.00     0.001 A 
ATOM     79  C   UNL A   1      51.373  25.551  27.613  1.00  0.00     0.000 A 
ENDBRANCH  61  74
ENDBRANCH  35  36
ENDBRANCH  28  30
ENDBRANCH  27  28
ENDBRANCH  26  27
ENDBRANCH   1  26
TORSDOF 15
ENDMDL
