MODEL 1
REMARK VINA RESULT:     -12.4      0.000      0.000
REMARK SMILES O=C(Cn1cc(/C=C(/Cl)c2nnc(C(=O)Nc3ccc(Cl)cc3)s2)nn1)OCCOC(=O)c1ccc(-c2c3nc(c(-c4ccccc4)c4ccc([nH]4)c(-c4ccccc4)c4nc(c(-c5ccccc5)c5ccc2[nH]5)C=C4)C=C3)cc1
REMARK SMILES IDX 27 1 2 2 1 3 3 4 4 5 5 6 26 7 6 8 25 9 7 10 8 11 9 12 10 13
REMARK SMILES IDX 11 14 24 15 12 16 13 17 14 18 15 19 16 20 17 22 18 23 23 24
REMARK SMILES IDX 19 25 22 26 20 27 21 28 28 29 29 30 30 31 31 32 32 33 33 34
REMARK SMILES IDX 34 35 80 36 35 37 79 38 36 39 37 40 38 41 73 42 39 43 78 44
REMARK SMILES IDX 72 45 74 46 40 47 77 48 71 49 70 50 41 52 63 53 48 54 62 55
REMARK SMILES IDX 49 56 52 57 61 58 75 59 50 60 51 61 60 63 76 64 53 65 42 66
REMARK SMILES IDX 43 67 47 68 44 69 46 70 45 71 64 72 65 73 69 74 66 75 68 76
REMARK SMILES IDX 67 77 54 78 55 79 59 80 56 81 58 82 57 83
REMARK H PARENT 16 21 74 51 52 62
REMARK Flexibility Score: inf
ROOT
ATOM      1  O   UNL A   1      41.259  20.113  25.856  1.00  0.00    -0.461 OA
ENDROOT
BRANCH   1   2
ATOM      2  C   UNL A   1      39.908  20.174  25.813  1.00  0.00     0.327 C 
ATOM      3  O   UNL A   1      39.274  19.192  25.420  1.00  0.00    -0.250 OA
BRANCH   2   4
ATOM      4  C   UNL A   1      39.161  21.424  26.180  1.00  0.00     0.268 C 
BRANCH   4   5
ATOM      5  N   UNL A   1      37.979  21.625  25.388  1.00  0.00    -0.241 N 
ATOM      6  C   UNL A   1      37.555  22.721  24.689  1.00  0.00     0.139 A 
ATOM      7  N   UNL A   1      37.028  20.686  25.431  1.00  0.00    -0.066 NA
ATOM      8  C   UNL A   1      36.356  22.304  24.154  1.00  0.00     0.107 A 
ATOM      9  N   UNL A   1      36.050  21.076  24.647  1.00  0.00    -0.131 NA
BRANCH   8  10
ATOM     10  C   UNL A   1      35.488  22.973  23.243  1.00  0.00     0.055 C 
ATOM     11  C   UNL A   1      34.221  23.378  23.482  1.00  0.00     0.081 C 
ATOM     12  Cl  UNL A   1      33.329  24.212  22.258  1.00  0.00    -0.081 Cl
BRANCH  11  13
ATOM     13  C   UNL A   1      33.588  23.181  24.744  1.00  0.00     0.159 A 
ATOM     14  N   UNL A   1      33.931  23.684  25.919  1.00  0.00    -0.137 NA
ATOM     15  S   UNL A   1      32.054  22.381  24.833  1.00  0.00    -0.086 S 
ATOM     16  N   UNL A   1      32.834  23.802  26.765  1.00  0.00    -0.133 NA
ATOM     17  C   UNL A   1      31.723  23.384  26.182  1.00  0.00     0.206 A 
BRANCH  17  18
ATOM     18  C   UNL A   1      30.401  23.691  26.717  1.00  0.00     0.286 C 
ATOM     19  O   UNL A   1      29.855  22.981  27.572  1.00  0.00    -0.266 OA
ATOM     20  N   UNL A   1      29.761  24.912  26.478  1.00  0.00    -0.320 N 
ATOM     21  H   UNL A   1      28.975  25.080  27.046  1.00  0.00     0.170 HD
BRANCH  20  22
ATOM     22  C   UNL A   1      30.049  25.936  25.565  1.00  0.00     0.041 A 
ATOM     23  C   UNL A   1      31.055  26.872  25.796  1.00  0.00     0.027 A 
ATOM     24  C   UNL A   1      29.346  25.985  24.358  1.00  0.00     0.027 A 
ATOM     25  C   UNL A   1      31.208  27.975  24.953  1.00  0.00     0.022 A 
ATOM     26  C   UNL A   1      29.508  27.079  23.498  1.00  0.00     0.022 A 
ATOM     27  C   UNL A   1      30.403  28.094  23.827  1.00  0.00     0.041 A 
ATOM     28  Cl  UNL A   1      30.508  29.499  22.842  1.00  0.00    -0.084 Cl
ENDBRANCH  20  22
ENDBRANCH  17  18
ENDBRANCH  11  13
ENDBRANCH   8  10
ENDBRANCH   4   5
ENDBRANCH   2   4
ENDBRANCH   1   2
BRANCH   1  29
ATOM     29  C   UNL A   1      42.111  19.215  26.606  1.00  0.00     0.274 C 
BRANCH  29  30
ATOM     30  C   UNL A   1      43.311  18.723  25.816  1.00  0.00     0.275 C 
BRANCH  30  31
ATOM     31  O   UNL A   1      43.362  19.342  24.536  1.00  0.00    -0.458 OA
BRANCH  31  32
ATOM     32  C   UNL A   1      44.584  19.731  24.115  1.00  0.00     0.338 C 
ATOM     33  O   UNL A   1      45.407  19.068  23.505  1.00  0.00    -0.246 OA
BRANCH  32  34
ATOM     34  C   UNL A   1      44.794  21.110  24.562  1.00  0.00     0.060 A 
ATOM     35  C   UNL A   1      45.838  21.365  25.455  1.00  0.00     0.016 A 
ATOM     36  C   UNL A   1      43.841  22.088  24.237  1.00  0.00     0.016 A 
ATOM     37  C   UNL A   1      45.816  22.547  26.167  1.00  0.00     0.010 A 
ATOM     38  C   UNL A   1      43.810  23.252  24.955  1.00  0.00     0.010 A 
ATOM     39  C   UNL A   1      44.747  23.426  25.967  1.00  0.00    -0.014 A 
BRANCH  39  40
ATOM     40  C   UNL A   1      44.623  24.593  26.808  1.00  0.00     0.031 A 
ATOM     41  C   UNL A   1      45.751  25.538  26.668  1.00  0.00     0.074 A 
ATOM     42  C   UNL A   1      43.497  24.835  27.507  1.00  0.00     0.049 A 
ATOM     43  N   UNL A   1      46.641  25.828  27.554  1.00  0.00    -0.248 NA
ATOM     44  C   UNL A   1      46.020  26.102  25.333  1.00  0.00     0.031 C 
ATOM     45  C   UNL A   1      42.224  24.106  27.461  1.00  0.00     0.029 A 
ATOM     46  N   UNL A   1      43.216  25.876  28.331  1.00  0.00    -0.354 N 
ATOM     47  C   UNL A   1      47.463  26.777  26.958  1.00  0.00     0.074 A 
ATOM     48  C   UNL A   1      47.163  26.752  25.550  1.00  0.00     0.031 C 
ATOM     49  C   UNL A   1      41.255  24.864  28.028  1.00  0.00     0.029 A 
ATOM     50  C   UNL A   1      41.864  26.057  28.593  1.00  0.00     0.049 A 
ATOM     51  H   UNL A   1      43.914  26.457  28.712  1.00  0.00     0.167 HD
ATOM     52  C   UNL A   1      48.110  27.710  27.706  1.00  0.00     0.031 A 
ATOM     53  C   UNL A   1      41.295  27.144  29.175  1.00  0.00     0.031 A 
ATOM     54  C   UNL A   1      48.151  27.337  29.097  1.00  0.00     0.049 A 
ATOM     55  C   UNL A   1      42.373  27.884  29.876  1.00  0.00     0.074 A 
ATOM     56  C   UNL A   1      48.667  26.267  29.800  1.00  0.00     0.029 A 
ATOM     57  N   UNL A   1      47.227  27.927  29.928  1.00  0.00    -0.354 N 
ATOM     58  N   UNL A   1      42.994  27.419  30.920  1.00  0.00    -0.248 NA
ATOM     59  C   UNL A   1      43.085  28.913  29.133  1.00  0.00     0.031 C 
ATOM     60  C   UNL A   1      47.698  25.987  30.807  1.00  0.00     0.029 A 
ATOM     61  C   UNL A   1      46.688  26.947  30.720  1.00  0.00     0.049 A 
ATOM     62  H   UNL A   1      46.995  28.884  29.950  1.00  0.00     0.167 HD
ATOM     63  C   UNL A   1      44.325  27.746  30.713  1.00  0.00     0.074 A 
ATOM     64  C   UNL A   1      44.309  28.747  29.645  1.00  0.00     0.031 C 
ATOM     65  C   UNL A   1      45.328  26.963  31.211  1.00  0.00     0.031 A 
BRANCH  52  66
ATOM     66  C   UNL A   1      48.292  29.136  27.252  1.00  0.00    -0.014 A 
ATOM     67  C   UNL A   1      49.577  29.700  27.313  1.00  0.00     0.009 A 
ATOM     68  C   UNL A   1      47.220  30.026  27.043  1.00  0.00     0.009 A 
ATOM     69  C   UNL A   1      49.766  31.085  27.245  1.00  0.00     0.001 A 
ATOM     70  C   UNL A   1      47.408  31.404  26.931  1.00  0.00     0.001 A 
ATOM     71  C   UNL A   1      48.681  31.937  27.062  1.00  0.00     0.000 A 
ENDBRANCH  52  66
BRANCH  53  72
ATOM     72  C   UNL A   1      39.972  27.756  28.917  1.00  0.00    -0.014 A 
ATOM     73  C   UNL A   1      39.011  27.851  29.938  1.00  0.00     0.009 A 
ATOM     74  C   UNL A   1      39.756  28.507  27.747  1.00  0.00     0.009 A 
ATOM     75  C   UNL A   1      37.900  28.697  29.808  1.00  0.00     0.001 A 
ATOM     76  C   UNL A   1      38.646  29.350  27.616  1.00  0.00     0.001 A 
ATOM     77  C   UNL A   1      37.726  29.458  28.654  1.00  0.00     0.000 A 
ENDBRANCH  53  72
BRANCH  65  78
ATOM     78  C   UNL A   1      44.951  25.866  32.180  1.00  0.00    -0.014 A 
ATOM     79  C   UNL A   1      44.739  26.083  33.555  1.00  0.00     0.009 A 
ATOM     80  C   UNL A   1      44.652  24.600  31.655  1.00  0.00     0.009 A 
ATOM     81  C   UNL A   1      44.270  25.054  34.379  1.00  0.00     0.001 A 
ATOM     82  C   UNL A   1      44.164  23.581  32.474  1.00  0.00     0.001 A 
ATOM     83  C   UNL A   1      43.979  23.805  33.836  1.00  0.00     0.000 A 
ENDBRANCH  65  78
ENDBRANCH  39  40
ENDBRANCH  32  34
ENDBRANCH  31  32
ENDBRANCH  30  31
ENDBRANCH  29  30
ENDBRANCH   1  29
TORSDOF 16
ENDMDL
MODEL 2
REMARK VINA RESULT:     -12.0      5.541     10.604
REMARK SMILES O=C(Cn1cc(/C=C(/Cl)c2nnc(C(=O)Nc3ccc(Cl)cc3)s2)nn1)OCCOC(=O)c1ccc(-c2c3nc(c(-c4ccccc4)c4ccc([nH]4)c(-c4ccccc4)c4nc(c(-c5ccccc5)c5ccc2[nH]5)C=C4)C=C3)cc1
REMARK SMILES IDX 27 1 2 2 1 3 3 4 4 5 5 6 26 7 6 8 25 9 7 10 8 11 9 12 10 13
REMARK SMILES IDX 11 14 24 15 12 16 13 17 14 18 15 19 16 20 17 22 18 23 23 24
REMARK SMILES IDX 19 25 22 26 20 27 21 28 28 29 29 30 30 31 31 32 32 33 33 34
REMARK SMILES IDX 34 35 80 36 35 37 79 38 36 39 37 40 38 41 73 42 39 43 78 44
REMARK SMILES IDX 72 45 74 46 40 47 77 48 71 49 70 50 41 52 63 53 48 54 62 55
REMARK SMILES IDX 49 56 52 57 61 58 75 59 50 60 51 61 60 63 76 64 53 65 42 66
REMARK SMILES IDX 43 67 47 68 44 69 46 70 45 71 64 72 65 73 69 74 66 75 68 76
REMARK SMILES IDX 67 77 54 78 55 79 59 80 56 81 58 82 57 83
REMARK H PARENT 16 21 74 51 52 62
REMARK Flexibility Score: inf
ROOT
ATOM      1  O   UNL A   1      33.598  33.804  28.466  1.00  0.00    -0.461 OA
ENDROOT
BRANCH   1   2
ATOM      2  C   UNL A   1      34.414  32.799  28.073  1.00  0.00     0.327 C 
ATOM      3  O   UNL A   1      35.417  33.064  27.407  1.00  0.00    -0.250 OA
BRANCH   2   4
ATOM      4  C   UNL A   1      34.103  31.363  28.382  1.00  0.00     0.268 C 
BRANCH   4   5
ATOM      5  N   UNL A   1      33.578  30.646  27.252  1.00  0.00    -0.241 N 
ATOM      6  C   UNL A   1      32.289  30.488  26.824  1.00  0.00     0.139 A 
ATOM      7  N   UNL A   1      34.411  29.860  26.565  1.00  0.00    -0.066 NA
ATOM      8  C   UNL A   1      32.428  29.695  25.707  1.00  0.00     0.107 A 
ATOM      9  N   UNL A   1      33.724  29.306  25.594  1.00  0.00    -0.131 NA
BRANCH   8  10
ATOM     10  C   UNL A   1      31.444  29.272  24.766  1.00  0.00     0.055 C 
ATOM     11  C   UNL A   1      30.994  28.012  24.578  1.00  0.00     0.081 C 
ATOM     12  Cl  UNL A   1      29.762  27.694  23.407  1.00  0.00    -0.081 Cl
BRANCH  11  13
ATOM     13  C   UNL A   1      31.471  26.914  25.351  1.00  0.00     0.159 A 
ATOM     14  N   UNL A   1      31.883  26.914  26.609  1.00  0.00    -0.137 NA
ATOM     15  S   UNL A   1      31.336  25.297  24.742  1.00  0.00    -0.086 S 
ATOM     16  N   UNL A   1      31.699  25.674  27.209  1.00  0.00    -0.133 NA
ATOM     17  C   UNL A   1      31.156  24.805  26.374  1.00  0.00     0.206 A 
BRANCH  17  18
ATOM     18  C   UNL A   1      30.569  23.550  26.830  1.00  0.00     0.286 C 
ATOM     19  O   UNL A   1      29.420  23.486  27.285  1.00  0.00    -0.266 OA
ATOM     20  N   UNL A   1      31.167  22.310  26.578  1.00  0.00    -0.320 N 
ATOM     21  H   UNL A   1      30.587  21.533  26.755  1.00  0.00     0.170 HD
BRANCH  20  22
ATOM     22  C   UNL A   1      32.450  21.985  26.117  1.00  0.00     0.041 A 
ATOM     23  C   UNL A   1      32.661  21.362  24.890  1.00  0.00     0.027 A 
ATOM     24  C   UNL A   1      33.558  22.353  26.887  1.00  0.00     0.027 A 
ATOM     25  C   UNL A   1      33.931  20.902  24.534  1.00  0.00     0.022 A 
ATOM     26  C   UNL A   1      34.838  21.912  26.526  1.00  0.00     0.022 A 
ATOM     27  C   UNL A   1      35.008  21.144  25.376  1.00  0.00     0.041 A 
ATOM     28  Cl  UNL A   1      36.554  20.492  25.001  1.00  0.00    -0.084 Cl
ENDBRANCH  20  22
ENDBRANCH  17  18
ENDBRANCH  11  13
ENDBRANCH   8  10
ENDBRANCH   4   5
ENDBRANCH   2   4
ENDBRANCH   1   2
BRANCH   1  29
ATOM     29  C   UNL A   1      33.940  35.125  28.948  1.00  0.00     0.274 C 
BRANCH  29  30
ATOM     30  C   UNL A   1      32.882  35.728  29.855  1.00  0.00     0.275 C 
BRANCH  30  31
ATOM     31  O   UNL A   1      33.427  36.038  31.132  1.00  0.00    -0.458 OA
BRANCH  31  32
ATOM     32  C   UNL A   1      33.148  35.166  32.123  1.00  0.00     0.338 C 
ATOM     33  O   UNL A   1      32.082  35.002  32.692  1.00  0.00    -0.246 OA
BRANCH  32  34
ATOM     34  C   UNL A   1      34.384  34.452  32.452  1.00  0.00     0.060 A 
ATOM     35  C   UNL A   1      35.524  35.203  32.747  1.00  0.00     0.016 A 
ATOM     36  C   UNL A   1      34.439  33.060  32.277  1.00  0.00     0.016 A 
ATOM     37  C   UNL A   1      36.754  34.581  32.683  1.00  0.00     0.010 A 
ATOM     38  C   UNL A   1      35.659  32.446  32.197  1.00  0.00     0.010 A 
ATOM     39  C   UNL A   1      36.800  33.232  32.316  1.00  0.00    -0.014 A 
BRANCH  39  40
ATOM     40  C   UNL A   1      38.079  32.601  32.095  1.00  0.00     0.031 A 
ATOM     41  C   UNL A   1      38.905  32.507  33.317  1.00  0.00     0.074 A 
ATOM     42  C   UNL A   1      38.379  32.022  30.916  1.00  0.00     0.049 A 
ATOM     43  N   UNL A   1      40.011  33.122  33.561  1.00  0.00    -0.248 NA
ATOM     44  C   UNL A   1      38.354  31.773  34.471  1.00  0.00     0.031 C 
ATOM     45  C   UNL A   1      37.501  31.807  29.760  1.00  0.00     0.029 A 
ATOM     46  N   UNL A   1      39.520  31.387  30.547  1.00  0.00    -0.354 N 
ATOM     47  C   UNL A   1      40.409  32.687  34.819  1.00  0.00     0.074 A 
ATOM     48  C   UNL A   1      39.269  32.033  35.405  1.00  0.00     0.031 C 
ATOM     49  C   UNL A   1      38.065  30.892  28.935  1.00  0.00     0.029 A 
ATOM     50  C   UNL A   1      39.391  30.567  29.433  1.00  0.00     0.049 A 
ATOM     51  H   UNL A   1      40.371  31.499  31.030  1.00  0.00     0.167 HD
ATOM     52  C   UNL A   1      41.725  32.641  35.159  1.00  0.00     0.031 A 
ATOM     53  C   UNL A   1      40.292  29.646  29.003  1.00  0.00     0.031 A 
ATOM     54  C   UNL A   1      42.530  33.433  34.266  1.00  0.00     0.049 A 
ATOM     55  C   UNL A   1      41.593  29.973  29.635  1.00  0.00     0.074 A 
ATOM     56  C   UNL A   1      42.563  34.768  33.914  1.00  0.00     0.029 A 
ATOM     57  N   UNL A   1      43.200  32.761  33.270  1.00  0.00    -0.354 N 
ATOM     58  N   UNL A   1      42.275  31.045  29.350  1.00  0.00    -0.248 NA
ATOM     59  C   UNL A   1      41.897  29.364  30.921  1.00  0.00     0.031 C 
ATOM     60  C   UNL A   1      42.823  34.772  32.513  1.00  0.00     0.029 A 
ATOM     61  C   UNL A   1      43.017  33.452  32.101  1.00  0.00     0.049 A 
ATOM     62  H   UNL A   1      43.719  31.932  33.378  1.00  0.00     0.167 HD
ATOM     63  C   UNL A   1      42.743  31.499  30.574  1.00  0.00     0.074 A 
ATOM     64  C   UNL A   1      42.560  30.374  31.492  1.00  0.00     0.031 C 
ATOM     65  C   UNL A   1      42.954  32.831  30.796  1.00  0.00     0.031 A 
BRANCH  52  66
ATOM     66  C   UNL A   1      42.311  31.536  36.001  1.00  0.00    -0.014 A 
ATOM     67  C   UNL A   1      43.188  31.880  37.043  1.00  0.00     0.009 A 
ATOM     68  C   UNL A   1      42.264  30.176  35.637  1.00  0.00     0.009 A 
ATOM     69  C   UNL A   1      44.026  30.926  37.631  1.00  0.00     0.001 A 
ATOM     70  C   UNL A   1      43.067  29.213  36.251  1.00  0.00     0.001 A 
ATOM     71  C   UNL A   1      43.971  29.595  37.229  1.00  0.00     0.000 A 
ENDBRANCH  52  66
BRANCH  53  72
ATOM     72  C   UNL A   1      40.052  28.341  28.347  1.00  0.00    -0.014 A 
ATOM     73  C   UNL A   1      40.649  28.035  27.112  1.00  0.00     0.009 A 
ATOM     74  C   UNL A   1      39.468  27.284  29.068  1.00  0.00     0.009 A 
ATOM     75  C   UNL A   1      40.696  26.715  26.640  1.00  0.00     0.001 A 
ATOM     76  C   UNL A   1      39.513  25.967  28.595  1.00  0.00     0.001 A 
ATOM     77  C   UNL A   1      40.141  25.680  27.389  1.00  0.00     0.000 A 
ENDBRANCH  53  72
BRANCH  65  78
ATOM     78  C   UNL A   1      42.881  33.764  29.610  1.00  0.00    -0.014 A 
ATOM     79  C   UNL A   1      41.785  34.608  29.352  1.00  0.00     0.009 A 
ATOM     80  C   UNL A   1      44.027  33.903  28.812  1.00  0.00     0.009 A 
ATOM     81  C   UNL A   1      41.828  35.541  28.309  1.00  0.00     0.001 A 
ATOM     82  C   UNL A   1      44.076  34.848  27.786  1.00  0.00     0.001 A 
ATOM     83  C   UNL A   1      42.976  35.662  27.530  1.00  0.00     0.000 A 
ENDBRANCH  65  78
ENDBRANCH  39  40
ENDBRANCH  32  34
ENDBRANCH  31  32
ENDBRANCH  30  31
ENDBRANCH  29  30
ENDBRANCH   1  29
TORSDOF 16
ENDMDL
MODEL 3
REMARK VINA RESULT:     -11.9      2.060      2.565
REMARK SMILES O=C(Cn1cc(/C=C(/Cl)c2nnc(C(=O)Nc3ccc(Cl)cc3)s2)nn1)OCCOC(=O)c1ccc(-c2c3nc(c(-c4ccccc4)c4ccc([nH]4)c(-c4ccccc4)c4nc(c(-c5ccccc5)c5ccc2[nH]5)C=C4)C=C3)cc1
REMARK SMILES IDX 27 1 2 2 1 3 3 4 4 5 5 6 26 7 6 8 25 9 7 10 8 11 9 12 10 13
REMARK SMILES IDX 11 14 24 15 12 16 13 17 14 18 15 19 16 20 17 22 18 23 23 24
REMARK SMILES IDX 19 25 22 26 20 27 21 28 28 29 29 30 30 31 31 32 32 33 33 34
REMARK SMILES IDX 34 35 80 36 35 37 79 38 36 39 37 40 38 41 73 42 39 43 78 44
REMARK SMILES IDX 72 45 74 46 40 47 77 48 71 49 70 50 41 52 63 53 48 54 62 55
REMARK SMILES IDX 49 56 52 57 61 58 75 59 50 60 51 61 60 63 76 64 53 65 42 66
REMARK SMILES IDX 43 67 47 68 44 69 46 70 45 71 64 72 65 73 69 74 66 75 68 76
REMARK SMILES IDX 67 77 54 78 55 79 59 80 56 81 58 82 57 83
REMARK H PARENT 16 21 74 51 52 62
REMARK Flexibility Score: inf
ROOT
ATOM      1  O   UNL A   1      40.445  20.147  27.159  1.00  0.00    -0.461 OA
ENDROOT
BRANCH   1   2
ATOM      2  C   UNL A   1      39.884  21.279  26.676  1.00  0.00     0.327 C 
ATOM      3  O   UNL A   1      40.103  22.350  27.248  1.00  0.00    -0.250 OA
BRANCH   2   4
ATOM      4  C   UNL A   1      38.960  21.261  25.492  1.00  0.00     0.268 C 
BRANCH   4   5
ATOM      5  N   UNL A   1      37.717  21.940  25.740  1.00  0.00    -0.241 N 
ATOM      6  C   UNL A   1      36.437  21.461  25.775  1.00  0.00     0.139 A 
ATOM      7  N   UNL A   1      37.732  23.275  25.794  1.00  0.00    -0.066 NA
ATOM      8  C   UNL A   1      35.692  22.587  26.044  1.00  0.00     0.107 A 
ATOM      9  N   UNL A   1      36.503  23.676  26.020  1.00  0.00    -0.131 NA
BRANCH   8  10
ATOM     10  C   UNL A   1      34.295  22.711  26.300  1.00  0.00     0.055 C 
ATOM     11  C   UNL A   1      33.342  23.093  25.422  1.00  0.00     0.081 C 
ATOM     12  Cl  UNL A   1      31.683  23.149  25.908  1.00  0.00    -0.081 Cl
BRANCH  11  13
ATOM     13  C   UNL A   1      33.646  23.418  24.068  1.00  0.00     0.159 A 
ATOM     14  N   UNL A   1      33.469  22.674  22.987  1.00  0.00    -0.137 NA
ATOM     15  S   UNL A   1      34.105  25.034  23.643  1.00  0.00    -0.086 S 
ATOM     16  N   UNL A   1      33.292  23.456  21.851  1.00  0.00    -0.133 NA
ATOM     17  C   UNL A   1      33.341  24.746  22.136  1.00  0.00     0.206 A 
BRANCH  17  18
ATOM     18  C   UNL A   1      32.874  25.767  21.204  1.00  0.00     0.286 C 
ATOM     19  O   UNL A   1      32.906  25.604  19.977  1.00  0.00    -0.266 OA
ATOM     20  N   UNL A   1      32.157  26.893  21.625  1.00  0.00    -0.320 N 
ATOM     21  H   UNL A   1      31.728  27.399  20.897  1.00  0.00     0.170 HD
BRANCH  20  22
ATOM     22  C   UNL A   1      31.947  27.421  22.906  1.00  0.00     0.041 A 
ATOM     23  C   UNL A   1      32.689  28.493  23.396  1.00  0.00     0.027 A 
ATOM     24  C   UNL A   1      30.920  26.895  23.695  1.00  0.00     0.027 A 
ATOM     25  C   UNL A   1      32.573  28.889  24.730  1.00  0.00     0.022 A 
ATOM     26  C   UNL A   1      30.784  27.301  25.029  1.00  0.00     0.022 A 
ATOM     27  C   UNL A   1      31.647  28.261  25.553  1.00  0.00     0.041 A 
ATOM     28  Cl  UNL A   1      31.569  28.665  27.222  1.00  0.00    -0.084 Cl
ENDBRANCH  20  22
ENDBRANCH  17  18
ENDBRANCH  11  13
ENDBRANCH   8  10
ENDBRANCH   4   5
ENDBRANCH   2   4
ENDBRANCH   1   2
BRANCH   1  29
ATOM     29  C   UNL A   1      41.837  19.752  27.180  1.00  0.00     0.274 C 
BRANCH  29  30
ATOM     30  C   UNL A   1      42.468  19.697  25.800  1.00  0.00     0.275 C 
BRANCH  30  31
ATOM     31  O   UNL A   1      43.840  20.068  25.855  1.00  0.00    -0.458 OA
BRANCH  31  32
ATOM     32  C   UNL A   1      44.319  20.726  24.779  1.00  0.00     0.338 C 
ATOM     33  O   UNL A   1      44.680  20.251  23.716  1.00  0.00    -0.246 OA
BRANCH  32  34
ATOM     34  C   UNL A   1      44.384  22.150  25.118  1.00  0.00     0.060 A 
ATOM     35  C   UNL A   1      45.414  22.586  25.955  1.00  0.00     0.016 A 
ATOM     36  C   UNL A   1      43.319  22.990  24.754  1.00  0.00     0.016 A 
ATOM     37  C   UNL A   1      45.277  23.808  26.580  1.00  0.00     0.010 A 
ATOM     38  C   UNL A   1      43.175  24.195  25.387  1.00  0.00     0.010 A 
ATOM     39  C   UNL A   1      44.112  24.547  26.352  1.00  0.00    -0.014 A 
BRANCH  39  40
ATOM     40  C   UNL A   1      43.879  25.753  27.110  1.00  0.00     0.031 A 
ATOM     41  C   UNL A   1      44.848  26.829  26.812  1.00  0.00     0.074 A 
ATOM     42  C   UNL A   1      42.778  25.898  27.874  1.00  0.00     0.049 A 
ATOM     43  N   UNL A   1      45.744  27.312  27.602  1.00  0.00    -0.248 NA
ATOM     44  C   UNL A   1      44.945  27.308  25.421  1.00  0.00     0.031 C 
ATOM     45  C   UNL A   1      41.622  25.000  27.982  1.00  0.00     0.029 A 
ATOM     46  N   UNL A   1      42.407  26.958  28.636  1.00  0.00    -0.354 N 
ATOM     47  C   UNL A   1      46.381  28.311  26.874  1.00  0.00     0.074 A 
ATOM     48  C   UNL A   1      45.995  28.124  25.500  1.00  0.00     0.031 C 
ATOM     49  C   UNL A   1      40.595  25.664  28.564  1.00  0.00     0.029 A 
ATOM     50  C   UNL A   1      41.063  26.973  28.988  1.00  0.00     0.049 A 
ATOM     51  H   UNL A   1      43.039  27.658  28.917  1.00  0.00     0.167 HD
ATOM     52  C   UNL A   1      46.937  29.384  27.498  1.00  0.00     0.031 A 
ATOM     53  C   UNL A   1      40.385  28.017  29.529  1.00  0.00     0.031 A 
ATOM     54  C   UNL A   1      47.123  29.140  28.905  1.00  0.00     0.049 A 
ATOM     55  C   UNL A   1      41.390  28.955  30.086  1.00  0.00     0.074 A 
ATOM     56  C   UNL A   1      47.832  28.215  29.645  1.00  0.00     0.029 A 
ATOM     57  N   UNL A   1      46.181  29.667  29.758  1.00  0.00    -0.354 N 
ATOM     58  N   UNL A   1      42.139  28.671  31.112  1.00  0.00    -0.248 NA
ATOM     59  C   UNL A   1      41.897  30.005  29.215  1.00  0.00     0.031 C 
ATOM     60  C   UNL A   1      46.981  27.892  30.741  1.00  0.00     0.029 A 
ATOM     61  C   UNL A   1      45.841  28.694  30.661  1.00  0.00     0.049 A 
ATOM     62  H   UNL A   1      45.817  30.581  29.726  1.00  0.00     0.167 HD
ATOM     63  C   UNL A   1      43.393  29.158  30.777  1.00  0.00     0.074 A 
ATOM     64  C   UNL A   1      43.163  30.052  29.641  1.00  0.00     0.031 C 
ATOM     65  C   UNL A   1      44.528  28.565  31.254  1.00  0.00     0.031 A 
BRANCH  52  66
ATOM     66  C   UNL A   1      46.883  30.777  26.925  1.00  0.00    -0.014 A 
ATOM     67  C   UNL A   1      48.031  31.581  27.008  1.00  0.00     0.009 A 
ATOM     68  C   UNL A   1      45.682  31.424  26.571  1.00  0.00     0.009 A 
ATOM     69  C   UNL A   1      47.962  32.967  26.823  1.00  0.00     0.001 A 
ATOM     70  C   UNL A   1      45.617  32.800  26.343  1.00  0.00     0.001 A 
ATOM     71  C   UNL A   1      46.754  33.576  26.499  1.00  0.00     0.000 A 
ENDBRANCH  52  66
BRANCH  53  72
ATOM     72  C   UNL A   1      38.974  28.418  29.329  1.00  0.00    -0.014 A 
ATOM     73  C   UNL A   1      38.111  28.590  30.425  1.00  0.00     0.009 A 
ATOM     74  C   UNL A   1      38.548  28.912  28.083  1.00  0.00     0.009 A 
ATOM     75  C   UNL A   1      36.891  29.267  30.286  1.00  0.00     0.001 A 
ATOM     76  C   UNL A   1      37.329  29.586  27.943  1.00  0.00     0.001 A 
ATOM     77  C   UNL A   1      36.507  29.778  29.048  1.00  0.00     0.000 A 
ENDBRANCH  53  72
BRANCH  65  78
ATOM     78  C   UNL A   1      44.376  27.514  32.329  1.00  0.00    -0.014 A 
ATOM     79  C   UNL A   1      44.279  26.136  32.059  1.00  0.00     0.009 A 
ATOM     80  C   UNL A   1      44.490  27.920  33.666  1.00  0.00     0.009 A 
ATOM     81  C   UNL A   1      44.266  25.200  33.100  1.00  0.00     0.001 A 
ATOM     82  C   UNL A   1      44.499  26.986  34.703  1.00  0.00     0.001 A 
ATOM     83  C   UNL A   1      44.380  25.627  34.421  1.00  0.00     0.000 A 
ENDBRANCH  65  78
ENDBRANCH  39  40
ENDBRANCH  32  34
ENDBRANCH  31  32
ENDBRANCH  30  31
ENDBRANCH  29  30
ENDBRANCH   1  29
TORSDOF 16
ENDMDL
