MODEL 1
REMARK VINA RESULT:     -10.2      0.000      0.000
REMARK SMILES Cc1cccc(C(=O)[C@H](C)[C@@H](C)C(=O)OCCOC(=O)c2ccc(-c3c4nc(c(-c5ccccc5)c5ccc([nH]5)c(-c5ccccc5)c5nc(c(-c6ccccc6)c6ccc3[nH]6)C=C5)C=C4)cc2)c1C
REMARK SMILES IDX 16 1 15 2 13 3 14 4 11 5 12 6 9 7 10 8 7 9 8 10 6 11 1 12
REMARK SMILES IDX 2 13 3 14 69 15 4 16 70 17 5 18 17 19 18 20 19 21 20 22
REMARK SMILES IDX 21 23 22 24 68 25 23 26 67 27 24 28 25 29 26 30 61 31 27 32
REMARK SMILES IDX 66 33 60 34 62 35 28 36 65 37 59 38 58 39 29 41 51 42 36 43
REMARK SMILES IDX 50 44 37 45 40 46 49 47 63 48 38 49 39 50 48 52 64 53 41 54
REMARK SMILES IDX 30 55 31 56 35 57 32 58 34 59 33 60 52 61 53 62 57 63 54 64
REMARK SMILES IDX 56 65 55 66 42 67 43 68 47 69 44 70 46 71 45 72
REMARK H PARENT 62 40 40 51
REMARK Flexibility Score: inf
ROOT
ATOM      1  C   UNL A   1      38.026  21.118  25.348  1.00  0.00     0.274 C 
ENDROOT
BRANCH   1   2
ATOM      2  O   UNL A   1      36.686  21.026  24.821  1.00  0.00    -0.462 OA
BRANCH   2   3
ATOM      3  C   UNL A   1      36.239  22.143  24.189  1.00  0.00     0.309 C 
ATOM      4  O   UNL A   1      36.850  22.727  23.299  1.00  0.00    -0.252 OA
BRANCH   3   5
ATOM      5  C   UNL A   1      34.927  22.677  24.745  1.00  0.00     0.106 C 
ATOM      6  C   UNL A   1      35.124  24.183  24.936  1.00  0.00     0.021 C 
BRANCH   5   7
ATOM      7  C   UNL A   1      34.407  21.964  26.021  1.00  0.00     0.072 C 
ATOM      8  C   UNL A   1      34.313  22.925  27.214  1.00  0.00     0.017 C 
BRANCH   7   9
ATOM      9  C   UNL A   1      32.987  21.429  25.772  1.00  0.00     0.166 C 
ATOM     10  O   UNL A   1      32.038  22.164  26.053  1.00  0.00    -0.294 OA
BRANCH   9  11
ATOM     11  C   UNL A   1      32.741  20.051  25.184  1.00  0.00     0.021 A 
ATOM     12  C   UNL A   1      32.282  18.297  21.779  1.00  0.00     0.044 C 
ATOM     13  C   UNL A   1      32.431  18.557  23.257  1.00  0.00    -0.047 A 
ATOM     14  C   UNL A   1      32.589  17.450  24.100  1.00  0.00     0.004 A 
ATOM     15  C   UNL A   1      32.453  19.871  23.799  1.00  0.00    -0.037 A 
ATOM     16  C   UNL A   1      32.788  17.625  25.461  1.00  0.00     0.001 A 
ATOM     17  C   UNL A   1      32.211  21.051  22.885  1.00  0.00     0.045 C 
ATOM     18  C   UNL A   1      32.872  18.910  25.995  1.00  0.00     0.012 A 
ENDBRANCH   9  11
ENDBRANCH   7   9
ENDBRANCH   5   7
ENDBRANCH   3   5
ENDBRANCH   2   3
ENDBRANCH   1   2
BRANCH   1  19
ATOM     19  C   UNL A   1      38.869  19.902  24.974  1.00  0.00     0.275 C 
BRANCH  19  20
ATOM     20  O   UNL A   1      39.678  19.501  26.092  1.00  0.00    -0.458 OA
BRANCH  20  21
ATOM     21  C   UNL A   1      40.997  19.773  25.974  1.00  0.00     0.338 C 
ATOM     22  O   UNL A   1      41.869  19.028  25.566  1.00  0.00    -0.246 OA
BRANCH  21  23
ATOM     23  C   UNL A   1      41.292  21.108  26.514  1.00  0.00     0.060 A 
ATOM     24  C   UNL A   1      41.846  22.116  25.721  1.00  0.00     0.016 A 
ATOM     25  C   UNL A   1      41.105  21.304  27.882  1.00  0.00     0.016 A 
ATOM     26  C   UNL A   1      42.244  23.318  26.307  1.00  0.00     0.010 A 
ATOM     27  C   UNL A   1      41.464  22.519  28.460  1.00  0.00     0.010 A 
ATOM     28  C   UNL A   1      42.053  23.527  27.680  1.00  0.00    -0.014 A 
BRANCH  28  29
ATOM     29  C   UNL A   1      42.447  24.800  28.322  1.00  0.00     0.031 A 
ATOM     30  C   UNL A   1      41.437  25.892  28.521  1.00  0.00     0.074 A 
ATOM     31  C   UNL A   1      43.732  24.990  28.667  1.00  0.00     0.049 A 
ATOM     32  N   UNL A   1      41.626  27.129  28.903  1.00  0.00    -0.248 NA
ATOM     33  C   UNL A   1      40.032  25.550  28.249  1.00  0.00     0.031 C 
ATOM     34  C   UNL A   1      44.795  23.991  28.545  1.00  0.00     0.029 A 
ATOM     35  N   UNL A   1      44.364  26.097  29.173  1.00  0.00    -0.354 N 
ATOM     36  C   UNL A   1      40.370  27.724  28.893  1.00  0.00     0.074 A 
ATOM     37  C   UNL A   1      39.428  26.712  28.462  1.00  0.00     0.031 C 
ATOM     38  C   UNL A   1      45.950  24.531  28.965  1.00  0.00     0.029 A 
ATOM     39  C   UNL A   1      45.716  25.924  29.331  1.00  0.00     0.049 A 
ATOM     40  H   UNL A   1      43.895  26.932  29.400  1.00  0.00     0.167 HD
ATOM     41  C   UNL A   1      40.039  28.998  29.210  1.00  0.00     0.031 A 
ATOM     42  C   UNL A   1      46.669  26.801  29.695  1.00  0.00     0.031 A 
ATOM     43  C   UNL A   1      40.982  29.997  29.640  1.00  0.00     0.049 A 
ATOM     44  C   UNL A   1      46.284  28.219  29.994  1.00  0.00     0.074 A 
ATOM     45  C   UNL A   1      40.744  31.314  29.994  1.00  0.00     0.029 A 
ATOM     46  N   UNL A   1      42.345  29.786  29.777  1.00  0.00    -0.354 N 
ATOM     47  N   UNL A   1      45.097  28.774  29.964  1.00  0.00    -0.248 NA
ATOM     48  C   UNL A   1      47.371  29.133  30.372  1.00  0.00     0.031 C 
ATOM     49  C   UNL A   1      41.971  31.910  30.312  1.00  0.00     0.029 A 
ATOM     50  C   UNL A   1      42.965  30.952  30.194  1.00  0.00     0.049 A 
ATOM     51  H   UNL A   1      42.805  28.933  29.604  1.00  0.00     0.167 HD
ATOM     52  C   UNL A   1      45.289  30.098  30.329  1.00  0.00     0.074 A 
ATOM     53  C   UNL A   1      46.706  30.259  30.591  1.00  0.00     0.031 C 
ATOM     54  C   UNL A   1      44.376  31.092  30.440  1.00  0.00     0.031 A 
BRANCH  41  55
ATOM     55  C   UNL A   1      38.598  29.394  29.070  1.00  0.00    -0.014 A 
ATOM     56  C   UNL A   1      38.070  29.799  27.834  1.00  0.00     0.009 A 
ATOM     57  C   UNL A   1      37.746  29.322  30.182  1.00  0.00     0.009 A 
ATOM     58  C   UNL A   1      36.723  30.147  27.722  1.00  0.00     0.001 A 
ATOM     59  C   UNL A   1      36.395  29.652  30.063  1.00  0.00     0.001 A 
ATOM     60  C   UNL A   1      35.886  30.070  28.836  1.00  0.00     0.000 A 
ENDBRANCH  41  55
BRANCH  42  61
ATOM     61  C   UNL A   1      48.082  26.358  29.764  1.00  0.00    -0.014 A 
ATOM     62  C   UNL A   1      48.609  25.847  30.959  1.00  0.00     0.009 A 
ATOM     63  C   UNL A   1      48.901  26.411  28.625  1.00  0.00     0.009 A 
ATOM     64  C   UNL A   1      49.933  25.406  31.014  1.00  0.00     0.001 A 
ATOM     65  C   UNL A   1      50.216  25.948  28.677  1.00  0.00     0.001 A 
ATOM     66  C   UNL A   1      50.733  25.450  29.872  1.00  0.00     0.000 A 
ENDBRANCH  42  61
BRANCH  54  67
ATOM     67  C   UNL A   1      44.885  32.431  30.885  1.00  0.00    -0.014 A 
ATOM     68  C   UNL A   1      45.295  33.394  29.951  1.00  0.00     0.009 A 
ATOM     69  C   UNL A   1      44.931  32.738  32.252  1.00  0.00     0.009 A 
ATOM     70  C   UNL A   1      45.770  34.633  30.382  1.00  0.00     0.001 A 
ATOM     71  C   UNL A   1      45.389  33.985  32.680  1.00  0.00     0.001 A 
ATOM     72  C   UNL A   1      45.815  34.928  31.744  1.00  0.00     0.000 A 
ENDBRANCH  54  67
ENDBRANCH  28  29
ENDBRANCH  21  23
ENDBRANCH  20  21
ENDBRANCH  19  20
ENDBRANCH   1  19
TORSDOF 14
ENDMDL
MODEL 2
REMARK VINA RESULT:     -10.2      2.579      7.597
REMARK SMILES Cc1cccc(C(=O)[C@H](C)[C@@H](C)C(=O)OCCOC(=O)c2ccc(-c3c4nc(c(-c5ccccc5)c5ccc([nH]5)c(-c5ccccc5)c5nc(c(-c6ccccc6)c6ccc3[nH]6)C=C5)C=C4)cc2)c1C
REMARK SMILES IDX 16 1 15 2 13 3 14 4 11 5 12 6 9 7 10 8 7 9 8 10 6 11 1 12
REMARK SMILES IDX 2 13 3 14 69 15 4 16 70 17 5 18 17 19 18 20 19 21 20 22
REMARK SMILES IDX 21 23 22 24 68 25 23 26 67 27 24 28 25 29 26 30 61 31 27 32
REMARK SMILES IDX 66 33 60 34 62 35 28 36 65 37 59 38 58 39 29 41 51 42 36 43
REMARK SMILES IDX 50 44 37 45 40 46 49 47 63 48 38 49 39 50 48 52 64 53 41 54
REMARK SMILES IDX 30 55 31 56 35 57 32 58 34 59 33 60 52 61 53 62 57 63 54 64
REMARK SMILES IDX 56 65 55 66 42 67 43 68 47 69 44 70 46 71 45 72
REMARK H PARENT 62 40 40 51
REMARK Flexibility Score: inf
ROOT
ATOM      1  C   UNL A   1      36.195  21.304  25.779  1.00  0.00     0.274 C 
ENDROOT
BRANCH   1   2
ATOM      2  O   UNL A   1      35.571  20.560  24.711  1.00  0.00    -0.462 OA
BRANCH   2   3
ATOM      3  C   UNL A   1      34.223  20.427  24.815  1.00  0.00     0.309 C 
ATOM      4  O   UNL A   1      33.637  19.351  24.891  1.00  0.00    -0.252 OA
BRANCH   3   5
ATOM      5  C   UNL A   1      33.470  21.748  24.740  1.00  0.00     0.106 C 
ATOM      6  C   UNL A   1      32.124  21.512  25.429  1.00  0.00     0.021 C 
BRANCH   5   7
ATOM      7  C   UNL A   1      33.330  22.353  23.320  1.00  0.00     0.072 C 
ATOM      8  C   UNL A   1      31.924  22.920  23.077  1.00  0.00     0.017 C 
BRANCH   7   9
ATOM      9  C   UNL A   1      34.312  23.525  23.157  1.00  0.00     0.166 C 
ATOM     10  O   UNL A   1      35.472  23.261  22.835  1.00  0.00    -0.294 OA
BRANCH   9  11
ATOM     11  C   UNL A   1      33.882  24.967  23.365  1.00  0.00     0.021 A 
ATOM     12  C   UNL A   1      33.875  27.719  26.068  1.00  0.00     0.044 C 
ATOM     13  C   UNL A   1      33.704  26.979  24.765  1.00  0.00    -0.047 A 
ATOM     14  C   UNL A   1      33.357  27.726  23.632  1.00  0.00     0.004 A 
ATOM     15  C   UNL A   1      33.920  25.578  24.652  1.00  0.00    -0.037 A 
ATOM     16  C   UNL A   1      33.242  27.114  22.394  1.00  0.00     0.001 A 
ATOM     17  C   UNL A   1      34.225  24.776  25.898  1.00  0.00     0.045 C 
ATOM     18  C   UNL A   1      33.510  25.752  22.260  1.00  0.00     0.012 A 
ENDBRANCH   9  11
ENDBRANCH   7   9
ENDBRANCH   5   7
ENDBRANCH   3   5
ENDBRANCH   2   3
ENDBRANCH   1   2
BRANCH   1  19
ATOM     19  C   UNL A   1      37.638  21.674  25.448  1.00  0.00     0.275 C 
BRANCH  19  20
ATOM     20  O   UNL A   1      38.010  22.875  26.144  1.00  0.00    -0.458 OA
BRANCH  20  21
ATOM     21  C   UNL A   1      39.337  23.027  26.357  1.00  0.00     0.338 C 
ATOM     22  O   UNL A   1      40.206  22.186  26.223  1.00  0.00    -0.246 OA
BRANCH  21  23
ATOM     23  C   UNL A   1      39.615  24.368  26.892  1.00  0.00     0.060 A 
ATOM     24  C   UNL A   1      40.366  25.304  26.178  1.00  0.00     0.016 A 
ATOM     25  C   UNL A   1      39.197  24.640  28.195  1.00  0.00     0.016 A 
ATOM     26  C   UNL A   1      40.729  26.508  26.782  1.00  0.00     0.010 A 
ATOM     27  C   UNL A   1      39.524  25.859  28.783  1.00  0.00     0.010 A 
ATOM     28  C   UNL A   1      40.307  26.793  28.088  1.00  0.00    -0.014 A 
BRANCH  28  29
ATOM     29  C   UNL A   1      40.660  28.071  28.744  1.00  0.00     0.031 A 
ATOM     30  C   UNL A   1      42.006  28.248  29.383  1.00  0.00     0.074 A 
ATOM     31  C   UNL A   1      39.739  29.048  28.815  1.00  0.00     0.049 A 
ATOM     32  N   UNL A   1      42.433  29.221  30.148  1.00  0.00    -0.248 NA
ATOM     33  C   UNL A   1      42.999  27.190  29.137  1.00  0.00     0.031 C 
ATOM     34  C   UNL A   1      38.408  28.998  28.207  1.00  0.00     0.029 A 
ATOM     35  N   UNL A   1      39.778  30.265  29.445  1.00  0.00    -0.354 N 
ATOM     36  C   UNL A   1      43.735  28.883  30.496  1.00  0.00     0.074 A 
ATOM     37  C   UNL A   1      44.025  27.612  29.864  1.00  0.00     0.031 C 
ATOM     38  C   UNL A   1      37.755  30.135  28.495  1.00  0.00     0.029 A 
ATOM     39  C   UNL A   1      38.601  30.963  29.349  1.00  0.00     0.049 A 
ATOM     40  H   UNL A   1      40.571  30.604  29.919  1.00  0.00     0.167 HD
ATOM     41  C   UNL A   1      44.603  29.570  31.276  1.00  0.00     0.031 A 
ATOM     42  C   UNL A   1      38.229  32.125  29.916  1.00  0.00     0.031 A 
ATOM     43  C   UNL A   1      44.309  30.833  31.899  1.00  0.00     0.049 A 
ATOM     44  C   UNL A   1      39.191  32.842  30.815  1.00  0.00     0.074 A 
ATOM     45  C   UNL A   1      45.124  31.613  32.700  1.00  0.00     0.029 A 
ATOM     46  N   UNL A   1      43.100  31.503  31.787  1.00  0.00    -0.354 N 
ATOM     47  N   UNL A   1      40.412  32.504  31.152  1.00  0.00    -0.248 NA
ATOM     48  C   UNL A   1      38.721  34.097  31.417  1.00  0.00     0.031 C 
ATOM     49  C   UNL A   1      44.396  32.740  33.101  1.00  0.00     0.029 A 
ATOM     50  C   UNL A   1      43.141  32.679  32.516  1.00  0.00     0.049 A 
ATOM     51  H   UNL A   1      42.327  31.189  31.264  1.00  0.00     0.167 HD
ATOM     52  C   UNL A   1      40.863  33.509  31.994  1.00  0.00     0.074 A 
ATOM     53  C   UNL A   1      39.789  34.477  32.106  1.00  0.00     0.031 C 
ATOM     54  C   UNL A   1      42.059  33.622  32.620  1.00  0.00     0.031 A 
BRANCH  41  55
ATOM     55  C   UNL A   1      45.947  28.949  31.528  1.00  0.00    -0.014 A 
ATOM     56  C   UNL A   1      47.044  29.221  30.696  1.00  0.00     0.009 A 
ATOM     57  C   UNL A   1      46.127  28.111  32.639  1.00  0.00     0.009 A 
ATOM     58  C   UNL A   1      48.288  28.645  30.959  1.00  0.00     0.001 A 
ATOM     59  C   UNL A   1      47.378  27.553  32.911  1.00  0.00     0.001 A 
ATOM     60  C   UNL A   1      48.455  27.815  32.068  1.00  0.00     0.000 A 
ENDBRANCH  41  55
BRANCH  42  61
ATOM     61  C   UNL A   1      36.867  32.657  29.667  1.00  0.00    -0.014 A 
ATOM     62  C   UNL A   1      36.600  33.414  28.517  1.00  0.00     0.009 A 
ATOM     63  C   UNL A   1      35.821  32.380  30.561  1.00  0.00     0.009 A 
ATOM     64  C   UNL A   1      35.311  33.891  28.272  1.00  0.00     0.001 A 
ATOM     65  C   UNL A   1      34.529  32.840  30.301  1.00  0.00     0.001 A 
ATOM     66  C   UNL A   1      34.276  33.598  29.160  1.00  0.00     0.000 A 
ENDBRANCH  42  61
BRANCH  54  67
ATOM     67  C   UNL A   1      42.270  34.848  33.458  1.00  0.00    -0.014 A 
ATOM     68  C   UNL A   1      42.902  35.984  32.931  1.00  0.00     0.009 A 
ATOM     69  C   UNL A   1      41.809  34.872  34.782  1.00  0.00     0.009 A 
ATOM     70  C   UNL A   1      43.093  37.114  33.727  1.00  0.00     0.001 A 
ATOM     71  C   UNL A   1      41.985  36.010  35.570  1.00  0.00     0.001 A 
ATOM     72  C   UNL A   1      42.634  37.127  35.043  1.00  0.00     0.000 A 
ENDBRANCH  54  67
ENDBRANCH  28  29
ENDBRANCH  21  23
ENDBRANCH  20  21
ENDBRANCH  19  20
ENDBRANCH   1  19
TORSDOF 14
ENDMDL
MODEL 3
REMARK VINA RESULT:     -10.1      2.534      4.186
REMARK SMILES Cc1cccc(C(=O)[C@H](C)[C@@H](C)C(=O)OCCOC(=O)c2ccc(-c3c4nc(c(-c5ccccc5)c5ccc([nH]5)c(-c5ccccc5)c5nc(c(-c6ccccc6)c6ccc3[nH]6)C=C5)C=C4)cc2)c1C
REMARK SMILES IDX 16 1 15 2 13 3 14 4 11 5 12 6 9 7 10 8 7 9 8 10 6 11 1 12
REMARK SMILES IDX 2 13 3 14 69 15 4 16 70 17 5 18 17 19 18 20 19 21 20 22
REMARK SMILES IDX 21 23 22 24 68 25 23 26 67 27 24 28 25 29 26 30 61 31 27 32
REMARK SMILES IDX 66 33 60 34 62 35 28 36 65 37 59 38 58 39 29 41 51 42 36 43
REMARK SMILES IDX 50 44 37 45 40 46 49 47 63 48 38 49 39 50 48 52 64 53 41 54
REMARK SMILES IDX 30 55 31 56 35 57 32 58 34 59 33 60 52 61 53 62 57 63 54 64
REMARK SMILES IDX 56 65 55 66 42 67 43 68 47 69 44 70 46 71 45 72
REMARK H PARENT 62 40 40 51
REMARK Flexibility Score: inf
ROOT
ATOM      1  C   UNL A   1      35.089  20.925  25.195  1.00  0.00     0.274 C 
ENDROOT
BRANCH   1   2
ATOM      2  O   UNL A   1      34.048  19.977  24.880  1.00  0.00    -0.462 OA
BRANCH   2   3
ATOM      3  C   UNL A   1      32.998  20.486  24.185  1.00  0.00     0.309 C 
ATOM      4  O   UNL A   1      32.328  19.850  23.377  1.00  0.00    -0.252 OA
BRANCH   3   5
ATOM      5  C   UNL A   1      32.764  21.970  24.430  1.00  0.00     0.106 C 
ATOM      6  C   UNL A   1      31.546  22.065  25.351  1.00  0.00     0.021 C 
BRANCH   5   7
ATOM      7  C   UNL A   1      32.632  22.841  23.154  1.00  0.00     0.072 C 
ATOM      8  C   UNL A   1      31.347  23.681  23.166  1.00  0.00     0.017 C 
BRANCH   7   9
ATOM      9  C   UNL A   1      33.805  23.831  23.079  1.00  0.00     0.166 C 
ATOM     10  O   UNL A   1      34.914  23.387  22.776  1.00  0.00    -0.294 OA
BRANCH   9  11
ATOM     11  C   UNL A   1      33.622  25.315  23.351  1.00  0.00     0.021 A 
ATOM     12  C   UNL A   1      34.034  27.905  26.179  1.00  0.00     0.044 C 
ATOM     13  C   UNL A   1      33.762  27.264  24.842  1.00  0.00    -0.047 A 
ATOM     14  C   UNL A   1      33.564  28.108  23.742  1.00  0.00     0.004 A 
ATOM     15  C   UNL A   1      33.740  25.853  24.666  1.00  0.00    -0.037 A 
ATOM     16  C   UNL A   1      33.368  27.581  22.475  1.00  0.00     0.001 A 
ATOM     17  C   UNL A   1      33.885  24.956  25.875  1.00  0.00     0.045 C 
ATOM     18  C   UNL A   1      33.405  26.201  22.281  1.00  0.00     0.012 A 
ENDBRANCH   9  11
ENDBRANCH   7   9
ENDBRANCH   5   7
ENDBRANCH   3   5
ENDBRANCH   2   3
ENDBRANCH   1   2
BRANCH   1  19
ATOM     19  C   UNL A   1      36.480  20.325  25.012  1.00  0.00     0.275 C 
BRANCH  19  20
ATOM     20  O   UNL A   1      37.468  21.369  24.997  1.00  0.00    -0.458 OA
BRANCH  20  21
ATOM     21  C   UNL A   1      38.626  21.073  25.628  1.00  0.00     0.338 C 
ATOM     22  O   UNL A   1      39.094  19.968  25.830  1.00  0.00    -0.246 OA
BRANCH  21  23
ATOM     23  C   UNL A   1      39.243  22.297  26.158  1.00  0.00     0.060 A 
ATOM     24  C   UNL A   1      38.609  23.539  26.072  1.00  0.00     0.016 A 
ATOM     25  C   UNL A   1      40.543  22.199  26.655  1.00  0.00     0.016 A 
ATOM     26  C   UNL A   1      39.291  24.694  26.455  1.00  0.00     0.010 A 
ATOM     27  C   UNL A   1      41.209  23.347  27.076  1.00  0.00     0.010 A 
ATOM     28  C   UNL A   1      40.595  24.604  26.962  1.00  0.00    -0.014 A 
BRANCH  28  29
ATOM     29  C   UNL A   1      41.332  25.811  27.395  1.00  0.00     0.031 A 
ATOM     30  C   UNL A   1      40.681  26.809  28.306  1.00  0.00     0.074 A 
ATOM     31  C   UNL A   1      42.567  26.033  26.913  1.00  0.00     0.049 A 
ATOM     32  N   UNL A   1      41.097  28.001  28.654  1.00  0.00    -0.248 NA
ATOM     33  C   UNL A   1      39.391  26.421  28.898  1.00  0.00     0.031 C 
ATOM     34  C   UNL A   1      43.310  25.120  26.043  1.00  0.00     0.029 A 
ATOM     35  N   UNL A   1      43.406  27.105  27.073  1.00  0.00    -0.354 N 
ATOM     36  C   UNL A   1      40.110  28.517  29.485  1.00  0.00     0.074 A 
ATOM     37  C   UNL A   1      39.072  27.511  29.584  1.00  0.00     0.031 C 
ATOM     38  C   UNL A   1      44.497  25.672  25.744  1.00  0.00     0.029 A 
ATOM     39  C   UNL A   1      44.571  26.995  26.357  1.00  0.00     0.049 A 
ATOM     40  H   UNL A   1      43.195  27.878  27.645  1.00  0.00     0.167 HD
ATOM     41  C   UNL A   1      40.074  29.721  30.102  1.00  0.00     0.031 A 
ATOM     42  C   UNL A   1      45.573  27.875  26.182  1.00  0.00     0.031 A 
ATOM     43  C   UNL A   1      41.111  30.715  30.001  1.00  0.00     0.049 A 
ATOM     44  C   UNL A   1      45.487  29.221  26.836  1.00  0.00     0.074 A 
ATOM     45  C   UNL A   1      41.173  31.964  30.596  1.00  0.00     0.029 A 
ATOM     46  N   UNL A   1      42.271  30.569  29.256  1.00  0.00    -0.354 N 
ATOM     47  N   UNL A   1      44.541  29.706  27.604  1.00  0.00    -0.248 NA
ATOM     48  C   UNL A   1      46.604  30.145  26.595  1.00  0.00     0.031 C 
ATOM     49  C   UNL A   1      42.356  32.588  30.182  1.00  0.00     0.029 A 
ATOM     50  C   UNL A   1      43.048  31.711  29.362  1.00  0.00     0.049 A 
ATOM     51  H   UNL A   1      42.507  29.772  28.730  1.00  0.00     0.167 HD
ATOM     52  C   UNL A   1      44.952  30.984  27.949  1.00  0.00     0.074 A 
ATOM     53  C   UNL A   1      46.240  31.196  27.318  1.00  0.00     0.031 C 
ATOM     54  C   UNL A   1      44.321  31.903  28.720  1.00  0.00     0.031 A 
BRANCH  41  55
ATOM     55  C   UNL A   1      38.855  30.046  30.916  1.00  0.00    -0.014 A 
ATOM     56  C   UNL A   1      37.730  30.652  30.334  1.00  0.00     0.009 A 
ATOM     57  C   UNL A   1      38.817  29.705  32.277  1.00  0.00     0.009 A 
ATOM     58  C   UNL A   1      36.601  30.930  31.106  1.00  0.00     0.001 A 
ATOM     59  C   UNL A   1      37.679  29.967  33.042  1.00  0.00     0.001 A 
ATOM     60  C   UNL A   1      36.575  30.584  32.458  1.00  0.00     0.000 A 
ENDBRANCH  41  55
BRANCH  42  61
ATOM     61  C   UNL A   1      46.725  27.511  25.322  1.00  0.00    -0.014 A 
ATOM     62  C   UNL A   1      47.770  26.725  25.830  1.00  0.00     0.009 A 
ATOM     63  C   UNL A   1      46.767  27.918  23.979  1.00  0.00     0.009 A 
ATOM     64  C   UNL A   1      48.840  26.362  25.011  1.00  0.00     0.001 A 
ATOM     65  C   UNL A   1      47.827  27.533  23.157  1.00  0.00     0.001 A 
ATOM     66  C   UNL A   1      48.864  26.760  23.674  1.00  0.00     0.000 A 
ENDBRANCH  42  61
BRANCH  54  67
ATOM     67  C   UNL A   1      45.031  33.205  28.937  1.00  0.00    -0.014 A 
ATOM     68  C   UNL A   1      44.808  34.300  28.088  1.00  0.00     0.009 A 
ATOM     69  C   UNL A   1      45.914  33.344  30.017  1.00  0.00     0.009 A 
ATOM     70  C   UNL A   1      45.482  35.503  28.303  1.00  0.00     0.001 A 
ATOM     71  C   UNL A   1      46.572  34.554  30.240  1.00  0.00     0.001 A 
ATOM     72  C   UNL A   1      46.361  35.630  29.378  1.00  0.00     0.000 A 
ENDBRANCH  54  67
ENDBRANCH  28  29
ENDBRANCH  21  23
ENDBRANCH  20  21
ENDBRANCH  19  20
ENDBRANCH   1  19
TORSDOF 14
ENDMDL
