MODEL 1
REMARK VINA RESULT:      -9.4      0.000      0.000
REMARK SMILES C[C@H]1OCC[C@H]1c1nnnn1CCC(=O)OCCOC(=O)c1ccc(-c2c3nc(c(-c4ccccc4)c4ccc([nH]4)c(-c4ccccc4)c4nc(c(-c5ccccc5)c5ccc2[nH]5)C=C4)C=C3)cc1
REMARK SMILES IDX 17 1 16 2 14 3 15 4 13 5 12 6 11 7 7 8 8 9 9 10 10 11 6 12
REMARK SMILES IDX 1 13 2 14 3 15 4 16 5 17 18 18 19 19 20 20 21 21 22 22 23 23
REMARK SMILES IDX 69 24 24 25 68 26 25 27 26 28 27 29 62 30 28 31 67 32 61 33
REMARK SMILES IDX 63 34 29 35 66 36 60 37 59 38 30 40 52 41 37 42 51 43 38 44
REMARK SMILES IDX 41 45 50 46 64 47 39 48 40 49 49 51 65 52 42 53 31 54 32 55
REMARK SMILES IDX 36 56 33 57 35 58 34 59 53 60 54 61 58 62 55 63 57 64 56 65
REMARK SMILES IDX 43 66 44 67 48 68 45 69 47 70 46 71
REMARK H PARENT 63 39 41 50
REMARK Flexibility Score: inf
ROOT
ATOM      1  C   UNL A   1      41.247  19.717  26.223  1.00  0.00     0.274 C 
ENDROOT
BRANCH   1   2
ATOM      2  O   UNL A   1      42.314  20.223  25.400  1.00  0.00    -0.462 OA
BRANCH   2   3
ATOM      3  C   UNL A   1      43.438  19.480  25.286  1.00  0.00     0.307 C 
ATOM      4  O   UNL A   1      43.475  18.260  25.171  1.00  0.00    -0.252 OA
BRANCH   3   5
ATOM      5  C   UNL A   1      44.673  20.339  25.375  1.00  0.00     0.146 C 
BRANCH   5   6
ATOM      6  C   UNL A   1      44.427  21.809  25.685  1.00  0.00     0.160 C 
BRANCH   6   7
ATOM      7  N   UNL A   1      45.283  22.768  25.022  1.00  0.00    -0.229 N 
ATOM      8  C   UNL A   1      45.389  24.123  25.229  1.00  0.00     0.157 A 
ATOM      9  N   UNL A   1      46.356  24.574  24.453  1.00  0.00    -0.113 NA
ATOM     10  N   UNL A   1      46.869  23.490  23.801  1.00  0.00    -0.024 NA
ATOM     11  N   UNL A   1      46.231  22.388  24.153  1.00  0.00    -0.045 NA
BRANCH   8  12
ATOM     12  C   UNL A   1      44.538  24.918  26.159  1.00  0.00     0.090 C 
ATOM     13  C   UNL A   1      46.372  24.450  27.989  1.00  0.00     0.039 C 
ATOM     14  C   UNL A   1      45.203  25.291  27.497  1.00  0.00     0.126 C 
ATOM     15  O   UNL A   1      45.645  26.660  27.403  1.00  0.00    -0.378 OA
ATOM     16  C   UNL A   1      45.359  27.137  26.085  1.00  0.00     0.161 C 
ATOM     17  C   UNL A   1      44.215  26.287  25.580  1.00  0.00     0.043 C 
ENDBRANCH   8  12
ENDBRANCH   6   7
ENDBRANCH   5   6
ENDBRANCH   3   5
ENDBRANCH   2   3
ENDBRANCH   1   2
BRANCH   1  18
ATOM     18  C   UNL A   1      40.590  20.807  27.066  1.00  0.00     0.275 C 
BRANCH  18  19
ATOM     19  O   UNL A   1      41.074  22.102  26.697  1.00  0.00    -0.458 OA
BRANCH  19  20
ATOM     20  C   UNL A   1      40.155  23.088  26.770  1.00  0.00     0.338 C 
ATOM     21  O   UNL A   1      38.965  23.005  26.542  1.00  0.00    -0.246 OA
BRANCH  20  22
ATOM     22  C   UNL A   1      40.787  24.384  27.004  1.00  0.00     0.060 A 
ATOM     23  C   UNL A   1      41.621  24.485  28.127  1.00  0.00     0.016 A 
ATOM     24  C   UNL A   1      40.316  25.508  26.323  1.00  0.00     0.016 A 
ATOM     25  C   UNL A   1      41.831  25.725  28.686  1.00  0.00     0.010 A 
ATOM     26  C   UNL A   1      40.515  26.744  26.889  1.00  0.00     0.010 A 
ATOM     27  C   UNL A   1      41.199  26.824  28.105  1.00  0.00    -0.014 A 
BRANCH  27  28
ATOM     28  C   UNL A   1      41.240  28.084  28.813  1.00  0.00     0.031 A 
ATOM     29  C   UNL A   1      42.321  29.007  28.411  1.00  0.00     0.074 A 
ATOM     30  C   UNL A   1      40.236  28.448  29.630  1.00  0.00     0.049 A 
ATOM     31  N   UNL A   1      43.217  29.562  29.157  1.00  0.00    -0.248 NA
ATOM     32  C   UNL A   1      42.458  29.297  26.975  1.00  0.00     0.031 C 
ATOM     33  C   UNL A   1      38.953  27.769  29.835  1.00  0.00     0.029 A 
ATOM     34  N   UNL A   1      40.089  29.610  30.321  1.00  0.00    -0.354 N 
ATOM     35  C   UNL A   1      43.943  30.395  28.314  1.00  0.00     0.074 A 
ATOM     36  C   UNL A   1      43.524  30.094  26.969  1.00  0.00     0.031 C 
ATOM     37  C   UNL A   1      38.075  28.650  30.365  1.00  0.00     0.029 A 
ATOM     38  C   UNL A   1      38.771  29.898  30.636  1.00  0.00     0.049 A 
ATOM     39  H   UNL A   1      40.845  30.189  30.571  1.00  0.00     0.167 HD
ATOM     40  C   UNL A   1      44.682  31.436  28.780  1.00  0.00     0.031 A 
ATOM     41  C   UNL A   1      38.280  31.115  30.975  1.00  0.00     0.031 A 
ATOM     42  C   UNL A   1      44.953  31.341  30.187  1.00  0.00     0.049 A 
ATOM     43  C   UNL A   1      39.424  31.974  31.368  1.00  0.00     0.074 A 
ATOM     44  C   UNL A   1      45.564  30.403  30.996  1.00  0.00     0.029 A 
ATOM     45  N   UNL A   1      44.247  32.160  31.035  1.00  0.00    -0.354 N 
ATOM     46  N   UNL A   1      40.129  31.794  32.449  1.00  0.00    -0.248 NA
ATOM     47  C   UNL A   1      40.058  32.792  30.343  1.00  0.00     0.031 C 
ATOM     48  C   UNL A   1      44.802  30.404  32.200  1.00  0.00     0.029 A 
ATOM     49  C   UNL A   1      43.800  31.367  32.060  1.00  0.00     0.049 A 
ATOM     50  H   UNL A   1      44.093  33.127  30.928  1.00  0.00     0.167 HD
ATOM     51  C   UNL A   1      41.431  32.103  32.081  1.00  0.00     0.074 A 
ATOM     52  C   UNL A   1      41.308  32.819  30.813  1.00  0.00     0.031 C 
ATOM     53  C   UNL A   1      42.502  31.501  32.680  1.00  0.00     0.031 A 
BRANCH  40  54
ATOM     54  C   UNL A   1      44.833  32.720  28.016  1.00  0.00    -0.014 A 
ATOM     55  C   UNL A   1      43.713  33.548  27.838  1.00  0.00     0.009 A 
ATOM     56  C   UNL A   1      45.973  33.009  27.238  1.00  0.00     0.009 A 
ATOM     57  C   UNL A   1      43.724  34.584  26.898  1.00  0.00     0.001 A 
ATOM     58  C   UNL A   1      46.002  34.071  26.335  1.00  0.00     0.001 A 
ATOM     59  C   UNL A   1      44.867  34.845  26.147  1.00  0.00     0.000 A 
ENDBRANCH  40  54
BRANCH  41  60
ATOM     60  C   UNL A   1      36.935  31.657  30.692  1.00  0.00    -0.014 A 
ATOM     61  C   UNL A   1      35.971  31.740  31.706  1.00  0.00     0.009 A 
ATOM     62  C   UNL A   1      36.661  32.314  29.476  1.00  0.00     0.009 A 
ATOM     63  C   UNL A   1      34.792  32.474  31.520  1.00  0.00     0.001 A 
ATOM     64  C   UNL A   1      35.479  33.036  29.285  1.00  0.00     0.001 A 
ATOM     65  C   UNL A   1      34.550  33.128  30.314  1.00  0.00     0.000 A 
ENDBRANCH  41  60
BRANCH  53  66
ATOM     66  C   UNL A   1      42.252  30.646  33.898  1.00  0.00    -0.014 A 
ATOM     67  C   UNL A   1      41.852  29.301  33.808  1.00  0.00     0.009 A 
ATOM     68  C   UNL A   1      42.595  31.151  35.161  1.00  0.00     0.009 A 
ATOM     69  C   UNL A   1      41.764  28.496  34.947  1.00  0.00     0.001 A 
ATOM     70  C   UNL A   1      42.529  30.340  36.298  1.00  0.00     0.001 A 
ATOM     71  C   UNL A   1      42.108  29.017  36.193  1.00  0.00     0.000 A 
ENDBRANCH  53  66
ENDBRANCH  27  28
ENDBRANCH  20  22
ENDBRANCH  19  20
ENDBRANCH  18  19
ENDBRANCH   1  18
TORSDOF 14
ENDMDL
MODEL 2
REMARK VINA RESULT:      -9.3      4.713      9.807
REMARK SMILES C[C@H]1OCC[C@H]1c1nnnn1CCC(=O)OCCOC(=O)c1ccc(-c2c3nc(c(-c4ccccc4)c4ccc([nH]4)c(-c4ccccc4)c4nc(c(-c5ccccc5)c5ccc2[nH]5)C=C4)C=C3)cc1
REMARK SMILES IDX 17 1 16 2 14 3 15 4 13 5 12 6 11 7 7 8 8 9 9 10 10 11 6 12
REMARK SMILES IDX 1 13 2 14 3 15 4 16 5 17 18 18 19 19 20 20 21 21 22 22 23 23
REMARK SMILES IDX 69 24 24 25 68 26 25 27 26 28 27 29 62 30 28 31 67 32 61 33
REMARK SMILES IDX 63 34 29 35 66 36 60 37 59 38 30 40 52 41 37 42 51 43 38 44
REMARK SMILES IDX 41 45 50 46 64 47 39 48 40 49 49 51 65 52 42 53 31 54 32 55
REMARK SMILES IDX 36 56 33 57 35 58 34 59 53 60 54 61 58 62 55 63 57 64 56 65
REMARK SMILES IDX 43 66 44 67 48 68 45 69 47 70 46 71
REMARK H PARENT 63 39 41 50
REMARK Flexibility Score: inf
ROOT
ATOM      1  C   UNL A   1      32.244  30.455  26.451  1.00  0.00     0.274 C 
ENDROOT
BRANCH   1   2
ATOM      2  O   UNL A   1      32.709  29.183  25.964  1.00  0.00    -0.462 OA
BRANCH   2   3
ATOM      3  C   UNL A   1      32.365  28.072  26.656  1.00  0.00     0.307 C 
ATOM      4  O   UNL A   1      31.535  28.023  27.556  1.00  0.00    -0.252 OA
BRANCH   3   5
ATOM      5  C   UNL A   1      33.182  26.883  26.220  1.00  0.00     0.146 C 
BRANCH   5   6
ATOM      6  C   UNL A   1      32.476  25.911  25.285  1.00  0.00     0.160 C 
BRANCH   6   7
ATOM      7  N   UNL A   1      32.009  24.671  25.863  1.00  0.00    -0.229 N 
ATOM      8  C   UNL A   1      32.359  23.380  25.545  1.00  0.00     0.157 A 
ATOM      9  N   UNL A   1      31.742  22.575  26.389  1.00  0.00    -0.113 NA
ATOM     10  N   UNL A   1      31.046  23.375  27.249  1.00  0.00    -0.024 NA
ATOM     11  N   UNL A   1      31.215  24.648  26.944  1.00  0.00    -0.045 NA
BRANCH   8  12
ATOM     12  C   UNL A   1      33.265  22.988  24.429  1.00  0.00     0.090 C 
ATOM     13  C   UNL A   1      35.249  23.330  26.124  1.00  0.00     0.039 C 
ATOM     14  C   UNL A   1      34.725  22.714  24.834  1.00  0.00     0.126 C 
ATOM     15  O   UNL A   1      34.899  21.285  24.919  1.00  0.00    -0.378 OA
ATOM     16  C   UNL A   1      33.639  20.661  24.656  1.00  0.00     0.161 C 
ATOM     17  C   UNL A   1      32.855  21.652  23.826  1.00  0.00     0.043 C 
ENDBRANCH   8  12
ENDBRANCH   6   7
ENDBRANCH   5   6
ENDBRANCH   3   5
ENDBRANCH   2   3
ENDBRANCH   1   2
BRANCH   1  18
ATOM     18  C   UNL A   1      33.136  31.025  27.549  1.00  0.00     0.275 C 
BRANCH  18  19
ATOM     19  O   UNL A   1      34.519  30.880  27.213  1.00  0.00    -0.458 OA
BRANCH  19  20
ATOM     20  C   UNL A   1      35.343  31.759  27.822  1.00  0.00     0.338 C 
ATOM     21  O   UNL A   1      35.414  32.956  27.630  1.00  0.00    -0.246 OA
BRANCH  20  22
ATOM     22  C   UNL A   1      36.316  31.074  28.668  1.00  0.00     0.060 A 
ATOM     23  C   UNL A   1      37.377  31.849  29.163  1.00  0.00     0.016 A 
ATOM     24  C   UNL A   1      36.337  29.679  28.698  1.00  0.00     0.016 A 
ATOM     25  C   UNL A   1      38.548  31.218  29.515  1.00  0.00     0.010 A 
ATOM     26  C   UNL A   1      37.512  29.051  29.037  1.00  0.00     0.010 A 
ATOM     27  C   UNL A   1      38.622  29.834  29.361  1.00  0.00    -0.014 A 
BRANCH  27  28
ATOM     28  C   UNL A   1      39.912  29.201  29.520  1.00  0.00     0.031 A 
ATOM     29  C   UNL A   1      40.354  28.995  30.915  1.00  0.00     0.074 A 
ATOM     30  C   UNL A   1      40.552  28.665  28.465  1.00  0.00     0.049 A 
ATOM     31  N   UNL A   1      41.455  29.382  31.469  1.00  0.00    -0.248 NA
ATOM     32  C   UNL A   1      39.413  28.328  31.827  1.00  0.00     0.031 C 
ATOM     33  C   UNL A   1      40.050  28.503  27.098  1.00  0.00     0.029 A 
ATOM     34  N   UNL A   1      41.732  27.990  28.449  1.00  0.00    -0.354 N 
ATOM     35  C   UNL A   1      41.420  28.875  32.763  1.00  0.00     0.074 A 
ATOM     36  C   UNL A   1      40.093  28.353  32.971  1.00  0.00     0.031 C 
ATOM     37  C   UNL A   1      40.785  27.554  26.475  1.00  0.00     0.029 A 
ATOM     38  C   UNL A   1      41.863  27.142  27.360  1.00  0.00     0.049 A 
ATOM     39  H   UNL A   1      42.424  28.093  29.142  1.00  0.00     0.167 HD
ATOM     40  C   UNL A   1      42.544  28.711  33.511  1.00  0.00     0.031 A 
ATOM     41  C   UNL A   1      42.722  26.099  27.262  1.00  0.00     0.031 A 
ATOM     42  C   UNL A   1      43.661  29.460  33.008  1.00  0.00     0.049 A 
ATOM     43  C   UNL A   1      43.771  26.272  28.297  1.00  0.00     0.074 A 
ATOM     44  C   UNL A   1      43.895  30.796  32.750  1.00  0.00     0.029 A 
ATOM     45  N   UNL A   1      44.650  28.773  32.345  1.00  0.00    -0.354 N 
ATOM     46  N   UNL A   1      44.674  27.210  28.265  1.00  0.00    -0.248 NA
ATOM     47  C   UNL A   1      43.563  25.656  29.600  1.00  0.00     0.031 C 
ATOM     48  C   UNL A   1      44.686  30.808  31.564  1.00  0.00     0.029 A 
ATOM     49  C   UNL A   1      44.911  29.479  31.198  1.00  0.00     0.049 A 
ATOM     50  H   UNL A   1      45.085  27.940  32.635  1.00  0.00     0.167 HD
ATOM     51  C   UNL A   1      44.839  27.593  29.588  1.00  0.00     0.074 A 
ATOM     52  C   UNL A   1      44.219  26.528  30.372  1.00  0.00     0.031 C 
ATOM     53  C   UNL A   1      45.199  28.869  29.920  1.00  0.00     0.031 A 
BRANCH  40  54
ATOM     54  C   UNL A   1      42.705  27.575  34.480  1.00  0.00    -0.014 A 
ATOM     55  C   UNL A   1      43.082  26.311  33.998  1.00  0.00     0.009 A 
ATOM     56  C   UNL A   1      42.239  27.641  35.809  1.00  0.00     0.009 A 
ATOM     57  C   UNL A   1      42.957  25.168  34.795  1.00  0.00     0.001 A 
ATOM     58  C   UNL A   1      42.159  26.510  36.621  1.00  0.00     0.001 A 
ATOM     59  C   UNL A   1      42.495  25.268  36.105  1.00  0.00     0.000 A 
ENDBRANCH  40  54
BRANCH  41  60
ATOM     60  C   UNL A   1      42.520  24.827  26.536  1.00  0.00    -0.014 A 
ATOM     61  C   UNL A   1      43.416  24.425  25.536  1.00  0.00     0.009 A 
ATOM     62  C   UNL A   1      41.573  23.883  26.982  1.00  0.00     0.009 A 
ATOM     63  C   UNL A   1      43.382  23.122  25.021  1.00  0.00     0.001 A 
ATOM     64  C   UNL A   1      41.530  22.587  26.459  1.00  0.00     0.001 A 
ATOM     65  C   UNL A   1      42.446  22.202  25.488  1.00  0.00     0.000 A 
ENDBRANCH  41  60
BRANCH  53  66
ATOM     66  C   UNL A   1      45.621  29.804  28.814  1.00  0.00    -0.014 A 
ATOM     67  C   UNL A   1      46.963  29.950  28.419  1.00  0.00     0.009 A 
ATOM     68  C   UNL A   1      44.631  30.419  28.033  1.00  0.00     0.009 A 
ATOM     69  C   UNL A   1      47.307  30.715  27.302  1.00  0.00     0.001 A 
ATOM     70  C   UNL A   1      44.973  31.166  26.902  1.00  0.00     0.001 A 
ATOM     71  C   UNL A   1      46.309  31.320  26.540  1.00  0.00     0.000 A 
ENDBRANCH  53  66
ENDBRANCH  27  28
ENDBRANCH  20  22
ENDBRANCH  19  20
ENDBRANCH  18  19
ENDBRANCH   1  18
TORSDOF 14
ENDMDL
MODEL 3
REMARK VINA RESULT:      -9.2      4.078     10.498
REMARK SMILES C[C@H]1OCC[C@H]1c1nnnn1CCC(=O)OCCOC(=O)c1ccc(-c2c3nc(c(-c4ccccc4)c4ccc([nH]4)c(-c4ccccc4)c4nc(c(-c5ccccc5)c5ccc2[nH]5)C=C4)C=C3)cc1
REMARK SMILES IDX 17 1 16 2 14 3 15 4 13 5 12 6 11 7 7 8 8 9 9 10 10 11 6 12
REMARK SMILES IDX 1 13 2 14 3 15 4 16 5 17 18 18 19 19 20 20 21 21 22 22 23 23
REMARK SMILES IDX 69 24 24 25 68 26 25 27 26 28 27 29 62 30 28 31 67 32 61 33
REMARK SMILES IDX 63 34 29 35 66 36 60 37 59 38 30 40 52 41 37 42 51 43 38 44
REMARK SMILES IDX 41 45 50 46 64 47 39 48 40 49 49 51 65 52 42 53 31 54 32 55
REMARK SMILES IDX 36 56 33 57 35 58 34 59 53 60 54 61 58 62 55 63 57 64 56 65
REMARK SMILES IDX 43 66 44 67 48 68 45 69 47 70 46 71
REMARK H PARENT 63 39 41 50
REMARK Flexibility Score: inf
ROOT
ATOM      1  C   UNL A   1      34.126  34.538  29.200  1.00  0.00     0.274 C 
ENDROOT
BRANCH   1   2
ATOM      2  O   UNL A   1      34.951  33.957  30.226  1.00  0.00    -0.462 OA
BRANCH   2   3
ATOM      3  C   UNL A   1      34.403  33.759  31.446  1.00  0.00     0.307 C 
ATOM      4  O   UNL A   1      33.603  34.506  31.997  1.00  0.00    -0.252 OA
BRANCH   3   5
ATOM      5  C   UNL A   1      34.947  32.511  32.093  1.00  0.00     0.146 C 
BRANCH   5   6
ATOM      6  C   UNL A   1      36.378  32.608  32.605  1.00  0.00     0.160 C 
BRANCH   6   7
ATOM      7  N   UNL A   1      36.552  32.746  34.034  1.00  0.00    -0.229 N 
ATOM      8  C   UNL A   1      37.567  32.277  34.832  1.00  0.00     0.157 A 
ATOM      9  N   UNL A   1      37.350  32.712  36.059  1.00  0.00    -0.113 NA
ATOM     10  N   UNL A   1      36.223  33.481  36.004  1.00  0.00    -0.024 NA
ATOM     11  N   UNL A   1      35.742  33.517  34.774  1.00  0.00    -0.045 NA
BRANCH   8  12
ATOM     12  C   UNL A   1      38.694  31.418  34.371  1.00  0.00     0.090 C 
ATOM     13  C   UNL A   1      39.840  33.635  33.536  1.00  0.00     0.039 C 
ATOM     14  C   UNL A   1      39.966  32.175  33.949  1.00  0.00     0.126 C 
ATOM     15  O   UNL A   1      40.907  32.098  35.038  1.00  0.00    -0.378 OA
ATOM     16  C   UNL A   1      40.287  31.403  36.123  1.00  0.00     0.161 C 
ATOM     17  C   UNL A   1      39.217  30.537  35.497  1.00  0.00     0.043 C 
ENDBRANCH   8  12
ENDBRANCH   6   7
ENDBRANCH   5   6
ENDBRANCH   3   5
ENDBRANCH   2   3
ENDBRANCH   1   2
BRANCH   1  18
ATOM     18  C   UNL A   1      34.025  33.656  27.958  1.00  0.00     0.275 C 
BRANCH  18  19
ATOM     19  O   UNL A   1      35.261  32.979  27.708  1.00  0.00    -0.458 OA
BRANCH  19  20
ATOM     20  C   UNL A   1      35.168  31.633  27.674  1.00  0.00     0.338 C 
ATOM     21  O   UNL A   1      34.313  30.967  27.129  1.00  0.00    -0.246 OA
BRANCH  20  22
ATOM     22  C   UNL A   1      36.164  31.012  28.544  1.00  0.00     0.060 A 
ATOM     23  C   UNL A   1      37.170  31.849  29.048  1.00  0.00     0.016 A 
ATOM     24  C   UNL A   1      36.262  29.620  28.588  1.00  0.00     0.016 A 
ATOM     25  C   UNL A   1      38.369  31.288  29.427  1.00  0.00     0.010 A 
ATOM     26  C   UNL A   1      37.463  29.062  28.953  1.00  0.00     0.010 A 
ATOM     27  C   UNL A   1      38.523  29.909  29.288  1.00  0.00    -0.014 A 
BRANCH  27  28
ATOM     28  C   UNL A   1      39.843  29.350  29.476  1.00  0.00     0.031 A 
ATOM     29  C   UNL A   1      40.220  29.059  30.874  1.00  0.00     0.074 A 
ATOM     30  C   UNL A   1      40.576  28.945  28.423  1.00  0.00     0.049 A 
ATOM     31  N   UNL A   1      41.258  29.470  31.524  1.00  0.00    -0.248 NA
ATOM     32  C   UNL A   1      39.279  28.259  31.672  1.00  0.00     0.031 C 
ATOM     33  C   UNL A   1      40.164  28.864  27.019  1.00  0.00     0.029 A 
ATOM     34  N   UNL A   1      41.799  28.352  28.426  1.00  0.00    -0.354 N 
ATOM     35  C   UNL A   1      41.187  28.857  32.769  1.00  0.00     0.074 A 
ATOM     36  C   UNL A   1      39.890  28.235  32.854  1.00  0.00     0.031 C 
ATOM     37  C   UNL A   1      40.997  28.020  26.370  1.00  0.00     0.029 A 
ATOM     38  C   UNL A   1      42.050  27.607  27.284  1.00  0.00     0.049 A 
ATOM     39  H   UNL A   1      42.443  28.443  29.166  1.00  0.00     0.167 HD
ATOM     40  C   UNL A   1      42.276  28.706  33.569  1.00  0.00     0.031 A 
ATOM     41  C   UNL A   1      42.984  26.634  27.157  1.00  0.00     0.031 A 
ATOM     42  C   UNL A   1      43.364  29.565  33.195  1.00  0.00     0.049 A 
ATOM     43  C   UNL A   1      43.959  26.790  28.265  1.00  0.00     0.074 A 
ATOM     44  C   UNL A   1      43.519  30.930  33.058  1.00  0.00     0.029 A 
ATOM     45  N   UNL A   1      44.434  29.001  32.542  1.00  0.00    -0.354 N 
ATOM     46  N   UNL A   1      44.795  27.784  28.361  1.00  0.00    -0.248 NA
ATOM     47  C   UNL A   1      43.723  26.056  29.500  1.00  0.00     0.031 C 
ATOM     48  C   UNL A   1      44.371  31.091  31.927  1.00  0.00     0.029 A 
ATOM     49  C   UNL A   1      44.708  29.814  31.473  1.00  0.00     0.049 A 
ATOM     50  H   UNL A   1      44.910  28.176  32.793  1.00  0.00     0.167 HD
ATOM     51  C   UNL A   1      44.859  28.067  29.718  1.00  0.00     0.074 A 
ATOM     52  C   UNL A   1      44.272  26.902  30.377  1.00  0.00     0.031 C 
ATOM     53  C   UNL A   1      45.110  29.332  30.171  1.00  0.00     0.031 A 
BRANCH  40  54
ATOM     54  C   UNL A   1      42.463  27.506  34.454  1.00  0.00    -0.014 A 
ATOM     55  C   UNL A   1      41.798  27.455  35.689  1.00  0.00     0.009 A 
ATOM     56  C   UNL A   1      43.478  26.553  34.232  1.00  0.00     0.009 A 
ATOM     57  C   UNL A   1      42.162  26.523  36.666  1.00  0.00     0.001 A 
ATOM     58  C   UNL A   1      43.810  25.592  35.187  1.00  0.00     0.001 A 
ATOM     59  C   UNL A   1      43.168  25.593  36.416  1.00  0.00     0.000 A 
ENDBRANCH  40  54
BRANCH  41  60
ATOM     60  C   UNL A   1      42.912  25.416  26.323  1.00  0.00    -0.014 A 
ATOM     61  C   UNL A   1      43.888  25.157  25.351  1.00  0.00     0.009 A 
ATOM     62  C   UNL A   1      42.010  24.379  26.634  1.00  0.00     0.009 A 
ATOM     63  C   UNL A   1      43.974  23.901  24.735  1.00  0.00     0.001 A 
ATOM     64  C   UNL A   1      42.087  23.131  26.010  1.00  0.00     0.001 A 
ATOM     65  C   UNL A   1      43.080  22.887  25.070  1.00  0.00     0.000 A 
ENDBRANCH  41  60
BRANCH  53  66
ATOM     66  C   UNL A   1      45.526  30.380  29.169  1.00  0.00    -0.014 A 
ATOM     67  C   UNL A   1      46.875  30.677  28.902  1.00  0.00     0.009 A 
ATOM     68  C   UNL A   1      44.547  30.958  28.348  1.00  0.00     0.009 A 
ATOM     69  C   UNL A   1      47.231  31.550  27.871  1.00  0.00     0.001 A 
ATOM     70  C   UNL A   1      44.904  31.814  27.302  1.00  0.00     0.001 A 
ATOM     71  C   UNL A   1      46.244  32.115  27.068  1.00  0.00     0.000 A 
ENDBRANCH  53  66
ENDBRANCH  27  28
ENDBRANCH  20  22
ENDBRANCH  19  20
ENDBRANCH  18  19
ENDBRANCH   1  18
TORSDOF 14
ENDMDL
