MODEL 1
REMARK VINA RESULT:     -12.9      0.000      0.000
REMARK SMILES COc1ccc(-c2[nH]nc3nc(-c4ccc(C(F)(F)F)cc4)cc(C(=O)OCCOC(=O)c4ccc(-c5c6nc(c(-c7ccccc7)c7ccc([nH]7)c(-c7ccccc7)c7nc(c(-c8ccccc8)c8ccc5[nH]8)C=C7)C=C6)cc4)c23)cc1
REMARK SMILES IDX 28 1 27 2 25 3 26 4 24 5 7 6 8 7 81 8 9 9 10 11 11 12 23 13
REMARK SMILES IDX 12 14 6 15 3 16 4 17 83 18 5 19 82 20 2 21 1 22 13 23 14 24
REMARK SMILES IDX 22 25 15 26 21 27 16 28 17 29 18 30 19 31 20 32 29 33 30 34
REMARK SMILES IDX 31 35 32 36 33 37 34 38 80 39 35 40 79 41 36 42 37 43 38 44
REMARK SMILES IDX 73 45 39 46 78 47 72 48 74 49 40 50 77 51 71 52 70 53 41 55
REMARK SMILES IDX 63 56 48 57 62 58 49 59 52 60 61 61 75 62 50 63 51 64 60 66
REMARK SMILES IDX 76 67 53 68 42 69 43 70 47 71 44 72 46 73 45 74 64 75 65 76
REMARK SMILES IDX 69 77 66 78 68 79 67 80 54 81 55 82 59 83 56 84 58 85 57 86
REMARK H PARENT 8 10 74 54 52 65
REMARK Flexibility Score: inf
ROOT
ATOM      1  C   UNL A   1      33.663  28.524  27.149  1.00  0.00     0.275 C 
ENDROOT
BRANCH   1   2
ATOM      2  O   UNL A   1      33.638  27.762  25.935  1.00  0.00    -0.458 OA
BRANCH   2   3
ATOM      3  C   UNL A   1      32.960  26.586  25.952  1.00  0.00     0.339 C 
ATOM      4  O   UNL A   1      31.982  26.328  26.625  1.00  0.00    -0.246 OA
BRANCH   3   5
ATOM      5  C   UNL A   1      33.604  25.689  24.985  1.00  0.00     0.075 A 
ATOM      6  C   UNL A   1      32.083  25.757  22.947  1.00  0.00     0.075 A 
ATOM      7  N   UNL A   1      32.169  25.011  21.790  1.00  0.00    -0.275 N 
ATOM      8  C   UNL A   1      33.158  25.310  23.709  1.00  0.00     0.061 A 
ATOM      9  N   UNL A   1      33.213  24.174  21.718  1.00  0.00    -0.154 NA
ATOM     10  H   UNL A   1      31.509  25.089  21.064  1.00  0.00     0.190 HD
ATOM     11  C   UNL A   1      33.842  24.352  22.877  1.00  0.00     0.182 A 
ATOM     12  N   UNL A   1      34.987  23.722  23.251  1.00  0.00    -0.226 NA
ATOM     13  C   UNL A   1      34.799  25.032  25.328  1.00  0.00     0.045 A 
ATOM     14  C   UNL A   1      35.422  24.081  24.490  1.00  0.00     0.074 A 
BRANCH   6  15
ATOM     15  C   UNL A   1      31.092  26.836  23.042  1.00  0.00     0.001 A 
ATOM     16  C   UNL A   1      29.205  28.949  22.978  1.00  0.00     0.118 A 
ATOM     17  C   UNL A   1      28.829  27.672  23.395  1.00  0.00     0.047 A 
ATOM     18  C   UNL A   1      30.528  29.181  22.640  1.00  0.00     0.047 A 
ATOM     19  C   UNL A   1      29.762  26.618  23.420  1.00  0.00     0.014 A 
ATOM     20  C   UNL A   1      31.443  28.127  22.657  1.00  0.00     0.014 A 
BRANCH  16  21
ATOM     21  O   UNL A   1      28.240  29.919  23.000  1.00  0.00    -0.497 OA
ATOM     22  C   UNL A   1      28.692  31.208  23.411  1.00  0.00     0.278 C 
ENDBRANCH  16  21
ENDBRANCH   6  15
BRANCH  14  23
ATOM     23  C   UNL A   1      36.587  23.337  25.014  1.00  0.00     0.000 A 
ATOM     24  C   UNL A   1      36.912  22.044  24.580  1.00  0.00     0.011 A 
ATOM     25  C   UNL A   1      37.435  23.944  25.960  1.00  0.00     0.011 A 
ATOM     26  C   UNL A   1      38.063  21.396  25.055  1.00  0.00     0.014 A 
ATOM     27  C   UNL A   1      38.580  23.303  26.435  1.00  0.00     0.014 A 
ATOM     28  C   UNL A   1      38.912  22.023  25.982  1.00  0.00     0.056 A 
BRANCH  28  29
ATOM     29  C   UNL A   1      40.156  21.330  26.482  1.00  0.00     0.416 C 
ATOM     30  F   UNL A   1      40.494  21.704  27.747  1.00  0.00    -0.166 F 
ATOM     31  F   UNL A   1      40.023  19.974  26.513  1.00  0.00    -0.166 F 
ATOM     32  F   UNL A   1      41.257  21.575  25.716  1.00  0.00    -0.166 F 
ENDBRANCH  28  29
ENDBRANCH  14  23
ENDBRANCH   3   5
ENDBRANCH   2   3
ENDBRANCH   1   2
BRANCH   1  33
ATOM     33  C   UNL A   1      34.891  29.417  27.110  1.00  0.00     0.275 C 
BRANCH  33  34
ATOM     34  O   UNL A   1      35.541  29.396  28.378  1.00  0.00    -0.458 OA
BRANCH  34  35
ATOM     35  C   UNL A   1      36.588  30.228  28.577  1.00  0.00     0.338 C 
ATOM     36  O   UNL A   1      36.568  31.432  28.761  1.00  0.00    -0.246 OA
BRANCH  35  37
ATOM     37  C   UNL A   1      37.798  29.396  28.470  1.00  0.00     0.060 A 
ATOM     38  C   UNL A   1      38.114  28.465  29.466  1.00  0.00     0.016 A 
ATOM     39  C   UNL A   1      38.648  29.607  27.372  1.00  0.00     0.016 A 
ATOM     40  C   UNL A   1      39.351  27.840  29.420  1.00  0.00     0.010 A 
ATOM     41  C   UNL A   1      39.855  28.973  27.312  1.00  0.00     0.010 A 
ATOM     42  C   UNL A   1      40.227  28.165  28.380  1.00  0.00    -0.014 A 
BRANCH  42  43
ATOM     43  C   UNL A   1      41.602  27.716  28.401  1.00  0.00     0.031 A 
ATOM     44  C   UNL A   1      41.854  26.456  27.670  1.00  0.00     0.074 A 
ATOM     45  C   UNL A   1      42.560  28.554  28.851  1.00  0.00     0.049 A 
ATOM     46  N   UNL A   1      42.231  25.322  28.155  1.00  0.00    -0.248 NA
ATOM     47  C   UNL A   1      41.516  26.408  26.236  1.00  0.00     0.031 C 
ATOM     48  C   UNL A   1      42.397  29.962  29.253  1.00  0.00     0.029 A 
ATOM     49  N   UNL A   1      43.903  28.378  28.916  1.00  0.00    -0.354 N 
ATOM     50  C   UNL A   1      42.401  24.481  27.058  1.00  0.00     0.074 A 
ATOM     51  C   UNL A   1      41.753  25.128  25.949  1.00  0.00     0.031 C 
ATOM     52  C   UNL A   1      43.607  30.562  29.292  1.00  0.00     0.029 A 
ATOM     53  C   UNL A   1      44.628  29.554  29.077  1.00  0.00     0.049 A 
ATOM     54  H   UNL A   1      44.329  27.492  28.856  1.00  0.00     0.167 HD
ATOM     55  C   UNL A   1      43.334  23.488  27.082  1.00  0.00     0.031 A 
ATOM     56  C   UNL A   1      45.973  29.693  28.992  1.00  0.00     0.031 A 
ATOM     57  C   UNL A   1      43.784  23.238  28.430  1.00  0.00     0.049 A 
ATOM     58  C   UNL A   1      46.561  28.345  29.145  1.00  0.00     0.074 A 
ATOM     59  C   UNL A   1      43.217  22.777  29.597  1.00  0.00     0.029 A 
ATOM     60  N   UNL A   1      44.946  23.882  28.780  1.00  0.00    -0.354 N 
ATOM     61  N   UNL A   1      46.487  27.650  30.245  1.00  0.00    -0.248 NA
ATOM     62  C   UNL A   1      46.866  27.580  27.946  1.00  0.00     0.031 C 
ATOM     63  C   UNL A   1      43.877  23.491  30.642  1.00  0.00     0.029 A 
ATOM     64  C   UNL A   1      44.860  24.306  30.076  1.00  0.00     0.049 A 
ATOM     65  H   UNL A   1      45.721  24.017  28.188  1.00  0.00     0.167 HD
ATOM     66  C   UNL A   1      46.292  26.344  29.823  1.00  0.00     0.074 A 
ATOM     67  C   UNL A   1      46.684  26.343  28.415  1.00  0.00     0.031 C 
ATOM     68  C   UNL A   1      45.557  25.473  30.576  1.00  0.00     0.031 A 
BRANCH  55  69
ATOM     69  C   UNL A   1      44.217  23.145  25.895  1.00  0.00    -0.014 A 
ATOM     70  C   UNL A   1      44.463  21.783  25.630  1.00  0.00     0.009 A 
ATOM     71  C   UNL A   1      45.057  24.067  25.243  1.00  0.00     0.009 A 
ATOM     72  C   UNL A   1      45.556  21.371  24.858  1.00  0.00     0.001 A 
ATOM     73  C   UNL A   1      46.127  23.661  24.440  1.00  0.00     0.001 A 
ATOM     74  C   UNL A   1      46.398  22.311  24.276  1.00  0.00     0.000 A 
ENDBRANCH  55  69
BRANCH  56  75
ATOM     75  C   UNL A   1      46.757  30.846  28.501  1.00  0.00    -0.014 A 
ATOM     76  C   UNL A   1      46.813  31.155  27.134  1.00  0.00     0.009 A 
ATOM     77  C   UNL A   1      47.226  31.812  29.412  1.00  0.00     0.009 A 
ATOM     78  C   UNL A   1      47.287  32.399  26.696  1.00  0.00     0.001 A 
ATOM     79  C   UNL A   1      47.697  33.055  28.975  1.00  0.00     0.001 A 
ATOM     80  C   UNL A   1      47.714  33.355  27.616  1.00  0.00     0.000 A 
ENDBRANCH  56  75
BRANCH  68  81
ATOM     81  C   UNL A   1      45.265  25.862  32.003  1.00  0.00    -0.014 A 
ATOM     82  C   UNL A   1      44.132  26.597  32.395  1.00  0.00     0.009 A 
ATOM     83  C   UNL A   1      46.099  25.339  33.002  1.00  0.00     0.009 A 
ATOM     84  C   UNL A   1      43.858  26.816  33.750  1.00  0.00     0.001 A 
ATOM     85  C   UNL A   1      45.814  25.541  34.353  1.00  0.00     0.001 A 
ATOM     86  C   UNL A   1      44.696  26.283  34.727  1.00  0.00     0.000 A 
ENDBRANCH  68  81
ENDBRANCH  42  43
ENDBRANCH  35  37
ENDBRANCH  34  35
ENDBRANCH  33  34
ENDBRANCH   1  33
TORSDOF 15
ENDMDL
MODEL 2
REMARK VINA RESULT:     -11.8      3.300      5.087
REMARK SMILES COc1ccc(-c2[nH]nc3nc(-c4ccc(C(F)(F)F)cc4)cc(C(=O)OCCOC(=O)c4ccc(-c5c6nc(c(-c7ccccc7)c7ccc([nH]7)c(-c7ccccc7)c7nc(c(-c8ccccc8)c8ccc5[nH]8)C=C7)C=C6)cc4)c23)cc1
REMARK SMILES IDX 28 1 27 2 25 3 26 4 24 5 7 6 8 7 81 8 9 9 10 11 11 12 23 13
REMARK SMILES IDX 12 14 6 15 3 16 4 17 83 18 5 19 82 20 2 21 1 22 13 23 14 24
REMARK SMILES IDX 22 25 15 26 21 27 16 28 17 29 18 30 19 31 20 32 29 33 30 34
REMARK SMILES IDX 31 35 32 36 33 37 34 38 80 39 35 40 79 41 36 42 37 43 38 44
REMARK SMILES IDX 73 45 39 46 78 47 72 48 74 49 40 50 77 51 71 52 70 53 41 55
REMARK SMILES IDX 63 56 48 57 62 58 49 59 52 60 61 61 75 62 50 63 51 64 60 66
REMARK SMILES IDX 76 67 53 68 42 69 43 70 47 71 44 72 46 73 45 74 64 75 65 76
REMARK SMILES IDX 69 77 66 78 68 79 67 80 54 81 55 82 59 83 56 84 58 85 57 86
REMARK H PARENT 8 10 74 54 52 65
REMARK Flexibility Score: inf
ROOT
ATOM      1  C   UNL A   1      31.753  28.016  26.023  1.00  0.00     0.275 C 
ENDROOT
BRANCH   1   2
ATOM      2  O   UNL A   1      32.844  27.093  26.145  1.00  0.00    -0.458 OA
BRANCH   2   3
ATOM      3  C   UNL A   1      32.545  25.770  26.123  1.00  0.00     0.339 C 
ATOM      4  O   UNL A   1      31.718  25.207  26.812  1.00  0.00    -0.246 OA
BRANCH   3   5
ATOM      5  C   UNL A   1      33.381  25.143  25.093  1.00  0.00     0.075 A 
ATOM      6  C   UNL A   1      31.984  25.287  22.971  1.00  0.00     0.075 A 
ATOM      7  N   UNL A   1      32.257  24.750  21.729  1.00  0.00    -0.275 N 
ATOM      8  C   UNL A   1      33.075  24.900  23.744  1.00  0.00     0.061 A 
ATOM      9  N   UNL A   1      33.427  24.107  21.622  1.00  0.00    -0.154 NA
ATOM     10  H   UNL A   1      31.633  24.836  20.972  1.00  0.00     0.190 HD
ATOM     11  C   UNL A   1      33.953  24.200  22.840  1.00  0.00     0.182 A 
ATOM     12  N   UNL A   1      35.164  23.705  23.210  1.00  0.00    -0.226 NA
ATOM     13  C   UNL A   1      34.647  24.635  25.431  1.00  0.00     0.045 A 
ATOM     14  C   UNL A   1      35.464  23.932  24.518  1.00  0.00     0.074 A 
BRANCH   6  15
ATOM     15  C   UNL A   1      30.825  26.171  23.140  1.00  0.00     0.001 A 
ATOM     16  C   UNL A   1      28.559  27.872  23.218  1.00  0.00     0.118 A 
ATOM     17  C   UNL A   1      28.542  26.634  23.860  1.00  0.00     0.047 A 
ATOM     18  C   UNL A   1      29.720  28.279  22.579  1.00  0.00     0.047 A 
ATOM     19  C   UNL A   1      29.662  25.784  23.816  1.00  0.00     0.014 A 
ATOM     20  C   UNL A   1      30.822  27.424  22.532  1.00  0.00     0.014 A 
BRANCH  16  21
ATOM     21  O   UNL A   1      27.435  28.644  23.324  1.00  0.00    -0.497 OA
ATOM     22  C   UNL A   1      27.580  29.987  22.864  1.00  0.00     0.278 C 
ENDBRANCH  16  21
ENDBRANCH   6  15
BRANCH  14  23
ATOM     23  C   UNL A   1      36.706  23.308  25.021  1.00  0.00     0.000 A 
ATOM     24  C   UNL A   1      37.604  23.984  25.858  1.00  0.00     0.011 A 
ATOM     25  C   UNL A   1      37.001  21.972  24.684  1.00  0.00     0.011 A 
ATOM     26  C   UNL A   1      38.741  23.335  26.365  1.00  0.00     0.014 A 
ATOM     27  C   UNL A   1      38.130  21.324  25.186  1.00  0.00     0.014 A 
ATOM     28  C   UNL A   1      39.010  21.995  26.039  1.00  0.00     0.056 A 
BRANCH  28  29
ATOM     29  C   UNL A   1      40.226  21.294  26.595  1.00  0.00     0.416 C 
ATOM     30  F   UNL A   1      40.187  19.946  26.410  1.00  0.00    -0.166 F 
ATOM     31  F   UNL A   1      41.384  21.720  26.018  1.00  0.00    -0.166 F 
ATOM     32  F   UNL A   1      40.392  21.481  27.936  1.00  0.00    -0.166 F 
ENDBRANCH  28  29
ENDBRANCH  14  23
ENDBRANCH   3   5
ENDBRANCH   2   3
ENDBRANCH   1   2
BRANCH   1  33
ATOM     33  C   UNL A   1      31.915  29.071  27.102  1.00  0.00     0.275 C 
BRANCH  33  34
ATOM     34  O   UNL A   1      33.024  29.911  26.790  1.00  0.00    -0.458 OA
BRANCH  34  35
ATOM     35  C   UNL A   1      32.986  31.201  27.194  1.00  0.00     0.338 C 
ATOM     36  O   UNL A   1      32.127  32.035  26.972  1.00  0.00    -0.246 OA
BRANCH  35  37
ATOM     37  C   UNL A   1      34.241  31.436  27.928  1.00  0.00     0.060 A 
ATOM     38  C   UNL A   1      34.897  32.670  27.843  1.00  0.00     0.016 A 
ATOM     39  C   UNL A   1      34.784  30.370  28.664  1.00  0.00     0.016 A 
ATOM     40  C   UNL A   1      36.163  32.787  28.396  1.00  0.00     0.010 A 
ATOM     41  C   UNL A   1      36.020  30.492  29.230  1.00  0.00     0.010 A 
ATOM     42  C   UNL A   1      36.729  31.667  29.014  1.00  0.00    -0.014 A 
BRANCH  42  43
ATOM     43  C   UNL A   1      38.120  31.664  29.410  1.00  0.00     0.031 A 
ATOM     44  C   UNL A   1      38.798  30.356  29.284  1.00  0.00     0.074 A 
ATOM     45  C   UNL A   1      38.746  32.842  29.623  1.00  0.00     0.049 A 
ATOM     46  N   UNL A   1      39.274  29.617  30.228  1.00  0.00    -0.248 NA
ATOM     47  C   UNL A   1      38.834  29.721  27.954  1.00  0.00     0.031 C 
ATOM     48  C   UNL A   1      38.202  34.193  29.406  1.00  0.00     0.029 A 
ATOM     49  N   UNL A   1      40.040  33.088  29.946  1.00  0.00    -0.354 N 
ATOM     50  C   UNL A   1      39.875  28.534  29.591  1.00  0.00     0.074 A 
ATOM     51  C   UNL A   1      39.394  28.544  28.236  1.00  0.00     0.031 C 
ATOM     52  C   UNL A   1      39.214  35.087  29.377  1.00  0.00     0.029 A 
ATOM     53  C   UNL A   1      40.443  34.402  29.729  1.00  0.00     0.049 A 
ATOM     54  H   UNL A   1      40.642  32.397  30.304  1.00  0.00     0.167 HD
ATOM     55  C   UNL A   1      40.960  27.920  30.142  1.00  0.00     0.031 A 
ATOM     56  C   UNL A   1      41.710  34.879  29.791  1.00  0.00     0.031 A 
ATOM     57  C   UNL A   1      41.113  28.291  31.528  1.00  0.00     0.049 A 
ATOM     58  C   UNL A   1      42.510  33.893  30.550  1.00  0.00     0.074 A 
ATOM     59  C   UNL A   1      40.389  28.122  32.687  1.00  0.00     0.029 A 
ATOM     60  N   UNL A   1      41.995  29.318  31.757  1.00  0.00    -0.354 N 
ATOM     61  N   UNL A   1      42.319  33.633  31.811  1.00  0.00    -0.248 NA
ATOM     62  C   UNL A   1      43.248  32.882  29.809  1.00  0.00     0.031 C 
ATOM     63  C   UNL A   1      40.614  29.310  33.446  1.00  0.00     0.029 A 
ATOM     64  C   UNL A   1      41.513  30.122  32.751  1.00  0.00     0.049 A 
ATOM     65  H   UNL A   1      42.845  29.455  31.278  1.00  0.00     0.167 HD
ATOM     66  C   UNL A   1      42.508  32.264  31.919  1.00  0.00     0.074 A 
ATOM     67  C   UNL A   1      43.220  31.887  30.700  1.00  0.00     0.031 C 
ATOM     68  C   UNL A   1      41.810  31.537  32.842  1.00  0.00     0.031 A 
BRANCH  55  69
ATOM     69  C   UNL A   1      42.155  27.453  29.329  1.00  0.00    -0.014 A 
ATOM     70  C   UNL A   1      42.895  28.426  28.628  1.00  0.00     0.009 A 
ATOM     71  C   UNL A   1      42.388  26.113  28.968  1.00  0.00     0.009 A 
ATOM     72  C   UNL A   1      43.723  28.084  27.551  1.00  0.00     0.001 A 
ATOM     73  C   UNL A   1      43.244  25.764  27.917  1.00  0.00     0.001 A 
ATOM     74  C   UNL A   1      43.884  26.753  27.186  1.00  0.00     0.000 A 
ENDBRANCH  55  69
BRANCH  56  75
ATOM     75  C   UNL A   1      42.332  35.963  29.002  1.00  0.00    -0.014 A 
ATOM     76  C   UNL A   1      43.464  36.644  29.473  1.00  0.00     0.009 A 
ATOM     77  C   UNL A   1      41.976  36.138  27.651  1.00  0.00     0.009 A 
ATOM     78  C   UNL A   1      44.233  37.443  28.615  1.00  0.00     0.001 A 
ATOM     79  C   UNL A   1      42.744  36.933  26.793  1.00  0.00     0.001 A 
ATOM     80  C   UNL A   1      43.882  37.575  27.272  1.00  0.00     0.000 A 
ENDBRANCH  56  75
BRANCH  68  81
ATOM     81  C   UNL A   1      41.107  32.295  33.939  1.00  0.00    -0.014 A 
ATOM     82  C   UNL A   1      39.827  32.861  33.800  1.00  0.00     0.009 A 
ATOM     83  C   UNL A   1      41.710  32.311  35.205  1.00  0.00     0.009 A 
ATOM     84  C   UNL A   1      39.183  33.444  34.897  1.00  0.00     0.001 A 
ATOM     85  C   UNL A   1      41.058  32.875  36.302  1.00  0.00     0.001 A 
ATOM     86  C   UNL A   1      39.797  33.444  36.148  1.00  0.00     0.000 A 
ENDBRANCH  68  81
ENDBRANCH  42  43
ENDBRANCH  35  37
ENDBRANCH  34  35
ENDBRANCH  33  34
ENDBRANCH   1  33
TORSDOF 15
ENDMDL
MODEL 3
REMARK VINA RESULT:     -11.7      3.997      7.438
REMARK SMILES COc1ccc(-c2[nH]nc3nc(-c4ccc(C(F)(F)F)cc4)cc(C(=O)OCCOC(=O)c4ccc(-c5c6nc(c(-c7ccccc7)c7ccc([nH]7)c(-c7ccccc7)c7nc(c(-c8ccccc8)c8ccc5[nH]8)C=C7)C=C6)cc4)c23)cc1
REMARK SMILES IDX 28 1 27 2 25 3 26 4 24 5 7 6 8 7 81 8 9 9 10 11 11 12 23 13
REMARK SMILES IDX 12 14 6 15 3 16 4 17 83 18 5 19 82 20 2 21 1 22 13 23 14 24
REMARK SMILES IDX 22 25 15 26 21 27 16 28 17 29 18 30 19 31 20 32 29 33 30 34
REMARK SMILES IDX 31 35 32 36 33 37 34 38 80 39 35 40 79 41 36 42 37 43 38 44
REMARK SMILES IDX 73 45 39 46 78 47 72 48 74 49 40 50 77 51 71 52 70 53 41 55
REMARK SMILES IDX 63 56 48 57 62 58 49 59 52 60 61 61 75 62 50 63 51 64 60 66
REMARK SMILES IDX 76 67 53 68 42 69 43 70 47 71 44 72 46 73 45 74 64 75 65 76
REMARK SMILES IDX 69 77 66 78 68 79 67 80 54 81 55 82 59 83 56 84 58 85 57 86
REMARK H PARENT 8 10 74 54 52 65
REMARK Flexibility Score: inf
ROOT
ATOM      1  C   UNL A   1      36.065  22.163  24.511  1.00  0.00     0.275 C 
ENDROOT
BRANCH   1   2
ATOM      2  O   UNL A   1      35.468  23.433  24.805  1.00  0.00    -0.458 OA
BRANCH   2   3
ATOM      3  C   UNL A   1      34.579  23.481  25.829  1.00  0.00     0.339 C 
ATOM      4  O   UNL A   1      34.610  22.811  26.841  1.00  0.00    -0.246 OA
BRANCH   3   5
ATOM      5  C   UNL A   1      33.586  24.513  25.507  1.00  0.00     0.075 A 
ATOM      6  C   UNL A   1      31.970  23.363  23.913  1.00  0.00     0.075 A 
ATOM      7  N   UNL A   1      30.909  23.915  23.225  1.00  0.00    -0.275 N 
ATOM      8  C   UNL A   1      32.498  24.438  24.623  1.00  0.00     0.061 A 
ATOM      9  N   UNL A   1      30.681  25.214  23.460  1.00  0.00    -0.154 NA
ATOM     10  H   UNL A   1      30.356  23.389  22.603  1.00  0.00     0.190 HD
ATOM     11  C   UNL A   1      31.632  25.552  24.326  1.00  0.00     0.182 A 
ATOM     12  N   UNL A   1      31.789  26.785  24.877  1.00  0.00    -0.226 NA
ATOM     13  C   UNL A   1      33.703  25.795  26.069  1.00  0.00     0.045 A 
ATOM     14  C   UNL A   1      32.846  26.866  25.731  1.00  0.00     0.074 A 
BRANCH   6  15
ATOM     15  C   UNL A   1      32.183  21.911  23.873  1.00  0.00     0.001 A 
ATOM     16  C   UNL A   1      32.378  19.084  23.918  1.00  0.00     0.118 A 
ATOM     17  C   UNL A   1      32.317  19.775  22.707  1.00  0.00     0.047 A 
ATOM     18  C   UNL A   1      32.390  19.807  25.101  1.00  0.00     0.047 A 
ATOM     19  C   UNL A   1      32.212  21.178  22.682  1.00  0.00     0.014 A 
ATOM     20  C   UNL A   1      32.274  21.197  25.065  1.00  0.00     0.014 A 
BRANCH  16  21
ATOM     21  O   UNL A   1      32.497  17.723  23.853  1.00  0.00    -0.497 OA
ATOM     22  C   UNL A   1      33.061  17.112  25.012  1.00  0.00     0.278 C 
ENDBRANCH  16  21
ENDBRANCH   6  15
BRANCH  14  23
ATOM     23  C   UNL A   1      33.153  28.210  26.263  1.00  0.00     0.000 A 
ATOM     24  C   UNL A   1      32.185  29.219  26.367  1.00  0.00     0.011 A 
ATOM     25  C   UNL A   1      34.454  28.501  26.718  1.00  0.00     0.011 A 
ATOM     26  C   UNL A   1      32.501  30.462  26.936  1.00  0.00     0.014 A 
ATOM     27  C   UNL A   1      34.772  29.736  27.283  1.00  0.00     0.014 A 
ATOM     28  C   UNL A   1      33.797  30.729  27.406  1.00  0.00     0.056 A 
BRANCH  28  29
ATOM     29  C   UNL A   1      34.134  32.063  28.030  1.00  0.00     0.416 C 
ATOM     30  F   UNL A   1      35.319  32.566  27.588  1.00  0.00    -0.166 F 
ATOM     31  F   UNL A   1      33.197  33.015  27.763  1.00  0.00    -0.166 F 
ATOM     32  F   UNL A   1      34.234  32.014  29.389  1.00  0.00    -0.166 F 
ENDBRANCH  28  29
ENDBRANCH  14  23
ENDBRANCH   3   5
ENDBRANCH   2   3
ENDBRANCH   1   2
BRANCH   1  33
ATOM     33  C   UNL A   1      37.572  22.333  24.580  1.00  0.00     0.275 C 
BRANCH  33  34
ATOM     34  O   UNL A   1      38.004  22.243  25.936  1.00  0.00    -0.458 OA
BRANCH  34  35
ATOM     35  C   UNL A   1      39.331  22.269  26.190  1.00  0.00     0.338 C 
ATOM     36  O   UNL A   1      40.180  21.466  25.846  1.00  0.00    -0.246 OA
BRANCH  35  37
ATOM     37  C   UNL A   1      39.563  23.453  27.034  1.00  0.00     0.060 A 
ATOM     38  C   UNL A   1      38.630  24.497  27.071  1.00  0.00     0.016 A 
ATOM     39  C   UNL A   1      40.769  23.526  27.752  1.00  0.00     0.016 A 
ATOM     40  C   UNL A   1      38.974  25.668  27.729  1.00  0.00     0.010 A 
ATOM     41  C   UNL A   1      41.097  24.669  28.421  1.00  0.00     0.010 A 
ATOM     42  C   UNL A   1      40.234  25.754  28.328  1.00  0.00    -0.014 A 
BRANCH  42  43
ATOM     43  C   UNL A   1      40.729  27.016  28.834  1.00  0.00     0.031 A 
ATOM     44  C   UNL A   1      41.899  27.559  28.110  1.00  0.00     0.074 A 
ATOM     45  C   UNL A   1      39.985  27.704  29.726  1.00  0.00     0.049 A 
ATOM     46  N   UNL A   1      43.095  27.733  28.559  1.00  0.00    -0.248 NA
ATOM     47  C   UNL A   1      41.760  27.817  26.666  1.00  0.00     0.031 C 
ATOM     48  C   UNL A   1      38.632  27.371  30.205  1.00  0.00     0.029 A 
ATOM     49  N   UNL A   1      40.213  28.915  30.294  1.00  0.00    -0.354 N 
ATOM     50  C   UNL A   1      43.802  28.338  27.522  1.00  0.00     0.074 A 
ATOM     51  C   UNL A   1      43.003  28.170  26.338  1.00  0.00     0.031 C 
ATOM     52  C   UNL A   1      38.082  28.457  30.793  1.00  0.00     0.029 A 
ATOM     53  C   UNL A   1      39.090  29.497  30.873  1.00  0.00     0.049 A 
ATOM     54  H   UNL A   1      41.099  29.345  30.296  1.00  0.00     0.167 HD
ATOM     55  C   UNL A   1      44.821  29.201  27.788  1.00  0.00     0.031 A 
ATOM     56  C   UNL A   1      38.988  30.763  31.344  1.00  0.00     0.031 A 
ATOM     57  C   UNL A   1      45.248  29.086  29.161  1.00  0.00     0.049 A 
ATOM     58  C   UNL A   1      40.364  31.265  31.546  1.00  0.00     0.074 A 
ATOM     59  C   UNL A   1      45.828  28.111  29.942  1.00  0.00     0.029 A 
ATOM     60  N   UNL A   1      44.692  30.003  30.019  1.00  0.00    -0.354 N 
ATOM     61  N   UNL A   1      41.184  30.774  32.431  1.00  0.00    -0.248 NA
ATOM     62  C   UNL A   1      40.986  32.033  30.479  1.00  0.00     0.031 C 
ATOM     63  C   UNL A   1      45.269  28.292  31.243  1.00  0.00     0.029 A 
ATOM     64  C   UNL A   1      44.425  29.404  31.218  1.00  0.00     0.049 A 
ATOM     65  H   UNL A   1      44.512  30.946  29.802  1.00  0.00     0.167 HD
ATOM     66  C   UNL A   1      42.422  30.785  31.807  1.00  0.00     0.074 A 
ATOM     67  C   UNL A   1      42.265  31.702  30.680  1.00  0.00     0.031 C 
ATOM     68  C   UNL A   1      43.352  29.827  32.094  1.00  0.00     0.031 A 
BRANCH  55  69
ATOM     69  C   UNL A   1      45.048  30.488  27.013  1.00  0.00    -0.014 A 
ATOM     70  C   UNL A   1      46.377  30.882  26.767  1.00  0.00     0.009 A 
ATOM     71  C   UNL A   1      44.058  31.466  26.802  1.00  0.00     0.009 A 
ATOM     72  C   UNL A   1      46.704  32.207  26.450  1.00  0.00     0.001 A 
ATOM     73  C   UNL A   1      44.377  32.782  26.448  1.00  0.00     0.001 A 
ATOM     74  C   UNL A   1      45.703  33.161  26.306  1.00  0.00     0.000 A 
ENDBRANCH  55  69
BRANCH  56  75
ATOM     75  C   UNL A   1      37.811  31.657  31.350  1.00  0.00    -0.014 A 
ATOM     76  C   UNL A   1      36.914  31.666  32.429  1.00  0.00     0.009 A 
ATOM     77  C   UNL A   1      37.724  32.706  30.416  1.00  0.00     0.009 A 
ATOM     78  C   UNL A   1      35.988  32.707  32.587  1.00  0.00     0.001 A 
ATOM     79  C   UNL A   1      36.802  33.747  30.575  1.00  0.00     0.001 A 
ATOM     80  C   UNL A   1      35.942  33.755  31.669  1.00  0.00     0.000 A 
ENDBRANCH  56  75
BRANCH  68  81
ATOM     81  C   UNL A   1      43.131  28.987  33.326  1.00  0.00    -0.014 A 
ATOM     82  C   UNL A   1      43.633  29.320  34.597  1.00  0.00     0.009 A 
ATOM     83  C   UNL A   1      42.260  27.893  33.218  1.00  0.00     0.009 A 
ATOM     84  C   UNL A   1      43.285  28.562  35.722  1.00  0.00     0.001 A 
ATOM     85  C   UNL A   1      41.899  27.151  34.344  1.00  0.00     0.001 A 
ATOM     86  C   UNL A   1      42.414  27.482  35.594  1.00  0.00     0.000 A 
ENDBRANCH  68  81
ENDBRANCH  42  43
ENDBRANCH  35  37
ENDBRANCH  34  35
ENDBRANCH  33  34
ENDBRANCH   1  33
TORSDOF 15
ENDMDL
