MODEL 1
REMARK VINA RESULT:     -10.2      0.000      0.000
REMARK SMILES Cc1cc(C[NH+]2C[C@@H](C)[C@H](C)C2)oc1C(=O)OCCOC(=O)c1ccc(-c2c3nc(c(-c4ccccc4)c4ccc([nH]4)c(-c4ccccc4)c4nc(c(-c5ccccc5)c5ccc2[nH]5)C=C4)C=C3)cc1
REMARK SMILES IDX 18 1 17 2 15 3 16 4 14 5 1 6 2 7 3 8 4 9 13 10 5 11 6 12
REMARK SMILES IDX 7 13 12 14 8 16 10 17 9 18 11 19 19 20 20 21 21 22 22 23
REMARK SMILES IDX 23 24 24 25 70 26 25 27 69 28 26 29 27 30 28 31 63 32 29 33
REMARK SMILES IDX 68 34 62 35 64 36 30 37 67 38 61 39 60 40 31 42 53 43 38 44
REMARK SMILES IDX 52 45 39 46 42 47 51 48 65 49 40 50 41 51 50 53 66 54 43 55
REMARK SMILES IDX 32 56 33 57 37 58 34 59 36 60 35 61 54 62 55 63 59 64 56 65
REMARK SMILES IDX 58 66 57 67 44 68 45 69 49 70 46 71 48 72 47 73
REMARK H PARENT 6 15 64 41 42 52
REMARK Flexibility Score: inf
ROOT
ATOM      1  C   UNL A   1      33.313  34.158  28.310  1.00  0.00     0.275 C 
ENDROOT
BRANCH   1   2
ATOM      2  O   UNL A   1      32.686  34.613  29.523  1.00  0.00    -0.456 OA
BRANCH   2   3
ATOM      3  C   UNL A   1      33.128  35.808  30.017  1.00  0.00     0.374 C 
ATOM      4  O   UNL A   1      33.037  36.871  29.418  1.00  0.00    -0.242 OA
BRANCH   3   5
ATOM      5  C   UNL A   1      33.616  35.651  31.373  1.00  0.00     0.215 A 
ATOM      6  C   UNL A   1      33.894  37.997  32.456  1.00  0.00     0.049 C 
ATOM      7  C   UNL A   1      33.976  36.517  32.400  1.00  0.00     0.003 A 
ATOM      8  C   UNL A   1      34.474  35.689  33.453  1.00  0.00     0.056 A 
ATOM      9  C   UNL A   1      34.414  34.386  33.013  1.00  0.00     0.159 A 
ATOM     10  O   UNL A   1      33.831  34.360  31.784  1.00  0.00    -0.448 OA
BRANCH   9  11
ATOM     11  C   UNL A   1      34.842  33.059  33.554  1.00  0.00     0.338 C 
BRANCH  11  12
ATOM     12  N   UNL A   1      36.266  32.921  33.867  1.00  0.00    -0.328 N 
ATOM     13  C   UNL A   1      37.196  33.351  32.820  1.00  0.00     0.266 C 
ATOM     14  C   UNL A   1      36.691  33.463  35.156  1.00  0.00     0.266 C 
ATOM     15  H   UNL A   1      36.329  31.905  33.929  1.00  0.00     0.348 HD
ATOM     16  C   UNL A   1      38.483  33.646  33.589  1.00  0.00     0.049 C 
ATOM     17  C   UNL A   1      37.937  34.300  34.858  1.00  0.00     0.049 C 
ATOM     18  C   UNL A   1      39.450  34.524  32.809  1.00  0.00     0.014 C 
ATOM     19  C   UNL A   1      38.914  34.339  36.021  1.00  0.00     0.014 C 
ENDBRANCH  11  12
ENDBRANCH   9  11
ENDBRANCH   3   5
ENDBRANCH   2   3
ENDBRANCH   1   2
BRANCH   1  20
ATOM     20  C   UNL A   1      34.363  33.078  28.590  1.00  0.00     0.275 C 
BRANCH  20  21
ATOM     21  O   UNL A   1      34.555  32.209  27.457  1.00  0.00    -0.458 OA
BRANCH  21  22
ATOM     22  C   UNL A   1      34.430  30.884  27.709  1.00  0.00     0.338 C 
ATOM     23  O   UNL A   1      33.428  30.201  27.564  1.00  0.00    -0.246 OA
BRANCH  22  24
ATOM     24  C   UNL A   1      35.744  30.320  28.068  1.00  0.00     0.060 A 
ATOM     25  C   UNL A   1      35.876  29.733  29.328  1.00  0.00     0.016 A 
ATOM     26  C   UNL A   1      36.843  30.398  27.209  1.00  0.00     0.016 A 
ATOM     27  C   UNL A   1      37.098  29.205  29.736  1.00  0.00     0.010 A 
ATOM     28  C   UNL A   1      38.077  29.880  27.624  1.00  0.00     0.010 A 
ATOM     29  C   UNL A   1      38.210  29.285  28.890  1.00  0.00    -0.014 A 
BRANCH  29  30
ATOM     30  C   UNL A   1      39.520  28.783  29.365  1.00  0.00     0.031 A 
ATOM     31  C   UNL A   1      40.297  29.571  30.379  1.00  0.00     0.074 A 
ATOM     32  C   UNL A   1      39.988  27.602  28.924  1.00  0.00     0.049 A 
ATOM     33  N   UNL A   1      41.463  29.309  30.911  1.00  0.00    -0.248 NA
ATOM     34  C   UNL A   1      39.679  30.817  30.858  1.00  0.00     0.031 C 
ATOM     35  C   UNL A   1      39.302  26.719  27.981  1.00  0.00     0.029 A 
ATOM     36  N   UNL A   1      41.152  26.938  29.222  1.00  0.00    -0.354 N 
ATOM     37  C   UNL A   1      41.724  30.359  31.781  1.00  0.00     0.074 A 
ATOM     38  C   UNL A   1      40.603  31.271  31.693  1.00  0.00     0.031 C 
ATOM     39  C   UNL A   1      40.055  25.623  27.784  1.00  0.00     0.029 A 
ATOM     40  C   UNL A   1      41.286  25.744  28.559  1.00  0.00     0.049 A 
ATOM     41  H   UNL A   1      41.825  27.286  29.850  1.00  0.00     0.167 HD
ATOM     42  C   UNL A   1      42.799  30.546  32.582  1.00  0.00     0.031 A 
ATOM     43  C   UNL A   1      42.297  24.854  28.567  1.00  0.00     0.031 A 
ATOM     44  C   UNL A   1      43.917  29.644  32.671  1.00  0.00     0.049 A 
ATOM     45  C   UNL A   1      43.510  25.120  29.414  1.00  0.00     0.074 A 
ATOM     46  C   UNL A   1      45.050  29.749  33.457  1.00  0.00     0.029 A 
ATOM     47  N   UNL A   1      44.040  28.471  31.944  1.00  0.00    -0.354 N 
ATOM     48  N   UNL A   1      43.745  26.118  30.231  1.00  0.00    -0.248 NA
ATOM     49  C   UNL A   1      44.599  24.135  29.337  1.00  0.00     0.031 C 
ATOM     50  C   UNL A   1      45.880  28.657  33.177  1.00  0.00     0.029 A 
ATOM     51  C   UNL A   1      45.241  27.853  32.246  1.00  0.00     0.049 A 
ATOM     52  H   UNL A   1      43.372  28.127  31.307  1.00  0.00     0.167 HD
ATOM     53  C   UNL A   1      44.996  25.872  30.778  1.00  0.00     0.074 A 
ATOM     54  C   UNL A   1      45.468  24.626  30.210  1.00  0.00     0.031 C 
ATOM     55  C   UNL A   1      45.695  26.615  31.669  1.00  0.00     0.031 A 
BRANCH  42  56
ATOM     56  C   UNL A   1      42.832  31.801  33.403  1.00  0.00    -0.014 A 
ATOM     57  C   UNL A   1      43.384  32.987  32.898  1.00  0.00     0.009 A 
ATOM     58  C   UNL A   1      42.277  31.801  34.693  1.00  0.00     0.009 A 
ATOM     59  C   UNL A   1      43.406  34.144  33.680  1.00  0.00     0.001 A 
ATOM     60  C   UNL A   1      42.282  32.963  35.465  1.00  0.00     0.001 A 
ATOM     61  C   UNL A   1      42.852  34.132  34.961  1.00  0.00     0.000 A 
ENDBRANCH  42  56
BRANCH  43  62
ATOM     62  C   UNL A   1      42.218  23.634  27.725  1.00  0.00    -0.014 A 
ATOM     63  C   UNL A   1      42.676  23.650  26.399  1.00  0.00     0.009 A 
ATOM     64  C   UNL A   1      41.668  22.450  28.241  1.00  0.00     0.009 A 
ATOM     65  C   UNL A   1      42.569  22.509  25.601  1.00  0.00     0.001 A 
ATOM     66  C   UNL A   1      41.584  21.304  27.448  1.00  0.00     0.001 A 
ATOM     67  C   UNL A   1      42.027  21.336  26.127  1.00  0.00     0.000 A 
ENDBRANCH  43  62
BRANCH  55  68
ATOM     68  C   UNL A   1      47.032  26.086  32.102  1.00  0.00    -0.014 A 
ATOM     69  C   UNL A   1      47.158  25.293  33.253  1.00  0.00     0.009 A 
ATOM     70  C   UNL A   1      48.172  26.356  31.329  1.00  0.00     0.009 A 
ATOM     71  C   UNL A   1      48.407  24.803  33.636  1.00  0.00     0.001 A 
ATOM     72  C   UNL A   1      49.416  25.846  31.704  1.00  0.00     0.001 A 
ATOM     73  C   UNL A   1      49.534  25.076  32.861  1.00  0.00     0.000 A 
ENDBRANCH  55  68
ENDBRANCH  29  30
ENDBRANCH  22  24
ENDBRANCH  21  22
ENDBRANCH  20  21
ENDBRANCH   1  20
TORSDOF 13
ENDMDL
MODEL 2
REMARK VINA RESULT:      -9.8      6.368     11.754
REMARK SMILES Cc1cc(C[NH+]2C[C@@H](C)[C@H](C)C2)oc1C(=O)OCCOC(=O)c1ccc(-c2c3nc(c(-c4ccccc4)c4ccc([nH]4)c(-c4ccccc4)c4nc(c(-c5ccccc5)c5ccc2[nH]5)C=C4)C=C3)cc1
REMARK SMILES IDX 18 1 17 2 15 3 16 4 14 5 1 6 2 7 3 8 4 9 13 10 5 11 6 12
REMARK SMILES IDX 7 13 12 14 8 16 10 17 9 18 11 19 19 20 20 21 21 22 22 23
REMARK SMILES IDX 23 24 24 25 70 26 25 27 69 28 26 29 27 30 28 31 63 32 29 33
REMARK SMILES IDX 68 34 62 35 64 36 30 37 67 38 61 39 60 40 31 42 53 43 38 44
REMARK SMILES IDX 52 45 39 46 42 47 51 48 65 49 40 50 41 51 50 53 66 54 43 55
REMARK SMILES IDX 32 56 33 57 37 58 34 59 36 60 35 61 54 62 55 63 59 64 56 65
REMARK SMILES IDX 58 66 57 67 44 68 45 69 49 70 46 71 48 72 47 73
REMARK H PARENT 6 15 64 41 42 52
REMARK Flexibility Score: inf
ROOT
ATOM      1  C   UNL A   1      41.599  19.442  26.133  1.00  0.00     0.275 C 
ENDROOT
BRANCH   1   2
ATOM      2  O   UNL A   1      41.468  20.849  25.859  1.00  0.00    -0.456 OA
BRANCH   2   3
ATOM      3  C   UNL A   1      40.963  21.614  26.872  1.00  0.00     0.374 C 
ATOM      4  O   UNL A   1      41.515  21.768  27.953  1.00  0.00    -0.242 OA
BRANCH   3   5
ATOM      5  C   UNL A   1      39.751  22.289  26.447  1.00  0.00     0.215 A 
ATOM      6  C   UNL A   1      39.469  24.478  27.819  1.00  0.00     0.049 C 
ATOM      7  C   UNL A   1      39.080  23.445  26.827  1.00  0.00     0.003 A 
ATOM      8  C   UNL A   1      37.877  23.470  26.056  1.00  0.00     0.056 A 
ATOM      9  C   UNL A   1      37.866  22.335  25.277  1.00  0.00     0.159 A 
ATOM     10  O   UNL A   1      39.031  21.659  25.463  1.00  0.00    -0.448 OA
BRANCH   9  11
ATOM     11  C   UNL A   1      36.897  21.705  24.329  1.00  0.00     0.338 C 
BRANCH  11  12
ATOM     12  N   UNL A   1      35.480  21.843  24.671  1.00  0.00    -0.328 N 
ATOM     13  C   UNL A   1      34.649  22.542  23.688  1.00  0.00     0.266 C 
ATOM     14  C   UNL A   1      34.806  20.621  25.105  1.00  0.00     0.266 C 
ATOM     15  H   UNL A   1      35.560  22.451  25.486  1.00  0.00     0.348 HD
ATOM     16  C   UNL A   1      33.239  22.038  23.992  1.00  0.00     0.049 C 
ATOM     17  C   UNL A   1      33.503  20.565  24.305  1.00  0.00     0.049 C 
ATOM     18  C   UNL A   1      32.269  22.262  22.842  1.00  0.00     0.014 C 
ATOM     19  C   UNL A   1      32.380  19.866  25.053  1.00  0.00     0.014 C 
ENDBRANCH  11  12
ENDBRANCH   9  11
ENDBRANCH   3   5
ENDBRANCH   2   3
ENDBRANCH   1   2
BRANCH   1  20
ATOM     20  C   UNL A   1      42.998  18.927  25.778  1.00  0.00     0.275 C 
BRANCH  20  21
ATOM     21  O   UNL A   1      43.401  19.336  24.456  1.00  0.00    -0.458 OA
BRANCH  21  22
ATOM     22  C   UNL A   1      44.709  19.659  24.318  1.00  0.00     0.338 C 
ATOM     23  O   UNL A   1      45.590  18.962  23.842  1.00  0.00    -0.246 OA
BRANCH  22  24
ATOM     24  C   UNL A   1      44.917  21.066  24.708  1.00  0.00     0.060 A 
ATOM     25  C   UNL A   1      45.337  21.322  26.015  1.00  0.00     0.016 A 
ATOM     26  C   UNL A   1      44.666  22.123  23.830  1.00  0.00     0.016 A 
ATOM     27  C   UNL A   1      45.527  22.629  26.452  1.00  0.00     0.010 A 
ATOM     28  C   UNL A   1      44.843  23.440  24.272  1.00  0.00     0.010 A 
ATOM     29  C   UNL A   1      45.271  23.699  25.586  1.00  0.00    -0.014 A 
BRANCH  29  30
ATOM     30  C   UNL A   1      45.409  25.086  26.086  1.00  0.00     0.031 A 
ATOM     31  C   UNL A   1      46.742  25.773  26.022  1.00  0.00     0.074 A 
ATOM     32  C   UNL A   1      44.333  25.743  26.553  1.00  0.00     0.049 A 
ATOM     33  N   UNL A   1      47.071  26.976  26.416  1.00  0.00    -0.248 NA
ATOM     34  C   UNL A   1      47.851  25.004  25.434  1.00  0.00     0.031 C 
ATOM     35  C   UNL A   1      42.975  25.203  26.616  1.00  0.00     0.029 A 
ATOM     36  N   UNL A   1      44.214  27.015  27.053  1.00  0.00    -0.354 N 
ATOM     37  C   UNL A   1      48.424  27.108  26.134  1.00  0.00     0.074 A 
ATOM     38  C   UNL A   1      48.860  25.857  25.550  1.00  0.00     0.031 C 
ATOM     39  C   UNL A   1      42.156  26.143  27.120  1.00  0.00     0.029 A 
ATOM     40  C   UNL A   1      42.938  27.334  27.443  1.00  0.00     0.049 A 
ATOM     41  H   UNL A   1      44.973  27.639  27.126  1.00  0.00     0.167 HD
ATOM     42  C   UNL A   1      49.230  28.176  26.340  1.00  0.00     0.031 A 
ATOM     43  C   UNL A   1      42.455  28.456  28.011  1.00  0.00     0.031 A 
ATOM     44  C   UNL A   1      48.803  29.420  26.922  1.00  0.00     0.049 A 
ATOM     45  C   UNL A   1      43.387  29.602  28.291  1.00  0.00     0.074 A 
ATOM     46  C   UNL A   1      49.549  30.560  27.167  1.00  0.00     0.029 A 
ATOM     47  N   UNL A   1      47.513  29.685  27.352  1.00  0.00    -0.354 N 
ATOM     48  N   UNL A   1      44.665  29.713  28.020  1.00  0.00    -0.248 NA
ATOM     49  C   UNL A   1      42.808  30.776  28.958  1.00  0.00     0.031 C 
ATOM     50  C   UNL A   1      48.718  31.502  27.783  1.00  0.00     0.029 A 
ATOM     51  C   UNL A   1      47.446  30.962  27.882  1.00  0.00     0.049 A 
ATOM     52  H   UNL A   1      46.755  29.058  27.290  1.00  0.00     0.167 HD
ATOM     53  C   UNL A   1      45.037  30.973  28.465  1.00  0.00     0.074 A 
ATOM     54  C   UNL A   1      43.850  31.595  29.014  1.00  0.00     0.031 C 
ATOM     55  C   UNL A   1      46.256  31.563  28.427  1.00  0.00     0.031 A 
BRANCH  42  56
ATOM     56  C   UNL A   1      50.675  28.027  25.962  1.00  0.00    -0.014 A 
ATOM     57  C   UNL A   1      51.627  27.583  26.891  1.00  0.00     0.009 A 
ATOM     58  C   UNL A   1      51.081  28.309  24.648  1.00  0.00     0.009 A 
ATOM     59  C   UNL A   1      52.967  27.453  26.519  1.00  0.00     0.001 A 
ATOM     60  C   UNL A   1      52.417  28.159  24.274  1.00  0.00     0.001 A 
ATOM     61  C   UNL A   1      53.360  27.737  25.211  1.00  0.00     0.000 A 
ENDBRANCH  42  56
BRANCH  43  62
ATOM     62  C   UNL A   1      41.019  28.545  28.375  1.00  0.00    -0.014 A 
ATOM     63  C   UNL A   1      40.091  29.112  27.490  1.00  0.00     0.009 A 
ATOM     64  C   UNL A   1      40.573  28.073  29.620  1.00  0.00     0.009 A 
ATOM     65  C   UNL A   1      38.747  29.222  27.851  1.00  0.00     0.001 A 
ATOM     66  C   UNL A   1      39.224  28.164  29.969  1.00  0.00     0.001 A 
ATOM     67  C   UNL A   1      38.313  28.745  29.088  1.00  0.00     0.000 A 
ENDBRANCH  43  62
BRANCH  55  68
ATOM     68  C   UNL A   1      46.360  32.958  28.971  1.00  0.00    -0.014 A 
ATOM     69  C   UNL A   1      46.661  33.186  30.323  1.00  0.00     0.009 A 
ATOM     70  C   UNL A   1      46.187  34.055  28.114  1.00  0.00     0.009 A 
ATOM     71  C   UNL A   1      46.760  34.490  30.811  1.00  0.00     0.001 A 
ATOM     72  C   UNL A   1      46.309  35.358  28.601  1.00  0.00     0.001 A 
ATOM     73  C   UNL A   1      46.588  35.574  29.950  1.00  0.00     0.000 A 
ENDBRANCH  55  68
ENDBRANCH  29  30
ENDBRANCH  22  24
ENDBRANCH  21  22
ENDBRANCH  20  21
ENDBRANCH   1  20
TORSDOF 13
ENDMDL
MODEL 3
REMARK VINA RESULT:      -9.7      3.183      9.212
REMARK SMILES Cc1cc(C[NH+]2C[C@@H](C)[C@H](C)C2)oc1C(=O)OCCOC(=O)c1ccc(-c2c3nc(c(-c4ccccc4)c4ccc([nH]4)c(-c4ccccc4)c4nc(c(-c5ccccc5)c5ccc2[nH]5)C=C4)C=C3)cc1
REMARK SMILES IDX 18 1 17 2 15 3 16 4 14 5 1 6 2 7 3 8 4 9 13 10 5 11 6 12
REMARK SMILES IDX 7 13 12 14 8 16 10 17 9 18 11 19 19 20 20 21 21 22 22 23
REMARK SMILES IDX 23 24 24 25 70 26 25 27 69 28 26 29 27 30 28 31 63 32 29 33
REMARK SMILES IDX 68 34 62 35 64 36 30 37 67 38 61 39 60 40 31 42 53 43 38 44
REMARK SMILES IDX 52 45 39 46 42 47 51 48 65 49 40 50 41 51 50 53 66 54 43 55
REMARK SMILES IDX 32 56 33 57 37 58 34 59 36 60 35 61 54 62 55 63 59 64 56 65
REMARK SMILES IDX 58 66 57 67 44 68 45 69 49 70 46 71 48 72 47 73
REMARK H PARENT 6 15 64 41 42 52
REMARK Flexibility Score: inf
ROOT
ATOM      1  C   UNL A   1      34.217  34.824  29.072  1.00  0.00     0.275 C 
ENDROOT
BRANCH   1   2
ATOM      2  O   UNL A   1      34.209  33.389  28.958  1.00  0.00    -0.456 OA
BRANCH   2   3
ATOM      3  C   UNL A   1      35.093  32.853  28.065  1.00  0.00     0.374 C 
ATOM      4  O   UNL A   1      36.065  33.449  27.623  1.00  0.00    -0.242 OA
BRANCH   3   5
ATOM      5  C   UNL A   1      34.774  31.463  27.803  1.00  0.00     0.215 A 
ATOM      6  C   UNL A   1      36.971  30.074  27.775  1.00  0.00     0.049 C 
ATOM      7  C   UNL A   1      35.510  30.294  27.642  1.00  0.00     0.003 A 
ATOM      8  C   UNL A   1      34.562  29.279  27.302  1.00  0.00     0.056 A 
ATOM      9  C   UNL A   1      33.323  29.877  27.251  1.00  0.00     0.159 A 
ATOM     10  O   UNL A   1      33.444  31.179  27.622  1.00  0.00    -0.448 OA
BRANCH   9  11
ATOM     11  C   UNL A   1      31.943  29.434  26.880  1.00  0.00     0.338 C 
BRANCH  11  12
ATOM     12  N   UNL A   1      31.831  28.629  25.663  1.00  0.00    -0.328 N 
ATOM     13  C   UNL A   1      31.127  27.352  25.803  1.00  0.00     0.266 C 
ATOM     14  C   UNL A   1      31.347  29.331  24.476  1.00  0.00     0.266 C 
ATOM     15  H   UNL A   1      32.816  28.415  25.508  1.00  0.00     0.348 HD
ATOM     16  C   UNL A   1      30.663  27.045  24.379  1.00  0.00     0.049 C 
ATOM     17  C   UNL A   1      30.257  28.433  23.885  1.00  0.00     0.049 C 
ATOM     18  C   UNL A   1      29.541  26.019  24.331  1.00  0.00     0.014 C 
ATOM     19  C   UNL A   1      30.144  28.559  22.375  1.00  0.00     0.014 C 
ENDBRANCH  11  12
ENDBRANCH   9  11
ENDBRANCH   3   5
ENDBRANCH   2   3
ENDBRANCH   1   2
BRANCH   1  20
ATOM     20  C   UNL A   1      32.894  35.351  29.639  1.00  0.00     0.275 C 
BRANCH  20  21
ATOM     21  O   UNL A   1      33.095  36.131  30.835  1.00  0.00    -0.458 OA
BRANCH  21  22
ATOM     22  C   UNL A   1      32.810  35.498  31.998  1.00  0.00     0.338 C 
ATOM     23  O   UNL A   1      31.721  35.425  32.545  1.00  0.00    -0.246 OA
BRANCH  22  24
ATOM     24  C   UNL A   1      34.001  34.768  32.471  1.00  0.00     0.060 A 
ATOM     25  C   UNL A   1      35.222  35.446  32.465  1.00  0.00     0.016 A 
ATOM     26  C   UNL A   1      33.939  33.433  32.876  1.00  0.00     0.016 A 
ATOM     27  C   UNL A   1      36.386  34.804  32.876  1.00  0.00     0.010 A 
ATOM     28  C   UNL A   1      35.112  32.782  33.277  1.00  0.00     0.010 A 
ATOM     29  C   UNL A   1      36.341  33.463  33.275  1.00  0.00    -0.014 A 
BRANCH  29  30
ATOM     30  C   UNL A   1      37.599  32.773  33.642  1.00  0.00     0.031 A 
ATOM     31  C   UNL A   1      38.199  31.768  32.704  1.00  0.00     0.074 A 
ATOM     32  C   UNL A   1      38.225  33.081  34.792  1.00  0.00     0.049 A 
ATOM     33  N   UNL A   1      39.284  31.050  32.845  1.00  0.00    -0.248 NA
ATOM     34  C   UNL A   1      37.484  31.541  31.438  1.00  0.00     0.031 C 
ATOM     35  C   UNL A   1      37.771  34.079  35.761  1.00  0.00     0.029 A 
ATOM     36  N   UNL A   1      39.387  32.590  35.332  1.00  0.00    -0.354 N 
ATOM     37  C   UNL A   1      39.380  30.281  31.693  1.00  0.00     0.074 A 
ATOM     38  C   UNL A   1      38.234  30.606  30.870  1.00  0.00     0.031 C 
ATOM     39  C   UNL A   1      38.651  34.132  36.775  1.00  0.00     0.029 A 
ATOM     40  C   UNL A   1      39.708  33.152  36.543  1.00  0.00     0.049 A 
ATOM     41  H   UNL A   1      39.936  31.900  34.894  1.00  0.00     0.167 HD
ATOM     42  C   UNL A   1      40.336  29.386  31.351  1.00  0.00     0.031 A 
ATOM     43  C   UNL A   1      40.733  32.893  37.377  1.00  0.00     0.031 A 
ATOM     44  C   UNL A   1      41.475  29.058  32.167  1.00  0.00     0.049 A 
ATOM     45  C   UNL A   1      41.744  31.846  37.004  1.00  0.00     0.074 A 
ATOM     46  C   UNL A   1      42.498  28.165  31.901  1.00  0.00     0.029 A 
ATOM     47  N   UNL A   1      41.737  29.610  33.410  1.00  0.00    -0.354 N 
ATOM     48  N   UNL A   1      41.822  31.125  35.912  1.00  0.00    -0.248 NA
ATOM     49  C   UNL A   1      42.809  31.577  37.981  1.00  0.00     0.031 C 
ATOM     50  C   UNL A   1      43.361  28.148  33.004  1.00  0.00     0.029 A 
ATOM     51  C   UNL A   1      42.894  29.061  33.935  1.00  0.00     0.049 A 
ATOM     52  H   UNL A   1      41.183  30.293  33.855  1.00  0.00     0.167 HD
ATOM     53  C   UNL A   1      42.951  30.331  36.063  1.00  0.00     0.074 A 
ATOM     54  C   UNL A   1      43.534  30.666  37.345  1.00  0.00     0.031 C 
ATOM     55  C   UNL A   1      43.458  29.404  35.215  1.00  0.00     0.031 A 
BRANCH  42  56
ATOM     56  C   UNL A   1      40.168  28.669  30.044  1.00  0.00    -0.014 A 
ATOM     57  C   UNL A   1      40.719  29.178  28.859  1.00  0.00     0.009 A 
ATOM     58  C   UNL A   1      39.468  27.453  30.005  1.00  0.00     0.009 A 
ATOM     59  C   UNL A   1      40.549  28.496  27.653  1.00  0.00     0.001 A 
ATOM     60  C   UNL A   1      39.317  26.763  28.802  1.00  0.00     0.001 A 
ATOM     61  C   UNL A   1      39.852  27.288  27.626  1.00  0.00     0.000 A 
ENDBRANCH  42  56
BRANCH  43  62
ATOM     62  C   UNL A   1      40.844  33.624  38.664  1.00  0.00    -0.014 A 
ATOM     63  C   UNL A   1      40.218  33.136  39.820  1.00  0.00     0.009 A 
ATOM     64  C   UNL A   1      41.569  34.825  38.738  1.00  0.00     0.009 A 
ATOM     65  C   UNL A   1      40.299  33.844  41.021  1.00  0.00     0.001 A 
ATOM     66  C   UNL A   1      41.667  35.519  39.945  1.00  0.00     0.001 A 
ATOM     67  C   UNL A   1      41.026  35.033  41.084  1.00  0.00     0.000 A 
ENDBRANCH  43  62
BRANCH  55  68
ATOM     68  C   UNL A   1      44.717  28.706  35.638  1.00  0.00    -0.014 A 
ATOM     69  C   UNL A   1      45.978  29.236  35.326  1.00  0.00     0.009 A 
ATOM     70  C   UNL A   1      44.640  27.522  36.387  1.00  0.00     0.009 A 
ATOM     71  C   UNL A   1      47.139  28.578  35.734  1.00  0.00     0.001 A 
ATOM     72  C   UNL A   1      45.802  26.878  36.813  1.00  0.00     0.001 A 
ATOM     73  C   UNL A   1      47.051  27.402  36.480  1.00  0.00     0.000 A 
ENDBRANCH  55  68
ENDBRANCH  29  30
ENDBRANCH  22  24
ENDBRANCH  21  22
ENDBRANCH  20  21
ENDBRANCH   1  20
TORSDOF 13
ENDMDL
