MODEL 1
REMARK VINA RESULT:     -11.6      0.000      0.000
REMARK SMILES Cc1cc(Br)cc2c1O[C@H](C(F)(F)F)C(C(=O)OCCOC(=O)c1ccc(-c3c4nc(c(-c5ccccc5)c5ccc([nH]5)c(-c5ccccc5)c5nc(c(-c6ccccc6)c6ccc3[nH]6)C=C5)C=C4)cc1)=C2
REMARK SMILES IDX 20 1 19 2 18 3 16 4 17 5 15 6 1 7 2 8 3 9 8 10 4 11 7 12
REMARK SMILES IDX 9 13 5 14 6 15 72 16 10 17 11 18 12 19 13 20 14 21 21 22
REMARK SMILES IDX 22 23 23 24 24 25 25 26 71 27 26 28 70 29 27 30 28 31 29 32
REMARK SMILES IDX 64 33 30 34 69 35 63 36 65 37 31 38 68 39 62 40 61 41 32 43
REMARK SMILES IDX 54 44 39 45 53 46 40 47 43 48 52 49 66 50 41 51 42 52 51 54
REMARK SMILES IDX 67 55 44 56 33 57 34 58 38 59 35 60 37 61 36 62 55 63 56 64
REMARK SMILES IDX 60 65 57 66 59 67 58 68 45 69 46 70 50 71 47 72 49 73 48 74
REMARK H PARENT 65 42 43 53
REMARK Flexibility Score: inf
ROOT
ATOM      1  C   UNL A   1      31.900  30.053  25.372  1.00  0.00     0.275 C 
ENDROOT
BRANCH   1   2
ATOM      2  C   UNL A   1      31.390  28.668  24.973  1.00  0.00     0.275 C 
BRANCH   2   3
ATOM      3  O   UNL A   1      32.243  27.622  25.489  1.00  0.00    -0.459 OA
BRANCH   3   4
ATOM      4  C   UNL A   1      31.627  26.697  26.258  1.00  0.00     0.338 C 
ATOM      5  O   UNL A   1      30.785  26.906  27.118  1.00  0.00    -0.246 OA
BRANCH   4   6
ATOM      6  C   UNL A   1      32.087  25.339  25.911  1.00  0.00     0.087 C 
ATOM      7  C   UNL A   1      32.646  20.645  23.846  1.00  0.00     0.048 C 
ATOM      8  C   UNL A   1      33.526  21.657  24.522  1.00  0.00    -0.007 A 
ATOM      9  C   UNL A   1      34.909  21.408  24.589  1.00  0.00     0.023 A 
ATOM     10  C   UNL A   1      33.022  22.868  25.023  1.00  0.00     0.130 A 
ATOM     11  C   UNL A   1      35.766  22.334  25.178  1.00  0.00     0.019 A 
ATOM     12  C   UNL A   1      33.893  23.792  25.603  1.00  0.00     0.019 A 
ATOM     13  O   UNL A   1      31.672  23.082  24.934  1.00  0.00    -0.475 OA
ATOM     14  Br  UNL A   1      37.622  21.987  25.262  1.00  0.00    -0.051 Br
ATOM     15  C   UNL A   1      35.265  23.524  25.693  1.00  0.00     0.027 A 
ATOM     16  C   UNL A   1      33.382  25.059  26.084  1.00  0.00     0.027 C 
ATOM     17  C   UNL A   1      31.131  24.398  25.240  1.00  0.00     0.316 C 
BRANCH  17  18
ATOM     18  C   UNL A   1      30.559  25.015  23.953  1.00  0.00     0.430 C 
ATOM     19  F   UNL A   1      31.514  25.661  23.246  1.00  0.00    -0.167 F 
ATOM     20  F   UNL A   1      30.047  24.064  23.133  1.00  0.00    -0.167 F 
ATOM     21  F   UNL A   1      29.571  25.903  24.210  1.00  0.00    -0.167 F 
ENDBRANCH  17  18
ENDBRANCH   4   6
ENDBRANCH   3   4
ENDBRANCH   2   3
ENDBRANCH   1   2
BRANCH   1  22
ATOM     22  O   UNL A   1      32.339  30.054  26.743  1.00  0.00    -0.458 OA
BRANCH  22  23
ATOM     23  C   UNL A   1      32.949  31.191  27.143  1.00  0.00     0.338 C 
ATOM     24  O   UNL A   1      32.440  32.284  27.324  1.00  0.00    -0.246 OA
BRANCH  23  25
ATOM     25  C   UNL A   1      34.367  30.941  27.444  1.00  0.00     0.060 A 
ATOM     26  C   UNL A   1      34.780  29.630  27.642  1.00  0.00     0.016 A 
ATOM     27  C   UNL A   1      35.209  31.996  27.787  1.00  0.00     0.016 A 
ATOM     28  C   UNL A   1      35.936  29.370  28.370  1.00  0.00     0.010 A 
ATOM     29  C   UNL A   1      36.452  31.721  28.369  1.00  0.00     0.010 A 
ATOM     30  C   UNL A   1      36.801  30.409  28.737  1.00  0.00    -0.014 A 
BRANCH  30  31
ATOM     31  C   UNL A   1      38.029  30.138  29.543  1.00  0.00     0.031 A 
ATOM     32  C   UNL A   1      39.175  29.356  28.941  1.00  0.00     0.074 A 
ATOM     33  C   UNL A   1      38.148  30.600  30.806  1.00  0.00     0.049 A 
ATOM     34  N   UNL A   1      40.206  28.809  29.535  1.00  0.00    -0.248 NA
ATOM     35  C   UNL A   1      39.150  29.151  27.483  1.00  0.00     0.031 C 
ATOM     36  C   UNL A   1      37.175  31.443  31.505  1.00  0.00     0.029 A 
ATOM     37  N   UNL A   1      39.153  30.431  31.729  1.00  0.00    -0.354 N 
ATOM     38  C   UNL A   1      40.909  28.140  28.538  1.00  0.00     0.074 A 
ATOM     39  C   UNL A   1      40.187  28.345  27.302  1.00  0.00     0.031 C 
ATOM     40  C   UNL A   1      37.652  31.765  32.714  1.00  0.00     0.029 A 
ATOM     41  C   UNL A   1      38.901  31.047  32.933  1.00  0.00     0.049 A 
ATOM     42  H   UNL A   1      39.974  29.920  31.546  1.00  0.00     0.167 HD
ATOM     43  C   UNL A   1      42.053  27.421  28.643  1.00  0.00     0.031 A 
ATOM     44  C   UNL A   1      39.557  30.995  34.107  1.00  0.00     0.031 A 
ATOM     45  C   UNL A   1      42.798  27.264  29.866  1.00  0.00     0.049 A 
ATOM     46  C   UNL A   1      40.771  30.121  34.225  1.00  0.00     0.074 A 
ATOM     47  C   UNL A   1      43.968  26.554  30.078  1.00  0.00     0.029 A 
ATOM     48  N   UNL A   1      42.459  27.848  31.077  1.00  0.00    -0.354 N 
ATOM     49  N   UNL A   1      41.372  29.416  33.299  1.00  0.00    -0.248 NA
ATOM     50  C   UNL A   1      41.378  30.013  35.559  1.00  0.00     0.031 C 
ATOM     51  C   UNL A   1      44.307  26.665  31.430  1.00  0.00     0.029 A 
ATOM     52  C   UNL A   1      43.383  27.494  32.046  1.00  0.00     0.049 A 
ATOM     53  H   UNL A   1      41.678  28.428  31.226  1.00  0.00     0.167 HD
ATOM     54  C   UNL A   1      42.434  28.788  33.934  1.00  0.00     0.074 A 
ATOM     55  C   UNL A   1      42.411  29.218  35.317  1.00  0.00     0.031 C 
ATOM     56  C   UNL A   1      43.342  27.923  33.419  1.00  0.00     0.031 A 
BRANCH  43  57
ATOM     57  C   UNL A   1      42.558  26.712  27.416  1.00  0.00    -0.014 A 
ATOM     58  C   UNL A   1      43.508  27.296  26.564  1.00  0.00     0.009 A 
ATOM     59  C   UNL A   1      42.121  25.405  27.145  1.00  0.00     0.009 A 
ATOM     60  C   UNL A   1      43.989  26.596  25.453  1.00  0.00     0.001 A 
ATOM     61  C   UNL A   1      42.624  24.695  26.053  1.00  0.00     0.001 A 
ATOM     62  C   UNL A   1      43.553  25.295  25.204  1.00  0.00     0.000 A 
ENDBRANCH  43  57
BRANCH  44  63
ATOM     63  C   UNL A   1      39.033  31.741  35.283  1.00  0.00    -0.014 A 
ATOM     64  C   UNL A   1      38.216  31.100  36.226  1.00  0.00     0.009 A 
ATOM     65  C   UNL A   1      39.364  33.092  35.482  1.00  0.00     0.009 A 
ATOM     66  C   UNL A   1      37.737  31.798  37.338  1.00  0.00     0.001 A 
ATOM     67  C   UNL A   1      38.914  33.777  36.611  1.00  0.00     0.001 A 
ATOM     68  C   UNL A   1      38.095  33.131  37.535  1.00  0.00     0.000 A 
ENDBRANCH  44  63
BRANCH  56  69
ATOM     69  C   UNL A   1      44.393  27.396  34.353  1.00  0.00    -0.014 A 
ATOM     70  C   UNL A   1      44.207  26.193  35.050  1.00  0.00     0.009 A 
ATOM     71  C   UNL A   1      45.606  28.088  34.500  1.00  0.00     0.009 A 
ATOM     72  C   UNL A   1      45.202  25.707  35.898  1.00  0.00     0.001 A 
ATOM     73  C   UNL A   1      46.612  27.584  35.326  1.00  0.00     0.001 A 
ATOM     74  C   UNL A   1      46.406  26.400  36.030  1.00  0.00     0.000 A 
ENDBRANCH  56  69
ENDBRANCH  30  31
ENDBRANCH  23  25
ENDBRANCH  22  23
ENDBRANCH   1  22
TORSDOF 12
ENDMDL
MODEL 2
REMARK VINA RESULT:     -11.4      3.896      8.662
REMARK SMILES Cc1cc(Br)cc2c1O[C@H](C(F)(F)F)C(C(=O)OCCOC(=O)c1ccc(-c3c4nc(c(-c5ccccc5)c5ccc([nH]5)c(-c5ccccc5)c5nc(c(-c6ccccc6)c6ccc3[nH]6)C=C5)C=C4)cc1)=C2
REMARK SMILES IDX 20 1 19 2 18 3 16 4 17 5 15 6 1 7 2 8 3 9 8 10 4 11 7 12
REMARK SMILES IDX 9 13 5 14 6 15 72 16 10 17 11 18 12 19 13 20 14 21 21 22
REMARK SMILES IDX 22 23 23 24 24 25 25 26 71 27 26 28 70 29 27 30 28 31 29 32
REMARK SMILES IDX 64 33 30 34 69 35 63 36 65 37 31 38 68 39 62 40 61 41 32 43
REMARK SMILES IDX 54 44 39 45 53 46 40 47 43 48 52 49 66 50 41 51 42 52 51 54
REMARK SMILES IDX 67 55 44 56 33 57 34 58 38 59 35 60 37 61 36 62 55 63 56 64
REMARK SMILES IDX 60 65 57 66 59 67 58 68 45 69 46 70 50 71 47 72 49 73 48 74
REMARK H PARENT 65 42 43 53
REMARK Flexibility Score: inf
ROOT
ATOM      1  C   UNL A   1      36.543  20.608  25.011  1.00  0.00     0.275 C 
ENDROOT
BRANCH   1   2
ATOM      2  C   UNL A   1      35.192  21.303  24.837  1.00  0.00     0.275 C 
BRANCH   2   3
ATOM      3  O   UNL A   1      35.337  22.740  24.795  1.00  0.00    -0.459 OA
BRANCH   3   4
ATOM      4  C   UNL A   1      35.168  23.306  23.579  1.00  0.00     0.338 C 
ATOM      5  O   UNL A   1      35.725  22.985  22.541  1.00  0.00    -0.246 OA
BRANCH   4   6
ATOM      6  C   UNL A   1      34.167  24.387  23.642  1.00  0.00     0.087 C 
ATOM      7  C   UNL A   1      29.837  27.185  23.452  1.00  0.00     0.048 C 
ATOM      8  C   UNL A   1      31.148  27.242  24.183  1.00  0.00    -0.007 A 
ATOM      9  C   UNL A   1      31.324  28.227  25.172  1.00  0.00     0.023 A 
ATOM     10  C   UNL A   1      32.169  26.305  23.959  1.00  0.00     0.130 A 
ATOM     11  C   UNL A   1      32.511  28.296  25.897  1.00  0.00     0.019 A 
ATOM     12  C   UNL A   1      33.351  26.379  24.699  1.00  0.00     0.019 A 
ATOM     13  O   UNL A   1      31.961  25.354  22.994  1.00  0.00    -0.475 OA
ATOM     14  Br  UNL A   1      32.736  29.625  27.222  1.00  0.00    -0.051 Br
ATOM     15  C   UNL A   1      33.530  27.381  25.661  1.00  0.00     0.027 A 
ATOM     16  C   UNL A   1      34.388  25.389  24.499  1.00  0.00     0.027 C 
ATOM     17  C   UNL A   1      32.888  24.239  22.873  1.00  0.00     0.316 C 
BRANCH  17  18
ATOM     18  C   UNL A   1      32.160  22.939  23.254  1.00  0.00     0.430 C 
ATOM     19  F   UNL A   1      32.235  22.702  24.584  1.00  0.00    -0.167 F 
ATOM     20  F   UNL A   1      30.842  23.001  22.946  1.00  0.00    -0.167 F 
ATOM     21  F   UNL A   1      32.675  21.862  22.617  1.00  0.00    -0.167 F 
ENDBRANCH  17  18
ENDBRANCH   4   6
ENDBRANCH   3   4
ENDBRANCH   2   3
ENDBRANCH   1   2
BRANCH   1  22
ATOM     22  O   UNL A   1      37.612  21.572  24.984  1.00  0.00    -0.458 OA
BRANCH  22  23
ATOM     23  C   UNL A   1      38.691  21.244  25.728  1.00  0.00     0.338 C 
ATOM     24  O   UNL A   1      39.289  20.181  25.742  1.00  0.00    -0.246 OA
BRANCH  23  25
ATOM     25  C   UNL A   1      39.157  22.402  26.505  1.00  0.00     0.060 A 
ATOM     26  C   UNL A   1      38.635  23.653  26.207  1.00  0.00     0.016 A 
ATOM     27  C   UNL A   1      40.279  22.292  27.323  1.00  0.00     0.016 A 
ATOM     28  C   UNL A   1      39.344  24.800  26.546  1.00  0.00     0.010 A 
ATOM     29  C   UNL A   1      40.894  23.454  27.804  1.00  0.00     0.010 A 
ATOM     30  C   UNL A   1      40.481  24.725  27.362  1.00  0.00    -0.014 A 
BRANCH  30  31
ATOM     31  C   UNL A   1      41.262  25.950  27.706  1.00  0.00     0.031 A 
ATOM     32  C   UNL A   1      40.677  26.987  28.638  1.00  0.00     0.074 A 
ATOM     33  C   UNL A   1      42.504  26.144  27.213  1.00  0.00     0.049 A 
ATOM     34  N   UNL A   1      41.075  28.213  28.867  1.00  0.00    -0.248 NA
ATOM     35  C   UNL A   1      39.478  26.598  29.401  1.00  0.00     0.031 C 
ATOM     36  C   UNL A   1      43.249  25.203  26.373  1.00  0.00     0.029 A 
ATOM     37  N   UNL A   1      43.369  27.203  27.359  1.00  0.00    -0.354 N 
ATOM     38  C   UNL A   1      40.141  28.760  29.742  1.00  0.00     0.074 A 
ATOM     39  C   UNL A   1      39.153  27.736  29.998  1.00  0.00     0.031 C 
ATOM     40  C   UNL A   1      44.471  25.695  26.129  1.00  0.00     0.029 A 
ATOM     41  C   UNL A   1      44.554  27.041  26.680  1.00  0.00     0.049 A 
ATOM     42  H   UNL A   1      43.160  27.999  27.899  1.00  0.00     0.167 HD
ATOM     43  C   UNL A   1      40.110  30.003  30.281  1.00  0.00     0.031 A 
ATOM     44  C   UNL A   1      45.571  27.895  26.461  1.00  0.00     0.031 A 
ATOM     45  C   UNL A   1      41.124  31.002  30.064  1.00  0.00     0.049 A 
ATOM     46  C   UNL A   1      45.474  29.295  26.992  1.00  0.00     0.074 A 
ATOM     47  C   UNL A   1      41.184  32.293  30.562  1.00  0.00     0.029 A 
ATOM     48  N   UNL A   1      42.268  30.813  29.305  1.00  0.00    -0.354 N 
ATOM     49  N   UNL A   1      44.539  29.831  27.738  1.00  0.00    -0.248 NA
ATOM     50  C   UNL A   1      46.559  30.215  26.625  1.00  0.00     0.031 C 
ATOM     51  C   UNL A   1      42.338  32.902  30.062  1.00  0.00     0.029 A 
ATOM     52  C   UNL A   1      43.028  31.971  29.301  1.00  0.00     0.049 A 
ATOM     53  H   UNL A   1      42.506  29.980  28.838  1.00  0.00     0.167 HD
ATOM     54  C   UNL A   1      44.926  31.149  27.938  1.00  0.00     0.074 A 
ATOM     55  C   UNL A   1      46.195  31.322  27.259  1.00  0.00     0.031 C 
ATOM     56  C   UNL A   1      44.284  32.131  28.615  1.00  0.00     0.031 A 
BRANCH  43  57
ATOM     57  C   UNL A   1      38.924  30.376  31.129  1.00  0.00    -0.014 A 
ATOM     58  C   UNL A   1      37.747  30.892  30.566  1.00  0.00     0.009 A 
ATOM     59  C   UNL A   1      38.966  30.144  32.514  1.00  0.00     0.009 A 
ATOM     60  C   UNL A   1      36.647  31.191  31.376  1.00  0.00     0.001 A 
ATOM     61  C   UNL A   1      37.856  30.415  33.317  1.00  0.00     0.001 A 
ATOM     62  C   UNL A   1      36.700  30.945  32.748  1.00  0.00     0.000 A 
ENDBRANCH  43  57
BRANCH  44  63
ATOM     63  C   UNL A   1      46.736  27.466  25.641  1.00  0.00    -0.014 A 
ATOM     64  C   UNL A   1      46.803  27.788  24.277  1.00  0.00     0.009 A 
ATOM     65  C   UNL A   1      47.798  26.751  26.221  1.00  0.00     0.009 A 
ATOM     66  C   UNL A   1      47.905  27.397  23.512  1.00  0.00     0.001 A 
ATOM     67  C   UNL A   1      48.913  26.394  25.462  1.00  0.00     0.001 A 
ATOM     68  C   UNL A   1      48.963  26.710  24.107  1.00  0.00     0.000 A 
ENDBRANCH  44  63
BRANCH  56  69
ATOM     69  C   UNL A   1      44.948  33.476  28.668  1.00  0.00    -0.014 A 
ATOM     70  C   UNL A   1      45.843  33.803  29.698  1.00  0.00     0.009 A 
ATOM     71  C   UNL A   1      44.712  34.411  27.648  1.00  0.00     0.009 A 
ATOM     72  C   UNL A   1      46.467  35.050  29.721  1.00  0.00     0.001 A 
ATOM     73  C   UNL A   1      45.361  35.646  27.657  1.00  0.00     0.001 A 
ATOM     74  C   UNL A   1      46.231  35.968  28.697  1.00  0.00     0.000 A 
ENDBRANCH  56  69
ENDBRANCH  30  31
ENDBRANCH  23  25
ENDBRANCH  22  23
ENDBRANCH   1  22
TORSDOF 12
ENDMDL
MODEL 3
REMARK VINA RESULT:     -11.4      4.999      9.576
REMARK SMILES Cc1cc(Br)cc2c1O[C@H](C(F)(F)F)C(C(=O)OCCOC(=O)c1ccc(-c3c4nc(c(-c5ccccc5)c5ccc([nH]5)c(-c5ccccc5)c5nc(c(-c6ccccc6)c6ccc3[nH]6)C=C5)C=C4)cc1)=C2
REMARK SMILES IDX 20 1 19 2 18 3 16 4 17 5 15 6 1 7 2 8 3 9 8 10 4 11 7 12
REMARK SMILES IDX 9 13 5 14 6 15 72 16 10 17 11 18 12 19 13 20 14 21 21 22
REMARK SMILES IDX 22 23 23 24 24 25 25 26 71 27 26 28 70 29 27 30 28 31 29 32
REMARK SMILES IDX 64 33 30 34 69 35 63 36 65 37 31 38 68 39 62 40 61 41 32 43
REMARK SMILES IDX 54 44 39 45 53 46 40 47 43 48 52 49 66 50 41 51 42 52 51 54
REMARK SMILES IDX 67 55 44 56 33 57 34 58 38 59 35 60 37 61 36 62 55 63 56 64
REMARK SMILES IDX 60 65 57 66 59 67 58 68 45 69 46 70 50 71 47 72 49 73 48 74
REMARK H PARENT 65 42 43 53
REMARK Flexibility Score: inf
ROOT
ATOM      1  C   UNL A   1      33.886  33.388  28.316  1.00  0.00     0.275 C 
ENDROOT
BRANCH   1   2
ATOM      2  C   UNL A   1      34.495  34.630  28.967  1.00  0.00     0.275 C 
BRANCH   2   3
ATOM      3  O   UNL A   1      34.253  34.653  30.391  1.00  0.00    -0.459 OA
BRANCH   3   4
ATOM      4  C   UNL A   1      34.807  33.638  31.091  1.00  0.00     0.338 C 
ATOM      5  O   UNL A   1      34.366  32.505  31.208  1.00  0.00    -0.246 OA
BRANCH   4   6
ATOM      6  C   UNL A   1      36.080  34.061  31.704  1.00  0.00     0.087 C 
ATOM      7  C   UNL A   1      39.849  35.321  34.994  1.00  0.00     0.048 C 
ATOM      8  C   UNL A   1      39.748  34.827  33.579  1.00  0.00    -0.007 A 
ATOM      9  C   UNL A   1      40.934  34.501  32.895  1.00  0.00     0.023 A 
ATOM     10  C   UNL A   1      38.512  34.618  32.948  1.00  0.00     0.130 A 
ATOM     11  C   UNL A   1      40.886  34.010  31.592  1.00  0.00     0.019 A 
ATOM     12  C   UNL A   1      38.477  34.116  31.645  1.00  0.00     0.019 A 
ATOM     13  O   UNL A   1      37.377  34.938  33.646  1.00  0.00    -0.475 OA
ATOM     14  Br  UNL A   1      42.485  33.576  30.684  1.00  0.00    -0.051 Br
ATOM     15  C   UNL A   1      39.662  33.821  30.960  1.00  0.00     0.027 A 
ATOM     16  C   UNL A   1      37.202  33.860  31.007  1.00  0.00     0.027 C 
ATOM     17  C   UNL A   1      36.077  34.542  33.124  1.00  0.00     0.316 C 
BRANCH  17  18
ATOM     18  C   UNL A   1      35.460  33.493  34.064  1.00  0.00     0.430 C 
ATOM     19  F   UNL A   1      35.927  32.252  33.794  1.00  0.00    -0.167 F 
ATOM     20  F   UNL A   1      35.766  33.747  35.360  1.00  0.00    -0.167 F 
ATOM     21  F   UNL A   1      34.112  33.452  33.966  1.00  0.00    -0.167 F 
ENDBRANCH  17  18
ENDBRANCH   4   6
ENDBRANCH   3   4
ENDBRANCH   2   3
ENDBRANCH   1   2
BRANCH   1  22
ATOM     22  O   UNL A   1      34.873  32.695  27.529  1.00  0.00    -0.458 OA
BRANCH  22  23
ATOM     23  C   UNL A   1      34.909  31.357  27.712  1.00  0.00     0.338 C 
ATOM     24  O   UNL A   1      34.211  30.515  27.176  1.00  0.00    -0.246 OA
BRANCH  23  25
ATOM     25  C   UNL A   1      36.007  30.987  28.618  1.00  0.00     0.060 A 
ATOM     26  C   UNL A   1      37.235  31.616  28.461  1.00  0.00     0.016 A 
ATOM     27  C   UNL A   1      35.901  29.856  29.423  1.00  0.00     0.016 A 
ATOM     28  C   UNL A   1      38.392  31.004  28.932  1.00  0.00     0.010 A 
ATOM     29  C   UNL A   1      37.049  29.338  30.036  1.00  0.00     0.010 A 
ATOM     30  C   UNL A   1      38.322  29.861  29.739  1.00  0.00    -0.014 A 
BRANCH  30  31
ATOM     31  C   UNL A   1      39.561  29.184  30.222  1.00  0.00     0.031 A 
ATOM     32  C   UNL A   1      40.243  29.661  31.486  1.00  0.00     0.074 A 
ATOM     33  C   UNL A   1      40.082  28.129  29.561  1.00  0.00     0.049 A 
ATOM     34  N   UNL A   1      41.440  29.381  31.937  1.00  0.00    -0.248 NA
ATOM     35  C   UNL A   1      39.484  30.586  32.345  1.00  0.00     0.031 C 
ATOM     36  C   UNL A   1      39.500  27.489  28.378  1.00  0.00     0.029 A 
ATOM     37  N   UNL A   1      41.221  27.397  29.798  1.00  0.00    -0.354 N 
ATOM     38  C   UNL A   1      41.602  30.145  33.089  1.00  0.00     0.074 A 
ATOM     39  C   UNL A   1      40.384  30.904  33.265  1.00  0.00     0.031 C 
ATOM     40  C   UNL A   1      40.249  26.432  28.031  1.00  0.00     0.029 A 
ATOM     41  C   UNL A   1      41.432  26.395  28.880  1.00  0.00     0.049 A 
ATOM     42  H   UNL A   1      41.828  27.573  30.554  1.00  0.00     0.167 HD
ATOM     43  C   UNL A   1      42.668  30.207  33.922  1.00  0.00     0.031 A 
ATOM     44  C   UNL A   1      42.483  25.577  28.690  1.00  0.00     0.031 A 
ATOM     45  C   UNL A   1      43.858  29.410  33.772  1.00  0.00     0.049 A 
ATOM     46  C   UNL A   1      43.690  25.724  29.569  1.00  0.00     0.074 A 
ATOM     47  C   UNL A   1      44.995  29.400  34.562  1.00  0.00     0.029 A 
ATOM     48  N   UNL A   1      44.052  28.462  32.779  1.00  0.00    -0.354 N 
ATOM     49  N   UNL A   1      43.869  26.518  30.597  1.00  0.00    -0.248 NA
ATOM     50  C   UNL A   1      44.849  24.884  29.243  1.00  0.00     0.031 C 
ATOM     51  C   UNL A   1      45.899  28.484  34.015  1.00  0.00     0.029 A 
ATOM     52  C   UNL A   1      45.300  27.880  32.922  1.00  0.00     0.049 A 
ATOM     53  H   UNL A   1      43.400  28.237  32.078  1.00  0.00     0.167 HD
ATOM     54  C   UNL A   1      45.158  26.267  31.046  1.00  0.00     0.074 A 
ATOM     55  C   UNL A   1      45.704  25.227  30.198  1.00  0.00     0.031 C 
ATOM     56  C   UNL A   1      45.833  26.852  32.065  1.00  0.00     0.031 A 
BRANCH  43  57
ATOM     57  C   UNL A   1      42.623  31.197  35.055  1.00  0.00    -0.014 A 
ATOM     58  C   UNL A   1      43.074  32.516  34.900  1.00  0.00     0.009 A 
ATOM     59  C   UNL A   1      42.056  30.816  36.283  1.00  0.00     0.009 A 
ATOM     60  C   UNL A   1      42.982  33.425  35.959  1.00  0.00     0.001 A 
ATOM     61  C   UNL A   1      41.936  31.733  37.329  1.00  0.00     0.001 A 
ATOM     62  C   UNL A   1      42.407  33.035  37.168  1.00  0.00     0.000 A 
ENDBRANCH  43  57
BRANCH  44  63
ATOM     63  C   UNL A   1      42.464  24.592  27.574  1.00  0.00    -0.014 A 
ATOM     64  C   UNL A   1      42.977  24.936  26.314  1.00  0.00     0.009 A 
ATOM     65  C   UNL A   1      41.954  23.297  27.767  1.00  0.00     0.009 A 
ATOM     66  C   UNL A   1      42.973  24.005  25.272  1.00  0.00     0.001 A 
ATOM     67  C   UNL A   1      41.984  22.359  26.735  1.00  0.00     0.001 A 
ATOM     68  C   UNL A   1      42.486  22.716  25.486  1.00  0.00     0.000 A 
ENDBRANCH  44  63
BRANCH  56  69
ATOM     69  C   UNL A   1      47.231  26.372  32.327  1.00  0.00    -0.014 A 
ATOM     70  C   UNL A   1      48.335  26.988  31.718  1.00  0.00     0.009 A 
ATOM     71  C   UNL A   1      47.450  25.321  33.231  1.00  0.00     0.009 A 
ATOM     72  C   UNL A   1      49.629  26.542  31.988  1.00  0.00     0.001 A 
ATOM     73  C   UNL A   1      48.747  24.898  33.523  1.00  0.00     0.001 A 
ATOM     74  C   UNL A   1      49.834  25.502  32.895  1.00  0.00     0.000 A 
ENDBRANCH  56  69
ENDBRANCH  30  31
ENDBRANCH  23  25
ENDBRANCH  22  23
ENDBRANCH   1  22
TORSDOF 12
ENDMDL
