MODEL 1
REMARK VINA RESULT:     -10.5      0.000      0.000
REMARK SMILES Nc1ccc(O)c(C(=O)OCCOC(=O)c2ccc(-c3c4nc(c(-c5ccccc5)c5ccc([nH]5)c(-c5ccccc5)c5nc(c(-c6ccccc6)c6ccc3[nH]6)C=C5)C=C4)cc2)c1
REMARK SMILES IDX 12 1 11 2 10 3 8 4 9 5 7 6 2 7 3 8 64 9 4 10 5 11 1 12 6 15
REMARK SMILES IDX 13 17 14 18 15 19 16 20 17 21 63 22 18 23 62 24 19 25 20 26
REMARK SMILES IDX 21 27 56 28 22 29 61 30 55 31 57 32 23 33 60 34 54 35 53 36
REMARK SMILES IDX 24 38 46 39 31 40 45 41 32 42 35 43 44 44 58 45 33 46 34 47
REMARK SMILES IDX 43 49 59 50 36 51 25 52 26 53 30 54 27 55 29 56 28 57 47 58
REMARK SMILES IDX 48 59 52 60 49 61 51 62 50 63 37 64 38 65 42 66 39 67 41 68
REMARK SMILES IDX 40 69
REMARK H PARENT 1 13 1 14 6 16 57 37 35 48
REMARK Flexibility Score: inf
ROOT
ATOM      1  C   UNL A   1      31.747  30.387  25.811  1.00  0.00     0.275 C 
ENDROOT
BRANCH   1   2
ATOM      2  C   UNL A   1      31.597  28.904  25.459  1.00  0.00     0.275 C 
BRANCH   2   3
ATOM      3  O   UNL A   1      32.015  28.619  24.105  1.00  0.00    -0.458 OA
BRANCH   3   4
ATOM      4  C   UNL A   1      31.233  27.752  23.422  1.00  0.00     0.342 C 
ATOM      5  O   UNL A   1      31.460  26.564  23.244  1.00  0.00    -0.246 OA
BRANCH   4   6
ATOM      6  C   UNL A   1      30.030  28.427  22.896  1.00  0.00     0.103 A 
ATOM      7  C   UNL A   1      27.615  28.680  22.933  1.00  0.00     0.032 A 
ATOM      8  C   UNL A   1      27.751  29.925  22.312  1.00  0.00     0.029 A 
ATOM      9  C   UNL A   1      28.766  27.959  23.273  1.00  0.00     0.045 A 
ATOM     10  C   UNL A   1      29.002  30.388  21.915  1.00  0.00     0.049 A 
ATOM     11  C   UNL A   1      30.128  29.615  22.167  1.00  0.00     0.130 A 
BRANCH   7  12
ATOM     12  N   UNL A   1      26.363  28.243  23.338  1.00  0.00    -0.399 N 
ATOM     13  H   UNL A   1      25.553  28.686  22.998  1.00  0.00     0.156 HD
ATOM     14  H   UNL A   1      26.285  27.488  23.966  1.00  0.00     0.156 HD
ENDBRANCH   7  12
BRANCH  11  15
ATOM     15  O   UNL A   1      31.286  30.067  21.612  1.00  0.00    -0.507 OA
ATOM     16  H   UNL A   1      31.733  30.798  21.991  1.00  0.00     0.293 HD
ENDBRANCH  11  15
ENDBRANCH   4   6
ENDBRANCH   3   4
ENDBRANCH   2   3
ENDBRANCH   1   2
BRANCH   1  17
ATOM     17  O   UNL A   1      32.303  30.579  27.127  1.00  0.00    -0.458 OA
BRANCH  17  18
ATOM     18  C   UNL A   1      33.061  31.686  27.265  1.00  0.00     0.338 C 
ATOM     19  O   UNL A   1      32.691  32.849  27.277  1.00  0.00    -0.246 OA
BRANCH  18  20
ATOM     20  C   UNL A   1      34.458  31.345  27.560  1.00  0.00     0.060 A 
ATOM     21  C   UNL A   1      34.735  30.006  27.809  1.00  0.00     0.016 A 
ATOM     22  C   UNL A   1      35.382  32.331  27.906  1.00  0.00     0.016 A 
ATOM     23  C   UNL A   1      35.856  29.662  28.551  1.00  0.00     0.010 A 
ATOM     24  C   UNL A   1      36.584  31.960  28.527  1.00  0.00     0.010 A 
ATOM     25  C   UNL A   1      36.813  30.624  28.906  1.00  0.00    -0.014 A 
BRANCH  25  26
ATOM     26  C   UNL A   1      38.011  30.213  29.696  1.00  0.00     0.031 A 
ATOM     27  C   UNL A   1      39.135  29.433  29.058  1.00  0.00     0.074 A 
ATOM     28  C   UNL A   1      38.129  30.591  30.986  1.00  0.00     0.049 A 
ATOM     29  N   UNL A   1      40.168  28.861  29.628  1.00  0.00    -0.248 NA
ATOM     30  C   UNL A   1      39.092  29.261  27.597  1.00  0.00     0.031 C 
ATOM     31  C   UNL A   1      37.157  31.399  31.728  1.00  0.00     0.029 A 
ATOM     32  N   UNL A   1      39.135  30.375  31.895  1.00  0.00    -0.354 N 
ATOM     33  C   UNL A   1      40.854  28.207  28.611  1.00  0.00     0.074 A 
ATOM     34  C   UNL A   1      40.129  28.461  27.385  1.00  0.00     0.031 C 
ATOM     35  C   UNL A   1      37.647  31.676  32.942  1.00  0.00     0.029 A 
ATOM     36  C   UNL A   1      38.909  30.969  33.113  1.00  0.00     0.049 A 
ATOM     37  H   UNL A   1      39.939  29.844  31.694  1.00  0.00     0.167 HD
ATOM     38  C   UNL A   1      41.979  27.456  28.695  1.00  0.00     0.031 A 
ATOM     39  C   UNL A   1      39.608  30.920  34.262  1.00  0.00     0.031 A 
ATOM     40  C   UNL A   1      42.736  27.253  29.903  1.00  0.00     0.049 A 
ATOM     41  C   UNL A   1      40.837  30.067  34.335  1.00  0.00     0.074 A 
ATOM     42  C   UNL A   1      43.883  26.499  30.087  1.00  0.00     0.029 A 
ATOM     43  N   UNL A   1      42.439  27.832  31.127  1.00  0.00    -0.354 N 
ATOM     44  N   UNL A   1      41.410  29.366  33.388  1.00  0.00    -0.248 NA
ATOM     45  C   UNL A   1      41.497  29.972  35.645  1.00  0.00     0.031 C 
ATOM     46  C   UNL A   1      44.263  26.598  31.430  1.00  0.00     0.029 A 
ATOM     47  C   UNL A   1      43.377  27.446  32.071  1.00  0.00     0.049 A 
ATOM     48  H   UNL A   1      41.675  28.428  31.300  1.00  0.00     0.167 HD
ATOM     49  C   UNL A   1      42.493  28.742  33.988  1.00  0.00     0.074 A 
ATOM     50  C   UNL A   1      42.517  29.172  35.371  1.00  0.00     0.031 C 
ATOM     51  C   UNL A   1      43.380  27.874  33.443  1.00  0.00     0.031 A 
BRANCH  38  52
ATOM     52  C   UNL A   1      42.443  26.752  27.451  1.00  0.00    -0.014 A 
ATOM     53  C   UNL A   1      43.407  27.312  26.600  1.00  0.00     0.009 A 
ATOM     54  C   UNL A   1      41.945  25.470  27.162  1.00  0.00     0.009 A 
ATOM     55  C   UNL A   1      43.844  26.611  25.472  1.00  0.00     0.001 A 
ATOM     56  C   UNL A   1      42.400  24.763  26.049  1.00  0.00     0.001 A 
ATOM     57  C   UNL A   1      43.345  25.337  25.200  1.00  0.00     0.000 A 
ENDBRANCH  38  52
BRANCH  39  58
ATOM     58  C   UNL A   1      39.108  31.644  35.459  1.00  0.00    -0.014 A 
ATOM     59  C   UNL A   1      38.212  31.029  36.346  1.00  0.00     0.009 A 
ATOM     60  C   UNL A   1      39.544  32.952  35.731  1.00  0.00     0.009 A 
ATOM     61  C   UNL A   1      37.758  31.713  37.476  1.00  0.00     0.001 A 
ATOM     62  C   UNL A   1      39.114  33.620  36.877  1.00  0.00     0.001 A 
ATOM     63  C   UNL A   1      38.215  33.002  37.746  1.00  0.00     0.000 A 
ENDBRANCH  39  58
BRANCH  51  64
ATOM     64  C   UNL A   1      44.455  27.352  34.349  1.00  0.00    -0.014 A 
ATOM     65  C   UNL A   1      44.233  26.224  35.153  1.00  0.00     0.009 A 
ATOM     66  C   UNL A   1      45.703  27.989  34.390  1.00  0.00     0.009 A 
ATOM     67  C   UNL A   1      45.235  25.762  36.009  1.00  0.00     0.001 A 
ATOM     68  C   UNL A   1      46.709  27.512  35.231  1.00  0.00     0.001 A 
ATOM     69  C   UNL A   1      46.472  26.404  36.045  1.00  0.00     0.000 A 
ENDBRANCH  51  64
ENDBRANCH  25  26
ENDBRANCH  18  20
ENDBRANCH  17  18
ENDBRANCH   1  17
TORSDOF 13
ENDMDL
MODEL 2
REMARK VINA RESULT:     -10.5      5.335      8.848
REMARK SMILES Nc1ccc(O)c(C(=O)OCCOC(=O)c2ccc(-c3c4nc(c(-c5ccccc5)c5ccc([nH]5)c(-c5ccccc5)c5nc(c(-c6ccccc6)c6ccc3[nH]6)C=C5)C=C4)cc2)c1
REMARK SMILES IDX 12 1 11 2 10 3 8 4 9 5 7 6 2 7 3 8 64 9 4 10 5 11 1 12 6 15
REMARK SMILES IDX 13 17 14 18 15 19 16 20 17 21 63 22 18 23 62 24 19 25 20 26
REMARK SMILES IDX 21 27 56 28 22 29 61 30 55 31 57 32 23 33 60 34 54 35 53 36
REMARK SMILES IDX 24 38 46 39 31 40 45 41 32 42 35 43 44 44 58 45 33 46 34 47
REMARK SMILES IDX 43 49 59 50 36 51 25 52 26 53 30 54 27 55 29 56 28 57 47 58
REMARK SMILES IDX 48 59 52 60 49 61 51 62 50 63 37 64 38 65 42 66 39 67 41 68
REMARK SMILES IDX 40 69
REMARK H PARENT 1 13 1 14 6 16 57 37 35 48
REMARK Flexibility Score: inf
ROOT
ATOM      1  C   UNL A   1      34.709  33.233  28.140  1.00  0.00     0.275 C 
ENDROOT
BRANCH   1   2
ATOM      2  C   UNL A   1      33.363  33.959  28.064  1.00  0.00     0.275 C 
BRANCH   2   3
ATOM      3  O   UNL A   1      32.877  34.345  29.369  1.00  0.00    -0.458 OA
BRANCH   3   4
ATOM      4  C   UNL A   1      32.939  35.668  29.648  1.00  0.00     0.342 C 
ATOM      5  O   UNL A   1      32.759  36.580  28.855  1.00  0.00    -0.246 OA
BRANCH   4   6
ATOM      6  C   UNL A   1      33.259  35.893  31.071  1.00  0.00     0.103 A 
ATOM      7  C   UNL A   1      34.031  34.987  33.187  1.00  0.00     0.032 A 
ATOM      8  C   UNL A   1      34.310  36.285  33.625  1.00  0.00     0.029 A 
ATOM      9  C   UNL A   1      33.556  34.793  31.885  1.00  0.00     0.045 A 
ATOM     10  C   UNL A   1      33.998  37.384  32.830  1.00  0.00     0.049 A 
ATOM     11  C   UNL A   1      33.432  37.184  31.578  1.00  0.00     0.130 A 
BRANCH   7  12
ATOM     12  N   UNL A   1      34.365  33.903  33.985  1.00  0.00    -0.399 N 
ATOM     13  H   UNL A   1      35.148  33.951  34.579  1.00  0.00     0.156 HD
ATOM     14  H   UNL A   1      33.818  33.084  33.957  1.00  0.00     0.156 HD
ENDBRANCH   7  12
BRANCH  11  15
ATOM     15  O   UNL A   1      33.018  38.309  30.934  1.00  0.00    -0.507 OA
ATOM     16  H   UNL A   1      33.274  38.461  30.045  1.00  0.00     0.293 HD
ENDBRANCH  11  15
ENDBRANCH   4   6
ENDBRANCH   3   4
ENDBRANCH   2   3
ENDBRANCH   1   2
BRANCH   1  17
ATOM     17  O   UNL A   1      34.572  31.880  28.617  1.00  0.00    -0.458 OA
BRANCH  17  18
ATOM     18  C   UNL A   1      35.280  31.597  29.729  1.00  0.00     0.338 C 
ATOM     19  O   UNL A   1      35.039  31.938  30.876  1.00  0.00    -0.246 OA
BRANCH  18  20
ATOM     20  C   UNL A   1      36.373  30.660  29.444  1.00  0.00     0.060 A 
ATOM     21  C   UNL A   1      37.039  30.125  30.540  1.00  0.00     0.016 A 
ATOM     22  C   UNL A   1      36.933  30.572  28.169  1.00  0.00     0.016 A 
ATOM     23  C   UNL A   1      38.336  29.652  30.393  1.00  0.00     0.010 A 
ATOM     24  C   UNL A   1      38.185  29.959  28.008  1.00  0.00     0.010 A 
ATOM     25  C   UNL A   1      38.927  29.538  29.127  1.00  0.00    -0.014 A 
BRANCH  25  26
ATOM     26  C   UNL A   1      40.319  29.014  29.009  1.00  0.00     0.031 A 
ATOM     27  C   UNL A   1      41.509  29.881  29.339  1.00  0.00     0.074 A 
ATOM     28  C   UNL A   1      40.526  27.727  28.661  1.00  0.00     0.049 A 
ATOM     29  N   UNL A   1      42.783  29.642  29.143  1.00  0.00    -0.248 NA
ATOM     30  C   UNL A   1      41.239  31.189  29.958  1.00  0.00     0.031 C 
ATOM     31  C   UNL A   1      39.478  26.745  28.370  1.00  0.00     0.029 A 
ATOM     32  N   UNL A   1      41.691  27.011  28.524  1.00  0.00    -0.354 N 
ATOM     33  C   UNL A   1      43.456  30.789  29.546  1.00  0.00     0.074 A 
ATOM     34  C   UNL A   1      42.453  31.723  30.010  1.00  0.00     0.031 C 
ATOM     35  C   UNL A   1      40.039  25.545  28.170  1.00  0.00     0.029 A 
ATOM     36  C   UNL A   1      41.488  25.692  28.198  1.00  0.00     0.049 A 
ATOM     37  H   UNL A   1      42.584  27.406  28.646  1.00  0.00     0.167 HD
ATOM     38  C   UNL A   1      44.787  31.044  29.521  1.00  0.00     0.031 A 
ATOM     39  C   UNL A   1      42.361  24.711  27.904  1.00  0.00     0.031 A 
ATOM     40  C   UNL A   1      45.792  30.095  29.117  1.00  0.00     0.049 A 
ATOM     41  C   UNL A   1      43.825  25.023  27.865  1.00  0.00     0.074 A 
ATOM     42  C   UNL A   1      47.164  30.266  29.049  1.00  0.00     0.029 A 
ATOM     43  N   UNL A   1      45.535  28.786  28.742  1.00  0.00    -0.354 N 
ATOM     44  N   UNL A   1      44.435  26.148  28.143  1.00  0.00    -0.248 NA
ATOM     45  C   UNL A   1      44.718  23.937  27.436  1.00  0.00     0.031 C 
ATOM     46  C   UNL A   1      47.735  29.070  28.603  1.00  0.00     0.029 A 
ATOM     47  C   UNL A   1      46.722  28.142  28.435  1.00  0.00     0.049 A 
ATOM     48  H   UNL A   1      44.641  28.375  28.700  1.00  0.00     0.167 HD
ATOM     49  C   UNL A   1      45.782  25.909  27.918  1.00  0.00     0.074 A 
ATOM     50  C   UNL A   1      45.904  24.524  27.512  1.00  0.00     0.031 C 
ATOM     51  C   UNL A   1      46.824  26.768  28.023  1.00  0.00     0.031 A 
BRANCH  38  52
ATOM     52  C   UNL A   1      45.241  32.427  29.899  1.00  0.00    -0.014 A 
ATOM     53  C   UNL A   1      45.611  32.750  31.213  1.00  0.00     0.009 A 
ATOM     54  C   UNL A   1      45.357  33.408  28.900  1.00  0.00     0.009 A 
ATOM     55  C   UNL A   1      46.066  34.035  31.521  1.00  0.00     0.001 A 
ATOM     56  C   UNL A   1      45.833  34.683  29.206  1.00  0.00     0.001 A 
ATOM     57  C   UNL A   1      46.182  34.998  30.518  1.00  0.00     0.000 A 
ENDBRANCH  38  52
BRANCH  39  58
ATOM     58  C   UNL A   1      41.856  23.360  27.547  1.00  0.00    -0.014 A 
ATOM     59  C   UNL A   1      41.690  22.374  28.531  1.00  0.00     0.009 A 
ATOM     60  C   UNL A   1      41.518  23.058  26.218  1.00  0.00     0.009 A 
ATOM     61  C   UNL A   1      41.202  21.112  28.188  1.00  0.00     0.001 A 
ATOM     62  C   UNL A   1      40.999  21.806  25.884  1.00  0.00     0.001 A 
ATOM     63  C   UNL A   1      40.848  20.831  26.868  1.00  0.00     0.000 A 
ENDBRANCH  39  58
BRANCH  51  64
ATOM     64  C   UNL A   1      48.184  26.220  27.707  1.00  0.00    -0.014 A 
ATOM     65  C   UNL A   1      48.736  26.360  26.425  1.00  0.00     0.009 A 
ATOM     66  C   UNL A   1      48.922  25.566  28.704  1.00  0.00     0.009 A 
ATOM     67  C   UNL A   1      49.994  25.826  26.137  1.00  0.00     0.001 A 
ATOM     68  C   UNL A   1      50.187  25.050  28.419  1.00  0.00     0.001 A 
ATOM     69  C   UNL A   1      50.718  25.174  27.135  1.00  0.00     0.000 A 
ENDBRANCH  51  64
ENDBRANCH  25  26
ENDBRANCH  18  20
ENDBRANCH  17  18
ENDBRANCH   1  17
TORSDOF 13
ENDMDL
MODEL 3
REMARK VINA RESULT:     -10.4      4.256      6.486
REMARK SMILES Nc1ccc(O)c(C(=O)OCCOC(=O)c2ccc(-c3c4nc(c(-c5ccccc5)c5ccc([nH]5)c(-c5ccccc5)c5nc(c(-c6ccccc6)c6ccc3[nH]6)C=C5)C=C4)cc2)c1
REMARK SMILES IDX 12 1 11 2 10 3 8 4 9 5 7 6 2 7 3 8 64 9 4 10 5 11 1 12 6 15
REMARK SMILES IDX 13 17 14 18 15 19 16 20 17 21 63 22 18 23 62 24 19 25 20 26
REMARK SMILES IDX 21 27 56 28 22 29 61 30 55 31 57 32 23 33 60 34 54 35 53 36
REMARK SMILES IDX 24 38 46 39 31 40 45 41 32 42 35 43 44 44 58 45 33 46 34 47
REMARK SMILES IDX 43 49 59 50 36 51 25 52 26 53 30 54 27 55 29 56 28 57 47 58
REMARK SMILES IDX 48 59 52 60 49 61 51 62 50 63 37 64 38 65 42 66 39 67 41 68
REMARK SMILES IDX 40 69
REMARK H PARENT 1 13 1 14 6 16 57 37 35 48
REMARK Flexibility Score: inf
ROOT
ATOM      1  C   UNL A   1      32.800  35.154  30.490  1.00  0.00     0.275 C 
ENDROOT
BRANCH   1   2
ATOM      2  C   UNL A   1      34.018  35.418  31.382  1.00  0.00     0.275 C 
BRANCH   2   3
ATOM      3  O   UNL A   1      34.714  34.201  31.729  1.00  0.00    -0.458 OA
BRANCH   3   4
ATOM      4  C   UNL A   1      34.269  33.569  32.839  1.00  0.00     0.342 C 
ATOM      5  O   UNL A   1      33.099  33.387  33.143  1.00  0.00    -0.246 OA
BRANCH   4   6
ATOM      6  C   UNL A   1      35.396  33.107  33.672  1.00  0.00     0.103 A 
ATOM      7  C   UNL A   1      37.350  31.684  33.906  1.00  0.00     0.032 A 
ATOM      8  C   UNL A   1      37.792  32.490  34.960  1.00  0.00     0.029 A 
ATOM      9  C   UNL A   1      36.176  32.032  33.229  1.00  0.00     0.045 A 
ATOM     10  C   UNL A   1      37.013  33.547  35.421  1.00  0.00     0.049 A 
ATOM     11  C   UNL A   1      35.799  33.820  34.805  1.00  0.00     0.130 A 
BRANCH   7  12
ATOM     12  N   UNL A   1      38.148  30.646  33.449  1.00  0.00    -0.399 N 
ATOM     13  H   UNL A   1      38.886  30.310  34.007  1.00  0.00     0.156 HD
ATOM     14  H   UNL A   1      37.977  30.247  32.566  1.00  0.00     0.156 HD
ENDBRANCH   7  12
BRANCH  11  15
ATOM     15  O   UNL A   1      35.032  34.767  35.412  1.00  0.00    -0.507 OA
ATOM     16  H   UNL A   1      34.995  34.811  36.347  1.00  0.00     0.293 HD
ENDBRANCH  11  15
ENDBRANCH   4   6
ENDBRANCH   3   4
ENDBRANCH   2   3
ENDBRANCH   1   2
BRANCH   1  17
ATOM     17  O   UNL A   1      33.099  35.339  29.093  1.00  0.00    -0.458 OA
BRANCH  17  18
ATOM     18  C   UNL A   1      33.065  34.212  28.353  1.00  0.00     0.338 C 
ATOM     19  O   UNL A   1      32.159  33.815  27.637  1.00  0.00    -0.246 OA
BRANCH  18  20
ATOM     20  C   UNL A   1      34.359  33.519  28.372  1.00  0.00     0.060 A 
ATOM     21  C   UNL A   1      34.417  32.325  29.079  1.00  0.00     0.016 A 
ATOM     22  C   UNL A   1      35.533  34.175  28.002  1.00  0.00     0.016 A 
ATOM     23  C   UNL A   1      35.636  31.869  29.562  1.00  0.00     0.010 A 
ATOM     24  C   UNL A   1      36.772  33.628  28.369  1.00  0.00     0.010 A 
ATOM     25  C   UNL A   1      36.837  32.495  29.201  1.00  0.00    -0.014 A 
BRANCH  25  26
ATOM     26  C   UNL A   1      38.129  31.969  29.731  1.00  0.00     0.031 A 
ATOM     27  C   UNL A   1      38.725  30.686  29.204  1.00  0.00     0.074 A 
ATOM     28  C   UNL A   1      38.815  32.674  30.655  1.00  0.00     0.049 A 
ATOM     29  N   UNL A   1      39.749  30.005  29.657  1.00  0.00    -0.248 NA
ATOM     30  C   UNL A   1      38.084  30.081  28.024  1.00  0.00     0.031 C 
ATOM     31  C   UNL A   1      38.402  33.962  31.220  1.00  0.00     0.029 A 
ATOM     32  N   UNL A   1      40.023  32.425  31.259  1.00  0.00    -0.354 N 
ATOM     33  C   UNL A   1      39.832  28.864  28.868  1.00  0.00     0.074 A 
ATOM     34  C   UNL A   1      38.761  28.947  27.897  1.00  0.00     0.031 C 
ATOM     35  C   UNL A   1      39.371  34.425  32.020  1.00  0.00     0.029 A 
ATOM     36  C   UNL A   1      40.418  33.418  32.123  1.00  0.00     0.049 A 
ATOM     37  H   UNL A   1      40.552  31.613  31.091  1.00  0.00     0.167 HD
ATOM     38  C   UNL A   1      40.712  27.838  28.952  1.00  0.00     0.031 A 
ATOM     39  C   UNL A   1      41.479  33.499  32.947  1.00  0.00     0.031 A 
ATOM     40  C   UNL A   1      41.815  27.782  29.876  1.00  0.00     0.049 A 
ATOM     41  C   UNL A   1      42.427  32.344  33.036  1.00  0.00     0.074 A 
ATOM     42  C   UNL A   1      42.754  26.778  30.042  1.00  0.00     0.029 A 
ATOM     43  N   UNL A   1      42.145  28.788  30.771  1.00  0.00    -0.354 N 
ATOM     44  N   UNL A   1      42.425  31.223  32.358  1.00  0.00    -0.248 NA
ATOM     45  C   UNL A   1      43.505  32.450  34.030  1.00  0.00     0.031 C 
ATOM     46  C   UNL A   1      43.635  27.163  31.058  1.00  0.00     0.029 A 
ATOM     47  C   UNL A   1      43.269  28.424  31.495  1.00  0.00     0.049 A 
ATOM     48  H   UNL A   1      41.654  29.634  30.876  1.00  0.00     0.167 HD
ATOM     49  C   UNL A   1      43.495  30.488  32.845  1.00  0.00     0.074 A 
ATOM     50  C   UNL A   1      44.143  31.303  33.853  1.00  0.00     0.031 C 
ATOM     51  C   UNL A   1      43.894  29.241  32.500  1.00  0.00     0.031 A 
BRANCH  38  52
ATOM     52  C   UNL A   1      40.496  26.657  28.047  1.00  0.00    -0.014 A 
ATOM     53  C   UNL A   1      41.135  26.552  26.803  1.00  0.00     0.009 A 
ATOM     54  C   UNL A   1      39.681  25.598  28.483  1.00  0.00     0.009 A 
ATOM     55  C   UNL A   1      40.942  25.421  26.004  1.00  0.00     0.001 A 
ATOM     56  C   UNL A   1      39.510  24.460  27.694  1.00  0.00     0.001 A 
ATOM     57  C   UNL A   1      40.135  24.375  26.452  1.00  0.00     0.000 A 
ENDBRANCH  38  52
BRANCH  39  58
ATOM     58  C   UNL A   1      41.647  34.695  33.812  1.00  0.00    -0.014 A 
ATOM     59  C   UNL A   1      40.988  34.785  35.047  1.00  0.00     0.009 A 
ATOM     60  C   UNL A   1      42.490  35.747  33.413  1.00  0.00     0.009 A 
ATOM     61  C   UNL A   1      41.164  35.907  35.860  1.00  0.00     0.001 A 
ATOM     62  C   UNL A   1      42.689  36.851  34.242  1.00  0.00     0.001 A 
ATOM     63  C   UNL A   1      42.020  36.934  35.462  1.00  0.00     0.000 A 
ENDBRANCH  39  58
BRANCH  51  64
ATOM     64  C   UNL A   1      45.097  28.696  33.211  1.00  0.00    -0.014 A 
ATOM     65  C   UNL A   1      44.958  27.954  34.394  1.00  0.00     0.009 A 
ATOM     66  C   UNL A   1      46.378  28.920  32.688  1.00  0.00     0.009 A 
ATOM     67  C   UNL A   1      46.088  27.472  35.059  1.00  0.00     0.001 A 
ATOM     68  C   UNL A   1      47.504  28.420  33.344  1.00  0.00     0.001 A 
ATOM     69  C   UNL A   1      47.358  27.704  34.532  1.00  0.00     0.000 A 
ENDBRANCH  51  64
ENDBRANCH  25  26
ENDBRANCH  18  20
ENDBRANCH  17  18
ENDBRANCH   1  17
TORSDOF 13
ENDMDL
