MODEL 1
REMARK VINA RESULT:     -10.3      0.000      0.000
REMARK SMILES Cn1nc(N2CCC(CC(=O)OCCOC(=O)c3ccc(-c4c5nc(c(-c6ccccc6)c6ccc([nH]6)c(-c6ccccc6)c6nc(c(-c7ccccc7)c7ccc4[nH]7)C=C6)C=C5)cc3)CC2)c(=O)n(C)c1=O
REMARK SMILES IDX 13 1 12 2 10 3 11 4 9 5 8 6 5 7 6 8 67 9 7 10 66 11 4 12
REMARK SMILES IDX 1 13 2 14 3 15 72 16 70 17 73 18 68 19 71 20 69 21 14 22
REMARK SMILES IDX 15 23 16 24 17 25 18 26 19 27 65 28 20 29 64 30 21 31 22 32
REMARK SMILES IDX 23 33 58 34 24 35 63 36 57 37 59 38 25 39 62 40 56 41 55 42
REMARK SMILES IDX 26 44 48 45 33 46 47 47 34 48 37 49 46 50 60 51 35 52 36 53
REMARK SMILES IDX 45 55 61 56 38 57 27 58 28 59 32 60 29 61 31 62 30 63 49 64
REMARK SMILES IDX 50 65 54 66 51 67 53 68 52 69 39 70 40 71 44 72 41 73 43 74
REMARK SMILES IDX 42 75
REMARK H PARENT 59 43 37 54
REMARK Flexibility Score: inf
ROOT
ATOM      1  C   UNL A   1      31.515  31.837  26.830  1.00  0.00     0.274 C 
ENDROOT
BRANCH   1   2
ATOM      2  O   UNL A   1      32.349  30.875  26.158  1.00  0.00    -0.462 OA
BRANCH   2   3
ATOM      3  C   UNL A   1      33.181  30.130  26.926  1.00  0.00     0.306 C 
ATOM      4  O   UNL A   1      34.294  30.484  27.296  1.00  0.00    -0.252 OA
BRANCH   3   5
ATOM      5  C   UNL A   1      32.616  28.758  27.237  1.00  0.00     0.126 C 
BRANCH   5   6
ATOM      6  C   UNL A   1      32.108  27.942  26.035  1.00  0.00     0.003 C 
ATOM      7  N   UNL A   1      31.769  25.344  24.809  1.00  0.00    -0.351 N 
ATOM      8  C   UNL A   1      32.742  26.264  24.243  1.00  0.00     0.118 C 
ATOM      9  C   UNL A   1      30.588  25.982  25.375  1.00  0.00     0.118 C 
ATOM     10  C   UNL A   1      33.258  27.200  25.327  1.00  0.00     0.026 C 
ATOM     11  C   UNL A   1      31.025  26.935  26.495  1.00  0.00     0.026 C 
BRANCH   7  12
ATOM     12  C   UNL A   1      32.138  24.056  25.171  1.00  0.00     0.215 A 
ATOM     13  C   UNL A   1      33.517  22.334  28.005  1.00  0.00     0.180 C 
ATOM     14  N   UNL A   1      33.053  22.543  26.645  1.00  0.00    -0.216 N 
ATOM     15  N   UNL A   1      32.671  23.817  26.336  1.00  0.00    -0.145 NA
ATOM     16  C   UNL A   1      33.023  21.462  25.770  1.00  0.00     0.346 A 
ATOM     17  N   UNL A   1      32.520  21.710  24.510  1.00  0.00    -0.259 N 
ATOM     18  O   UNL A   1      33.409  20.341  26.114  1.00  0.00    -0.246 OA
ATOM     19  C   UNL A   1      31.952  22.918  24.160  1.00  0.00     0.299 A 
ATOM     20  C   UNL A   1      32.505  20.657  23.519  1.00  0.00     0.159 C 
ATOM     21  O   UNL A   1      31.353  23.131  23.111  1.00  0.00    -0.265 OA
ENDBRANCH   7  12
ENDBRANCH   5   6
ENDBRANCH   3   5
ENDBRANCH   2   3
ENDBRANCH   1   2
BRANCH   1  22
ATOM     22  C   UNL A   1      32.182  33.212  26.877  1.00  0.00     0.275 C 
BRANCH  22  23
ATOM     23  O   UNL A   1      32.167  33.748  28.212  1.00  0.00    -0.458 OA
BRANCH  23  24
ATOM     24  C   UNL A   1      33.169  34.607  28.505  1.00  0.00     0.338 C 
ATOM     25  O   UNL A   1      33.134  35.824  28.498  1.00  0.00    -0.246 OA
BRANCH  24  26
ATOM     26  C   UNL A   1      34.330  33.839  28.978  1.00  0.00     0.060 A 
ATOM     27  C   UNL A   1      34.107  32.753  29.828  1.00  0.00     0.016 A 
ATOM     28  C   UNL A   1      35.628  34.221  28.631  1.00  0.00     0.016 A 
ATOM     29  C   UNL A   1      35.186  32.036  30.336  1.00  0.00     0.010 A 
ATOM     30  C   UNL A   1      36.710  33.501  29.144  1.00  0.00     0.010 A 
ATOM     31  C   UNL A   1      36.495  32.411  30.006  1.00  0.00    -0.014 A 
BRANCH  31  32
ATOM     32  C   UNL A   1      37.640  31.688  30.605  1.00  0.00     0.031 A 
ATOM     33  C   UNL A   1      38.078  32.014  32.002  1.00  0.00     0.074 A 
ATOM     34  C   UNL A   1      38.258  30.716  29.910  1.00  0.00     0.049 A 
ATOM     35  N   UNL A   1      39.077  31.520  32.690  1.00  0.00    -0.248 NA
ATOM     36  C   UNL A   1      37.284  33.020  32.726  1.00  0.00     0.031 C 
ATOM     37  C   UNL A   1      37.881  30.263  28.570  1.00  0.00     0.029 A 
ATOM     38  N   UNL A   1      39.328  29.925  30.245  1.00  0.00    -0.354 N 
ATOM     39  C   UNL A   1      39.032  32.154  33.924  1.00  0.00     0.074 A 
ATOM     40  C   UNL A   1      37.925  33.085  33.885  1.00  0.00     0.031 C 
ATOM     41  C   UNL A   1      38.697  29.259  28.205  1.00  0.00     0.029 A 
ATOM     42  C   UNL A   1      39.676  29.030  29.263  1.00  0.00     0.049 A 
ATOM     43  H   UNL A   1      39.799  29.991  31.106  1.00  0.00     0.167 HD
ATOM     44  C   UNL A   1      39.837  31.970  34.997  1.00  0.00     0.031 A 
ATOM     45  C   UNL A   1      40.684  28.137  29.217  1.00  0.00     0.031 A 
ATOM     46  C   UNL A   1      40.948  31.058  35.032  1.00  0.00     0.049 A 
ATOM     47  C   UNL A   1      41.630  28.032  30.380  1.00  0.00     0.074 A 
ATOM     48  C   UNL A   1      41.837  30.822  36.066  1.00  0.00     0.029 A 
ATOM     49  N   UNL A   1      41.321  30.229  33.986  1.00  0.00    -0.354 N 
ATOM     50  N   UNL A   1      41.596  28.660  31.531  1.00  0.00    -0.248 NA
ATOM     51  C   UNL A   1      42.759  27.101  30.233  1.00  0.00     0.031 C 
ATOM     52  C   UNL A   1      42.774  29.880  35.630  1.00  0.00     0.029 A 
ATOM     53  C   UNL A   1      42.438  29.495  34.342  1.00  0.00     0.049 A 
ATOM     54  H   UNL A   1      40.859  30.172  33.117  1.00  0.00     0.167 HD
ATOM     55  C   UNL A   1      42.685  28.188  32.251  1.00  0.00     0.074 A 
ATOM     56  C   UNL A   1      43.353  27.212  31.414  1.00  0.00     0.031 C 
ATOM     57  C   UNL A   1      43.094  28.532  33.496  1.00  0.00     0.031 A 
BRANCH  44  58
ATOM     58  C   UNL A   1      39.557  32.794  36.220  1.00  0.00    -0.014 A 
ATOM     59  C   UNL A   1      40.149  34.054  36.392  1.00  0.00     0.009 A 
ATOM     60  C   UNL A   1      38.653  32.326  37.186  1.00  0.00     0.009 A 
ATOM     61  C   UNL A   1      39.856  34.822  37.522  1.00  0.00     0.001 A 
ATOM     62  C   UNL A   1      38.348  33.105  38.304  1.00  0.00     0.001 A 
ATOM     63  C   UNL A   1      38.954  34.350  38.473  1.00  0.00     0.000 A 
ENDBRANCH  44  58
BRANCH  45  64
ATOM     64  C   UNL A   1      40.858  27.276  28.020  1.00  0.00    -0.014 A 
ATOM     65  C   UNL A   1      40.235  26.022  27.950  1.00  0.00     0.009 A 
ATOM     66  C   UNL A   1      41.647  27.704  26.940  1.00  0.00     0.009 A 
ATOM     67  C   UNL A   1      40.407  25.208  26.829  1.00  0.00     0.001 A 
ATOM     68  C   UNL A   1      41.798  26.898  25.811  1.00  0.00     0.001 A 
ATOM     69  C   UNL A   1      41.184  25.648  25.758  1.00  0.00     0.000 A 
ENDBRANCH  45  64
BRANCH  57  70
ATOM     70  C   UNL A   1      44.307  27.838  34.041  1.00  0.00    -0.014 A 
ATOM     71  C   UNL A   1      44.198  26.616  34.721  1.00  0.00     0.009 A 
ATOM     72  C   UNL A   1      45.581  28.385  33.818  1.00  0.00     0.009 A 
ATOM     73  C   UNL A   1      45.342  25.962  35.182  1.00  0.00     0.001 A 
ATOM     74  C   UNL A   1      46.724  27.718  34.261  1.00  0.00     0.001 A 
ATOM     75  C   UNL A   1      46.604  26.510  34.947  1.00  0.00     0.000 A 
ENDBRANCH  57  70
ENDBRANCH  31  32
ENDBRANCH  24  26
ENDBRANCH  23  24
ENDBRANCH  22  23
ENDBRANCH   1  22
TORSDOF 13
ENDMDL
MODEL 2
REMARK VINA RESULT:     -10.3      3.943      8.073
REMARK SMILES Cn1nc(N2CCC(CC(=O)OCCOC(=O)c3ccc(-c4c5nc(c(-c6ccccc6)c6ccc([nH]6)c(-c6ccccc6)c6nc(c(-c7ccccc7)c7ccc4[nH]7)C=C6)C=C5)cc3)CC2)c(=O)n(C)c1=O
REMARK SMILES IDX 13 1 12 2 10 3 11 4 9 5 8 6 5 7 6 8 67 9 7 10 66 11 4 12
REMARK SMILES IDX 1 13 2 14 3 15 72 16 70 17 73 18 68 19 71 20 69 21 14 22
REMARK SMILES IDX 15 23 16 24 17 25 18 26 19 27 65 28 20 29 64 30 21 31 22 32
REMARK SMILES IDX 23 33 58 34 24 35 63 36 57 37 59 38 25 39 62 40 56 41 55 42
REMARK SMILES IDX 26 44 48 45 33 46 47 47 34 48 37 49 46 50 60 51 35 52 36 53
REMARK SMILES IDX 45 55 61 56 38 57 27 58 28 59 32 60 29 61 31 62 30 63 49 64
REMARK SMILES IDX 50 65 54 66 51 67 53 68 52 69 39 70 40 71 44 72 41 73 43 74
REMARK SMILES IDX 42 75
REMARK H PARENT 59 43 37 54
REMARK Flexibility Score: inf
ROOT
ATOM      1  C   UNL A   1      34.790  20.681  25.443  1.00  0.00     0.274 C 
ENDROOT
BRANCH   1   2
ATOM      2  O   UNL A   1      33.872  19.993  24.574  1.00  0.00    -0.462 OA
BRANCH   2   3
ATOM      3  C   UNL A   1      33.015  20.752  23.848  1.00  0.00     0.306 C 
ATOM      4  O   UNL A   1      32.161  20.310  23.090  1.00  0.00    -0.252 OA
BRANCH   3   5
ATOM      5  C   UNL A   1      33.265  22.237  24.018  1.00  0.00     0.126 C 
BRANCH   5   6
ATOM      6  C   UNL A   1      32.392  23.177  23.165  1.00  0.00     0.003 C 
ATOM      7  N   UNL A   1      31.337  25.839  22.761  1.00  0.00    -0.351 N 
ATOM      8  C   UNL A   1      30.431  24.784  23.187  1.00  0.00     0.118 C 
ATOM      9  C   UNL A   1      32.411  25.399  21.881  1.00  0.00     0.118 C 
ATOM     10  C   UNL A   1      31.201  23.731  23.971  1.00  0.00     0.026 C 
ATOM     11  C   UNL A   1      33.249  24.340  22.610  1.00  0.00     0.026 C 
BRANCH   7  12
ATOM     12  C   UNL A   1      31.427  27.027  23.473  1.00  0.00     0.215 A 
ATOM     13  C   UNL A   1      33.214  28.361  26.288  1.00  0.00     0.180 C 
ATOM     14  N   UNL A   1      32.236  28.294  25.216  1.00  0.00    -0.216 N 
ATOM     15  N   UNL A   1      32.198  27.120  24.519  1.00  0.00    -0.145 NA
ATOM     16  C   UNL A   1      31.428  29.399  24.971  1.00  0.00     0.346 A 
ATOM     17  N   UNL A   1      30.560  29.295  23.904  1.00  0.00    -0.259 N 
ATOM     18  O   UNL A   1      31.503  30.420  25.660  1.00  0.00    -0.246 OA
ATOM     19  C   UNL A   1      30.568  28.221  23.039  1.00  0.00     0.299 A 
ATOM     20  C   UNL A   1      29.643  30.375  23.613  1.00  0.00     0.159 C 
ATOM     21  O   UNL A   1      29.929  28.160  21.993  1.00  0.00    -0.265 OA
ENDBRANCH   7  12
ENDBRANCH   5   6
ENDBRANCH   3   5
ENDBRANCH   2   3
ENDBRANCH   1   2
BRANCH   1  22
ATOM     22  C   UNL A   1      36.240  20.433  25.023  1.00  0.00     0.275 C 
BRANCH  22  23
ATOM     23  O   UNL A   1      37.089  21.518  25.439  1.00  0.00    -0.458 OA
BRANCH  23  24
ATOM     24  C   UNL A   1      38.359  21.175  25.752  1.00  0.00     0.338 C 
ATOM     25  O   UNL A   1      38.898  20.094  25.601  1.00  0.00    -0.246 OA
BRANCH  24  26
ATOM     26  C   UNL A   1      39.077  22.375  26.206  1.00  0.00     0.060 A 
ATOM     27  C   UNL A   1      38.508  23.626  25.951  1.00  0.00     0.016 A 
ATOM     28  C   UNL A   1      40.323  22.269  26.826  1.00  0.00     0.016 A 
ATOM     29  C   UNL A   1      39.186  24.783  26.321  1.00  0.00     0.010 A 
ATOM     30  C   UNL A   1      41.003  23.434  27.194  1.00  0.00     0.010 A 
ATOM     31  C   UNL A   1      40.442  24.696  26.935  1.00  0.00    -0.014 A 
BRANCH  31  32
ATOM     32  C   UNL A   1      41.188  25.932  27.263  1.00  0.00     0.031 A 
ATOM     33  C   UNL A   1      40.591  26.934  28.207  1.00  0.00     0.074 A 
ATOM     34  C   UNL A   1      42.413  26.135  26.745  1.00  0.00     0.049 A 
ATOM     35  N   UNL A   1      41.068  28.090  28.592  1.00  0.00    -0.248 NA
ATOM     36  C   UNL A   1      39.292  26.586  28.805  1.00  0.00     0.031 C 
ATOM     37  C   UNL A   1      43.126  25.203  25.869  1.00  0.00     0.029 A 
ATOM     38  N   UNL A   1      43.280  27.188  26.894  1.00  0.00    -0.354 N 
ATOM     39  C   UNL A   1      40.131  28.608  29.475  1.00  0.00     0.074 A 
ATOM     40  C   UNL A   1      39.045  27.654  29.551  1.00  0.00     0.031 C 
ATOM     41  C   UNL A   1      44.331  25.720  25.575  1.00  0.00     0.029 A 
ATOM     42  C   UNL A   1      44.455  27.032  26.202  1.00  0.00     0.049 A 
ATOM     43  H   UNL A   1      43.078  27.978  27.444  1.00  0.00     0.167 HD
ATOM     44  C   UNL A   1      40.174  29.771  30.167  1.00  0.00     0.031 A 
ATOM     45  C   UNL A   1      45.508  27.863  26.077  1.00  0.00     0.031 A 
ATOM     46  C   UNL A   1      41.243  30.729  30.078  1.00  0.00     0.049 A 
ATOM     47  C   UNL A   1      45.481  29.198  26.768  1.00  0.00     0.074 A 
ATOM     48  C   UNL A   1      41.362  31.949  30.722  1.00  0.00     0.029 A 
ATOM     49  N   UNL A   1      42.379  30.573  29.300  1.00  0.00    -0.354 N 
ATOM     50  N   UNL A   1      44.573  29.690  27.576  1.00  0.00    -0.248 NA
ATOM     51  C   UNL A   1      46.620  30.094  26.522  1.00  0.00     0.031 C 
ATOM     52  C   UNL A   1      42.552  32.550  30.299  1.00  0.00     0.029 A 
ATOM     53  C   UNL A   1      43.196  31.682  29.431  1.00  0.00     0.049 A 
ATOM     54  H   UNL A   1      42.575  29.789  28.737  1.00  0.00     0.167 HD
ATOM     55  C   UNL A   1      45.038  30.944  27.948  1.00  0.00     0.074 A 
ATOM     56  C   UNL A   1      46.315  31.132  27.290  1.00  0.00     0.031 C 
ATOM     57  C   UNL A   1      44.460  31.856  28.765  1.00  0.00     0.031 A 
BRANCH  44  58
ATOM     58  C   UNL A   1      39.013  30.084  31.065  1.00  0.00    -0.014 A 
ATOM     59  C   UNL A   1      37.891  30.773  30.581  1.00  0.00     0.009 A 
ATOM     60  C   UNL A   1      39.021  29.643  32.397  1.00  0.00     0.009 A 
ATOM     61  C   UNL A   1      36.806  31.032  31.421  1.00  0.00     0.001 A 
ATOM     62  C   UNL A   1      37.927  29.886  33.229  1.00  0.00     0.001 A 
ATOM     63  C   UNL A   1      36.822  30.585  32.741  1.00  0.00     0.000 A 
ENDBRANCH  44  58
BRANCH  45  64
ATOM     64  C   UNL A   1      46.675  27.462  25.252  1.00  0.00    -0.014 A 
ATOM     65  C   UNL A   1      46.776  27.873  23.916  1.00  0.00     0.009 A 
ATOM     66  C   UNL A   1      47.696  26.665  25.797  1.00  0.00     0.009 A 
ATOM     67  C   UNL A   1      47.868  27.486  23.137  1.00  0.00     0.001 A 
ATOM     68  C   UNL A   1      48.798  26.300  25.023  1.00  0.00     0.001 A 
ATOM     69  C   UNL A   1      48.881  26.705  23.692  1.00  0.00     0.000 A 
ENDBRANCH  45  64
BRANCH  57  70
ATOM     70  C   UNL A   1      45.206  33.135  29.011  1.00  0.00    -0.014 A 
ATOM     71  C   UNL A   1      44.950  34.281  28.244  1.00  0.00     0.009 A 
ATOM     72  C   UNL A   1      46.131  33.210  30.065  1.00  0.00     0.009 A 
ATOM     73  C   UNL A   1      45.622  35.474  28.516  1.00  0.00     0.001 A 
ATOM     74  C   UNL A   1      46.784  34.410  30.348  1.00  0.00     0.001 A 
ATOM     75  C   UNL A   1      46.534  35.540  29.570  1.00  0.00     0.000 A 
ENDBRANCH  57  70
ENDBRANCH  31  32
ENDBRANCH  24  26
ENDBRANCH  23  24
ENDBRANCH  22  23
ENDBRANCH   1  22
TORSDOF 13
ENDMDL
MODEL 3
REMARK VINA RESULT:     -10.3      3.965      8.821
REMARK SMILES Cn1nc(N2CCC(CC(=O)OCCOC(=O)c3ccc(-c4c5nc(c(-c6ccccc6)c6ccc([nH]6)c(-c6ccccc6)c6nc(c(-c7ccccc7)c7ccc4[nH]7)C=C6)C=C5)cc3)CC2)c(=O)n(C)c1=O
REMARK SMILES IDX 13 1 12 2 10 3 11 4 9 5 8 6 5 7 6 8 67 9 7 10 66 11 4 12
REMARK SMILES IDX 1 13 2 14 3 15 72 16 70 17 73 18 68 19 71 20 69 21 14 22
REMARK SMILES IDX 15 23 16 24 17 25 18 26 19 27 65 28 20 29 64 30 21 31 22 32
REMARK SMILES IDX 23 33 58 34 24 35 63 36 57 37 59 38 25 39 62 40 56 41 55 42
REMARK SMILES IDX 26 44 48 45 33 46 47 47 34 48 37 49 46 50 60 51 35 52 36 53
REMARK SMILES IDX 45 55 61 56 38 57 27 58 28 59 32 60 29 61 31 62 30 63 49 64
REMARK SMILES IDX 50 65 54 66 51 67 53 68 52 69 39 70 40 71 44 72 41 73 43 74
REMARK SMILES IDX 42 75
REMARK H PARENT 59 43 37 54
REMARK Flexibility Score: inf
ROOT
ATOM      1  C   UNL A   1      38.039  21.337  25.359  1.00  0.00     0.274 C 
ENDROOT
BRANCH   1   2
ATOM      2  O   UNL A   1      36.998  21.476  24.374  1.00  0.00    -0.462 OA
BRANCH   2   3
ATOM      3  C   UNL A   1      35.719  21.325  24.797  1.00  0.00     0.306 C 
ATOM      4  O   UNL A   1      35.116  20.259  24.831  1.00  0.00    -0.252 OA
BRANCH   3   5
ATOM      5  C   UNL A   1      35.068  22.642  25.170  1.00  0.00     0.126 C 
BRANCH   5   6
ATOM      6  C   UNL A   1      33.978  23.159  24.214  1.00  0.00     0.003 C 
ATOM      7  N   UNL A   1      32.282  25.354  23.396  1.00  0.00    -0.351 N 
ATOM      8  C   UNL A   1      31.676  24.211  24.060  1.00  0.00     0.118 C 
ATOM      9  C   UNL A   1      33.421  25.030  22.548  1.00  0.00     0.118 C 
ATOM     10  C   UNL A   1      32.696  23.548  24.976  1.00  0.00     0.026 C 
ATOM     11  C   UNL A   1      34.507  24.368  23.407  1.00  0.00     0.026 C 
BRANCH   7  12
ATOM     12  C   UNL A   1      32.079  26.641  23.874  1.00  0.00     0.215 A 
ATOM     13  C   UNL A   1      33.123  28.699  26.626  1.00  0.00     0.180 C 
ATOM     14  N   UNL A   1      32.377  28.295  25.447  1.00  0.00    -0.216 N 
ATOM     15  N   UNL A   1      32.625  27.032  24.990  1.00  0.00    -0.145 NA
ATOM     16  C   UNL A   1      31.486  29.195  24.872  1.00  0.00     0.346 A 
ATOM     17  N   UNL A   1      30.850  28.774  23.723  1.00  0.00    -0.259 N 
ATOM     18  O   UNL A   1      31.295  30.314  25.357  1.00  0.00    -0.246 OA
ATOM     19  C   UNL A   1      31.161  27.589  23.091  1.00  0.00     0.299 A 
ATOM     20  C   UNL A   1      29.865  29.625  23.091  1.00  0.00     0.159 C 
ATOM     21  O   UNL A   1      30.739  27.251  21.989  1.00  0.00    -0.265 OA
ENDBRANCH   7  12
ENDBRANCH   5   6
ENDBRANCH   3   5
ENDBRANCH   2   3
ENDBRANCH   1   2
BRANCH   1  22
ATOM     22  C   UNL A   1      38.868  20.075  25.114  1.00  0.00     0.275 C 
BRANCH  22  23
ATOM     23  O   UNL A   1      39.665  19.750  26.266  1.00  0.00    -0.458 OA
BRANCH  23  24
ATOM     24  C   UNL A   1      41.004  19.794  26.078  1.00  0.00     0.338 C 
ATOM     25  O   UNL A   1      41.701  18.985  25.492  1.00  0.00    -0.246 OA
BRANCH  24  26
ATOM     26  C   UNL A   1      41.514  21.073  26.590  1.00  0.00     0.060 A 
ATOM     27  C   UNL A   1      41.411  21.329  27.960  1.00  0.00     0.016 A 
ATOM     28  C   UNL A   1      42.037  22.033  25.720  1.00  0.00     0.016 A 
ATOM     29  C   UNL A   1      41.837  22.551  28.471  1.00  0.00     0.010 A 
ATOM     30  C   UNL A   1      42.461  23.261  26.236  1.00  0.00     0.010 A 
ATOM     31  C   UNL A   1      42.355  23.529  27.612  1.00  0.00    -0.014 A 
BRANCH  31  32
ATOM     32  C   UNL A   1      42.742  24.852  28.152  1.00  0.00     0.031 A 
ATOM     33  C   UNL A   1      41.697  25.911  28.348  1.00  0.00     0.074 A 
ATOM     34  C   UNL A   1      44.020  25.089  28.501  1.00  0.00     0.049 A 
ATOM     35  N   UNL A   1      41.838  27.140  28.773  1.00  0.00    -0.248 NA
ATOM     36  C   UNL A   1      40.309  25.535  28.034  1.00  0.00     0.031 C 
ATOM     37  C   UNL A   1      45.112  24.118  28.420  1.00  0.00     0.029 A 
ATOM     38  N   UNL A   1      44.610  26.219  29.007  1.00  0.00    -0.354 N 
ATOM     39  C   UNL A   1      40.561  27.685  28.778  1.00  0.00     0.074 A 
ATOM     40  C   UNL A   1      39.660  26.663  28.290  1.00  0.00     0.031 C 
ATOM     41  C   UNL A   1      46.237  24.690  28.881  1.00  0.00     0.029 A 
ATOM     42  C   UNL A   1      45.954  26.075  29.245  1.00  0.00     0.049 A 
ATOM     43  H   UNL A   1      44.116  27.052  29.184  1.00  0.00     0.167 HD
ATOM     44  C   UNL A   1      40.172  28.924  29.162  1.00  0.00     0.031 A 
ATOM     45  C   UNL A   1      46.859  26.967  29.693  1.00  0.00     0.031 A 
ATOM     46  C   UNL A   1      41.068  29.947  29.630  1.00  0.00     0.049 A 
ATOM     47  C   UNL A   1      46.419  28.370  30.007  1.00  0.00     0.074 A 
ATOM     48  C   UNL A   1      40.770  31.242  30.017  1.00  0.00     0.029 A 
ATOM     49  N   UNL A   1      42.437  29.789  29.777  1.00  0.00    -0.354 N 
ATOM     50  N   UNL A   1      45.213  28.882  29.978  1.00  0.00    -0.248 NA
ATOM     51  C   UNL A   1      47.469  29.319  30.408  1.00  0.00     0.031 C 
ATOM     52  C   UNL A   1      41.967  31.881  30.359  1.00  0.00     0.029 A 
ATOM     53  C   UNL A   1      43.001  30.969  30.230  1.00  0.00     0.049 A 
ATOM     54  H   UNL A   1      42.935  28.961  29.586  1.00  0.00     0.167 HD
ATOM     55  C   UNL A   1      45.354  30.206  30.372  1.00  0.00     0.074 A 
ATOM     56  C   UNL A   1      46.761  30.415  30.648  1.00  0.00     0.031 C 
ATOM     57  C   UNL A   1      44.403  31.162  30.496  1.00  0.00     0.031 A 
BRANCH  44  58
ATOM     58  C   UNL A   1      38.711  29.249  29.068  1.00  0.00    -0.014 A 
ATOM     59  C   UNL A   1      37.876  29.153  30.192  1.00  0.00     0.009 A 
ATOM     60  C   UNL A   1      38.172  29.704  27.855  1.00  0.00     0.009 A 
ATOM     61  C   UNL A   1      36.523  29.486  30.096  1.00  0.00     0.001 A 
ATOM     62  C   UNL A   1      36.824  30.056  27.767  1.00  0.00     0.001 A 
ATOM     63  C   UNL A   1      36.000  29.941  28.887  1.00  0.00     0.000 A 
ENDBRANCH  44  58
BRANCH  45  64
ATOM     64  C   UNL A   1      48.278  26.564  29.860  1.00  0.00    -0.014 A 
ATOM     65  C   UNL A   1      48.730  26.049  31.084  1.00  0.00     0.009 A 
ATOM     66  C   UNL A   1      49.188  26.690  28.798  1.00  0.00     0.009 A 
ATOM     67  C   UNL A   1      50.067  25.680  31.245  1.00  0.00     0.001 A 
ATOM     68  C   UNL A   1      50.518  26.298  28.955  1.00  0.00     0.001 A 
ATOM     69  C   UNL A   1      50.959  25.799  30.179  1.00  0.00     0.000 A 
ENDBRANCH  45  64
BRANCH  57  70
ATOM     70  C   UNL A   1      44.842  32.517  30.967  1.00  0.00    -0.014 A 
ATOM     71  C   UNL A   1      44.917  32.817  32.336  1.00  0.00     0.009 A 
ATOM     72  C   UNL A   1      45.244  33.484  30.032  1.00  0.00     0.009 A 
ATOM     73  C   UNL A   1      45.371  34.068  32.758  1.00  0.00     0.001 A 
ATOM     74  C   UNL A   1      45.718  34.725  30.458  1.00  0.00     0.001 A 
ATOM     75  C   UNL A   1      45.775  35.019  31.819  1.00  0.00     0.000 A 
ENDBRANCH  57  70
ENDBRANCH  31  32
ENDBRANCH  24  26
ENDBRANCH  23  24
ENDBRANCH  22  23
ENDBRANCH   1  22
TORSDOF 13
ENDMDL
