MODEL 1
REMARK VINA RESULT:     -10.4      0.000      0.000
REMARK SMILES O=C(OCCOC(=O)[C@@H]1C[N@@H+](CC(=O)c2ccc[nH]2)CC[NH2+]1)c1ccc(-c2c3nc(c(-c4ccccc4)c4ccc([nH]4)c(-c4ccccc4)c4nc(c(-c5ccccc5)c5ccc2[nH]5)C=C4)C=C3)cc1
REMARK SMILES IDX 5 1 4 2 3 3 2 4 1 5 23 6 24 7 70 8 25 9 69 10 26 11 27 12
REMARK SMILES IDX 28 13 63 14 29 15 68 16 62 17 64 18 30 19 67 20 61 21 60 22
REMARK SMILES IDX 31 24 53 25 38 26 52 27 39 28 42 29 51 30 65 31 40 32 41 33
REMARK SMILES IDX 50 35 66 36 43 37 32 38 33 39 37 40 34 41 36 42 35 43 54 44
REMARK SMILES IDX 55 45 59 46 56 47 58 48 57 49 44 50 45 51 49 52 46 53 48 54
REMARK SMILES IDX 47 55 6 56 7 57 8 58 9 59 10 60 22 61 11 62 21 63 20 66
REMARK SMILES IDX 12 68 13 69 14 70 15 71 16 72 19 73 17 74 18 75
REMARK H PARENT 64 23 42 34 22 64 22 65 11 67 19 76
REMARK Flexibility Score: inf
ROOT
ATOM      1  C   UNL A   1      38.676  20.644  25.239  1.00  0.00     0.274 C 
ENDROOT
BRANCH   1   2
ATOM      2  C   UNL A   1      38.980  19.265  25.810  1.00  0.00     0.275 C 
BRANCH   2   3
ATOM      3  O   UNL A   1      40.285  18.835  25.376  1.00  0.00    -0.458 OA
BRANCH   3   4
ATOM      4  C   UNL A   1      41.528  19.029  25.858  1.00  0.00     0.338 C 
ATOM      5  O   UNL A   1      42.319  18.089  25.753  1.00  0.00    -0.246 OA
BRANCH   4   6
ATOM      6  C   UNL A   1      42.076  20.307  26.419  1.00  0.00     0.060 A 
ATOM      7  C   UNL A   1      42.207  20.642  27.766  1.00  0.00     0.016 A 
ATOM      8  C   UNL A   1      42.435  21.287  25.463  1.00  0.00     0.016 A 
ATOM      9  C   UNL A   1      42.545  21.942  28.145  1.00  0.00     0.010 A 
ATOM     10  C   UNL A   1      42.792  22.582  25.831  1.00  0.00     0.010 A 
ATOM     11  C   UNL A   1      42.805  22.918  27.180  1.00  0.00    -0.014 A 
BRANCH  11  12
ATOM     12  C   UNL A   1      43.138  24.280  27.649  1.00  0.00     0.031 A 
ATOM     13  C   UNL A   1      41.885  25.147  27.805  1.00  0.00     0.074 A 
ATOM     14  C   UNL A   1      44.474  24.567  27.715  1.00  0.00     0.049 A 
ATOM     15  N   UNL A   1      41.668  26.375  27.444  1.00  0.00    -0.248 NA
ATOM     16  C   UNL A   1      40.657  24.518  28.355  1.00  0.00     0.031 C 
ATOM     17  C   UNL A   1      45.560  23.563  27.594  1.00  0.00     0.029 A 
ATOM     18  N   UNL A   1      45.201  25.726  27.865  1.00  0.00    -0.354 N 
ATOM     19  C   UNL A   1      40.346  26.707  27.822  1.00  0.00     0.074 A 
ATOM     20  C   UNL A   1      39.748  25.496  28.301  1.00  0.00     0.031 C 
ATOM     21  C   UNL A   1      46.772  24.156  27.581  1.00  0.00     0.029 A 
ATOM     22  C   UNL A   1      46.598  25.591  27.656  1.00  0.00     0.049 A 
ATOM     23  H   UNL A   1      44.784  26.585  28.102  1.00  0.00     0.167 HD
ATOM     24  C   UNL A   1      39.858  27.985  27.821  1.00  0.00     0.031 A 
ATOM     25  C   UNL A   1      47.534  26.567  27.449  1.00  0.00     0.031 A 
ATOM     26  C   UNL A   1      40.843  28.897  27.349  1.00  0.00     0.049 A 
ATOM     27  C   UNL A   1      46.780  27.830  27.434  1.00  0.00     0.074 A 
ATOM     28  C   UNL A   1      41.271  29.329  26.123  1.00  0.00     0.029 A 
ATOM     29  N   UNL A   1      41.700  29.389  28.300  1.00  0.00    -0.354 N 
ATOM     30  N   UNL A   1      46.272  28.418  28.470  1.00  0.00    -0.248 NA
ATOM     31  C   UNL A   1      46.449  28.422  26.134  1.00  0.00     0.031 C 
ATOM     32  C   UNL A   1      42.615  29.730  26.341  1.00  0.00     0.029 A 
ATOM     33  C   UNL A   1      42.920  29.549  27.692  1.00  0.00     0.049 A 
ATOM     34  H   UNL A   1      41.481  29.590  29.238  1.00  0.00     0.167 HD
ATOM     35  C   UNL A   1      45.295  29.220  27.927  1.00  0.00     0.074 A 
ATOM     36  C   UNL A   1      45.631  29.391  26.532  1.00  0.00     0.031 C 
ATOM     37  C   UNL A   1      44.080  29.326  28.521  1.00  0.00     0.031 A 
BRANCH  24  38
ATOM     38  C   UNL A   1      38.633  28.599  28.459  1.00  0.00    -0.014 A 
ATOM     39  C   UNL A   1      37.995  29.653  27.756  1.00  0.00     0.009 A 
ATOM     40  C   UNL A   1      38.288  28.439  29.805  1.00  0.00     0.009 A 
ATOM     41  C   UNL A   1      37.169  30.582  28.392  1.00  0.00     0.001 A 
ATOM     42  C   UNL A   1      37.422  29.350  30.436  1.00  0.00     0.001 A 
ATOM     43  C   UNL A   1      36.900  30.442  29.744  1.00  0.00     0.000 A 
ENDBRANCH  24  38
BRANCH  25  44
ATOM     44  C   UNL A   1      48.984  26.637  27.039  1.00  0.00    -0.014 A 
ATOM     45  C   UNL A   1      50.024  27.176  27.801  1.00  0.00     0.009 A 
ATOM     46  C   UNL A   1      49.368  26.095  25.782  1.00  0.00     0.009 A 
ATOM     47  C   UNL A   1      51.369  27.070  27.381  1.00  0.00     0.001 A 
ATOM     48  C   UNL A   1      50.699  25.954  25.376  1.00  0.00     0.001 A 
ATOM     49  C   UNL A   1      51.708  26.428  26.191  1.00  0.00     0.000 A 
ENDBRANCH  25  44
BRANCH  37  50
ATOM     50  C   UNL A   1      44.027  28.743  29.931  1.00  0.00    -0.014 A 
ATOM     51  C   UNL A   1      43.634  27.415  30.141  1.00  0.00     0.009 A 
ATOM     52  C   UNL A   1      44.226  29.540  31.077  1.00  0.00     0.009 A 
ATOM     53  C   UNL A   1      43.430  26.918  31.436  1.00  0.00     0.001 A 
ATOM     54  C   UNL A   1      44.030  29.047  32.372  1.00  0.00     0.001 A 
ATOM     55  C   UNL A   1      43.624  27.732  32.550  1.00  0.00     0.000 A 
ENDBRANCH  37  50
ENDBRANCH  11  12
ENDBRANCH   4   6
ENDBRANCH   3   4
ENDBRANCH   2   3
ENDBRANCH   1   2
BRANCH   1  56
ATOM     56  O   UNL A   1      37.255  20.855  25.232  1.00  0.00    -0.457 OA
BRANCH  56  57
ATOM     57  C   UNL A   1      36.829  22.036  25.752  1.00  0.00     0.371 C 
ATOM     58  O   UNL A   1      37.572  22.996  25.991  1.00  0.00    -0.245 OA
BRANCH  57  59
ATOM     59  C   UNL A   1      35.312  22.102  25.907  1.00  0.00     0.348 C 
ATOM     60  C   UNL A   1      34.655  21.663  24.577  1.00  0.00     0.341 C 
ATOM     61  N   UNL A   1      34.805  23.434  26.342  1.00  0.00    -0.325 N 
ATOM     62  N   UNL A   1      33.187  21.639  24.572  1.00  0.00    -0.318 N 
ATOM     63  C   UNL A   1      33.336  23.338  26.485  1.00  0.00     0.323 C 
ATOM     64  H   UNL A   1      35.039  24.139  25.643  1.00  0.00     0.347 HD
ATOM     65  H   UNL A   1      35.230  23.704  27.228  1.00  0.00     0.347 HD
ATOM     66  C   UNL A   1      32.609  22.828  25.213  1.00  0.00     0.324 C 
ATOM     67  H   UNL A   1      32.909  21.708  23.594  1.00  0.00     0.348 HD
BRANCH  62  68
ATOM     68  C   UNL A   1      32.580  20.344  24.945  1.00  0.00     0.346 C 
BRANCH  68  69
ATOM     69  C   UNL A   1      32.614  19.252  23.875  1.00  0.00     0.232 C 
ATOM     70  O   UNL A   1      32.153  19.471  22.751  1.00  0.00    -0.286 OA
BRANCH  69  71
ATOM     71  C   UNL A   1      33.147  17.943  24.214  1.00  0.00     0.088 A 
ATOM     72  C   UNL A   1      34.440  17.444  24.265  1.00  0.00     0.031 A 
ATOM     73  N   UNL A   1      32.319  16.922  24.635  1.00  0.00    -0.359 N 
ATOM     74  C   UNL A   1      34.387  16.165  24.872  1.00  0.00     0.020 A 
ATOM     75  C   UNL A   1      33.063  15.865  25.075  1.00  0.00     0.083 A 
ATOM     76  H   UNL A   1      31.335  16.952  24.621  1.00  0.00     0.166 HD
ENDBRANCH  69  71
ENDBRANCH  68  69
ENDBRANCH  62  68
ENDBRANCH  57  59
ENDBRANCH  56  57
ENDBRANCH   1  56
TORSDOF 14
ENDMDL
MODEL 2
REMARK VINA RESULT:     -10.2      1.431      2.948
REMARK SMILES O=C(OCCOC(=O)[C@@H]1C[N@@H+](CC(=O)c2ccc[nH]2)CC[NH2+]1)c1ccc(-c2c3nc(c(-c4ccccc4)c4ccc([nH]4)c(-c4ccccc4)c4nc(c(-c5ccccc5)c5ccc2[nH]5)C=C4)C=C3)cc1
REMARK SMILES IDX 5 1 4 2 3 3 2 4 1 5 23 6 24 7 70 8 25 9 69 10 26 11 27 12
REMARK SMILES IDX 28 13 63 14 29 15 68 16 62 17 64 18 30 19 67 20 61 21 60 22
REMARK SMILES IDX 31 24 53 25 38 26 52 27 39 28 42 29 51 30 65 31 40 32 41 33
REMARK SMILES IDX 50 35 66 36 43 37 32 38 33 39 37 40 34 41 36 42 35 43 54 44
REMARK SMILES IDX 55 45 59 46 56 47 58 48 57 49 44 50 45 51 49 52 46 53 48 54
REMARK SMILES IDX 47 55 6 56 7 57 8 58 9 59 10 60 22 61 11 62 21 63 20 66
REMARK SMILES IDX 12 68 13 69 14 70 15 71 16 72 19 73 17 74 18 75
REMARK H PARENT 64 23 42 34 22 64 22 65 11 67 19 76
REMARK Flexibility Score: inf
ROOT
ATOM      1  C   UNL A   1      38.551  21.155  25.605  1.00  0.00     0.274 C 
ENDROOT
BRANCH   1   2
ATOM      2  C   UNL A   1      38.878  19.770  25.059  1.00  0.00     0.275 C 
BRANCH   2   3
ATOM      3  O   UNL A   1      39.912  19.163  25.859  1.00  0.00    -0.458 OA
BRANCH   3   4
ATOM      4  C   UNL A   1      41.232  19.399  25.994  1.00  0.00     0.338 C 
ATOM      5  O   UNL A   1      41.999  18.554  25.528  1.00  0.00    -0.246 OA
BRANCH   4   6
ATOM      6  C   UNL A   1      41.861  20.634  26.566  1.00  0.00     0.060 A 
ATOM      7  C   UNL A   1      42.037  20.937  27.915  1.00  0.00     0.016 A 
ATOM      8  C   UNL A   1      42.256  21.610  25.619  1.00  0.00     0.016 A 
ATOM      9  C   UNL A   1      42.455  22.208  28.310  1.00  0.00     0.010 A 
ATOM     10  C   UNL A   1      42.691  22.877  26.002  1.00  0.00     0.010 A 
ATOM     11  C   UNL A   1      42.750  23.186  27.356  1.00  0.00    -0.014 A 
BRANCH  11  12
ATOM     12  C   UNL A   1      43.168  24.519  27.841  1.00  0.00     0.031 A 
ATOM     13  C   UNL A   1      41.978  25.475  27.968  1.00  0.00     0.074 A 
ATOM     14  C   UNL A   1      44.519  24.707  27.946  1.00  0.00     0.049 A 
ATOM     15  N   UNL A   1      41.860  26.716  27.608  1.00  0.00    -0.248 NA
ATOM     16  C   UNL A   1      40.692  24.935  28.480  1.00  0.00     0.031 C 
ATOM     17  C   UNL A   1      45.532  23.627  27.850  1.00  0.00     0.029 A 
ATOM     18  N   UNL A   1      45.324  25.810  28.123  1.00  0.00    -0.354 N 
ATOM     19  C   UNL A   1      40.556  27.143  27.950  1.00  0.00     0.074 A 
ATOM     20  C   UNL A   1      39.859  25.976  28.407  1.00  0.00     0.031 C 
ATOM     21  C   UNL A   1      46.784  24.130  27.873  1.00  0.00     0.029 A 
ATOM     22  C   UNL A   1      46.712  25.574  27.951  1.00  0.00     0.049 A 
ATOM     23  H   UNL A   1      44.964  26.696  28.353  1.00  0.00     0.167 HD
ATOM     24  C   UNL A   1      40.163  28.453  27.944  1.00  0.00     0.031 A 
ATOM     25  C   UNL A   1      47.723  26.480  27.775  1.00  0.00     0.031 A 
ATOM     26  C   UNL A   1      41.224  29.292  27.504  1.00  0.00     0.049 A 
ATOM     27  C   UNL A   1      47.063  27.795  27.746  1.00  0.00     0.074 A 
ATOM     28  C   UNL A   1      41.717  29.695  26.293  1.00  0.00     0.029 A 
ATOM     29  N   UNL A   1      42.087  29.717  28.480  1.00  0.00    -0.354 N 
ATOM     30  N   UNL A   1      46.570  28.414  28.772  1.00  0.00    -0.248 NA
ATOM     31  C   UNL A   1      46.813  28.413  26.441  1.00  0.00     0.031 C 
ATOM     32  C   UNL A   1      43.079  29.997  26.550  1.00  0.00     0.029 A 
ATOM     33  C   UNL A   1      43.333  29.789  27.907  1.00  0.00     0.049 A 
ATOM     34  H   UNL A   1      41.857  29.930  29.414  1.00  0.00     0.167 HD
ATOM     35  C   UNL A   1      45.670  29.287  28.206  1.00  0.00     0.074 A 
ATOM     36  C   UNL A   1      46.056  29.438  26.822  1.00  0.00     0.031 C 
ATOM     37  C   UNL A   1      44.450  29.480  28.767  1.00  0.00     0.031 A 
BRANCH  24  38
ATOM     38  C   UNL A   1      38.969  29.151  28.550  1.00  0.00    -0.014 A 
ATOM     39  C   UNL A   1      38.737  28.954  29.937  1.00  0.00     0.009 A 
ATOM     40  C   UNL A   1      37.915  29.691  27.806  1.00  0.00     0.009 A 
ATOM     41  C   UNL A   1      37.482  29.149  30.518  1.00  0.00     0.001 A 
ATOM     42  C   UNL A   1      36.663  29.927  28.401  1.00  0.00     0.001 A 
ATOM     43  C   UNL A   1      36.435  29.616  29.741  1.00  0.00     0.000 A 
ENDBRANCH  24  38
BRANCH  25  44
ATOM     44  C   UNL A   1      49.185  26.446  27.407  1.00  0.00    -0.014 A 
ATOM     45  C   UNL A   1      50.242  26.876  28.212  1.00  0.00     0.009 A 
ATOM     46  C   UNL A   1      49.561  25.912  26.143  1.00  0.00     0.009 A 
ATOM     47  C   UNL A   1      51.586  26.675  27.824  1.00  0.00     0.001 A 
ATOM     48  C   UNL A   1      50.887  25.676  25.768  1.00  0.00     0.001 A 
ATOM     49  C   UNL A   1      51.907  26.044  26.623  1.00  0.00     0.000 A 
ENDBRANCH  25  44
BRANCH  37  50
ATOM     50  C   UNL A   1      44.316  28.897  30.171  1.00  0.00    -0.014 A 
ATOM     51  C   UNL A   1      43.817  27.602  30.364  1.00  0.00     0.009 A 
ATOM     52  C   UNL A   1      44.544  29.672  31.327  1.00  0.00     0.009 A 
ATOM     53  C   UNL A   1      43.541  27.117  31.650  1.00  0.00     0.001 A 
ATOM     54  C   UNL A   1      44.276  29.191  32.613  1.00  0.00     0.001 A 
ATOM     55  C   UNL A   1      43.767  27.910  32.774  1.00  0.00     0.000 A 
ENDBRANCH  37  50
ENDBRANCH  11  12
ENDBRANCH   4   6
ENDBRANCH   3   4
ENDBRANCH   2   3
ENDBRANCH   1   2
BRANCH   1  56
ATOM     56  O   UNL A   1      37.490  21.735  24.830  1.00  0.00    -0.457 OA
BRANCH  56  57
ATOM     57  C   UNL A   1      36.458  22.261  25.540  1.00  0.00     0.371 C 
ATOM     58  O   UNL A   1      36.554  23.255  26.270  1.00  0.00    -0.245 OA
BRANCH  57  59
ATOM     59  C   UNL A   1      35.128  21.566  25.255  1.00  0.00     0.348 C 
ATOM     60  C   UNL A   1      34.147  21.874  26.412  1.00  0.00     0.341 C 
ATOM     61  N   UNL A   1      35.248  20.098  25.030  1.00  0.00    -0.325 N 
ATOM     62  N   UNL A   1      32.802  21.302  26.271  1.00  0.00    -0.318 N 
ATOM     63  C   UNL A   1      33.899  19.571  24.732  1.00  0.00     0.323 C 
ATOM     64  H   UNL A   1      35.618  19.648  25.867  1.00  0.00     0.347 HD
ATOM     65  H   UNL A   1      35.882  19.909  24.254  1.00  0.00     0.347 HD
ATOM     66  C   UNL A   1      32.837  19.907  25.811  1.00  0.00     0.324 C 
ATOM     67  H   UNL A   1      32.418  21.256  27.215  1.00  0.00     0.348 HD
BRANCH  62  68
ATOM     68  C   UNL A   1      31.815  22.177  25.608  1.00  0.00     0.346 C 
BRANCH  68  69
ATOM     69  C   UNL A   1      31.193  23.271  26.478  1.00  0.00     0.232 C 
ATOM     70  O   UNL A   1      30.777  23.001  27.610  1.00  0.00    -0.286 OA
BRANCH  69  71
ATOM     71  C   UNL A   1      31.051  24.613  25.939  1.00  0.00     0.088 A 
ATOM     72  C   UNL A   1      30.558  25.089  24.733  1.00  0.00     0.031 A 
ATOM     73  N   UNL A   1      31.384  25.722  26.688  1.00  0.00    -0.359 N 
ATOM     74  C   UNL A   1      30.454  26.498  24.834  1.00  0.00     0.020 A 
ATOM     75  C   UNL A   1      30.986  26.860  26.048  1.00  0.00     0.083 A 
ATOM     76  H   UNL A   1      31.843  25.697  27.560  1.00  0.00     0.166 HD
ENDBRANCH  69  71
ENDBRANCH  68  69
ENDBRANCH  62  68
ENDBRANCH  57  59
ENDBRANCH  56  57
ENDBRANCH   1  56
TORSDOF 14
ENDMDL
MODEL 3
REMARK VINA RESULT:     -10.2      3.000      7.365
REMARK SMILES O=C(OCCOC(=O)[C@@H]1C[N@@H+](CC(=O)c2ccc[nH]2)CC[NH2+]1)c1ccc(-c2c3nc(c(-c4ccccc4)c4ccc([nH]4)c(-c4ccccc4)c4nc(c(-c5ccccc5)c5ccc2[nH]5)C=C4)C=C3)cc1
REMARK SMILES IDX 5 1 4 2 3 3 2 4 1 5 23 6 24 7 70 8 25 9 69 10 26 11 27 12
REMARK SMILES IDX 28 13 63 14 29 15 68 16 62 17 64 18 30 19 67 20 61 21 60 22
REMARK SMILES IDX 31 24 53 25 38 26 52 27 39 28 42 29 51 30 65 31 40 32 41 33
REMARK SMILES IDX 50 35 66 36 43 37 32 38 33 39 37 40 34 41 36 42 35 43 54 44
REMARK SMILES IDX 55 45 59 46 56 47 58 48 57 49 44 50 45 51 49 52 46 53 48 54
REMARK SMILES IDX 47 55 6 56 7 57 8 58 9 59 10 60 22 61 11 62 21 63 20 66
REMARK SMILES IDX 12 68 13 69 14 70 15 71 16 72 19 73 17 74 18 75
REMARK H PARENT 64 23 42 34 22 64 22 65 11 67 19 76
REMARK Flexibility Score: inf
ROOT
ATOM      1  C   UNL A   1      32.946  29.814  26.961  1.00  0.00     0.274 C 
ENDROOT
BRANCH   1   2
ATOM      2  C   UNL A   1      34.340  29.355  27.370  1.00  0.00     0.275 C 
BRANCH   2   3
ATOM      3  O   UNL A   1      34.993  30.395  28.126  1.00  0.00    -0.458 OA
BRANCH   3   4
ATOM      4  C   UNL A   1      36.048  30.403  28.964  1.00  0.00     0.338 C 
ATOM      5  O   UNL A   1      35.941  31.081  29.988  1.00  0.00    -0.246 OA
BRANCH   4   6
ATOM      6  C   UNL A   1      37.300  29.590  28.826  1.00  0.00     0.060 A 
ATOM      7  C   UNL A   1      37.843  28.721  29.772  1.00  0.00     0.016 A 
ATOM      8  C   UNL A   1      38.024  29.786  27.626  1.00  0.00     0.016 A 
ATOM      9  C   UNL A   1      39.117  28.182  29.593  1.00  0.00     0.010 A 
ATOM     10  C   UNL A   1      39.290  29.238  27.429  1.00  0.00     0.010 A 
ATOM     11  C   UNL A   1      39.852  28.466  28.438  1.00  0.00    -0.014 A 
BRANCH  11  12
ATOM     12  C   UNL A   1      41.204  27.880  28.320  1.00  0.00     0.031 A 
ATOM     13  C   UNL A   1      41.149  26.406  27.906  1.00  0.00     0.074 A 
ATOM     14  C   UNL A   1      42.230  28.684  28.734  1.00  0.00     0.049 A 
ATOM     15  N   UNL A   1      41.803  25.383  28.364  1.00  0.00    -0.248 NA
ATOM     16  C   UNL A   1      40.138  25.996  26.898  1.00  0.00     0.031 C 
ATOM     17  C   UNL A   1      42.098  30.130  29.041  1.00  0.00     0.029 A 
ATOM     18  N   UNL A   1      43.563  28.477  29.010  1.00  0.00    -0.354 N 
ATOM     19  C   UNL A   1      41.386  24.244  27.637  1.00  0.00     0.074 A 
ATOM     20  C   UNL A   1      40.298  24.673  26.807  1.00  0.00     0.031 C 
ATOM     21  C   UNL A   1      43.249  30.630  29.538  1.00  0.00     0.029 A 
ATOM     22  C   UNL A   1      44.224  29.565  29.635  1.00  0.00     0.049 A 
ATOM     23  H   UNL A   1      44.024  27.636  28.789  1.00  0.00     0.167 HD
ATOM     24  C   UNL A   1      42.035  23.040  27.680  1.00  0.00     0.031 A 
ATOM     25  C   UNL A   1      45.430  29.580  30.284  1.00  0.00     0.031 A 
ATOM     26  C   UNL A   1      43.134  23.096  28.581  1.00  0.00     0.049 A 
ATOM     27  C   UNL A   1      45.905  28.188  30.252  1.00  0.00     0.074 A 
ATOM     28  C   UNL A   1      43.304  22.950  29.931  1.00  0.00     0.029 A 
ATOM     29  N   UNL A   1      44.316  23.540  28.047  1.00  0.00    -0.354 N 
ATOM     30  N   UNL A   1      46.374  27.575  29.212  1.00  0.00    -0.248 NA
ATOM     31  C   UNL A   1      45.716  27.366  31.451  1.00  0.00     0.031 C 
ATOM     32  C   UNL A   1      44.467  23.706  30.224  1.00  0.00     0.029 A 
ATOM     33  C   UNL A   1      44.959  24.246  29.033  1.00  0.00     0.049 A 
ATOM     34  H   UNL A   1      44.642  23.381  27.131  1.00  0.00     0.167 HD
ATOM     35  C   UNL A   1      46.205  26.247  29.529  1.00  0.00     0.074 A 
ATOM     36  C   UNL A   1      46.072  26.180  30.966  1.00  0.00     0.031 C 
ATOM     37  C   UNL A   1      45.756  25.367  28.599  1.00  0.00     0.031 A 
BRANCH  24  38
ATOM     38  C   UNL A   1      41.967  21.825  26.785  1.00  0.00    -0.014 A 
ATOM     39  C   UNL A   1      40.781  21.047  26.836  1.00  0.00     0.009 A 
ATOM     40  C   UNL A   1      43.081  21.237  26.177  1.00  0.00     0.009 A 
ATOM     41  C   UNL A   1      40.748  19.710  26.434  1.00  0.00     0.001 A 
ATOM     42  C   UNL A   1      43.036  19.903  25.733  1.00  0.00     0.001 A 
ATOM     43  C   UNL A   1      41.887  19.129  25.901  1.00  0.00     0.000 A 
ENDBRANCH  24  38
BRANCH  25  44
ATOM     44  C   UNL A   1      46.208  30.543  31.145  1.00  0.00    -0.014 A 
ATOM     45  C   UNL A   1      47.469  31.068  30.851  1.00  0.00     0.009 A 
ATOM     46  C   UNL A   1      45.627  30.999  32.360  1.00  0.00     0.009 A 
ATOM     47  C   UNL A   1      48.052  32.067  31.661  1.00  0.00     0.001 A 
ATOM     48  C   UNL A   1      46.180  32.014  33.147  1.00  0.00     0.001 A 
ATOM     49  C   UNL A   1      47.393  32.565  32.785  1.00  0.00     0.000 A 
ENDBRANCH  25  44
BRANCH  37  50
ATOM     50  C   UNL A   1      45.760  25.917  27.175  1.00  0.00    -0.014 A 
ATOM     51  C   UNL A   1      46.933  25.916  26.410  1.00  0.00     0.009 A 
ATOM     52  C   UNL A   1      44.640  26.574  26.625  1.00  0.00     0.009 A 
ATOM     53  C   UNL A   1      46.987  26.559  25.166  1.00  0.00     0.001 A 
ATOM     54  C   UNL A   1      44.686  27.213  25.381  1.00  0.00     0.001 A 
ATOM     55  C   UNL A   1      45.866  27.210  24.652  1.00  0.00     0.000 A 
ENDBRANCH  37  50
ENDBRANCH  11  12
ENDBRANCH   4   6
ENDBRANCH   3   4
ENDBRANCH   2   3
ENDBRANCH   1   2
BRANCH   1  56
ATOM     56  O   UNL A   1      32.320  28.792  26.169  1.00  0.00    -0.457 OA
BRANCH  56  57
ATOM     57  C   UNL A   1      31.777  27.757  26.862  1.00  0.00     0.371 C 
ATOM     58  O   UNL A   1      31.305  27.857  28.001  1.00  0.00    -0.245 OA
BRANCH  57  59
ATOM     59  C   UNL A   1      31.702  26.471  26.042  1.00  0.00     0.348 C 
ATOM     60  C   UNL A   1      33.069  25.751  26.119  1.00  0.00     0.341 C 
ATOM     61  N   UNL A   1      31.283  26.677  24.627  1.00  0.00    -0.325 N 
ATOM     62  N   UNL A   1      33.152  24.470  25.406  1.00  0.00    -0.318 N 
ATOM     63  C   UNL A   1      31.219  25.353  23.974  1.00  0.00     0.323 C 
ATOM     64  H   UNL A   1      31.962  27.268  24.148  1.00  0.00     0.347 HD
ATOM     65  H   UNL A   1      30.373  27.135  24.590  1.00  0.00     0.347 HD
ATOM     66  C   UNL A   1      32.532  24.533  24.075  1.00  0.00     0.324 C 
ATOM     67  H   UNL A   1      34.143  24.314  25.225  1.00  0.00     0.348 HD
BRANCH  62  68
ATOM     68  C   UNL A   1      32.824  23.279  26.216  1.00  0.00     0.346 C 
BRANCH  68  69
ATOM     69  C   UNL A   1      34.009  22.424  26.667  1.00  0.00     0.232 C 
ATOM     70  O   UNL A   1      33.899  21.681  27.647  1.00  0.00    -0.286 OA
BRANCH  69  71
ATOM     71  C   UNL A   1      35.274  22.535  25.961  1.00  0.00     0.088 A 
ATOM     72  C   UNL A   1      36.354  23.393  26.105  1.00  0.00     0.031 A 
ATOM     73  N   UNL A   1      35.618  21.641  24.968  1.00  0.00    -0.359 N 
ATOM     74  C   UNL A   1      37.408  22.904  25.296  1.00  0.00     0.020 A 
ATOM     75  C   UNL A   1      36.918  21.830  24.595  1.00  0.00     0.083 A 
ATOM     76  H   UNL A   1      35.014  20.964  24.584  1.00  0.00     0.166 HD
ENDBRANCH  69  71
ENDBRANCH  68  69
ENDBRANCH  62  68
ENDBRANCH  57  59
ENDBRANCH  56  57
ENDBRANCH   1  56
TORSDOF 14
ENDMDL
